# generated using pymatgen
data_LiGaSe2
_symmetry_space_group_name_H-M   'P 1'
_cell_length_a   6.66225702
_cell_length_b   6.96638652
_cell_length_c   8.36314263
_cell_angle_alpha   90.00000000
_cell_angle_beta   90.00000000
_cell_angle_gamma   90.00000000
_symmetry_Int_Tables_number   1
_chemical_formula_structural   LiGaSe2
_chemical_formula_sum   'Li4 Ga4 Se8'
_cell_volume   388.14898397
_cell_formula_units_Z   4
loop_
 _symmetry_equiv_pos_site_id
 _symmetry_equiv_pos_as_xyz
  1  'x, y, z'
loop_
 _atom_site_type_symbol
 _atom_site_label
 _atom_site_symmetry_multiplicity
 _atom_site_fract_x
 _atom_site_fract_y
 _atom_site_fract_z
 _atom_site_occupancy
  Li  Li0  1  0.119219  0.911223  0.621643  1
  Li  Li1  1  0.619219  0.088777  0.378357  1
  Li  Li2  1  0.619219  0.588777  0.121643  1
  Li  Li3  1  0.119219  0.411223  0.878357  1
  Ga  Ga4  1  0.622396  0.573259  0.626126  1
  Ga  Ga5  1  0.122396  0.426741  0.373874  1
  Ga  Ga6  1  0.122396  0.926741  0.126126  1
  Ga  Ga7  1  0.622396  0.073259  0.873874  1
  Se  Se8  1  0.505917  0.906907  0.633715  1
  Se  Se9  1  0.005917  0.093093  0.366285  1
  Se  Se10  1  0.005917  0.593093  0.133715  1
  Se  Se11  1  0.505917  0.406907  0.866285  1
  Se  Se12  1  0.990468  0.066365  0.880775  1
  Se  Se13  1  0.490468  0.933635  0.119225  1
  Se  Se14  1  0.490468  0.433635  0.380775  1
  Se  Se15  1  0.990468  0.566365  0.619225  1
