# generated using pymatgen
data_LiCr(SiO3)2
_symmetry_space_group_name_H-M   'P 1'
_cell_length_a   6.53807846
_cell_length_b   6.53807846
_cell_length_c   5.35339308
_cell_angle_alpha   74.77914047
_cell_angle_beta   105.22085953
_cell_angle_gamma   96.28306727
_symmetry_Int_Tables_number   1
_chemical_formula_structural   LiCr(SiO3)2
_chemical_formula_sum   'Li2 Cr2 Si4 O12'
_cell_volume   212.86358202
_cell_formula_units_Z   2
loop_
 _symmetry_equiv_pos_site_id
 _symmetry_equiv_pos_as_xyz
  1  'x, y, z'
loop_
 _atom_site_type_symbol
 _atom_site_label
 _atom_site_symmetry_multiplicity
 _atom_site_fract_x
 _atom_site_fract_y
 _atom_site_fract_z
 _atom_site_occupancy
  Li  Li0  1  0.741167  0.741167  0.250000  1
  Li  Li1  1  0.258833  0.258833  0.750000  1
  Cr  Cr2  1  0.093197  0.093197  0.250000  1
  Cr  Cr3  1  0.906803  0.906803  0.750000  1
  Si  Si4  1  0.611012  0.207236  0.234121  1
  Si  Si5  1  0.388988  0.792764  0.765879  1
  Si  Si6  1  0.792764  0.388988  0.734121  1
  Si  Si7  1  0.207236  0.611012  0.265879  1
  O  O8  1  0.358065  0.646710  0.055613  1
  O  O9  1  0.353290  0.641935  0.555613  1
  O  O10  1  0.641935  0.353290  0.944387  1
  O  O11  1  0.646710  0.358065  0.444387  1
  O  O12  1  0.970142  0.201434  0.850388  1
  O  O13  1  0.628598  0.889977  0.829600  1
  O  O14  1  0.029858  0.798566  0.149612  1
  O  O15  1  0.798566  0.029858  0.350388  1
  O  O16  1  0.201434  0.970142  0.649612  1
  O  O17  1  0.371402  0.110023  0.170400  1
  O  O18  1  0.110023  0.371402  0.329600  1
  O  O19  1  0.889977  0.628598  0.670400  1
