# generated using pymatgen
data_Li3GaGeO5
_symmetry_space_group_name_H-M   'P 1'
_cell_length_a   5.01458574
_cell_length_b   5.52817779
_cell_length_c   16.05410337
_cell_angle_alpha   90.00000000
_cell_angle_beta   90.00000000
_cell_angle_gamma   90.00000000
_symmetry_Int_Tables_number   1
_chemical_formula_structural   Li3GaGeO5
_chemical_formula_sum   'Li12 Ga4 Ge4 O20'
_cell_volume   445.04417196
_cell_formula_units_Z   4
loop_
 _symmetry_equiv_pos_site_id
 _symmetry_equiv_pos_as_xyz
  1  'x, y, z'
loop_
 _atom_site_type_symbol
 _atom_site_label
 _atom_site_symmetry_multiplicity
 _atom_site_fract_x
 _atom_site_fract_y
 _atom_site_fract_z
 _atom_site_occupancy
  Li  Li0  1  0.492690  0.825873  0.403320  1
  Li  Li1  1  0.992690  0.174127  0.596680  1
  Li  Li2  1  0.992690  0.674127  0.903320  1
  Li  Li3  1  0.492690  0.325873  0.096680  1
  Li  Li4  1  0.494997  0.337612  0.504117  1
  Li  Li5  1  0.994997  0.662388  0.495883  1
  Li  Li6  1  0.994997  0.162388  0.004117  1
  Li  Li7  1  0.494997  0.837612  0.995883  1
  Li  Li8  1  0.493290  0.329307  0.697322  1
  Li  Li9  1  0.993290  0.670693  0.302678  1
  Li  Li10  1  0.993290  0.170693  0.197322  1
  Li  Li11  1  0.493290  0.829307  0.802678  1
  Ga  Ga12  1  0.492799  0.829269  0.200852  1
  Ga  Ga13  1  0.992799  0.170731  0.799148  1
  Ga  Ga14  1  0.992799  0.670731  0.700852  1
  Ga  Ga15  1  0.492799  0.329269  0.299148  1
  Ge  Ge16  1  0.998840  0.661842  0.096762  1
  Ge  Ge17  1  0.498840  0.338158  0.903238  1
  Ge  Ge18  1  0.498840  0.838158  0.596762  1
  Ge  Ge19  1  0.998840  0.161842  0.403238  1
  O  O20  1  0.594137  0.652003  0.294498  1
  O  O21  1  0.136551  0.319266  0.894133  1
  O  O22  1  0.136551  0.819266  0.605867  1
  O  O23  1  0.636551  0.680734  0.105867  1
  O  O24  1  0.100854  0.820234  0.008734  1
  O  O25  1  0.600854  0.179766  0.991266  1
  O  O26  1  0.600854  0.679766  0.508734  1
  O  O27  1  0.100854  0.320234  0.491266  1
  O  O28  1  0.099131  0.360203  0.102099  1
  O  O29  1  0.599131  0.639797  0.897901  1
  O  O30  1  0.599131  0.139797  0.602099  1
  O  O31  1  0.099131  0.860203  0.397901  1
  O  O32  1  0.116710  0.817518  0.191098  1
  O  O33  1  0.616710  0.182482  0.808902  1
  O  O34  1  0.616710  0.682482  0.691098  1
  O  O35  1  0.116710  0.317518  0.308902  1
  O  O36  1  0.094137  0.847997  0.794498  1
  O  O37  1  0.594137  0.152003  0.205502  1
  O  O38  1  0.636551  0.180734  0.394133  1
  O  O39  1  0.094137  0.347997  0.705502  1
