# generated using pymatgen
data_Rb2NbAgS4
_symmetry_space_group_name_H-M   'P 1'
_cell_length_a   13.92598089
_cell_length_b   12.41543383
_cell_length_c   7.59468760
_cell_angle_alpha   84.55662199
_cell_angle_beta   62.56198791
_cell_angle_gamma   32.88139010
_symmetry_Int_Tables_number   1
_chemical_formula_structural   Rb2NbAgS4
_chemical_formula_sum   'Rb4 Nb2 Ag2 S8'
_cell_volume   503.16641867
_cell_formula_units_Z   2
loop_
 _symmetry_equiv_pos_site_id
 _symmetry_equiv_pos_as_xyz
  1  'x, y, z'
loop_
 _atom_site_type_symbol
 _atom_site_label
 _atom_site_symmetry_multiplicity
 _atom_site_fract_x
 _atom_site_fract_y
 _atom_site_fract_z
 _atom_site_occupancy
  Rb  Rb0  1  0.429022  0.429022  0.070978  1
  Rb  Rb1  1  0.820978  0.820978  0.179022  1
  Rb  Rb2  1  0.070978  0.070978  0.429022  1
  Rb  Rb3  1  0.179022  0.179022  0.820978  1
  Nb  Nb4  1  1.000000  0.000000  0.000000  1
  Nb  Nb5  1  0.250000  0.250000  0.250000  1
  Ag  Ag6  1  0.500000  0.500000  0.500000  1
  Ag  Ag7  1  0.750000  0.750000  0.750000  1
  S  S8  1  0.369169  0.742108  0.827778  1
  S  S9  1  0.060946  0.827778  0.742108  1
  S  S10  1  0.827778  0.060946  0.369169  1
  S  S11  1  0.742108  0.369169  0.060946  1
  S  S12  1  0.880831  0.507892  0.422222  1
  S  S13  1  0.507892  0.880831  0.189054  1
  S  S14  1  0.422222  0.189054  0.880831  1
  S  S15  1  0.189054  0.422222  0.507892  1
