# generated using pymatgen
data_CsGe
_symmetry_space_group_name_H-M   'P 1'
_cell_length_a   13.93575639
_cell_length_b   13.93575639
_cell_length_c   13.93575639
_cell_angle_alpha   90.00000000
_cell_angle_beta   90.00000000
_cell_angle_gamma   90.00000000
_symmetry_Int_Tables_number   1
_chemical_formula_structural   CsGe
_chemical_formula_sum   'Cs32 Ge32'
_cell_volume   2706.39783631
_cell_formula_units_Z   32
loop_
 _symmetry_equiv_pos_site_id
 _symmetry_equiv_pos_as_xyz
  1  'x, y, z'
loop_
 _atom_site_type_symbol
 _atom_site_label
 _atom_site_symmetry_multiplicity
 _atom_site_fract_x
 _atom_site_fract_y
 _atom_site_fract_z
 _atom_site_occupancy
  Cs  Cs0  1  0.334584  0.334584  0.334584  1
  Cs  Cs1  1  0.165416  0.834584  0.165416  1
  Cs  Cs2  1  0.165416  0.165416  0.834584  1
  Cs  Cs3  1  0.834584  0.165416  0.165416  1
  Cs  Cs4  1  0.665416  0.665416  0.334584  1
  Cs  Cs5  1  0.334584  0.665416  0.665416  1
  Cs  Cs6  1  0.665416  0.334584  0.665416  1
  Cs  Cs7  1  0.834584  0.834584  0.834584  1
  Cs  Cs8  1  0.338329  0.139033  0.067063  1
  Cs  Cs9  1  0.161671  0.567063  0.360967  1
  Cs  Cs10  1  0.161671  0.432937  0.639033  1
  Cs  Cs11  1  0.432937  0.360967  0.838329  1
  Cs  Cs12  1  0.567063  0.360967  0.161671  1
  Cs  Cs13  1  0.639033  0.161671  0.432937  1
  Cs  Cs14  1  0.360967  0.838329  0.432937  1
  Cs  Cs15  1  0.067063  0.338329  0.139033  1
  Cs  Cs16  1  0.139033  0.067063  0.338329  1
  Cs  Cs17  1  0.860967  0.932937  0.338329  1
  Cs  Cs18  1  0.067063  0.661671  0.860967  1
  Cs  Cs19  1  0.860967  0.067063  0.661671  1
  Cs  Cs20  1  0.932937  0.661671  0.139033  1
  Cs  Cs21  1  0.932937  0.338329  0.860967  1
  Cs  Cs22  1  0.139033  0.932937  0.661671  1
  Cs  Cs23  1  0.338329  0.860967  0.932937  1
  Cs  Cs24  1  0.661671  0.139033  0.932937  1
  Cs  Cs25  1  0.661671  0.860967  0.067063  1
  Cs  Cs26  1  0.360967  0.161671  0.567063  1
  Cs  Cs27  1  0.639033  0.838329  0.567063  1
  Cs  Cs28  1  0.432937  0.639033  0.161671  1
  Cs  Cs29  1  0.567063  0.639033  0.838329  1
  Cs  Cs30  1  0.838329  0.432937  0.360967  1
  Cs  Cs31  1  0.838329  0.567063  0.639033  1
  Ge  Ge32  1  0.066155  0.066155  0.066155  1
  Ge  Ge33  1  0.433845  0.566155  0.433845  1
  Ge  Ge34  1  0.433845  0.433845  0.566155  1
  Ge  Ge35  1  0.566155  0.433845  0.433845  1
  Ge  Ge36  1  0.933845  0.933845  0.066155  1
  Ge  Ge37  1  0.066155  0.933845  0.933845  1
  Ge  Ge38  1  0.933845  0.066155  0.933845  1
  Ge  Ge39  1  0.566155  0.566155  0.566155  1
  Ge  Ge40  1  0.061289  0.314970  0.428178  1
  Ge  Ge41  1  0.438711  0.928178  0.185030  1
  Ge  Ge42  1  0.438711  0.071822  0.814970  1
  Ge  Ge43  1  0.071822  0.185030  0.561289  1
  Ge  Ge44  1  0.928178  0.185030  0.438711  1
  Ge  Ge45  1  0.814970  0.438711  0.071822  1
  Ge  Ge46  1  0.185030  0.561289  0.071822  1
  Ge  Ge47  1  0.428178  0.061289  0.314970  1
  Ge  Ge48  1  0.314970  0.428178  0.061289  1
  Ge  Ge49  1  0.685030  0.571822  0.061289  1
  Ge  Ge50  1  0.428178  0.938711  0.685030  1
  Ge  Ge51  1  0.685030  0.428178  0.938711  1
  Ge  Ge52  1  0.571822  0.938711  0.314970  1
  Ge  Ge53  1  0.571822  0.061289  0.685030  1
  Ge  Ge54  1  0.314970  0.571822  0.938711  1
  Ge  Ge55  1  0.061289  0.685030  0.571822  1
  Ge  Ge56  1  0.938711  0.314970  0.571822  1
  Ge  Ge57  1  0.938711  0.685030  0.428178  1
  Ge  Ge58  1  0.185030  0.438711  0.928178  1
  Ge  Ge59  1  0.814970  0.561289  0.928178  1
  Ge  Ge60  1  0.071822  0.814970  0.438711  1
  Ge  Ge61  1  0.928178  0.814970  0.561289  1
  Ge  Ge62  1  0.561289  0.071822  0.185030  1
  Ge  Ge63  1  0.561289  0.928178  0.814970  1
