# generated using pymatgen
data_CaTeO3
_symmetry_space_group_name_H-M   'P 1'
_cell_length_a   8.77025017
_cell_length_b   5.74821132
_cell_length_c   11.49999471
_cell_angle_alpha   90.00000000
_cell_angle_beta   110.56300330
_cell_angle_gamma   90.00000000
_symmetry_Int_Tables_number   1
_chemical_formula_structural   CaTeO3
_chemical_formula_sum   'Ca6 Te6 O18'
_cell_volume   542.81410366
_cell_formula_units_Z   6
loop_
 _symmetry_equiv_pos_site_id
 _symmetry_equiv_pos_as_xyz
  1  'x, y, z'
loop_
 _atom_site_type_symbol
 _atom_site_label
 _atom_site_symmetry_multiplicity
 _atom_site_fract_x
 _atom_site_fract_y
 _atom_site_fract_z
 _atom_site_occupancy
  Ca  Ca0  1  0.299944  0.815330  0.952094  1
  Ca  Ca1  1  0.700056  0.315330  0.047906  1
  Ca  Ca2  1  0.003293  0.833036  0.131469  1
  Ca  Ca3  1  0.980657  0.261527  0.381451  1
  Ca  Ca4  1  0.019343  0.761527  0.618549  1
  Ca  Ca5  1  0.996707  0.333036  0.868531  1
  Te  Te6  1  0.252598  0.326512  0.172133  1
  Te  Te7  1  0.747402  0.826512  0.827867  1
  Te  Te8  1  0.699361  0.237665  0.525181  1
  Te  Te9  1  0.300639  0.737665  0.474819  1
  Te  Te10  1  0.322382  0.254277  0.754368  1
  Te  Te11  1  0.677618  0.754277  0.245632  1
  O  O12  1  0.079512  0.221130  0.219713  1
  O  O13  1  0.920488  0.721130  0.780287  1
  O  O14  1  0.150131  0.559082  0.052026  1
  O  O15  1  0.849869  0.059082  0.947974  1
  O  O16  1  0.530894  0.642953  0.090818  1
  O  O17  1  0.232807  0.527005  0.798801  1
  O  O18  1  0.235742  0.704763  0.301652  1
  O  O19  1  0.764258  0.204763  0.698348  1
  O  O20  1  0.178697  0.505381  0.518646  1
  O  O21  1  0.821303  0.005381  0.481354  1
  O  O22  1  0.169223  0.978557  0.497652  1
  O  O23  1  0.849115  0.562236  0.237992  1
  O  O24  1  0.208778  0.090445  0.049383  1
  O  O25  1  0.791222  0.590445  0.950617  1
  O  O26  1  0.767193  0.027005  0.201199  1
  O  O27  1  0.830777  0.478557  0.502348  1
  O  O28  1  0.150885  0.062236  0.762008  1
  O  O29  1  0.469106  0.142953  0.909182  1
