# generated using pymatgen
data_NaCr(WO4)2
_symmetry_space_group_name_H-M   'P 1'
_cell_length_a   5.08423066
_cell_length_b   5.80622709
_cell_length_c   9.97987484
_cell_angle_alpha   90.00000000
_cell_angle_beta   90.84958667
_cell_angle_gamma   90.00000000
_symmetry_Int_Tables_number   1
_chemical_formula_structural   NaCr(WO4)2
_chemical_formula_sum   'Na2 Cr2 W4 O16'
_cell_volume   294.57549147
_cell_formula_units_Z   2
loop_
 _symmetry_equiv_pos_site_id
 _symmetry_equiv_pos_as_xyz
  1  'x, y, z'
loop_
 _atom_site_type_symbol
 _atom_site_label
 _atom_site_symmetry_multiplicity
 _atom_site_fract_x
 _atom_site_fract_y
 _atom_site_fract_z
 _atom_site_occupancy
  Na  Na0  1  0.750000  0.686829  0.500000  1
  Na  Na1  1  0.250000  0.313171  0.500000  1
  Cr  Cr2  1  0.750000  0.647829  0.000000  1
  Cr  Cr3  1  0.250000  0.352171  0.000000  1
  W  W4  1  0.763240  0.174667  0.233848  1
  W  W5  1  0.736760  0.174667  0.766152  1
  W  W6  1  0.236760  0.825333  0.766152  1
  W  W7  1  0.263240  0.825333  0.233848  1
  O  O8  1  0.079600  0.124085  0.123476  1
  O  O9  1  0.420400  0.124085  0.876524  1
  O  O10  1  0.920400  0.875915  0.876524  1
  O  O11  1  0.579600  0.875915  0.123476  1
  O  O12  1  0.449880  0.091479  0.328039  1
  O  O13  1  0.050120  0.091479  0.671961  1
  O  O14  1  0.550120  0.908521  0.671961  1
  O  O15  1  0.949880  0.908521  0.328039  1
  O  O16  1  0.591115  0.378916  0.106855  1
  O  O17  1  0.908885  0.378916  0.893145  1
  O  O18  1  0.408885  0.621084  0.893145  1
  O  O19  1  0.091115  0.621084  0.106855  1
  O  O20  1  0.380442  0.623935  0.353080  1
  O  O21  1  0.119558  0.623935  0.646920  1
  O  O22  1  0.619558  0.376065  0.646920  1
  O  O23  1  0.880442  0.376065  0.353080  1
