# generated using pymatgen
data_K6Co2O7
_symmetry_space_group_name_H-M   'P 1'
_cell_length_a   6.63697790
_cell_length_b   9.20836731
_cell_length_c   11.21827845
_cell_angle_alpha   90.00000000
_cell_angle_beta   123.89733133
_cell_angle_gamma   90.00000000
_symmetry_Int_Tables_number   1
_chemical_formula_structural   K6Co2O7
_chemical_formula_sum   'K12 Co4 O14'
_cell_volume   569.08525621
_cell_formula_units_Z   2
loop_
 _symmetry_equiv_pos_site_id
 _symmetry_equiv_pos_as_xyz
  1  'x, y, z'
loop_
 _atom_site_type_symbol
 _atom_site_label
 _atom_site_symmetry_multiplicity
 _atom_site_fract_x
 _atom_site_fract_y
 _atom_site_fract_z
 _atom_site_occupancy
  K  K0  1  0.422114  0.798020  0.787228  1
  K  K1  1  0.577886  0.298020  0.712772  1
  K  K2  1  0.931417  0.348947  0.566851  1
  K  K3  1  0.068583  0.848947  0.933149  1
  K  K4  1  0.068583  0.651053  0.433149  1
  K  K5  1  0.931417  0.151053  0.066851  1
  K  K6  1  0.196754  0.473074  0.942934  1
  K  K7  1  0.803246  0.973074  0.557066  1
  K  K8  1  0.803246  0.526926  0.057066  1
  K  K9  1  0.196754  0.026926  0.442934  1
  K  K10  1  0.577886  0.201980  0.212772  1
  K  K11  1  0.422114  0.701980  0.287228  1
  Co  Co12  1  0.309981  0.356621  0.364293  1
  Co  Co13  1  0.690019  0.856621  0.135707  1
  Co  Co14  1  0.690019  0.643379  0.635707  1
  Co  Co15  1  0.309981  0.143379  0.864293  1
  O  O16  1  0.500000  0.500000  0.500000  1
  O  O17  1  0.500000  0.000000  0.000000  1
  O  O18  1  0.965290  0.667478  0.642387  1
  O  O19  1  0.034710  0.167478  0.857613  1
  O  O20  1  0.499875  0.301640  0.928140  1
  O  O21  1  0.500125  0.801640  0.571860  1
  O  O22  1  0.500125  0.698360  0.071860  1
  O  O23  1  0.499875  0.198360  0.428140  1
  O  O24  1  0.243936  0.404124  0.191428  1
  O  O25  1  0.756064  0.904124  0.308572  1
  O  O26  1  0.756064  0.595876  0.808572  1
  O  O27  1  0.243936  0.095876  0.691428  1
  O  O28  1  0.965290  0.832522  0.142387  1
  O  O29  1  0.034710  0.332522  0.357613  1
