# generated using pymatgen
data_As2Rh
_symmetry_space_group_name_H-M   'P 1'
_cell_length_a   6.15045264
_cell_length_b   6.16741243
_cell_length_c   6.24095978
_cell_angle_alpha   90.00000000
_cell_angle_beta   114.11092863
_cell_angle_gamma   90.00000000
_symmetry_Int_Tables_number   1
_chemical_formula_structural   As2Rh
_chemical_formula_sum   'As8 Rh4'
_cell_volume   216.08085104
_cell_formula_units_Z   4
loop_
 _symmetry_equiv_pos_site_id
 _symmetry_equiv_pos_as_xyz
  1  'x, y, z'
loop_
 _atom_site_type_symbol
 _atom_site_label
 _atom_site_symmetry_multiplicity
 _atom_site_fract_x
 _atom_site_fract_y
 _atom_site_fract_z
 _atom_site_occupancy
  As  As0  1  0.661633  0.869639  0.317600  1
  As  As1  1  0.338367  0.369639  0.182400  1
  As  As2  1  0.338367  0.130361  0.682400  1
  As  As3  1  0.661633  0.630361  0.817600  1
  As  As4  1  0.844862  0.127669  0.129987  1
  As  As5  1  0.155138  0.627669  0.370013  1
  As  As6  1  0.155138  0.872331  0.870013  1
  As  As7  1  0.844862  0.372331  0.629987  1
  Rh  Rh8  1  0.728039  0.499636  0.210232  1
  Rh  Rh9  1  0.271961  0.999636  0.289768  1
  Rh  Rh10  1  0.271961  0.500364  0.789768  1
  Rh  Rh11  1  0.728039  0.000364  0.710232  1
