# generated using pymatgen
data_B6O
_symmetry_space_group_name_H-M   'P 1'
_cell_length_a   5.15348338
_cell_length_b   5.15348338
_cell_length_c   5.15348338
_cell_angle_alpha   63.10621055
_cell_angle_beta   63.10621055
_cell_angle_gamma   63.10621055
_symmetry_Int_Tables_number   1
_chemical_formula_structural   B6O
_chemical_formula_sum   'B12 O2'
_cell_volume   103.44887672
_cell_formula_units_Z   2
loop_
 _symmetry_equiv_pos_site_id
 _symmetry_equiv_pos_as_xyz
  1  'x, y, z'
loop_
 _atom_site_type_symbol
 _atom_site_label
 _atom_site_symmetry_multiplicity
 _atom_site_fract_x
 _atom_site_fract_y
 _atom_site_fract_z
 _atom_site_occupancy
  B  B0  1  0.201171  0.201171  0.676279  1
  B  B1  1  0.676279  0.201171  0.201171  1
  B  B2  1  0.201171  0.676279  0.201171  1
  B  B3  1  0.798829  0.323721  0.798829  1
  B  B4  1  0.798829  0.798829  0.323721  1
  B  B5  1  0.323721  0.798829  0.798829  1
  B  B6  1  0.002303  0.002303  0.333163  1
  B  B7  1  0.333163  0.002303  0.002303  1
  B  B8  1  0.002303  0.333163  0.002303  1
  B  B9  1  0.997697  0.666837  0.997697  1
  B  B10  1  0.997697  0.997697  0.666837  1
  B  B11  1  0.666837  0.997697  0.997697  1
  O  O12  1  0.622267  0.622267  0.622267  1
  O  O13  1  0.377733  0.377733  0.377733  1
