# generated using pymatgen
data_Sm2Si2O7
_symmetry_space_group_name_H-M   'P 1'
_cell_length_a   6.66276306
_cell_length_b   6.77073925
_cell_length_c   12.78995224
_cell_angle_alpha   90.00000000
_cell_angle_beta   108.33302240
_cell_angle_gamma   90.00000000
_symmetry_Int_Tables_number   1
_chemical_formula_structural   Sm2Si2O7
_chemical_formula_sum   'Sm8 Si8 O28'
_cell_volume   547.69326675
_cell_formula_units_Z   4
loop_
 _symmetry_equiv_pos_site_id
 _symmetry_equiv_pos_as_xyz
  1  'x, y, z'
loop_
 _atom_site_type_symbol
 _atom_site_label
 _atom_site_symmetry_multiplicity
 _atom_site_fract_x
 _atom_site_fract_y
 _atom_site_fract_z
 _atom_site_occupancy
  Sm  Sm0  1  0.150469  0.824657  0.846635  1
  Sm  Sm1  1  0.849531  0.324657  0.653365  1
  Sm  Sm2  1  0.849531  0.175343  0.153365  1
  Sm  Sm3  1  0.150469  0.675343  0.346635  1
  Sm  Sm4  1  0.471833  0.609403  0.137915  1
  Sm  Sm5  1  0.528167  0.109403  0.362085  1
  Sm  Sm6  1  0.528167  0.390597  0.862085  1
  Sm  Sm7  1  0.471833  0.890597  0.637915  1
  Si  Si8  1  0.708868  0.920681  0.890060  1
  Si  Si9  1  0.291132  0.420681  0.609940  1
  Si  Si10  1  0.291132  0.079319  0.109940  1
  Si  Si11  1  0.708868  0.579319  0.390060  1
  Si  Si12  1  0.896154  0.672470  0.085422  1
  Si  Si13  1  0.103846  0.172470  0.414578  1
  Si  Si14  1  0.103846  0.327530  0.914578  1
  Si  Si15  1  0.896154  0.827530  0.585422  1
  O  O16  1  0.663025  0.105670  0.959419  1
  O  O17  1  0.336975  0.605670  0.540581  1
  O  O18  1  0.336975  0.894330  0.040581  1
  O  O19  1  0.663025  0.394330  0.459419  1
  O  O20  1  0.790413  0.829441  0.149811  1
  O  O21  1  0.209587  0.329441  0.350189  1
  O  O22  1  0.209587  0.170559  0.850189  1
  O  O23  1  0.790413  0.670559  0.649811  1
  O  O24  1  0.125706  0.591441  0.159795  1
  O  O25  1  0.874294  0.091441  0.340205  1
  O  O26  1  0.874294  0.408559  0.840205  1
  O  O27  1  0.125706  0.908559  0.659795  1
  O  O28  1  0.796575  0.985555  0.789161  1
  O  O29  1  0.203425  0.485555  0.710839  1
  O  O30  1  0.203425  0.014445  0.210839  1
  O  O31  1  0.796575  0.514445  0.289161  1
  O  O32  1  0.905178  0.719841  0.469089  1
  O  O33  1  0.094822  0.219841  0.030911  1
  O  O34  1  0.094822  0.280159  0.530911  1
  O  O35  1  0.905178  0.780159  0.969089  1
  O  O36  1  0.724537  0.012563  0.549767  1
  O  O37  1  0.275463  0.512563  0.950233  1
  O  O38  1  0.275463  0.987437  0.450233  1
  O  O39  1  0.724537  0.487437  0.049767  1
  O  O40  1  0.501454  0.721731  0.332906  1
  O  O41  1  0.498546  0.221731  0.167094  1
  O  O42  1  0.498546  0.278269  0.667094  1
  O  O43  1  0.501454  0.778269  0.832906  1
