# generated using pymatgen
data_Sr2LiIn(B2O5)2
_symmetry_space_group_name_H-M   'P 1'
_cell_length_a   12.89499957
_cell_length_b   5.30810536
_cell_length_c   13.98467242
_cell_angle_alpha   90.00000000
_cell_angle_beta   117.42256765
_cell_angle_gamma   90.00000000
_symmetry_Int_Tables_number   1
_chemical_formula_structural   Sr2LiIn(B2O5)2
_chemical_formula_sum   'Sr8 Li4 In4 B16 O40'
_cell_volume   849.66380755
_cell_formula_units_Z   4
loop_
 _symmetry_equiv_pos_site_id
 _symmetry_equiv_pos_as_xyz
  1  'x, y, z'
loop_
 _atom_site_type_symbol
 _atom_site_label
 _atom_site_symmetry_multiplicity
 _atom_site_fract_x
 _atom_site_fract_y
 _atom_site_fract_z
 _atom_site_occupancy
  Sr  Sr0  1  0.329470  0.373079  0.644411  1
  Sr  Sr1  1  0.670530  0.873079  0.855589  1
  Sr  Sr2  1  0.670530  0.626921  0.355589  1
  Sr  Sr3  1  0.329470  0.126921  0.144411  1
  Sr  Sr4  1  0.024922  0.075655  0.875969  1
  Sr  Sr5  1  0.975078  0.575655  0.624031  1
  Sr  Sr6  1  0.024922  0.424345  0.375969  1
  Sr  Sr7  1  0.975078  0.924345  0.124031  1
  Li  Li8  1  0.517188  0.102007  0.397539  1
  Li  Li9  1  0.517188  0.397993  0.897539  1
  Li  Li10  1  0.482812  0.897993  0.602461  1
  Li  Li11  1  0.482812  0.602007  0.102461  1
  In  In12  1  0.747373  0.427583  0.115410  1
  In  In13  1  0.252627  0.927583  0.384590  1
  In  In14  1  0.252627  0.572417  0.884590  1
  In  In15  1  0.747373  0.072417  0.615410  1
  B  B16  1  0.606940  0.362354  0.710167  1
  B  B17  1  0.852369  0.097339  0.446493  1
  B  B18  1  0.852369  0.402661  0.946493  1
  B  B19  1  0.147631  0.902661  0.553507  1
  B  B20  1  0.393060  0.637646  0.289833  1
  B  B21  1  0.606940  0.137646  0.210167  1
  B  B22  1  0.147631  0.597339  0.053507  1
  B  B23  1  0.393060  0.862354  0.789833  1
  B  B24  1  0.623920  0.920105  0.050411  1
  B  B25  1  0.376080  0.420105  0.449589  1
  B  B26  1  0.623920  0.579895  0.550411  1
  B  B27  1  0.376080  0.079895  0.949589  1
  B  B28  1  0.143189  0.435136  0.231460  1
  B  B29  1  0.856811  0.935136  0.268540  1
  B  B30  1  0.856811  0.564864  0.768540  1
  B  B31  1  0.143189  0.064864  0.731460  1
  O  O32  1  0.426698  0.583712  0.214074  1
  O  O33  1  0.608927  0.570427  0.644525  1
  O  O34  1  0.608927  0.929573  0.144525  1
  O  O35  1  0.391073  0.429573  0.355475  1
  O  O36  1  0.134264  0.206409  0.272691  1
  O  O37  1  0.865736  0.706409  0.227309  1
  O  O38  1  0.865736  0.793591  0.727309  1
  O  O39  1  0.134264  0.293591  0.772691  1
  O  O40  1  0.426698  0.916288  0.714074  1
  O  O41  1  0.391073  0.070427  0.855475  1
  O  O42  1  0.573302  0.416288  0.785926  1
  O  O43  1  0.573302  0.083712  0.285926  1
  O  O44  1  0.875919  0.153927  0.226461  1
  O  O45  1  0.124081  0.653927  0.273539  1
  O  O46  1  0.124081  0.846073  0.773539  1
  O  O47  1  0.875919  0.346073  0.726461  1
  O  O48  1  0.387839  0.186774  0.496490  1
  O  O49  1  0.612161  0.686774  0.003510  1
  O  O50  1  0.612161  0.813226  0.503510  1
  O  O51  1  0.387839  0.313226  0.996490  1
  O  O52  1  0.157299  0.032818  0.472491  1
  O  O53  1  0.842701  0.532818  0.027509  1
  O  O54  1  0.842701  0.967182  0.527509  1
  O  O55  1  0.157299  0.467182  0.972491  1
  O  O56  1  0.361979  0.624190  0.807007  1
  O  O57  1  0.638021  0.124190  0.692993  1
  O  O58  1  0.638021  0.375810  0.192993  1
  O  O59  1  0.361979  0.875810  0.307007  1
  O  O60  1  0.126750  0.653569  0.554916  1
  O  O61  1  0.873250  0.153569  0.945084  1
  O  O62  1  0.873250  0.346431  0.445084  1
  O  O63  1  0.126750  0.846431  0.054916  1
  O  O64  1  0.349522  0.625659  0.493632  1
  O  O65  1  0.650478  0.125659  0.006368  1
  O  O66  1  0.158087  0.427378  0.137844  1
  O  O67  1  0.349522  0.874341  0.993632  1
  O  O68  1  0.158087  0.072622  0.637844  1
  O  O69  1  0.841913  0.572622  0.862156  1
  O  O70  1  0.841913  0.927378  0.362156  1
  O  O71  1  0.650478  0.374341  0.506368  1
