# generated using pymatgen
data_Nd2TiO5
_symmetry_space_group_name_H-M   'P 1'
_cell_length_a   3.85837631
_cell_length_b   10.82526969
_cell_length_c   11.55630749
_cell_angle_alpha   90.00000000
_cell_angle_beta   90.00000000
_cell_angle_gamma   90.00000000
_symmetry_Int_Tables_number   1
_chemical_formula_structural   Nd2TiO5
_chemical_formula_sum   'Nd8 Ti4 O20'
_cell_volume   482.68343662
_cell_formula_units_Z   4
loop_
 _symmetry_equiv_pos_site_id
 _symmetry_equiv_pos_as_xyz
  1  'x, y, z'
loop_
 _atom_site_type_symbol
 _atom_site_label
 _atom_site_symmetry_multiplicity
 _atom_site_fract_x
 _atom_site_fract_y
 _atom_site_fract_z
 _atom_site_occupancy
  Nd  Nd0  1  0.750000  0.105891  0.220496  1
  Nd  Nd1  1  0.250000  0.894109  0.779504  1
  Nd  Nd2  1  0.750000  0.605891  0.279504  1
  Nd  Nd3  1  0.250000  0.394109  0.720496  1
  Nd  Nd4  1  0.250000  0.362360  0.055647  1
  Nd  Nd5  1  0.750000  0.637640  0.944353  1
  Nd  Nd6  1  0.250000  0.862360  0.444353  1
  Nd  Nd7  1  0.750000  0.137640  0.555647  1
  Ti  Ti8  1  0.250000  0.316877  0.375689  1
  Ti  Ti9  1  0.750000  0.683123  0.624311  1
  Ti  Ti10  1  0.250000  0.816877  0.124311  1
  Ti  Ti11  1  0.750000  0.183123  0.875689  1
  O  O12  1  0.250000  0.477657  0.340802  1
  O  O13  1  0.750000  0.522343  0.659198  1
  O  O14  1  0.250000  0.977657  0.159198  1
  O  O15  1  0.750000  0.022343  0.840802  1
  O  O16  1  0.250000  0.232789  0.229196  1
  O  O17  1  0.750000  0.767211  0.770804  1
  O  O18  1  0.250000  0.732789  0.270804  1
  O  O19  1  0.750000  0.267211  0.729196  1
  O  O20  1  0.750000  0.262675  0.378482  1
  O  O21  1  0.250000  0.737325  0.621518  1
  O  O22  1  0.750000  0.762675  0.121518  1
  O  O23  1  0.250000  0.237325  0.878482  1
  O  O24  1  0.250000  0.008721  0.603771  1
  O  O25  1  0.750000  0.991279  0.396229  1
  O  O26  1  0.250000  0.508721  0.896229  1
  O  O27  1  0.750000  0.491279  0.103771  1
  O  O28  1  0.250000  0.276884  0.535883  1
  O  O29  1  0.750000  0.723116  0.464117  1
  O  O30  1  0.250000  0.776884  0.964117  1
  O  O31  1  0.750000  0.223116  0.035883  1
