# generated using pymatgen
data_BaN6
_symmetry_space_group_name_H-M   'P 1'
_cell_length_a   5.52777312
_cell_length_b   4.44218281
_cell_length_c   9.80652461
_cell_angle_alpha   90.00000000
_cell_angle_beta   99.06300503
_cell_angle_gamma   90.00000000
_symmetry_Int_Tables_number   1
_chemical_formula_structural   BaN6
_chemical_formula_sum   'Ba2 N12'
_cell_volume   237.79667502
_cell_formula_units_Z   2
loop_
 _symmetry_equiv_pos_site_id
 _symmetry_equiv_pos_as_xyz
  1  'x, y, z'
loop_
 _atom_site_type_symbol
 _atom_site_label
 _atom_site_symmetry_multiplicity
 _atom_site_fract_x
 _atom_site_fract_y
 _atom_site_fract_z
 _atom_site_occupancy
  Ba  Ba0  1  0.670645  0.750000  0.218772  1
  Ba  Ba1  1  0.329355  0.250000  0.781228  1
  N  N2  1  0.208090  0.750000  0.338107  1
  N  N3  1  0.791910  0.250000  0.661893  1
  N  N4  1  0.359138  0.250000  0.096253  1
  N  N5  1  0.640862  0.750000  0.903747  1
  N  N6  1  0.148952  0.250000  0.110003  1
  N  N7  1  0.851048  0.750000  0.889997  1
  N  N8  1  0.940156  0.250000  0.121542  1
  N  N9  1  0.059844  0.750000  0.878458  1
  N  N10  1  0.721153  0.250000  0.416851  1
  N  N11  1  0.278847  0.750000  0.583149  1
  N  N12  1  0.756451  0.250000  0.539456  1
  N  N13  1  0.243549  0.750000  0.460544  1
