# generated using pymatgen
data_Ca3Ga2(SiO4)3
_symmetry_space_group_name_H-M   'P 1'
_cell_length_a   10.50072969
_cell_length_b   10.50072969
_cell_length_c   10.50072969
_cell_angle_alpha   109.47122063
_cell_angle_beta   109.47122063
_cell_angle_gamma   109.47122063
_symmetry_Int_Tables_number   1
_chemical_formula_structural   Ca3Ga2(SiO4)3
_chemical_formula_sum   'Ca12 Ga8 Si12 O48'
_cell_volume   891.32594049
_cell_formula_units_Z   4
loop_
 _symmetry_equiv_pos_site_id
 _symmetry_equiv_pos_as_xyz
  1  'x, y, z'
loop_
 _atom_site_type_symbol
 _atom_site_label
 _atom_site_symmetry_multiplicity
 _atom_site_fract_x
 _atom_site_fract_y
 _atom_site_fract_z
 _atom_site_occupancy
  Ca  Ca0  1  0.875000  0.625000  0.250000  1
  Ca  Ca1  1  0.625000  0.875000  0.750000  1
  Ca  Ca2  1  0.875000  0.750000  0.625000  1
  Ca  Ca3  1  0.625000  0.250000  0.875000  1
  Ca  Ca4  1  0.750000  0.625000  0.875000  1
  Ca  Ca5  1  0.750000  0.125000  0.375000  1
  Ca  Ca6  1  0.125000  0.375000  0.750000  1
  Ca  Ca7  1  0.375000  0.125000  0.250000  1
  Ca  Ca8  1  0.125000  0.250000  0.375000  1
  Ca  Ca9  1  0.375000  0.750000  0.125000  1
  Ca  Ca10  1  0.250000  0.875000  0.625000  1
  Ca  Ca11  1  0.250000  0.375000  0.125000  1
  Ga  Ga12  1  0.500000  0.500000  0.500000  1
  Ga  Ga13  1  0.500000  0.500000  0.000000  1
  Ga  Ga14  1  0.500000  1.000000  0.500000  1
  Ga  Ga15  1  0.500000  0.000000  0.000000  1
  Ga  Ga16  1  0.000000  0.000000  0.500000  1
  Ga  Ga17  1  0.000000  0.500000  0.000000  1
  Ga  Ga18  1  0.000000  0.000000  0.000000  1
  Ga  Ga19  1  0.000000  0.500000  0.500000  1
  Si  Si20  1  0.250000  0.125000  0.875000  1
  Si  Si21  1  0.625000  0.750000  0.375000  1
  Si  Si22  1  0.250000  0.625000  0.375000  1
  Si  Si23  1  0.375000  0.625000  0.750000  1
  Si  Si24  1  0.750000  0.375000  0.625000  1
  Si  Si25  1  0.875000  0.125000  0.750000  1
  Si  Si26  1  0.125000  0.875000  0.250000  1
  Si  Si27  1  0.125000  0.750000  0.875000  1
  Si  Si28  1  0.625000  0.375000  0.250000  1
  Si  Si29  1  0.375000  0.250000  0.625000  1
  Si  Si30  1  0.750000  0.875000  0.125000  1
  Si  Si31  1  0.875000  0.250000  0.125000  1
  O  O32  1  0.702294  0.693181  0.086213  1
  O  O33  1  0.693181  0.106968  0.990887  1
  O  O34  1  0.616081  0.702294  0.509113  1
  O  O35  1  0.509113  0.616081  0.702294  1
  O  O36  1  0.086213  0.883919  0.393032  1
  O  O37  1  0.393032  0.086213  0.883919  1
  O  O38  1  0.106968  0.990887  0.693181  1
  O  O39  1  0.616081  0.413787  0.106968  1
  O  O40  1  0.509113  0.393032  0.806819  1
  O  O41  1  0.883919  0.990887  0.797706  1
  O  O42  1  0.413787  0.106968  0.616081  1
  O  O43  1  0.806819  0.509113  0.393032  1
  O  O44  1  0.990887  0.797706  0.883919  1
  O  O45  1  0.086213  0.702294  0.693181  1
  O  O46  1  0.693181  0.086213  0.702294  1
  O  O47  1  0.106968  0.616081  0.413787  1
  O  O48  1  0.806819  0.797706  0.413787  1
  O  O49  1  0.393032  0.806819  0.509113  1
  O  O50  1  0.413787  0.806819  0.797706  1
  O  O51  1  0.797706  0.883919  0.990887  1
  O  O52  1  0.797706  0.413787  0.806819  1
  O  O53  1  0.883919  0.393032  0.086213  1
  O  O54  1  0.990887  0.693181  0.106968  1
  O  O55  1  0.702294  0.509113  0.616081  1
  O  O56  1  0.297706  0.306819  0.913787  1
  O  O57  1  0.306819  0.893032  0.009113  1
  O  O58  1  0.383919  0.297706  0.490887  1
  O  O59  1  0.490887  0.383919  0.297706  1
  O  O60  1  0.913787  0.116081  0.606968  1
  O  O61  1  0.606968  0.913787  0.116081  1
  O  O62  1  0.893032  0.009113  0.306819  1
  O  O63  1  0.383919  0.586213  0.893032  1
  O  O64  1  0.490887  0.606968  0.193181  1
  O  O65  1  0.116081  0.009113  0.202294  1
  O  O66  1  0.586213  0.893032  0.383919  1
  O  O67  1  0.193181  0.490887  0.606968  1
  O  O68  1  0.009113  0.202294  0.116081  1
  O  O69  1  0.913787  0.297706  0.306819  1
  O  O70  1  0.306819  0.913787  0.297706  1
  O  O71  1  0.893032  0.383919  0.586213  1
  O  O72  1  0.193181  0.202294  0.586213  1
  O  O73  1  0.606968  0.193181  0.490887  1
  O  O74  1  0.586213  0.193181  0.202294  1
  O  O75  1  0.202294  0.116081  0.009113  1
  O  O76  1  0.202294  0.586213  0.193181  1
  O  O77  1  0.116081  0.606968  0.913787  1
  O  O78  1  0.009113  0.306819  0.893032  1
  O  O79  1  0.297706  0.490887  0.383919  1
