# generated using pymatgen
data_KPrF4
_symmetry_space_group_name_H-M   'P 1'
_cell_length_a   3.81298955
_cell_length_b   6.32760730
_cell_length_c   15.85253821
_cell_angle_alpha   90.00000000
_cell_angle_beta   90.00000000
_cell_angle_gamma   90.00000000
_symmetry_Int_Tables_number   1
_chemical_formula_structural   KPrF4
_chemical_formula_sum   'K4 Pr4 F16'
_cell_volume   382.47578275
_cell_formula_units_Z   4
loop_
 _symmetry_equiv_pos_site_id
 _symmetry_equiv_pos_as_xyz
  1  'x, y, z'
loop_
 _atom_site_type_symbol
 _atom_site_label
 _atom_site_symmetry_multiplicity
 _atom_site_fract_x
 _atom_site_fract_y
 _atom_site_fract_z
 _atom_site_occupancy
  K  K0  1  0.250000  0.721298  0.202662  1
  K  K1  1  0.750000  0.278702  0.797338  1
  K  K2  1  0.250000  0.221298  0.297338  1
  K  K3  1  0.750000  0.778702  0.702662  1
  Pr  Pr4  1  0.750000  0.748386  0.438935  1
  Pr  Pr5  1  0.250000  0.251614  0.561065  1
  Pr  Pr6  1  0.750000  0.248386  0.061065  1
  Pr  Pr7  1  0.250000  0.751614  0.938935  1
  F  F8  1  0.250000  0.589492  0.806627  1
  F  F9  1  0.750000  0.410508  0.193373  1
  F  F10  1  0.250000  0.089492  0.693373  1
  F  F11  1  0.750000  0.910508  0.306627  1
  F  F12  1  0.750000  0.896541  0.865341  1
  F  F13  1  0.250000  0.103459  0.134659  1
  F  F14  1  0.750000  0.396541  0.634659  1
  F  F15  1  0.250000  0.603459  0.365341  1
  F  F16  1  0.750000  0.865112  0.035701  1
  F  F17  1  0.250000  0.134888  0.964299  1
  F  F18  1  0.750000  0.365112  0.464299  1
  F  F19  1  0.250000  0.634888  0.535701  1
  F  F20  1  0.250000  0.005545  0.441661  1
  F  F21  1  0.750000  0.994455  0.558339  1
  F  F22  1  0.250000  0.505545  0.058339  1
  F  F23  1  0.750000  0.494455  0.941661  1
