# generated using pymatgen
data_NaCr(SiO3)2
_symmetry_space_group_name_H-M   'P 1'
_cell_length_a   6.58560795
_cell_length_b   6.58560795
_cell_length_c   5.35555223
_cell_angle_alpha   76.84473056
_cell_angle_beta   103.15526944
_cell_angle_gamma   95.43890270
_symmetry_Int_Tables_number   1
_chemical_formula_structural   NaCr(SiO3)2
_chemical_formula_sum   'Na2 Cr2 Si4 O12'
_cell_volume   220.01400635
_cell_formula_units_Z   2
loop_
 _symmetry_equiv_pos_site_id
 _symmetry_equiv_pos_as_xyz
  1  'x, y, z'
loop_
 _atom_site_type_symbol
 _atom_site_label
 _atom_site_symmetry_multiplicity
 _atom_site_fract_x
 _atom_site_fract_y
 _atom_site_fract_z
 _atom_site_occupancy
  Na  Na0  1  0.296982  0.296982  0.750000  1
  Na  Na1  1  0.703018  0.703018  0.250000  1
  Cr  Cr2  1  0.906384  0.906384  0.750000  1
  Cr  Cr3  1  0.093616  0.093616  0.250000  1
  Si  Si4  1  0.383329  0.798131  0.735131  1
  Si  Si5  1  0.201869  0.616671  0.235131  1
  Si  Si6  1  0.798131  0.383329  0.764869  1
  Si  Si7  1  0.616671  0.201869  0.264869  1
  O  O8  1  0.358668  0.653909  0.513661  1
  O  O9  1  0.653909  0.358668  0.986339  1
  O  O10  1  0.641332  0.346091  0.486339  1
  O  O11  1  0.346091  0.641332  0.013661  1
  O  O12  1  0.617167  0.896849  0.801867  1
  O  O13  1  0.896849  0.617167  0.698133  1
  O  O14  1  0.382833  0.103151  0.198133  1
  O  O15  1  0.103151  0.382833  0.301867  1
  O  O16  1  0.035052  0.806406  0.138404  1
  O  O17  1  0.806406  0.035052  0.361596  1
  O  O18  1  0.964948  0.193594  0.861596  1
  O  O19  1  0.193594  0.964948  0.638404  1
