# generated using pymatgen
data_Ba3CrO5
_symmetry_space_group_name_H-M   'P 1'
_cell_length_a   7.90031096
_cell_length_b   7.90031096
_cell_length_c   7.90031096
_cell_angle_alpha   124.15518379
_cell_angle_beta   124.15518379
_cell_angle_gamma   82.94208564
_symmetry_Int_Tables_number   1
_chemical_formula_structural   Ba3CrO5
_chemical_formula_sum   'Ba6 Cr2 O10'
_cell_volume   324.07497478
_cell_formula_units_Z   2
loop_
 _symmetry_equiv_pos_site_id
 _symmetry_equiv_pos_as_xyz
  1  'x, y, z'
loop_
 _atom_site_type_symbol
 _atom_site_label
 _atom_site_symmetry_multiplicity
 _atom_site_fract_x
 _atom_site_fract_y
 _atom_site_fract_z
 _atom_site_occupancy
  Ba  Ba0  1  0.250000  0.250000  0.000000  1
  Ba  Ba1  1  0.750000  0.750000  0.000000  1
  Ba  Ba2  1  0.819199  0.680801  0.500000  1
  Ba  Ba3  1  0.180801  0.319199  0.500000  1
  Ba  Ba4  1  0.319199  0.819199  0.138398  1
  Ba  Ba5  1  0.680801  0.180801  0.861602  1
  Cr  Cr6  1  0.250000  0.750000  0.500000  1
  Cr  Cr7  1  0.750000  0.250000  0.500000  1
  O  O8  1  0.000000  0.000000  0.000000  1
  O  O9  1  0.500000  0.500000  0.000000  1
  O  O10  1  0.979055  0.479055  0.771642  1
  O  O11  1  0.292587  0.792587  0.771642  1
  O  O12  1  0.020945  0.520945  0.228358  1
  O  O13  1  0.792587  0.020945  0.500000  1
  O  O14  1  0.520945  0.292587  0.500000  1
  O  O15  1  0.207413  0.979055  0.500000  1
  O  O16  1  0.479055  0.707413  0.500000  1
  O  O17  1  0.707413  0.207413  0.228358  1
