# generated using pymatgen
data_As2O3
_symmetry_space_group_name_H-M   'P 1'
_cell_length_a   4.65853148
_cell_length_b   13.82279280
_cell_length_c   7.04693360
_cell_angle_alpha   90.00000000
_cell_angle_beta   126.80571735
_cell_angle_gamma   90.00000000
_symmetry_Int_Tables_number   1
_chemical_formula_structural   As2O3
_chemical_formula_sum   'As8 O12'
_cell_volume   363.32847149
_cell_formula_units_Z   4
loop_
 _symmetry_equiv_pos_site_id
 _symmetry_equiv_pos_as_xyz
  1  'x, y, z'
loop_
 _atom_site_type_symbol
 _atom_site_label
 _atom_site_symmetry_multiplicity
 _atom_site_fract_x
 _atom_site_fract_y
 _atom_site_fract_z
 _atom_site_occupancy
  As  As0  1  0.627478  0.844470  0.129276  1
  As  As1  1  0.372522  0.344470  0.370724  1
  As  As2  1  0.372522  0.155530  0.870724  1
  As  As3  1  0.627478  0.655530  0.629276  1
  As  As4  1  0.778000  0.607661  0.243658  1
  As  As5  1  0.222000  0.107661  0.256342  1
  As  As6  1  0.222000  0.392339  0.756342  1
  As  As7  1  0.778000  0.892339  0.743658  1
  O  O8  1  0.168419  0.647357  0.535342  1
  O  O9  1  0.831581  0.147357  0.964658  1
  O  O10  1  0.831581  0.352643  0.464658  1
  O  O11  1  0.168419  0.852643  0.035342  1
  O  O12  1  0.493034  0.889742  0.840845  1
  O  O13  1  0.506966  0.389742  0.659155  1
  O  O14  1  0.506966  0.110258  0.159155  1
  O  O15  1  0.493034  0.610258  0.340845  1
  O  O16  1  0.630173  0.783694  0.564216  1
  O  O17  1  0.369827  0.283694  0.935784  1
  O  O18  1  0.369827  0.216306  0.435784  1
  O  O19  1  0.630173  0.716306  0.064216  1
