# generated using pymatgen
data_Rb2Te
_symmetry_space_group_name_H-M   'P 1'
_cell_length_a   5.62322190
_cell_length_b   9.22748662
_cell_length_c   11.09754036
_cell_angle_alpha   90.00000000
_cell_angle_beta   90.00000000
_cell_angle_gamma   90.00000000
_symmetry_Int_Tables_number   1
_chemical_formula_structural   Rb2Te
_chemical_formula_sum   'Rb8 Te4'
_cell_volume   575.83144746
_cell_formula_units_Z   4
loop_
 _symmetry_equiv_pos_site_id
 _symmetry_equiv_pos_as_xyz
  1  'x, y, z'
loop_
 _atom_site_type_symbol
 _atom_site_label
 _atom_site_symmetry_multiplicity
 _atom_site_fract_x
 _atom_site_fract_y
 _atom_site_fract_z
 _atom_site_occupancy
  Rb  Rb0  1  0.750000  0.974318  0.170854  1
  Rb  Rb1  1  0.250000  0.025682  0.829146  1
  Rb  Rb2  1  0.750000  0.474318  0.329146  1
  Rb  Rb3  1  0.250000  0.525682  0.670854  1
  Rb  Rb4  1  0.750000  0.853691  0.572025  1
  Rb  Rb5  1  0.250000  0.146309  0.427975  1
  Rb  Rb6  1  0.750000  0.353691  0.927975  1
  Rb  Rb7  1  0.250000  0.646309  0.072025  1
  Te  Te8  1  0.750000  0.750617  0.885275  1
  Te  Te9  1  0.250000  0.249383  0.114725  1
  Te  Te10  1  0.750000  0.250617  0.614725  1
  Te  Te11  1  0.250000  0.749383  0.385275  1
