# generated using pymatgen
data_LiV(SiO3)2
_symmetry_space_group_name_H-M   'P 1'
_cell_length_a   6.62470574
_cell_length_b   6.62470574
_cell_length_c   5.36607759
_cell_angle_alpha   74.41922557
_cell_angle_beta   105.58077443
_cell_angle_gamma   96.26544221
_symmetry_Int_Tables_number   1
_chemical_formula_structural   LiV(SiO3)2
_chemical_formula_sum   'Li2 V2 Si4 O12'
_cell_volume   218.33594832
_cell_formula_units_Z   2
loop_
 _symmetry_equiv_pos_site_id
 _symmetry_equiv_pos_as_xyz
  1  'x, y, z'
loop_
 _atom_site_type_symbol
 _atom_site_label
 _atom_site_symmetry_multiplicity
 _atom_site_fract_x
 _atom_site_fract_y
 _atom_site_fract_z
 _atom_site_occupancy
  Li  Li0  1  0.743307  0.743307  0.250000  1
  Li  Li1  1  0.256693  0.256693  0.750000  1
  V  V2  1  0.097538  0.097538  0.250000  1
  V  V3  1  0.902462  0.902462  0.750000  1
  Si  Si4  1  0.612541  0.208085  0.230819  1
  Si  Si5  1  0.387459  0.791915  0.769181  1
  Si  Si6  1  0.791915  0.387459  0.730819  1
  Si  Si7  1  0.208085  0.612541  0.269181  1
  O  O8  1  0.967671  0.202372  0.850887  1
  O  O9  1  0.349995  0.640834  0.566067  1
  O  O10  1  0.640834  0.349995  0.933933  1
  O  O11  1  0.650005  0.359166  0.433933  1
  O  O12  1  0.359166  0.650005  0.066067  1
  O  O13  1  0.625406  0.884542  0.833130  1
  O  O14  1  0.032329  0.797628  0.149113  1
  O  O15  1  0.797628  0.032329  0.350887  1
  O  O16  1  0.884542  0.625406  0.666870  1
  O  O17  1  0.374594  0.115458  0.166870  1
  O  O18  1  0.115458  0.374594  0.333130  1
  O  O19  1  0.202372  0.967671  0.649113  1
