# generated using pymatgen
data_Sr3Sc2Cu2S2O5
_symmetry_space_group_name_H-M   'P 1'
_cell_length_a   13.39607479
_cell_length_b   13.39607479
_cell_length_c   13.39607479
_cell_angle_alpha   162.41089461
_cell_angle_beta   162.41089461
_cell_angle_gamma   24.97443172
_symmetry_Int_Tables_number   1
_chemical_formula_structural   Sr3Sc2Cu2S2O5
_chemical_formula_sum   'Sr3 Sc2 Cu2 S2 O5'
_cell_volume   219.46461899
_cell_formula_units_Z   1
loop_
 _symmetry_equiv_pos_site_id
 _symmetry_equiv_pos_as_xyz
  1  'x, y, z'
loop_
 _atom_site_type_symbol
 _atom_site_label
 _atom_site_symmetry_multiplicity
 _atom_site_fract_x
 _atom_site_fract_y
 _atom_site_fract_z
 _atom_site_occupancy
  Sr  Sr0  1  0.500000  0.500000  0.000000  1
  Sr  Sr1  1  0.644881  0.644881  0.000000  1
  Sr  Sr2  1  0.355119  0.355119  0.000000  1
  Sc  Sc3  1  0.923709  0.923709  0.000000  1
  Sc  Sc4  1  0.076291  0.076291  0.000000  1
  Cu  Cu5  1  0.750000  0.250000  0.500000  1
  Cu  Cu6  1  0.250000  0.750000  0.500000  1
  S  S7  1  0.800819  0.800819  0.000000  1
  S  S8  1  0.199181  0.199181  0.000000  1
  O  O9  1  0.000000  0.000000  0.000000  1
  O  O10  1  0.913281  0.413281  0.500000  1
  O  O11  1  0.413281  0.913281  0.500000  1
  O  O12  1  0.586719  0.086719  0.500000  1
  O  O13  1  0.086719  0.586719  0.500000  1
