# generated using pymatgen
data_HoCo(BO2)5
_symmetry_space_group_name_H-M   'P 1'
_cell_length_a   8.59580184
_cell_length_b   7.65823843
_cell_length_c   12.33018803
_cell_angle_alpha   90.00000000
_cell_angle_beta   130.21708623
_cell_angle_gamma   90.00000000
_symmetry_Int_Tables_number   1
_chemical_formula_structural   HoCo(BO2)5
_chemical_formula_sum   'Ho4 Co4 B20 O40'
_cell_volume   619.80188874
_cell_formula_units_Z   4
loop_
 _symmetry_equiv_pos_site_id
 _symmetry_equiv_pos_as_xyz
  1  'x, y, z'
loop_
 _atom_site_type_symbol
 _atom_site_label
 _atom_site_symmetry_multiplicity
 _atom_site_fract_x
 _atom_site_fract_y
 _atom_site_fract_z
 _atom_site_occupancy
  Ho  Ho0  1  0.940569  0.314623  0.256181  1
  Ho  Ho1  1  0.059431  0.814623  0.243819  1
  Ho  Ho2  1  0.059431  0.685377  0.743819  1
  Ho  Ho3  1  0.940569  0.185377  0.756181  1
  Co  Co4  1  0.470756  0.097424  0.369656  1
  Co  Co5  1  0.529244  0.597424  0.130344  1
  Co  Co6  1  0.529244  0.902576  0.630344  1
  Co  Co7  1  0.470756  0.402576  0.869656  1
  B  B8  1  0.524276  0.187313  0.089819  1
  B  B9  1  0.475724  0.687313  0.410181  1
  B  B10  1  0.475724  0.812687  0.910181  1
  B  B11  1  0.524276  0.312687  0.589819  1
  B  B12  1  0.848946  0.896898  0.511456  1
  B  B13  1  0.151054  0.396898  0.988544  1
  B  B14  1  0.151054  0.103102  0.488544  1
  B  B15  1  0.848946  0.603102  0.011456  1
  B  B16  1  0.280654  0.967758  0.057881  1
  B  B17  1  0.719346  0.467758  0.442119  1
  B  B18  1  0.719346  0.032242  0.942119  1
  B  B19  1  0.280654  0.532242  0.557881  1
  B  B20  1  0.083259  0.175741  0.101270  1
  B  B21  1  0.916741  0.675741  0.398730  1
  B  B22  1  0.916741  0.824259  0.898730  1
  B  B23  1  0.083259  0.324259  0.601270  1
  B  B24  1  0.665040  0.927735  0.249106  1
  B  B25  1  0.334960  0.427735  0.250894  1
  B  B26  1  0.334960  0.072265  0.750894  1
  B  B27  1  0.665040  0.572265  0.749106  1
  O  O28  1  0.113375  0.056820  0.367781  1
  O  O29  1  0.886625  0.556820  0.132219  1
  O  O30  1  0.886625  0.943180  0.632219  1
  O  O31  1  0.113375  0.443180  0.867781  1
  O  O32  1  0.419926  0.847025  0.428473  1
  O  O33  1  0.580074  0.347025  0.071527  1
  O  O34  1  0.580074  0.152975  0.571527  1
  O  O35  1  0.419926  0.652975  0.928473  1
  O  O36  1  0.330494  0.123401  0.010163  1
  O  O37  1  0.669506  0.623401  0.489837  1
  O  O38  1  0.669506  0.876599  0.989837  1
  O  O39  1  0.330494  0.376599  0.510163  1
  O  O40  1  0.025461  0.266784  0.975175  1
  O  O41  1  0.974539  0.766784  0.524825  1
  O  O42  1  0.974539  0.733216  0.024825  1
  O  O43  1  0.025461  0.233216  0.475175  1
  O  O44  1  0.900790  0.111545  0.077301  1
  O  O45  1  0.099210  0.611545  0.422699  1
  O  O46  1  0.099210  0.888455  0.922699  1
  O  O47  1  0.900790  0.388455  0.577301  1
  O  O48  1  0.232516  0.030317  0.149289  1
  O  O49  1  0.767484  0.530317  0.350711  1
  O  O50  1  0.767484  0.969683  0.850711  1
  O  O51  1  0.232516  0.469683  0.649289  1
  O  O52  1  0.459754  0.852371  0.142716  1
  O  O53  1  0.540246  0.352371  0.357284  1
  O  O54  1  0.540246  0.147629  0.857284  1
  O  O55  1  0.459754  0.647629  0.642716  1
  O  O56  1  0.689176  0.093619  0.201563  1
  O  O57  1  0.310824  0.593619  0.298437  1
  O  O58  1  0.310824  0.906381  0.798437  1
  O  O59  1  0.689176  0.406381  0.701563  1
  O  O60  1  0.695944  0.968406  0.380942  1
  O  O61  1  0.304056  0.468406  0.119058  1
  O  O62  1  0.304056  0.031594  0.619058  1
  O  O63  1  0.695944  0.531594  0.880942  1
  O  O64  1  0.814053  0.797841  0.276252  1
  O  O65  1  0.185947  0.297841  0.223748  1
  O  O66  1  0.185947  0.202159  0.723748  1
  O  O67  1  0.814053  0.702159  0.776252  1
