# generated using pymatgen
data_DyVO4
_symmetry_space_group_name_H-M   'P 1'
_cell_length_a   6.00857080
_cell_length_b   6.00857080
_cell_length_c   6.00857080
_cell_angle_alpha   106.23686967
_cell_angle_beta   106.23686967
_cell_angle_gamma   116.15378716
_symmetry_Int_Tables_number   1
_chemical_formula_structural   DyVO4
_chemical_formula_sum   'Dy2 V2 O8'
_cell_volume   165.26747628
_cell_formula_units_Z   2
loop_
 _symmetry_equiv_pos_site_id
 _symmetry_equiv_pos_as_xyz
  1  'x, y, z'
loop_
 _atom_site_type_symbol
 _atom_site_label
 _atom_site_symmetry_multiplicity
 _atom_site_fract_x
 _atom_site_fract_y
 _atom_site_fract_z
 _atom_site_occupancy
  Dy  Dy0  1  0.250000  0.750000  0.500000  1
  Dy  Dy1  1  1.000000  1.000000  0.000000  1
  V  V2  1  0.500000  0.500000  0.000000  1
  V  V3  1  0.750000  0.250000  0.500000  1
  O  O4  1  0.860837  0.676064  0.184773  1
  O  O5  1  0.491290  0.676064  0.815227  1
  O  O6  1  0.323936  0.139163  0.815227  1
  O  O7  1  0.758710  0.073936  0.684773  1
  O  O8  1  0.389163  0.073936  0.315227  1
  O  O9  1  0.323936  0.508710  0.184773  1
  O  O10  1  0.926064  0.241290  0.315227  1
  O  O11  1  0.926064  0.610837  0.684773  1
