# generated using pymatgen
data_LiVP2O7
_symmetry_space_group_name_H-M   'P 1'
_cell_length_a   4.89869288
_cell_length_b   8.31958368
_cell_length_c   7.04731942
_cell_angle_alpha   90.00000000
_cell_angle_beta   108.28741313
_cell_angle_gamma   90.00000000
_symmetry_Int_Tables_number   1
_chemical_formula_structural   LiVP2O7
_chemical_formula_sum   'Li2 V2 P4 O14'
_cell_volume   272.70819322
_cell_formula_units_Z   2
loop_
 _symmetry_equiv_pos_site_id
 _symmetry_equiv_pos_as_xyz
  1  'x, y, z'
loop_
 _atom_site_type_symbol
 _atom_site_label
 _atom_site_symmetry_multiplicity
 _atom_site_fract_x
 _atom_site_fract_y
 _atom_site_fract_z
 _atom_site_occupancy
  Li  Li0  1  0.326910  0.642645  0.832668  1
  Li  Li1  1  0.673090  0.142645  0.167332  1
  V  V2  1  0.287755  0.000203  0.772371  1
  V  V3  1  0.712245  0.500203  0.227629  1
  P  P4  1  0.100586  0.320629  0.974604  1
  P  P5  1  0.899414  0.820629  0.025396  1
  P  P6  1  0.278580  0.714469  0.413760  1
  P  P7  1  0.721420  0.214469  0.586240  1
  O  O8  1  0.685738  0.961155  0.984607  1
  O  O9  1  0.910305  0.346773  0.744152  1
  O  O10  1  0.909221  0.066726  0.584946  1
  O  O11  1  0.090779  0.566726  0.415054  1
  O  O12  1  0.314262  0.461155  0.015393  1
  O  O13  1  0.089695  0.846773  0.255848  1
  O  O14  1  0.895852  0.324662  0.100858  1
  O  O15  1  0.104148  0.824662  0.899142  1
  O  O16  1  0.537251  0.672902  0.347435  1
  O  O17  1  0.361844  0.800170  0.615117  1
  O  O18  1  0.747986  0.657765  0.007767  1
  O  O19  1  0.252014  0.157765  0.992233  1
  O  O20  1  0.638156  0.300170  0.384883  1
  O  O21  1  0.462749  0.172902  0.652565  1
