# generated using pymatgen
data_Al8(Pb3O7)3
_symmetry_space_group_name_H-M   'P 1'
_cell_length_a   13.47031751
_cell_length_b   13.47031751
_cell_length_c   13.47031751
_cell_angle_alpha   90.00000000
_cell_angle_beta   90.00000000
_cell_angle_gamma   90.00000000
_symmetry_Int_Tables_number   1
_chemical_formula_structural   Al8(Pb3O7)3
_chemical_formula_sum   'Al32 Pb36 O84'
_cell_volume   2444.18175497
_cell_formula_units_Z   4
loop_
 _symmetry_equiv_pos_site_id
 _symmetry_equiv_pos_as_xyz
  1  'x, y, z'
loop_
 _atom_site_type_symbol
 _atom_site_label
 _atom_site_symmetry_multiplicity
 _atom_site_fract_x
 _atom_site_fract_y
 _atom_site_fract_z
 _atom_site_occupancy
  Al  Al0  1  0.218380  0.454585  0.106960  1
  Al  Al1  1  0.106960  0.218380  0.454585  1
  Al  Al2  1  0.454585  0.106960  0.218380  1
  Al  Al3  1  0.045415  0.893040  0.718380  1
  Al  Al4  1  0.606960  0.281620  0.545415  1
  Al  Al5  1  0.545415  0.606960  0.281620  1
  Al  Al6  1  0.393040  0.781620  0.954585  1
  Al  Al7  1  0.893040  0.718380  0.045415  1
  Al  Al8  1  0.954585  0.393040  0.781620  1
  Al  Al9  1  0.718380  0.045415  0.893040  1
  Al  Al10  1  0.781620  0.954585  0.393040  1
  Al  Al11  1  0.281620  0.545415  0.606960  1
  Al  Al12  1  0.781620  0.545415  0.893040  1
  Al  Al13  1  0.893040  0.781620  0.545415  1
  Al  Al14  1  0.545415  0.893040  0.781620  1
  Al  Al15  1  0.954585  0.106960  0.281620  1
  Al  Al16  1  0.393040  0.718380  0.454585  1
  Al  Al17  1  0.454585  0.393040  0.718380  1
  Al  Al18  1  0.606960  0.218380  0.045415  1
  Al  Al19  1  0.106960  0.281620  0.954585  1
  Al  Al20  1  0.045415  0.606960  0.218380  1
  Al  Al21  1  0.281620  0.954585  0.106960  1
  Al  Al22  1  0.218380  0.045415  0.606960  1
  Al  Al23  1  0.718380  0.454585  0.393040  1
  Al  Al24  1  0.074541  0.074541  0.074541  1
  Al  Al25  1  0.425459  0.925459  0.574541  1
  Al  Al26  1  0.574541  0.425459  0.925459  1
  Al  Al27  1  0.925459  0.574541  0.425459  1
  Al  Al28  1  0.925459  0.925459  0.925459  1
  Al  Al29  1  0.574541  0.074541  0.425459  1
  Al  Al30  1  0.425459  0.574541  0.074541  1
  Al  Al31  1  0.074541  0.425459  0.574541  1
  Pb  Pb32  1  0.265371  0.956824  0.376549  1
  Pb  Pb33  1  0.376549  0.265371  0.956824  1
  Pb  Pb34  1  0.956824  0.376549  0.265371  1
  Pb  Pb35  1  0.543176  0.623451  0.765371  1
  Pb  Pb36  1  0.876549  0.234629  0.043176  1
  Pb  Pb37  1  0.043176  0.876549  0.234629  1
  Pb  Pb38  1  0.123451  0.734629  0.456824  1
  Pb  Pb39  1  0.623451  0.765371  0.543176  1
  Pb  Pb40  1  0.456824  0.123451  0.734629  1
  Pb  Pb41  1  0.765371  0.543176  0.623451  1
  Pb  Pb42  1  0.734629  0.456824  0.123451  1
  Pb  Pb43  1  0.234629  0.043176  0.876549  1
  Pb  Pb44  1  0.734629  0.043176  0.623451  1
  Pb  Pb45  1  0.623451  0.734629  0.043176  1
  Pb  Pb46  1  0.043176  0.623451  0.734629  1
  Pb  Pb47  1  0.456824  0.376549  0.234629  1
  Pb  Pb48  1  0.123451  0.765371  0.956824  1
  Pb  Pb49  1  0.956824  0.123451  0.765371  1
  Pb  Pb50  1  0.876549  0.265371  0.543176  1
  Pb  Pb51  1  0.376549  0.234629  0.456824  1
  Pb  Pb52  1  0.543176  0.876549  0.265371  1
  Pb  Pb53  1  0.234629  0.456824  0.376549  1
  Pb  Pb54  1  0.265371  0.543176  0.876549  1
  Pb  Pb55  1  0.765371  0.956824  0.123451  1
  Pb  Pb56  1  0.500000  0.500000  0.500000  1
  Pb  Pb57  1  0.000000  0.500000  0.000000  1
  Pb  Pb58  1  0.000000  0.000000  0.500000  1
  Pb  Pb59  1  0.500000  0.000000  0.000000  1
  Pb  Pb60  1  0.224482  0.224482  0.224482  1
  Pb  Pb61  1  0.275518  0.775518  0.724482  1
  Pb  Pb62  1  0.724482  0.275518  0.775518  1
  Pb  Pb63  1  0.775518  0.724482  0.275518  1
  Pb  Pb64  1  0.775518  0.775518  0.775518  1
  Pb  Pb65  1  0.724482  0.224482  0.275518  1
  Pb  Pb66  1  0.275518  0.724482  0.224482  1
  Pb  Pb67  1  0.224482  0.275518  0.724482  1
  O  O68  1  0.047171  0.054074  0.203064  1
  O  O69  1  0.203064  0.047171  0.054074  1
  O  O70  1  0.054074  0.203064  0.047171  1
  O  O71  1  0.445926  0.796936  0.547171  1
  O  O72  1  0.703064  0.452829  0.945926  1
  O  O73  1  0.945926  0.703064  0.452829  1
  O  O74  1  0.296936  0.952829  0.554074  1
  O  O75  1  0.796936  0.547171  0.445926  1
  O  O76  1  0.554074  0.296936  0.952829  1
  O  O77  1  0.547171  0.445926  0.796936  1
  O  O78  1  0.952829  0.554074  0.296936  1
  O  O79  1  0.452829  0.945926  0.703064  1
  O  O80  1  0.952829  0.945926  0.796936  1
  O  O81  1  0.796936  0.952829  0.945926  1
  O  O82  1  0.945926  0.796936  0.952829  1
  O  O83  1  0.554074  0.203064  0.452829  1
  O  O84  1  0.296936  0.547171  0.054074  1
  O  O85  1  0.054074  0.296936  0.547171  1
  O  O86  1  0.703064  0.047171  0.445926  1
  O  O87  1  0.203064  0.452829  0.554074  1
  O  O88  1  0.445926  0.703064  0.047171  1
  O  O89  1  0.452829  0.554074  0.203064  1
  O  O90  1  0.047171  0.445926  0.703064  1
  O  O91  1  0.547171  0.054074  0.296936  1
  O  O92  1  0.711809  0.621029  0.809562  1
  O  O93  1  0.809562  0.711809  0.621029  1
  O  O94  1  0.621029  0.809562  0.711809  1
  O  O95  1  0.878971  0.190438  0.211809  1
  O  O96  1  0.309562  0.788191  0.378971  1
  O  O97  1  0.378971  0.309562  0.788191  1
  O  O98  1  0.690438  0.288191  0.121029  1
  O  O99  1  0.190438  0.211809  0.878971  1
  O  O100  1  0.121029  0.690438  0.288191  1
  O  O101  1  0.211809  0.878971  0.190438  1
  O  O102  1  0.288191  0.121029  0.690438  1
  O  O103  1  0.788191  0.378971  0.309562  1
  O  O104  1  0.288191  0.378971  0.190438  1
  O  O105  1  0.190438  0.288191  0.378971  1
  O  O106  1  0.378971  0.190438  0.288191  1
  O  O107  1  0.121029  0.809562  0.788191  1
  O  O108  1  0.690438  0.211809  0.621029  1
  O  O109  1  0.621029  0.690438  0.211809  1
  O  O110  1  0.309562  0.711809  0.878971  1
  O  O111  1  0.809562  0.788191  0.121029  1
  O  O112  1  0.878971  0.309562  0.711809  1
  O  O113  1  0.788191  0.121029  0.809562  1
  O  O114  1  0.711809  0.878971  0.309562  1
  O  O115  1  0.211809  0.621029  0.690438  1
  O  O116  1  0.000000  0.000000  0.000000  1
  O  O117  1  0.500000  0.000000  0.500000  1
  O  O118  1  0.500000  0.500000  0.000000  1
  O  O119  1  0.000000  0.500000  0.500000  1
  O  O120  1  0.384841  0.493346  0.669615  1
  O  O121  1  0.669615  0.384841  0.493346  1
  O  O122  1  0.493346  0.669615  0.384841  1
  O  O123  1  0.006654  0.330385  0.884841  1
  O  O124  1  0.169615  0.115159  0.506654  1
  O  O125  1  0.506654  0.169615  0.115159  1
  O  O126  1  0.830385  0.615159  0.993346  1
  O  O127  1  0.330385  0.884841  0.006654  1
  O  O128  1  0.993346  0.830385  0.615159  1
  O  O129  1  0.884841  0.006654  0.330385  1
  O  O130  1  0.615159  0.993346  0.830385  1
  O  O131  1  0.115159  0.506654  0.169615  1
  O  O132  1  0.615159  0.506654  0.330385  1
  O  O133  1  0.330385  0.615159  0.506654  1
  O  O134  1  0.506654  0.330385  0.615159  1
  O  O135  1  0.993346  0.669615  0.115159  1
  O  O136  1  0.830385  0.884841  0.493346  1
  O  O137  1  0.493346  0.830385  0.884841  1
  O  O138  1  0.169615  0.384841  0.006654  1
  O  O139  1  0.669615  0.115159  0.993346  1
  O  O140  1  0.006654  0.169615  0.384841  1
  O  O141  1  0.115159  0.993346  0.669615  1
  O  O142  1  0.384841  0.006654  0.169615  1
  O  O143  1  0.884841  0.493346  0.830385  1
  O  O144  1  0.392198  0.392198  0.392198  1
  O  O145  1  0.107802  0.607802  0.892198  1
  O  O146  1  0.892198  0.107802  0.607802  1
  O  O147  1  0.607802  0.892198  0.107802  1
  O  O148  1  0.607802  0.607802  0.607802  1
  O  O149  1  0.892198  0.392198  0.107802  1
  O  O150  1  0.107802  0.892198  0.392198  1
  O  O151  1  0.392198  0.107802  0.892198  1
