# generated using pymatgen
data_Na2CrO4
_symmetry_space_group_name_H-M   'P 1'
_cell_length_a   5.55851168
_cell_length_b   5.55851168
_cell_length_c   7.18656922
_cell_angle_alpha   90.00000000
_cell_angle_beta   90.00000000
_cell_angle_gamma   114.83650020
_symmetry_Int_Tables_number   1
_chemical_formula_structural   Na2CrO4
_chemical_formula_sum   'Na4 Cr2 O8'
_cell_volume   201.50699090
_cell_formula_units_Z   2
loop_
 _symmetry_equiv_pos_site_id
 _symmetry_equiv_pos_as_xyz
  1  'x, y, z'
loop_
 _atom_site_type_symbol
 _atom_site_label
 _atom_site_symmetry_multiplicity
 _atom_site_fract_x
 _atom_site_fract_y
 _atom_site_fract_z
 _atom_site_occupancy
  Na  Na0  1  0.316948  0.683052  0.250000  1
  Na  Na1  1  0.683052  0.316948  0.750000  1
  Na  Na2  1  0.000000  0.000000  0.500000  1
  Na  Na3  1  0.000000  0.000000  0.000000  1
  Cr  Cr4  1  0.646307  0.353693  0.250000  1
  Cr  Cr5  1  0.353693  0.646307  0.750000  1
  O  O6  1  0.250687  0.749313  0.937415  1
  O  O7  1  0.749313  0.250687  0.437415  1
  O  O8  1  0.749313  0.250687  0.062585  1
  O  O9  1  0.250687  0.749313  0.562585  1
  O  O10  1  0.769277  0.685746  0.250000  1
  O  O11  1  0.230723  0.314254  0.750000  1
  O  O12  1  0.314254  0.230723  0.250000  1
  O  O13  1  0.685746  0.769277  0.750000  1
