# generated using pymatgen
data_Sr(ScS2)2
_symmetry_space_group_name_H-M   'P 1'
_cell_length_a   3.80434035
_cell_length_b   11.72611899
_cell_length_c   13.74470303
_cell_angle_alpha   90.00000000
_cell_angle_beta   90.00000000
_cell_angle_gamma   90.00000000
_symmetry_Int_Tables_number   1
_chemical_formula_structural   Sr(ScS2)2
_chemical_formula_sum   'Sr4 Sc8 S16'
_cell_volume   613.15323120
_cell_formula_units_Z   4
loop_
 _symmetry_equiv_pos_site_id
 _symmetry_equiv_pos_as_xyz
  1  'x, y, z'
loop_
 _atom_site_type_symbol
 _atom_site_label
 _atom_site_symmetry_multiplicity
 _atom_site_fract_x
 _atom_site_fract_y
 _atom_site_fract_z
 _atom_site_occupancy
  Sr  Sr0  1  0.250000  0.739090  0.166461  1
  Sr  Sr1  1  0.750000  0.260910  0.833539  1
  Sr  Sr2  1  0.250000  0.239090  0.333539  1
  Sr  Sr3  1  0.750000  0.760910  0.666461  1
  Sc  Sc4  1  0.250000  0.059995  0.109478  1
  Sc  Sc5  1  0.750000  0.940005  0.890522  1
  Sc  Sc6  1  0.250000  0.559995  0.390522  1
  Sc  Sc7  1  0.750000  0.440005  0.609478  1
  Sc  Sc8  1  0.250000  0.080766  0.598515  1
  Sc  Sc9  1  0.750000  0.919234  0.401485  1
  Sc  Sc10  1  0.250000  0.580766  0.901485  1
  Sc  Sc11  1  0.750000  0.419234  0.098515  1
  S  S12  1  0.250000  0.086128  0.924998  1
  S  S13  1  0.750000  0.913872  0.075002  1
  S  S14  1  0.250000  0.586128  0.575002  1
  S  S15  1  0.750000  0.413872  0.424998  1
  S  S16  1  0.250000  0.972142  0.284332  1
  S  S17  1  0.750000  0.027858  0.715668  1
  S  S18  1  0.250000  0.472142  0.215668  1
  S  S19  1  0.750000  0.527858  0.784332  1
  S  S20  1  0.250000  0.377393  0.973120  1
  S  S21  1  0.750000  0.622607  0.026880  1
  S  S22  1  0.250000  0.877393  0.526880  1
  S  S23  1  0.750000  0.122607  0.473120  1
  S  S24  1  0.750000  0.203646  0.160129  1
  S  S25  1  0.250000  0.796354  0.839871  1
  S  S26  1  0.750000  0.703646  0.339871  1
  S  S27  1  0.250000  0.296354  0.660129  1
