# generated using pymatgen
data_CaNb2O6
_symmetry_space_group_name_H-M   'P 1'
_cell_length_a   5.27429004
_cell_length_b   5.94337408
_cell_length_c   15.18019783
_cell_angle_alpha   90.00000000
_cell_angle_beta   90.00000000
_cell_angle_gamma   90.00000000
_symmetry_Int_Tables_number   1
_chemical_formula_structural   CaNb2O6
_chemical_formula_sum   'Ca4 Nb8 O24'
_cell_volume   475.85485627
_cell_formula_units_Z   4
loop_
 _symmetry_equiv_pos_site_id
 _symmetry_equiv_pos_as_xyz
  1  'x, y, z'
loop_
 _atom_site_type_symbol
 _atom_site_label
 _atom_site_symmetry_multiplicity
 _atom_site_fract_x
 _atom_site_fract_y
 _atom_site_fract_z
 _atom_site_occupancy
  Ca  Ca0  1  0.250000  0.785860  0.000000  1
  Ca  Ca1  1  0.750000  0.714140  0.500000  1
  Ca  Ca2  1  0.750000  0.214140  0.000000  1
  Ca  Ca3  1  0.250000  0.285860  0.500000  1
  Nb  Nb4  1  0.290183  0.815216  0.665314  1
  Nb  Nb5  1  0.790183  0.684784  0.834686  1
  Nb  Nb6  1  0.209817  0.815216  0.334686  1
  Nb  Nb7  1  0.709817  0.684784  0.165314  1
  Nb  Nb8  1  0.290183  0.315216  0.834686  1
  Nb  Nb9  1  0.790183  0.184784  0.665314  1
  Nb  Nb10  1  0.209817  0.315216  0.165314  1
  Nb  Nb11  1  0.709817  0.184784  0.334686  1
  O  O12  1  0.885612  0.359132  0.243632  1
  O  O13  1  0.385612  0.140868  0.256368  1
  O  O14  1  0.614388  0.359132  0.756368  1
  O  O15  1  0.114388  0.140868  0.743632  1
  O  O16  1  0.114388  0.640868  0.756368  1
  O  O17  1  0.614388  0.859132  0.743632  1
  O  O18  1  0.385612  0.640868  0.243632  1
  O  O19  1  0.885612  0.859132  0.256368  1
  O  O20  1  0.006667  0.074716  0.398632  1
  O  O21  1  0.506667  0.425284  0.101368  1
  O  O22  1  0.493333  0.074716  0.601368  1
  O  O23  1  0.993333  0.425284  0.898632  1
  O  O24  1  0.600763  0.894945  0.087077  1
  O  O25  1  0.100763  0.605055  0.412923  1
  O  O26  1  0.899237  0.894945  0.912923  1
  O  O27  1  0.399237  0.605055  0.587077  1
  O  O28  1  0.399237  0.105055  0.912923  1
  O  O29  1  0.899237  0.394945  0.587077  1
  O  O30  1  0.100763  0.105055  0.087077  1
  O  O31  1  0.600763  0.394945  0.412923  1
  O  O32  1  0.006667  0.574716  0.101368  1
  O  O33  1  0.506667  0.925284  0.398632  1
  O  O34  1  0.493333  0.574716  0.898632  1
  O  O35  1  0.993333  0.925284  0.601368  1
