# generated using pymatgen
data_Mn5O8
_symmetry_space_group_name_H-M   'P 1'
_cell_length_a   5.98537471
_cell_length_b   5.98537471
_cell_length_c   4.94468023
_cell_angle_alpha   73.11347156
_cell_angle_beta   106.88652844
_cell_angle_gamma   121.86272683
_symmetry_Int_Tables_number   1
_chemical_formula_structural   Mn5O8
_chemical_formula_sum   'Mn5 O8'
_cell_volume   141.89764037
_cell_formula_units_Z   1
loop_
 _symmetry_equiv_pos_site_id
 _symmetry_equiv_pos_as_xyz
  1  'x, y, z'
loop_
 _atom_site_type_symbol
 _atom_site_label
 _atom_site_symmetry_multiplicity
 _atom_site_fract_x
 _atom_site_fract_y
 _atom_site_fract_z
 _atom_site_occupancy
  Mn  Mn0  1  0.720768  0.279232  0.656281  1
  Mn  Mn1  1  0.279232  0.720768  0.343719  1
  Mn  Mn2  1  1.000000  1.000000  0.500000  1
  Mn  Mn3  1  0.259291  0.259291  0.000000  1
  Mn  Mn4  1  0.740709  0.740709  0.000000  1
  O  O5  1  0.114212  0.337404  0.605287  1
  O  O6  1  0.337404  0.114212  0.394713  1
  O  O7  1  0.662596  0.885788  0.605287  1
  O  O8  1  0.885788  0.662596  0.394713  1
  O  O9  1  0.103338  0.896662  0.908234  1
  O  O10  1  0.896662  0.103338  0.091766  1
  O  O11  1  0.605360  0.394640  0.932627  1
  O  O12  1  0.394640  0.605360  0.067373  1
