# generated using pymatgen
data_PrP5O14
_symmetry_space_group_name_H-M   'P 1'
_cell_length_a   8.93033062
_cell_length_b   9.21727633
_cell_length_c   13.22445898
_cell_angle_alpha   90.00000000
_cell_angle_beta   90.27821690
_cell_angle_gamma   90.00000000
_symmetry_Int_Tables_number   1
_chemical_formula_structural   PrP5O14
_chemical_formula_sum   'Pr4 P20 O56'
_cell_volume   1088.53635783
_cell_formula_units_Z   4
loop_
 _symmetry_equiv_pos_site_id
 _symmetry_equiv_pos_as_xyz
  1  'x, y, z'
loop_
 _atom_site_type_symbol
 _atom_site_label
 _atom_site_symmetry_multiplicity
 _atom_site_fract_x
 _atom_site_fract_y
 _atom_site_fract_z
 _atom_site_occupancy
  Pr  Pr0  1  0.775772  0.688059  0.999293  1
  Pr  Pr1  1  0.224228  0.188059  0.500707  1
  Pr  Pr2  1  0.224228  0.311941  0.000707  1
  Pr  Pr3  1  0.775772  0.811941  0.499293  1
  P  P4  1  0.503762  0.501485  0.176076  1
  P  P5  1  0.496238  0.001485  0.323924  1
  P  P6  1  0.496238  0.498515  0.823924  1
  P  P7  1  0.503762  0.998515  0.676076  1
  P  P8  1  0.742264  0.453035  0.335945  1
  P  P9  1  0.257736  0.953035  0.164055  1
  P  P10  1  0.257736  0.546965  0.664055  1
  P  P11  1  0.742264  0.046965  0.835945  1
  P  P12  1  0.814735  0.252683  0.000019  1
  P  P13  1  0.185265  0.752683  0.499981  1
  P  P14  1  0.185265  0.747317  0.999981  1
  P  P15  1  0.814735  0.247317  0.500019  1
  P  P16  1  0.268027  0.549209  0.336721  1
  P  P17  1  0.731973  0.049209  0.163279  1
  P  P18  1  0.731973  0.450791  0.663279  1
  P  P19  1  0.268027  0.950791  0.836721  1
  P  P20  1  0.004679  0.503119  0.203808  1
  P  P21  1  0.995321  0.003119  0.296192  1
  P  P22  1  0.995321  0.496881  0.796192  1
  P  P23  1  0.004679  0.996881  0.703808  1
  O  O24  1  0.418545  0.384773  0.123743  1
  O  O25  1  0.581455  0.884773  0.376257  1
  O  O26  1  0.581455  0.615227  0.876257  1
  O  O27  1  0.418545  0.115227  0.623743  1
  O  O28  1  0.579459  0.619802  0.119389  1
  O  O29  1  0.420541  0.119802  0.380611  1
  O  O30  1  0.420541  0.380198  0.880611  1
  O  O31  1  0.579459  0.880198  0.619389  1
  O  O32  1  0.624736  0.419443  0.249884  1
  O  O33  1  0.375264  0.919443  0.250116  1
  O  O34  1  0.375264  0.580557  0.750116  1
  O  O35  1  0.624736  0.080557  0.749884  1
  O  O36  1  0.724903  0.593335  0.388530  1
  O  O37  1  0.275097  0.093335  0.111470  1
  O  O38  1  0.275097  0.406665  0.611470  1
  O  O39  1  0.724903  0.906665  0.888530  1
  O  O40  1  0.720772  0.313376  0.403480  1
  O  O41  1  0.279228  0.813376  0.096520  1
  O  O42  1  0.279228  0.686624  0.596520  1
  O  O43  1  0.785867  0.411478  0.000242  1
  O  O44  1  0.720772  0.186624  0.903480  1
  O  O45  1  0.031417  0.689727  0.496854  1
  O  O46  1  0.031417  0.810273  0.996854  1
  O  O47  1  0.968583  0.310273  0.503146  1
  O  O48  1  0.915123  0.884820  0.649826  1
  O  O49  1  0.084877  0.384820  0.850174  1
  O  O50  1  0.084877  0.115180  0.350174  1
  O  O51  1  0.915123  0.615180  0.149826  1
  O  O52  1  0.912919  0.885974  0.349480  1
  O  O53  1  0.087081  0.385974  0.150520  1
  O  O54  1  0.087081  0.114026  0.650520  1
  O  O55  1  0.912919  0.614026  0.849480  1
  O  O56  1  0.119852  0.908807  0.777255  1
  O  O57  1  0.880148  0.408807  0.722745  1
  O  O58  1  0.880148  0.091193  0.222745  1
  O  O59  1  0.119852  0.591193  0.277255  1
  O  O60  1  0.900576  0.077015  0.787508  1
  O  O61  1  0.099424  0.577015  0.712492  1
  O  O62  1  0.099424  0.922985  0.212492  1
  O  O63  1  0.900576  0.422985  0.287508  1
  O  O64  1  0.269189  0.094515  0.885889  1
  O  O65  1  0.730811  0.594515  0.614111  1
  O  O66  1  0.730811  0.905485  0.114111  1
  O  O67  1  0.269189  0.405485  0.385889  1
  O  O68  1  0.287999  0.816264  0.909338  1
  O  O69  1  0.712001  0.316264  0.590662  1
  O  O70  1  0.712001  0.183736  0.090662  1
  O  O71  1  0.287999  0.683736  0.409338  1
  O  O72  1  0.399689  0.918863  0.761010  1
  O  O73  1  0.600311  0.418863  0.738990  1
  O  O74  1  0.600311  0.081137  0.238990  1
  O  O75  1  0.399689  0.581137  0.261010  1
  O  O76  1  0.785867  0.088522  0.500242  1
  O  O77  1  0.214133  0.588522  0.999758  1
  O  O78  1  0.214133  0.911478  0.499758  1
  O  O79  1  0.968583  0.189727  0.003146  1
