# generated using pymatgen
data_BaBeF4
_symmetry_space_group_name_H-M   'P 1'
_cell_length_a   5.40547441
_cell_length_b   7.14348202
_cell_length_c   8.97666466
_cell_angle_alpha   90.00000000
_cell_angle_beta   90.00000000
_cell_angle_gamma   90.00000000
_symmetry_Int_Tables_number   1
_chemical_formula_structural   BaBeF4
_chemical_formula_sum   'Ba4 Be4 F16'
_cell_volume   346.62411462
_cell_formula_units_Z   4
loop_
 _symmetry_equiv_pos_site_id
 _symmetry_equiv_pos_as_xyz
  1  'x, y, z'
loop_
 _atom_site_type_symbol
 _atom_site_label
 _atom_site_symmetry_multiplicity
 _atom_site_fract_x
 _atom_site_fract_y
 _atom_site_fract_z
 _atom_site_occupancy
  Ba  Ba0  1  0.250000  0.154654  0.187368  1
  Ba  Ba1  1  0.750000  0.845346  0.812632  1
  Ba  Ba2  1  0.750000  0.654654  0.312632  1
  Ba  Ba3  1  0.250000  0.345346  0.687368  1
  Be  Be4  1  0.250000  0.809008  0.554007  1
  Be  Be5  1  0.250000  0.690992  0.054007  1
  Be  Be6  1  0.750000  0.309008  0.945993  1
  Be  Be7  1  0.750000  0.190992  0.445993  1
  F  F8  1  0.484863  0.818369  0.078975  1
  F  F9  1  0.015137  0.681631  0.578975  1
  F  F10  1  0.515137  0.318369  0.421025  1
  F  F11  1  0.984863  0.181631  0.921025  1
  F  F12  1  0.250000  0.876842  0.390476  1
  F  F13  1  0.750000  0.123158  0.609524  1
  F  F14  1  0.750000  0.376842  0.109524  1
  F  F15  1  0.250000  0.623158  0.890476  1
  F  F16  1  0.250000  0.964648  0.674720  1
  F  F17  1  0.750000  0.035352  0.325280  1
  F  F18  1  0.750000  0.464648  0.825280  1
  F  F19  1  0.250000  0.535352  0.174720  1
  F  F20  1  0.984863  0.318369  0.421025  1
  F  F21  1  0.484863  0.681631  0.578975  1
  F  F22  1  0.015137  0.818369  0.078975  1
  F  F23  1  0.515137  0.181631  0.921025  1
