# generated using pymatgen
data_YP5O14
_symmetry_space_group_name_H-M   'P 1'
_cell_length_a   8.82383848
_cell_length_b   9.17600427
_cell_length_c   12.85150409
_cell_angle_alpha   90.00000000
_cell_angle_beta   90.00000000
_cell_angle_gamma   90.00000000
_symmetry_Int_Tables_number   1
_chemical_formula_structural   YP5O14
_chemical_formula_sum   'Y4 P20 O56'
_cell_volume   1040.55518000
_cell_formula_units_Z   4
loop_
 _symmetry_equiv_pos_site_id
 _symmetry_equiv_pos_as_xyz
  1  'x, y, z'
loop_
 _atom_site_type_symbol
 _atom_site_label
 _atom_site_symmetry_multiplicity
 _atom_site_fract_x
 _atom_site_fract_y
 _atom_site_fract_z
 _atom_site_occupancy
  Y  Y0  1  0.020521  0.056906  0.750000  1
  Y  Y1  1  0.520521  0.443094  0.750000  1
  Y  Y2  1  0.479479  0.556906  0.250000  1
  Y  Y3  1  0.979479  0.943094  0.250000  1
  P  P4  1  0.242947  0.772192  0.068868  1
  P  P5  1  0.742947  0.727808  0.431132  1
  P  P6  1  0.257053  0.272192  0.931132  1
  P  P7  1  0.757053  0.227808  0.568868  1
  P  P8  1  0.757053  0.227808  0.931132  1
  P  P9  1  0.257053  0.272192  0.568868  1
  P  P10  1  0.742947  0.727808  0.068868  1
  P  P11  1  0.242947  0.772192  0.431132  1
  P  P12  1  0.427325  0.003541  0.750000  1
  P  P13  1  0.927325  0.496459  0.750000  1
  P  P14  1  0.072675  0.503541  0.250000  1
  P  P15  1  0.572675  0.996459  0.250000  1
  P  P16  1  0.509205  0.204528  0.082159  1
  P  P17  1  0.009205  0.295472  0.417841  1
  P  P18  1  0.990795  0.704528  0.917841  1
  P  P19  1  0.490795  0.795472  0.582159  1
  P  P20  1  0.490795  0.795472  0.917841  1
  P  P21  1  0.990795  0.704528  0.582159  1
  P  P22  1  0.009205  0.295472  0.082159  1
  P  P23  1  0.509205  0.204528  0.417841  1
  O  O24  1  0.009846  0.152593  0.134846  1
  O  O25  1  0.509846  0.347407  0.365154  1
  O  O26  1  0.490154  0.652593  0.865154  1
  O  O27  1  0.990154  0.847407  0.634846  1
  O  O28  1  0.990154  0.847407  0.865154  1
  O  O29  1  0.490154  0.652593  0.634846  1
  O  O30  1  0.509846  0.347407  0.134846  1
  O  O31  1  0.009846  0.152593  0.365154  1
  O  O32  1  0.662789  0.156608  0.027587  1
  O  O33  1  0.162789  0.343392  0.472413  1
  O  O34  1  0.837211  0.656608  0.972413  1
  O  O35  1  0.337211  0.843392  0.527587  1
  O  O36  1  0.337211  0.843392  0.972413  1
  O  O37  1  0.837211  0.656608  0.527587  1
  O  O38  1  0.162789  0.343392  0.027587  1
  O  O39  1  0.662789  0.156608  0.472413  1
  O  O40  1  0.841360  0.839500  0.118878  1
  O  O41  1  0.341360  0.660500  0.381122  1
  O  O42  1  0.658640  0.339500  0.881122  1
  O  O43  1  0.384991  0.181437  0.995583  1
  O  O44  1  0.158640  0.160500  0.618878  1
  O  O45  1  0.658640  0.339500  0.618878  1
  O  O46  1  0.341360  0.660500  0.118878  1
  O  O47  1  0.841360  0.839500  0.381122  1
  O  O48  1  0.729616  0.058108  0.250000  1
  O  O49  1  0.229616  0.441892  0.250000  1
  O  O50  1  0.770384  0.558108  0.750000  1
  O  O51  1  0.270384  0.941892  0.750000  1
  O  O52  1  0.476014  0.068811  0.346455  1
  O  O53  1  0.976014  0.431189  0.153545  1
  O  O54  1  0.023986  0.568811  0.653545  1
  O  O55  1  0.523986  0.931189  0.846455  1
  O  O56  1  0.523986  0.931189  0.653545  1
  O  O57  1  0.023986  0.568811  0.846455  1
  O  O58  1  0.976014  0.431189  0.346455  1
  O  O59  1  0.476014  0.068811  0.153545  1
  O  O60  1  0.037057  0.661224  0.250000  1
  O  O61  1  0.537057  0.838776  0.250000  1
  O  O62  1  0.462943  0.161224  0.750000  1
  O  O63  1  0.962943  0.338776  0.750000  1
  O  O64  1  0.171559  0.893217  0.371920  1
  O  O65  1  0.671559  0.606783  0.128080  1
  O  O66  1  0.328441  0.393217  0.628080  1
  O  O67  1  0.828441  0.106783  0.871920  1
  O  O68  1  0.828441  0.106783  0.628080  1
  O  O69  1  0.328441  0.393217  0.871920  1
  O  O70  1  0.671559  0.606783  0.371920  1
  O  O71  1  0.171559  0.893217  0.128080  1
  O  O72  1  0.384991  0.181437  0.504417  1
  O  O73  1  0.884991  0.318563  0.995583  1
  O  O74  1  0.115009  0.681437  0.495583  1
  O  O75  1  0.615009  0.818563  0.004417  1
  O  O76  1  0.615009  0.818563  0.495583  1
  O  O77  1  0.115009  0.681437  0.004417  1
  O  O78  1  0.884991  0.318563  0.504417  1
  O  O79  1  0.158640  0.160500  0.881122  1
