# generated using pymatgen
data_InS
_symmetry_space_group_name_H-M   'P 1'
_cell_length_a   4.01044650
_cell_length_b   4.75367380
_cell_length_c   10.72534582
_cell_angle_alpha   90.00000000
_cell_angle_beta   90.00000000
_cell_angle_gamma   90.00000000
_symmetry_Int_Tables_number   1
_chemical_formula_structural   InS
_chemical_formula_sum   'In4 S4'
_cell_volume   204.47179435
_cell_formula_units_Z   4
loop_
 _symmetry_equiv_pos_site_id
 _symmetry_equiv_pos_as_xyz
  1  'x, y, z'
loop_
 _atom_site_type_symbol
 _atom_site_label
 _atom_site_symmetry_multiplicity
 _atom_site_fract_x
 _atom_site_fract_y
 _atom_site_fract_z
 _atom_site_occupancy
  In  In0  1  0.500000  0.374413  0.620031  1
  In  In1  1  0.500000  0.625587  0.379969  1
  In  In2  1  0.000000  0.874413  0.879969  1
  In  In3  1  0.000000  0.125587  0.120031  1
  S  S4  1  0.500000  0.539855  0.845851  1
  S  S5  1  0.500000  0.460145  0.154149  1
  S  S6  1  0.000000  0.039855  0.654149  1
  S  S7  1  0.000000  0.960145  0.345851  1
