# generated using pymatgen
data_LiPr(WO4)2
_symmetry_space_group_name_H-M   'P 1'
_cell_length_a   7.20339549
_cell_length_b   7.48887286
_cell_length_c   7.60702084
_cell_angle_alpha   113.67880263
_cell_angle_beta   115.72280069
_cell_angle_gamma   91.06623181
_symmetry_Int_Tables_number   1
_chemical_formula_structural   LiPr(WO4)2
_chemical_formula_sum   'Li2 Pr2 W4 O16'
_cell_volume   329.18838426
_cell_formula_units_Z   2
loop_
 _symmetry_equiv_pos_site_id
 _symmetry_equiv_pos_as_xyz
  1  'x, y, z'
loop_
 _atom_site_type_symbol
 _atom_site_label
 _atom_site_symmetry_multiplicity
 _atom_site_fract_x
 _atom_site_fract_y
 _atom_site_fract_z
 _atom_site_occupancy
  Li  Li0  1  0.257348  0.665300  0.004204  1
  Li  Li1  1  0.742652  0.334700  0.995796  1
  Pr  Pr2  1  0.186344  0.289094  0.465137  1
  Pr  Pr3  1  0.813656  0.710906  0.534863  1
  W  W4  1  0.258073  0.292117  0.030871  1
  W  W5  1  0.741927  0.707883  0.969129  1
  W  W6  1  0.647852  0.102059  0.281495  1
  W  W7  1  0.352148  0.897941  0.718505  1
  O  O8  1  0.039181  0.306501  0.093998  1
  O  O9  1  0.960819  0.693499  0.906002  1
  O  O10  1  0.182080  0.361352  0.807593  1
  O  O11  1  0.817920  0.638648  0.192407  1
  O  O12  1  0.557248  0.463260  0.754615  1
  O  O13  1  0.442752  0.536740  0.245385  1
  O  O14  1  0.613291  0.825134  0.738969  1
  O  O15  1  0.386709  0.174866  0.261031  1
  O  O16  1  0.481379  0.828304  0.007328  1
  O  O17  1  0.518621  0.171696  0.992672  1
  O  O18  1  0.135206  0.991635  0.803787  1
  O  O19  1  0.864794  0.008365  0.196213  1
  O  O20  1  0.293573  0.994881  0.524305  1
  O  O21  1  0.706427  0.005119  0.475695  1
  O  O22  1  0.176777  0.643659  0.564555  1
  O  O23  1  0.823223  0.356341  0.435445  1
