# generated using pymatgen
data_Na3PS3O
_symmetry_space_group_name_H-M   'P 1'
_cell_length_a   7.57406186
_cell_length_b   7.57406186
_cell_length_c   5.97102120
_cell_angle_alpha   90.00000000
_cell_angle_beta   90.00000000
_cell_angle_gamma   101.10008759
_symmetry_Int_Tables_number   1
_chemical_formula_structural   Na3PS3O
_chemical_formula_sum   'Na6 P2 S6 O2'
_cell_volume   336.12803058
_cell_formula_units_Z   2
loop_
 _symmetry_equiv_pos_site_id
 _symmetry_equiv_pos_as_xyz
  1  'x, y, z'
loop_
 _atom_site_type_symbol
 _atom_site_label
 _atom_site_symmetry_multiplicity
 _atom_site_fract_x
 _atom_site_fract_y
 _atom_site_fract_z
 _atom_site_occupancy
  Na  Na0  1  0.318364  0.084542  0.746709  1
  Na  Na1  1  0.630894  0.369106  0.294811  1
  Na  Na2  1  0.369106  0.630894  0.794811  1
  Na  Na3  1  0.915458  0.681636  0.746709  1
  Na  Na4  1  0.681636  0.915458  0.246709  1
  Na  Na5  1  0.084542  0.318364  0.246709  1
  P  P6  1  0.794250  0.205750  0.854430  1
  P  P7  1  0.205750  0.794250  0.354430  1
  S  S8  1  0.689248  0.954975  0.728838  1
  S  S9  1  0.620909  0.379091  0.768782  1
  S  S10  1  0.379091  0.620909  0.268782  1
  S  S11  1  0.310752  0.045025  0.228838  1
  S  S12  1  0.045025  0.310752  0.728838  1
  S  S13  1  0.954975  0.689248  0.228838  1
  O  O14  1  0.803046  0.196954  0.112784  1
  O  O15  1  0.196954  0.803046  0.612784  1
