# generated using pymatgen
data_TbFe3(BO3)4
_symmetry_space_group_name_H-M   'P 1'
_cell_length_a   9.62084044
_cell_length_b   9.62084044
_cell_length_c   7.66169499
_cell_angle_alpha   90.00000000
_cell_angle_beta   90.00000000
_cell_angle_gamma   120.00000000
_symmetry_Int_Tables_number   1
_chemical_formula_structural   TbFe3(BO3)4
_chemical_formula_sum   'Tb3 Fe9 B12 O36'
_cell_volume   614.15998173
_cell_formula_units_Z   3
loop_
 _symmetry_equiv_pos_site_id
 _symmetry_equiv_pos_as_xyz
  1  'x, y, z'
loop_
 _atom_site_type_symbol
 _atom_site_label
 _atom_site_symmetry_multiplicity
 _atom_site_fract_x
 _atom_site_fract_y
 _atom_site_fract_z
 _atom_site_occupancy
  Tb  Tb0  1  0.000000  0.335103  0.666667  1
  Tb  Tb1  1  0.335103  0.000000  0.333333  1
  Tb  Tb2  1  0.664897  0.664897  0.000000  1
  Fe  Fe3  1  0.450925  0.787479  0.655191  1
  Fe  Fe4  1  0.212521  0.663446  0.988524  1
  Fe  Fe5  1  0.336554  0.549075  0.321857  1
  Fe  Fe6  1  0.663446  0.212521  0.011476  1
  Fe  Fe7  1  0.549075  0.336554  0.678143  1
  Fe  Fe8  1  0.787479  0.450925  0.344809  1
  Fe  Fe9  1  0.000000  0.884939  0.666667  1
  Fe  Fe10  1  0.884939  0.000000  0.333333  1
  Fe  Fe11  1  0.115061  0.115061  0.000000  1
  B  B12  1  0.777874  0.000000  0.833333  1
  B  B13  1  0.222126  0.222126  0.500000  1
  B  B14  1  0.000000  0.777874  0.166667  1
  B  B15  1  0.875748  0.552086  0.847831  1
  B  B16  1  0.447914  0.323662  0.181164  1
  B  B17  1  0.676338  0.124252  0.514497  1
  B  B18  1  0.323662  0.447914  0.818836  1
  B  B19  1  0.124252  0.676338  0.485503  1
  B  B20  1  0.552086  0.875748  0.152169  1
  B  B21  1  0.668195  0.668195  0.500000  1
  B  B22  1  0.000000  0.331805  0.166667  1
  B  B23  1  0.331805  0.000000  0.833333  1
  O  O24  1  0.000000  0.921610  0.166667  1
  O  O25  1  0.078390  0.078390  0.500000  1
  O  O26  1  0.921610  0.000000  0.833333  1
  O  O27  1  0.418973  0.724480  0.127945  1
  O  O28  1  0.275520  0.694494  0.461278  1
  O  O29  1  0.305506  0.581027  0.794611  1
  O  O30  1  0.694494  0.275520  0.538722  1
  O  O31  1  0.581027  0.305506  0.205389  1
  O  O32  1  0.724480  0.418973  0.872055  1
  O  O33  1  0.877890  0.695132  0.822018  1
  O  O34  1  0.304868  0.182758  0.155351  1
  O  O35  1  0.817242  0.122110  0.488684  1
  O  O36  1  0.182758  0.304868  0.844649  1
  O  O37  1  0.122110  0.817242  0.511316  1
  O  O38  1  0.695132  0.877890  0.177982  1
  O  O39  1  0.852847  0.638127  0.185179  1
  O  O40  1  0.361873  0.214721  0.518513  1
  O  O41  1  0.785279  0.147153  0.851846  1
  O  O42  1  0.214721  0.361873  0.481487  1
  O  O43  1  0.147153  0.785279  0.148154  1
  O  O44  1  0.638127  0.852847  0.814821  1
  O  O45  1  0.474640  0.144670  0.842316  1
  O  O46  1  0.855330  0.329970  0.175650  1
  O  O47  1  0.670030  0.525360  0.508983  1
  O  O48  1  0.329970  0.855330  0.824350  1
  O  O49  1  0.525360  0.670030  0.491017  1
  O  O50  1  0.144670  0.474640  0.157684  1
  O  O51  1  0.188125  0.000000  0.833333  1
  O  O52  1  0.000000  0.188125  0.166667  1
  O  O53  1  0.811875  0.811875  0.500000  1
  O  O54  1  0.474557  0.465707  0.815013  1
  O  O55  1  0.534293  0.008849  0.148346  1
  O  O56  1  0.991151  0.525443  0.481680  1
  O  O57  1  0.008849  0.534293  0.851654  1
  O  O58  1  0.525443  0.991151  0.518320  1
  O  O59  1  0.465707  0.474557  0.184987  1
