# generated using pymatgen
data_P4S3
_symmetry_space_group_name_H-M   'P 1'
_cell_length_a   10.58265216
_cell_length_b   11.56383077
_cell_length_c   15.27687207
_cell_angle_alpha   90.00000000
_cell_angle_beta   90.00000000
_cell_angle_gamma   90.00000000
_symmetry_Int_Tables_number   1
_chemical_formula_structural   P4S3
_chemical_formula_sum   'P32 S24'
_cell_volume   1869.52247621
_cell_formula_units_Z   8
loop_
 _symmetry_equiv_pos_site_id
 _symmetry_equiv_pos_as_xyz
  1  'x, y, z'
loop_
 _atom_site_type_symbol
 _atom_site_label
 _atom_site_symmetry_multiplicity
 _atom_site_fract_x
 _atom_site_fract_y
 _atom_site_fract_z
 _atom_site_occupancy
  P  P0  1  0.856547  0.052092  0.763564  1
  P  P1  1  0.356547  0.947908  0.236436  1
  P  P2  1  0.643453  0.552092  0.736436  1
  P  P3  1  0.143453  0.447908  0.263564  1
  P  P4  1  0.143453  0.947908  0.236436  1
  P  P5  1  0.643453  0.052092  0.763564  1
  P  P6  1  0.356547  0.447908  0.263564  1
  P  P7  1  0.856547  0.552092  0.736436  1
  P  P8  1  0.250000  0.799696  0.174922  1
  P  P9  1  0.750000  0.200304  0.825078  1
  P  P10  1  0.250000  0.299696  0.325078  1
  P  P11  1  0.750000  0.700304  0.674922  1
  P  P12  1  0.856667  0.724132  0.157371  1
  P  P13  1  0.356667  0.275868  0.842629  1
  P  P14  1  0.643333  0.224132  0.342629  1
  P  P15  1  0.143333  0.775868  0.657371  1
  P  P16  1  0.143333  0.275868  0.842629  1
  P  P17  1  0.643333  0.724132  0.157371  1
  P  P18  1  0.356667  0.775868  0.657371  1
  P  P19  1  0.856667  0.224132  0.342629  1
  P  P20  1  0.250000  0.469607  0.983236  1
  P  P21  1  0.750000  0.530393  0.016764  1
  P  P22  1  0.250000  0.969607  0.516764  1
  P  P23  1  0.750000  0.030393  0.483236  1
  P  P24  1  0.750000  0.084140  0.270932  1
  P  P25  1  0.250000  0.915860  0.729068  1
  P  P26  1  0.750000  0.584140  0.229068  1
  P  P27  1  0.250000  0.415860  0.770932  1
  P  P28  1  0.750000  0.474799  0.541825  1
  P  P29  1  0.250000  0.525201  0.458175  1
  P  P30  1  0.750000  0.974799  0.958175  1
  P  P31  1  0.250000  0.025201  0.041825  1
  S  S32  1  0.902558  0.646290  0.037281  1
  S  S33  1  0.402558  0.353710  0.962719  1
  S  S34  1  0.597442  0.146290  0.462719  1
  S  S35  1  0.097442  0.853710  0.537281  1
  S  S36  1  0.097442  0.353710  0.962719  1
  S  S37  1  0.597442  0.646290  0.037281  1
  S  S38  1  0.402558  0.853710  0.537281  1
  S  S39  1  0.902558  0.146290  0.462719  1
  S  S40  1  0.902689  0.946454  0.870733  1
  S  S41  1  0.402689  0.053546  0.129267  1
  S  S42  1  0.597311  0.446454  0.629267  1
  S  S43  1  0.097311  0.553546  0.370733  1
  S  S44  1  0.097311  0.053546  0.129267  1
  S  S45  1  0.597311  0.946454  0.870733  1
  S  S46  1  0.402689  0.553546  0.370733  1
  S  S47  1  0.902689  0.446454  0.629267  1
  S  S48  1  0.250000  0.841694  0.041045  1
  S  S49  1  0.750000  0.158306  0.958955  1
  S  S50  1  0.250000  0.341694  0.458955  1
  S  S51  1  0.750000  0.658306  0.541045  1
  S  S52  1  0.250000  0.554147  0.859993  1
  S  S53  1  0.750000  0.445853  0.140007  1
  S  S54  1  0.250000  0.054147  0.640007  1
  S  S55  1  0.750000  0.945853  0.359993  1
