# generated using pymatgen
data_Ho2SiSO4
_symmetry_space_group_name_H-M   'P 1'
_cell_length_a   6.11400181
_cell_length_b   6.92184345
_cell_length_c   10.69514858
_cell_angle_alpha   90.00000000
_cell_angle_beta   90.00000000
_cell_angle_gamma   90.00000000
_symmetry_Int_Tables_number   1
_chemical_formula_structural   Ho2SiSO4
_chemical_formula_sum   'Ho8 Si4 S4 O16'
_cell_volume   452.62043530
_cell_formula_units_Z   4
loop_
 _symmetry_equiv_pos_site_id
 _symmetry_equiv_pos_as_xyz
  1  'x, y, z'
loop_
 _atom_site_type_symbol
 _atom_site_label
 _atom_site_symmetry_multiplicity
 _atom_site_fract_x
 _atom_site_fract_y
 _atom_site_fract_z
 _atom_site_occupancy
  Ho  Ho0  1  0.383826  0.750000  0.500000  1
  Ho  Ho1  1  0.383826  0.750000  0.000000  1
  Ho  Ho2  1  0.616174  0.250000  0.500000  1
  Ho  Ho3  1  0.616174  0.250000  0.000000  1
  Ho  Ho4  1  0.843857  0.527974  0.750000  1
  Ho  Ho5  1  0.843857  0.972026  0.250000  1
  Ho  Ho6  1  0.156143  0.027974  0.750000  1
  Ho  Ho7  1  0.156143  0.472026  0.250000  1
  Si  Si8  1  0.122017  0.250000  0.000000  1
  Si  Si9  1  0.877983  0.750000  0.000000  1
  Si  Si10  1  0.877983  0.750000  0.500000  1
  Si  Si11  1  0.122017  0.250000  0.500000  1
  S  S12  1  0.523329  0.813215  0.750000  1
  S  S13  1  0.523329  0.686785  0.250000  1
  S  S14  1  0.476671  0.313215  0.750000  1
  S  S15  1  0.476671  0.186785  0.250000  1
  O  O16  1  0.285028  0.433486  0.028865  1
  O  O17  1  0.285028  0.066514  0.971135  1
  O  O18  1  0.714972  0.933486  0.471135  1
  O  O19  1  0.714972  0.566514  0.528865  1
  O  O20  1  0.714972  0.566514  0.971135  1
  O  O21  1  0.714972  0.933486  0.028865  1
  O  O22  1  0.285028  0.066514  0.528865  1
  O  O23  1  0.285028  0.433486  0.471135  1
  O  O24  1  0.039334  0.737780  0.122684  1
  O  O25  1  0.039334  0.737780  0.377316  1
  O  O26  1  0.960666  0.237780  0.377316  1
  O  O27  1  0.960666  0.262220  0.622684  1
  O  O28  1  0.960666  0.262220  0.877316  1
  O  O29  1  0.960666  0.237780  0.122684  1
  O  O30  1  0.039334  0.762220  0.622684  1
  O  O31  1  0.039334  0.762220  0.877316  1
