# generated using pymatgen
data_DyBO3
_symmetry_space_group_name_H-M   'P 1'
_cell_length_a   6.18903480
_cell_length_b   6.39307786
_cell_length_c   6.41038936
_cell_angle_alpha   92.56889174
_cell_angle_beta   107.14009470
_cell_angle_gamma   107.13263951
_symmetry_Int_Tables_number   1
_chemical_formula_structural   DyBO3
_chemical_formula_sum   'Dy4 B4 O12'
_cell_volume   229.20041422
_cell_formula_units_Z   4
loop_
 _symmetry_equiv_pos_site_id
 _symmetry_equiv_pos_as_xyz
  1  'x, y, z'
loop_
 _atom_site_type_symbol
 _atom_site_label
 _atom_site_symmetry_multiplicity
 _atom_site_fract_x
 _atom_site_fract_y
 _atom_site_fract_z
 _atom_site_occupancy
  Dy  Dy0  1  0.545309  0.268317  0.832726  1
  Dy  Dy1  1  0.454691  0.731683  0.167274  1
  Dy  Dy2  1  0.943541  0.818510  0.723628  1
  Dy  Dy3  1  0.056459  0.181490  0.276372  1
  B  B4  1  0.978076  0.278360  0.763753  1
  B  B5  1  0.021924  0.721640  0.236247  1
  B  B6  1  0.481502  0.762131  0.718083  1
  B  B7  1  0.518498  0.237869  0.281917  1
  O  O8  1  0.410833  0.355469  0.127322  1
  O  O9  1  0.589167  0.644531  0.872678  1
  O  O10  1  0.453744  0.223244  0.468251  1
  O  O11  1  0.546256  0.776756  0.531749  1
  O  O12  1  0.885810  0.795037  0.341763  1
  O  O13  1  0.114190  0.204963  0.658237  1
  O  O14  1  0.653880  0.125436  0.217756  1
  O  O15  1  0.346120  0.874564  0.782244  1
  O  O16  1  0.131222  0.871059  0.113768  1
  O  O17  1  0.868778  0.128941  0.886232  1
  O  O18  1  0.074969  0.530340  0.249795  1
  O  O19  1  0.925031  0.469660  0.750205  1
