# generated using pymatgen
data_BaAgTeF
_symmetry_space_group_name_H-M   'P 1'
_cell_length_a   4.58337329
_cell_length_b   4.58337329
_cell_length_c   9.83436951
_cell_angle_alpha   90.00000000
_cell_angle_beta   90.00000000
_cell_angle_gamma   90.00000000
_symmetry_Int_Tables_number   1
_chemical_formula_structural   BaAgTeF
_chemical_formula_sum   'Ba2 Ag2 Te2 F2'
_cell_volume   206.59365599
_cell_formula_units_Z   2
loop_
 _symmetry_equiv_pos_site_id
 _symmetry_equiv_pos_as_xyz
  1  'x, y, z'
loop_
 _atom_site_type_symbol
 _atom_site_label
 _atom_site_symmetry_multiplicity
 _atom_site_fract_x
 _atom_site_fract_y
 _atom_site_fract_z
 _atom_site_occupancy
  Ba  Ba0  1  0.500000  0.000000  0.147971  1
  Ba  Ba1  1  0.000000  0.500000  0.852029  1
  Ag  Ag2  1  0.500000  0.500000  0.500000  1
  Ag  Ag3  1  0.000000  0.000000  0.500000  1
  Te  Te4  1  0.000000  0.500000  0.316611  1
  Te  Te5  1  0.500000  0.000000  0.683389  1
  F  F6  1  0.000000  0.000000  0.000000  1
  F  F7  1  0.500000  0.500000  0.000000  1
