# generated using pymatgen
data_CsCd(PO3)3
_symmetry_space_group_name_H-M   'P 1'
_cell_length_a   7.63968507
_cell_length_b   9.73414734
_cell_length_c   12.86743216
_cell_angle_alpha   90.00000000
_cell_angle_beta   90.00000000
_cell_angle_gamma   90.00000000
_symmetry_Int_Tables_number   1
_chemical_formula_structural   CsCd(PO3)3
_chemical_formula_sum   'Cs4 Cd4 P12 O36'
_cell_volume   956.89714519
_cell_formula_units_Z   4
loop_
 _symmetry_equiv_pos_site_id
 _symmetry_equiv_pos_as_xyz
  1  'x, y, z'
loop_
 _atom_site_type_symbol
 _atom_site_label
 _atom_site_symmetry_multiplicity
 _atom_site_fract_x
 _atom_site_fract_y
 _atom_site_fract_z
 _atom_site_occupancy
  Cs  Cs0  1  0.750000  0.885933  0.082909  1
  Cs  Cs1  1  0.250000  0.114067  0.917091  1
  Cs  Cs2  1  0.750000  0.385933  0.417091  1
  Cs  Cs3  1  0.250000  0.614067  0.582909  1
  Cd  Cd4  1  0.750000  0.514290  0.723214  1
  Cd  Cd5  1  0.250000  0.485710  0.276786  1
  Cd  Cd6  1  0.750000  0.014290  0.776786  1
  Cd  Cd7  1  0.250000  0.985710  0.223214  1
  P  P8  1  0.250000  0.204071  0.459049  1
  P  P9  1  0.750000  0.795929  0.540951  1
  P  P10  1  0.250000  0.704071  0.040951  1
  P  P11  1  0.750000  0.295929  0.959049  1
  P  P12  1  0.947129  0.752611  0.350284  1
  P  P13  1  0.447129  0.247389  0.649716  1
  P  P14  1  0.552871  0.252611  0.149716  1
  P  P15  1  0.052871  0.747389  0.850284  1
  P  P16  1  0.052871  0.247389  0.649716  1
  P  P17  1  0.552871  0.752611  0.350284  1
  P  P18  1  0.447129  0.747389  0.850284  1
  P  P19  1  0.947129  0.252611  0.149716  1
  O  O20  1  0.250000  0.353847  0.429885  1
  O  O21  1  0.750000  0.646153  0.570115  1
  O  O22  1  0.250000  0.853847  0.070115  1
  O  O23  1  0.750000  0.146153  0.929885  1
  O  O24  1  0.250000  0.094215  0.379112  1
  O  O25  1  0.750000  0.905785  0.620888  1
  O  O26  1  0.250000  0.594215  0.120888  1
  O  O27  1  0.750000  0.405785  0.879112  1
  O  O28  1  0.010606  0.858616  0.274995  1
  O  O29  1  0.510606  0.141384  0.725005  1
  O  O30  1  0.489394  0.358616  0.225005  1
  O  O31  1  0.989394  0.641384  0.774995  1
  O  O32  1  0.989394  0.141384  0.725005  1
  O  O33  1  0.489394  0.858616  0.274995  1
  O  O34  1  0.510606  0.641384  0.774995  1
  O  O35  1  0.010606  0.358616  0.225005  1
  O  O36  1  0.048972  0.622403  0.366553  1
  O  O37  1  0.548971  0.377597  0.633447  1
  O  O38  1  0.451028  0.122403  0.133447  1
  O  O39  1  0.951029  0.877597  0.866553  1
  O  O40  1  0.750000  0.706350  0.316001  1
  O  O41  1  0.250000  0.293650  0.683999  1
  O  O42  1  0.750000  0.206350  0.183999  1
  O  O43  1  0.250000  0.793650  0.816001  1
  O  O44  1  0.914270  0.325140  0.037692  1
  O  O45  1  0.414270  0.674860  0.962308  1
  O  O46  1  0.585730  0.825140  0.462308  1
  O  O47  1  0.085730  0.174860  0.537692  1
  O  O48  1  0.085730  0.674860  0.962308  1
  O  O49  1  0.585730  0.325140  0.037692  1
  O  O50  1  0.414270  0.174860  0.537692  1
  O  O51  1  0.914270  0.825140  0.462308  1
  O  O52  1  0.048972  0.122403  0.133447  1
  O  O53  1  0.548971  0.877597  0.866553  1
  O  O54  1  0.451028  0.622403  0.366553  1
  O  O55  1  0.951029  0.377597  0.633447  1
