# generated using pymatgen
data_Ca3Zn3(TeO6)2
_symmetry_space_group_name_H-M   'P 1'
_cell_length_a   11.04434187
_cell_length_b   11.04434187
_cell_length_c   11.04434187
_cell_angle_alpha   109.47122063
_cell_angle_beta   109.47122063
_cell_angle_gamma   109.47122063
_symmetry_Int_Tables_number   1
_chemical_formula_structural   Ca3Zn3(TeO6)2
_chemical_formula_sum   'Ca12 Zn12 Te8 O48'
_cell_volume   1037.04507689
_cell_formula_units_Z   4
loop_
 _symmetry_equiv_pos_site_id
 _symmetry_equiv_pos_as_xyz
  1  'x, y, z'
loop_
 _atom_site_type_symbol
 _atom_site_label
 _atom_site_symmetry_multiplicity
 _atom_site_fract_x
 _atom_site_fract_y
 _atom_site_fract_z
 _atom_site_occupancy
  Ca  Ca0  1  0.875000  0.625000  0.250000  1
  Ca  Ca1  1  0.375000  0.125000  0.250000  1
  Ca  Ca2  1  0.125000  0.375000  0.750000  1
  Ca  Ca3  1  0.750000  0.125000  0.375000  1
  Ca  Ca4  1  0.250000  0.375000  0.125000  1
  Ca  Ca5  1  0.125000  0.250000  0.375000  1
  Ca  Ca6  1  0.375000  0.750000  0.125000  1
  Ca  Ca7  1  0.625000  0.875000  0.750000  1
  Ca  Ca8  1  0.250000  0.875000  0.625000  1
  Ca  Ca9  1  0.750000  0.625000  0.875000  1
  Ca  Ca10  1  0.875000  0.750000  0.625000  1
  Ca  Ca11  1  0.625000  0.250000  0.875000  1
  Zn  Zn12  1  0.875000  0.125000  0.750000  1
  Zn  Zn13  1  0.375000  0.625000  0.750000  1
  Zn  Zn14  1  0.750000  0.375000  0.625000  1
  Zn  Zn15  1  0.250000  0.125000  0.875000  1
  Zn  Zn16  1  0.625000  0.375000  0.250000  1
  Zn  Zn17  1  0.875000  0.250000  0.125000  1
  Zn  Zn18  1  0.625000  0.750000  0.375000  1
  Zn  Zn19  1  0.375000  0.250000  0.625000  1
  Zn  Zn20  1  0.750000  0.875000  0.125000  1
  Zn  Zn21  1  0.125000  0.750000  0.875000  1
  Zn  Zn22  1  0.125000  0.875000  0.250000  1
  Zn  Zn23  1  0.250000  0.625000  0.375000  1
  Te  Te24  1  0.500000  0.500000  0.500000  1
  Te  Te25  1  0.500000  0.500000  0.000000  1
  Te  Te26  1  0.500000  1.000000  0.500000  1
  Te  Te27  1  1.000000  0.500000  0.500000  1
  Te  Te28  1  0.500000  1.000000  1.000000  1
  Te  Te29  1  1.000000  1.000000  0.500000  1
  Te  Te30  1  1.000000  0.500000  0.000000  1
  Te  Te31  1  0.000000  0.000000  0.000000  1
  O  O32  1  0.807210  0.424692  0.830895  1
  O  O33  1  0.075308  0.882518  0.406203  1
  O  O34  1  0.669105  0.093797  0.976315  1
  O  O35  1  0.692790  0.523685  0.617482  1
  O  O36  1  0.692790  0.669105  0.075308  1
  O  O37  1  0.523685  0.617482  0.692790  1
  O  O38  1  0.093797  0.617482  0.424692  1
  O  O39  1  0.617482  0.692790  0.523685  1
  O  O40  1  0.406203  0.830895  0.523685  1
  O  O41  1  0.882518  0.976315  0.807210  1
  O  O42  1  0.976315  0.807210  0.882518  1
  O  O43  1  0.075308  0.692790  0.669105  1
  O  O44  1  0.617482  0.424692  0.093797  1
  O  O45  1  0.523685  0.406203  0.830895  1
  O  O46  1  0.669105  0.075308  0.692790  1
  O  O47  1  0.424692  0.093797  0.617482  1
  O  O48  1  0.830895  0.523685  0.406203  1
  O  O49  1  0.406203  0.075308  0.882518  1
  O  O50  1  0.093797  0.976315  0.669105  1
  O  O51  1  0.593797  0.169105  0.476315  1
  O  O52  1  0.976315  0.669105  0.093797  1
  O  O53  1  0.830895  0.807210  0.424692  1
  O  O54  1  0.882518  0.406203  0.075308  1
  O  O55  1  0.807210  0.882518  0.976315  1
  O  O56  1  0.192790  0.575308  0.169105  1
  O  O57  1  0.924692  0.117482  0.593797  1
  O  O58  1  0.330895  0.906203  0.023685  1
  O  O59  1  0.307210  0.476315  0.382518  1
  O  O60  1  0.307210  0.330895  0.924692  1
  O  O61  1  0.476315  0.382518  0.307210  1
  O  O62  1  0.906203  0.382518  0.575308  1
  O  O63  1  0.382518  0.307210  0.476315  1
  O  O64  1  0.192790  0.117482  0.023685  1
  O  O65  1  0.117482  0.593797  0.924692  1
  O  O66  1  0.169105  0.192790  0.575308  1
  O  O67  1  0.575308  0.169105  0.192790  1
  O  O68  1  0.023685  0.330895  0.906203  1
  O  O69  1  0.906203  0.023685  0.330895  1
  O  O70  1  0.593797  0.924692  0.117482  1
  O  O71  1  0.169105  0.476315  0.593797  1
  O  O72  1  0.575308  0.906203  0.382518  1
  O  O73  1  0.330895  0.924692  0.307210  1
  O  O74  1  0.476315  0.593797  0.169105  1
  O  O75  1  0.382518  0.575308  0.906203  1
  O  O76  1  0.924692  0.307210  0.330895  1
  O  O77  1  0.023685  0.192790  0.117482  1
  O  O78  1  0.117482  0.023685  0.192790  1
  O  O79  1  0.424692  0.830895  0.807210  1
