# generated using pymatgen
data_Cr5O12
_symmetry_space_group_name_H-M   'P 1'
_cell_length_a   8.39352497
_cell_length_b   8.43368511
_cell_length_c   12.27254326
_cell_angle_alpha   90.00000000
_cell_angle_beta   90.00000000
_cell_angle_gamma   90.00000000
_symmetry_Int_Tables_number   1
_chemical_formula_structural   Cr5O12
_chemical_formula_sum   'Cr20 O48'
_cell_volume   868.75304546
_cell_formula_units_Z   4
loop_
 _symmetry_equiv_pos_site_id
 _symmetry_equiv_pos_as_xyz
  1  'x, y, z'
loop_
 _atom_site_type_symbol
 _atom_site_label
 _atom_site_symmetry_multiplicity
 _atom_site_fract_x
 _atom_site_fract_y
 _atom_site_fract_z
 _atom_site_occupancy
  Cr  Cr0  1  0.890490  0.748056  0.413416  1
  Cr  Cr1  1  0.390490  0.751944  0.086584  1
  Cr  Cr2  1  0.609510  0.748056  0.586584  1
  Cr  Cr3  1  0.109510  0.751944  0.913416  1
  Cr  Cr4  1  0.109510  0.251944  0.586584  1
  Cr  Cr5  1  0.609510  0.248056  0.913416  1
  Cr  Cr6  1  0.390490  0.251944  0.413416  1
  Cr  Cr7  1  0.890490  0.248056  0.086584  1
  Cr  Cr8  1  0.528582  0.610106  0.328503  1
  Cr  Cr9  1  0.028582  0.889894  0.171497  1
  Cr  Cr10  1  0.971418  0.610106  0.671497  1
  Cr  Cr11  1  0.471418  0.889894  0.828503  1
  Cr  Cr12  1  0.471418  0.389894  0.671497  1
  Cr  Cr13  1  0.971418  0.110106  0.828503  1
  Cr  Cr14  1  0.028582  0.389894  0.328503  1
  Cr  Cr15  1  0.528582  0.110106  0.171497  1
  Cr  Cr16  1  0.750000  0.102804  0.500000  1
  Cr  Cr17  1  0.250000  0.397196  0.000000  1
  Cr  Cr18  1  0.250000  0.897196  0.500000  1
  Cr  Cr19  1  0.750000  0.602804  0.000000  1
  O  O20  1  0.643752  0.008633  0.245640  1
  O  O21  1  0.143752  0.491367  0.254360  1
  O  O22  1  0.856248  0.008633  0.754360  1
  O  O23  1  0.356248  0.491367  0.745640  1
  O  O24  1  0.356248  0.991367  0.754360  1
  O  O25  1  0.856248  0.508633  0.745640  1
  O  O26  1  0.143752  0.991367  0.245640  1
  O  O27  1  0.643752  0.508633  0.254360  1
  O  O28  1  0.623726  0.219822  0.430952  1
  O  O29  1  0.123726  0.280178  0.069048  1
  O  O30  1  0.876274  0.219822  0.569048  1
  O  O31  1  0.376274  0.280178  0.930952  1
  O  O32  1  0.376274  0.780178  0.569048  1
  O  O33  1  0.876274  0.719822  0.930952  1
  O  O34  1  0.123726  0.780178  0.430952  1
  O  O35  1  0.623726  0.719822  0.069048  1
  O  O36  1  0.145119  0.015682  0.580253  1
  O  O37  1  0.854881  0.984318  0.419747  1
  O  O38  1  0.645119  0.984318  0.580253  1
  O  O39  1  0.145119  0.515682  0.919747  1
  O  O40  1  0.915644  0.273566  0.247913  1
  O  O41  1  0.415644  0.226434  0.252087  1
  O  O42  1  0.584356  0.273566  0.752087  1
  O  O43  1  0.084356  0.226434  0.747913  1
  O  O44  1  0.084356  0.726434  0.752087  1
  O  O45  1  0.584356  0.773566  0.747913  1
  O  O46  1  0.415644  0.726434  0.247913  1
  O  O47  1  0.915644  0.773566  0.252087  1
  O  O48  1  0.647321  0.222001  0.079032  1
  O  O49  1  0.147321  0.277999  0.420968  1
  O  O50  1  0.852679  0.222001  0.920968  1
  O  O51  1  0.352679  0.277999  0.579032  1
  O  O52  1  0.352679  0.777999  0.920968  1
  O  O53  1  0.852679  0.722001  0.579032  1
  O  O54  1  0.147321  0.777999  0.079032  1
  O  O55  1  0.647321  0.722001  0.420968  1
  O  O56  1  0.912738  0.014926  0.101182  1
  O  O57  1  0.412738  0.485074  0.398818  1
  O  O58  1  0.587262  0.014926  0.898818  1
  O  O59  1  0.087262  0.485074  0.601182  1
  O  O60  1  0.087262  0.985074  0.898818  1
  O  O61  1  0.587262  0.514926  0.601182  1
  O  O62  1  0.412738  0.985074  0.101182  1
  O  O63  1  0.912738  0.514926  0.398818  1
  O  O64  1  0.854881  0.484318  0.080253  1
  O  O65  1  0.354881  0.015682  0.419747  1
  O  O66  1  0.645119  0.484318  0.919747  1
  O  O67  1  0.354881  0.515682  0.080253  1
