# generated using pymatgen
data_Rb4GeO4
_symmetry_space_group_name_H-M   'P 1'
_cell_length_a   11.08660682
_cell_length_b   6.93862875
_cell_length_c   11.12859569
_cell_angle_alpha   90.00000000
_cell_angle_beta   111.80922313
_cell_angle_gamma   90.00000000
_symmetry_Int_Tables_number   1
_chemical_formula_structural   Rb4GeO4
_chemical_formula_sum   'Rb16 Ge4 O16'
_cell_volume   794.80386748
_cell_formula_units_Z   4
loop_
 _symmetry_equiv_pos_site_id
 _symmetry_equiv_pos_as_xyz
  1  'x, y, z'
loop_
 _atom_site_type_symbol
 _atom_site_label
 _atom_site_symmetry_multiplicity
 _atom_site_fract_x
 _atom_site_fract_y
 _atom_site_fract_z
 _atom_site_occupancy
  Rb  Rb0  1  0.294898  0.683713  0.924538  1
  Rb  Rb1  1  0.205102  0.183713  0.075462  1
  Rb  Rb2  1  0.705102  0.316287  0.075462  1
  Rb  Rb3  1  0.794898  0.816287  0.924538  1
  Rb  Rb4  1  0.195642  0.907998  0.560241  1
  Rb  Rb5  1  0.304358  0.407998  0.439759  1
  Rb  Rb6  1  0.804358  0.092002  0.439759  1
  Rb  Rb7  1  0.695642  0.592002  0.560241  1
  Rb  Rb8  1  0.390396  0.163575  0.867219  1
  Rb  Rb9  1  0.109604  0.663575  0.132781  1
  Rb  Rb10  1  0.609604  0.836425  0.132781  1
  Rb  Rb11  1  0.890396  0.336425  0.867219  1
  Rb  Rb12  1  0.413842  0.889011  0.342811  1
  Rb  Rb13  1  0.086158  0.389011  0.657189  1
  Rb  Rb14  1  0.586158  0.110989  0.657189  1
  Rb  Rb15  1  0.913842  0.610989  0.342811  1
  Ge  Ge16  1  0.990794  0.868796  0.741705  1
  Ge  Ge17  1  0.509206  0.368796  0.258295  1
  Ge  Ge18  1  0.009206  0.131204  0.258295  1
  Ge  Ge19  1  0.490794  0.631204  0.741705  1
  O  O20  1  0.845442  0.003621  0.721274  1
  O  O21  1  0.654558  0.503621  0.278726  1
  O  O22  1  0.154558  0.996379  0.278726  1
  O  O23  1  0.345442  0.496379  0.721274  1
  O  O24  1  0.469048  0.739315  0.587914  1
  O  O25  1  0.030952  0.239315  0.412086  1
  O  O26  1  0.530952  0.260685  0.412086  1
  O  O27  1  0.969048  0.760685  0.587914  1
  O  O28  1  0.132826  0.023178  0.798218  1
  O  O29  1  0.367174  0.523178  0.201782  1
  O  O30  1  0.867174  0.976822  0.201782  1
  O  O31  1  0.632826  0.476822  0.798218  1
  O  O32  1  0.014251  0.678432  0.859508  1
  O  O33  1  0.485749  0.178432  0.140492  1
  O  O34  1  0.985749  0.321568  0.140492  1
  O  O35  1  0.514251  0.821568  0.859508  1
