# generated using pymatgen
data_Rb3SbS4
_symmetry_space_group_name_H-M   'P 1'
_cell_length_a   9.73719003
_cell_length_b   10.13671229
_cell_length_c   11.32125872
_cell_angle_alpha   90.00000000
_cell_angle_beta   90.00000000
_cell_angle_gamma   90.00000000
_symmetry_Int_Tables_number   1
_chemical_formula_structural   Rb3SbS4
_chemical_formula_sum   'Rb12 Sb4 S16'
_cell_volume   1117.44326191
_cell_formula_units_Z   4
loop_
 _symmetry_equiv_pos_site_id
 _symmetry_equiv_pos_as_xyz
  1  'x, y, z'
loop_
 _atom_site_type_symbol
 _atom_site_label
 _atom_site_symmetry_multiplicity
 _atom_site_fract_x
 _atom_site_fract_y
 _atom_site_fract_z
 _atom_site_occupancy
  Rb  Rb0  1  0.363545  0.571345  0.750000  1
  Rb  Rb1  1  0.935434  0.705206  0.043842  1
  Rb  Rb2  1  0.064566  0.294794  0.543842  1
  Rb  Rb3  1  0.564566  0.205206  0.956158  1
  Rb  Rb4  1  0.564566  0.205206  0.543842  1
  Rb  Rb5  1  0.064566  0.294794  0.956158  1
  Rb  Rb6  1  0.935434  0.705206  0.456158  1
  Rb  Rb7  1  0.435434  0.794794  0.043842  1
  Rb  Rb8  1  0.636455  0.428655  0.250000  1
  Rb  Rb9  1  0.863545  0.928655  0.750000  1
  Rb  Rb10  1  0.136455  0.071345  0.250000  1
  Rb  Rb11  1  0.435434  0.794794  0.456158  1
  Sb  Sb12  1  0.279457  0.015737  0.750000  1
  Sb  Sb13  1  0.779457  0.484263  0.750000  1
  Sb  Sb14  1  0.220543  0.515737  0.250000  1
  Sb  Sb15  1  0.720543  0.984263  0.250000  1
  S  S16  1  0.844296  0.036596  0.423005  1
  S  S17  1  0.344296  0.463404  0.076995  1
  S  S18  1  0.655704  0.536596  0.576995  1
  S  S19  1  0.155704  0.963404  0.923005  1
  S  S20  1  0.155704  0.963404  0.576995  1
  S  S21  1  0.655704  0.536596  0.923005  1
  S  S22  1  0.344296  0.463404  0.423005  1
  S  S23  1  0.844296  0.036596  0.076995  1
  S  S24  1  0.493654  0.904467  0.750000  1
  S  S25  1  0.993654  0.595533  0.750000  1
  S  S26  1  0.006346  0.404467  0.250000  1
  S  S27  1  0.506346  0.095533  0.250000  1
  S  S28  1  0.318122  0.246489  0.750000  1
  S  S29  1  0.681878  0.753511  0.250000  1
  S  S30  1  0.181878  0.746489  0.250000  1
  S  S31  1  0.818122  0.253511  0.750000  1
