# generated using pymatgen
data_Lu3Ga5O12
_symmetry_space_group_name_H-M   'P 1'
_cell_length_a   10.62386112
_cell_length_b   10.62386112
_cell_length_c   10.62386112
_cell_angle_alpha   109.47122063
_cell_angle_beta   109.47122063
_cell_angle_gamma   109.47122063
_symmetry_Int_Tables_number   1
_chemical_formula_structural   Lu3Ga5O12
_chemical_formula_sum   'Lu12 Ga20 O48'
_cell_volume   923.05007832
_cell_formula_units_Z   4
loop_
 _symmetry_equiv_pos_site_id
 _symmetry_equiv_pos_as_xyz
  1  'x, y, z'
loop_
 _atom_site_type_symbol
 _atom_site_label
 _atom_site_symmetry_multiplicity
 _atom_site_fract_x
 _atom_site_fract_y
 _atom_site_fract_z
 _atom_site_occupancy
  Lu  Lu0  1  0.250000  0.375000  0.125000  1
  Lu  Lu1  1  0.375000  0.750000  0.125000  1
  Lu  Lu2  1  0.125000  0.250000  0.375000  1
  Lu  Lu3  1  0.375000  0.125000  0.250000  1
  Lu  Lu4  1  0.125000  0.375000  0.750000  1
  Lu  Lu5  1  0.750000  0.125000  0.375000  1
  Lu  Lu6  1  0.750000  0.625000  0.875000  1
  Lu  Lu7  1  0.625000  0.250000  0.875000  1
  Lu  Lu8  1  0.875000  0.750000  0.625000  1
  Lu  Lu9  1  0.625000  0.875000  0.750000  1
  Lu  Lu10  1  0.875000  0.625000  0.250000  1
  Lu  Lu11  1  0.250000  0.875000  0.625000  1
  Ga  Ga12  1  0.000000  0.000000  0.000000  1
  Ga  Ga13  1  0.000000  0.500000  0.000000  1
  Ga  Ga14  1  0.000000  0.000000  0.500000  1
  Ga  Ga15  1  0.500000  0.000000  1.000000  1
  Ga  Ga16  1  1.000000  0.500000  0.500000  1
  Ga  Ga17  1  0.500000  0.000000  0.500000  1
  Ga  Ga18  1  0.500000  0.500000  0.000000  1
  Ga  Ga19  1  0.500000  0.500000  0.500000  1
  Ga  Ga20  1  0.250000  0.625000  0.375000  1
  Ga  Ga21  1  0.625000  0.750000  0.375000  1
  Ga  Ga22  1  0.875000  0.250000  0.125000  1
  Ga  Ga23  1  0.125000  0.875000  0.250000  1
  Ga  Ga24  1  0.250000  0.125000  0.875000  1
  Ga  Ga25  1  0.750000  0.875000  0.125000  1
  Ga  Ga26  1  0.375000  0.250000  0.625000  1
  Ga  Ga27  1  0.625000  0.375000  0.250000  1
  Ga  Ga28  1  0.125000  0.750000  0.875000  1
  Ga  Ga29  1  0.875000  0.125000  0.750000  1
  Ga  Ga30  1  0.750000  0.375000  0.625000  1
  Ga  Ga31  1  0.375000  0.625000  0.750000  1
  O  O32  1  0.790931  0.416786  0.823178  1
  O  O33  1  0.083214  0.874145  0.406391  1
  O  O34  1  0.676822  0.093609  0.967754  1
  O  O35  1  0.709069  0.532246  0.625855  1
  O  O36  1  0.709069  0.676822  0.083214  1
  O  O37  1  0.532246  0.625855  0.709069  1
  O  O38  1  0.093609  0.625855  0.416786  1
  O  O39  1  0.625855  0.709069  0.532246  1
  O  O40  1  0.406391  0.823178  0.532246  1
  O  O41  1  0.874145  0.967754  0.790931  1
  O  O42  1  0.967754  0.790931  0.874145  1
  O  O43  1  0.083214  0.709069  0.676822  1
  O  O44  1  0.625855  0.416786  0.093609  1
  O  O45  1  0.532246  0.406391  0.823178  1
  O  O46  1  0.676822  0.083214  0.709069  1
  O  O47  1  0.416786  0.093609  0.625855  1
  O  O48  1  0.823178  0.532246  0.406391  1
  O  O49  1  0.406391  0.083214  0.874145  1
  O  O50  1  0.093609  0.967754  0.676822  1
  O  O51  1  0.593609  0.176822  0.467754  1
  O  O52  1  0.967754  0.676822  0.093609  1
  O  O53  1  0.823178  0.790931  0.416786  1
  O  O54  1  0.874145  0.406391  0.083214  1
  O  O55  1  0.790931  0.874145  0.967754  1
  O  O56  1  0.209069  0.583214  0.176822  1
  O  O57  1  0.916786  0.125855  0.593609  1
  O  O58  1  0.323178  0.906391  0.032246  1
  O  O59  1  0.290931  0.467754  0.374145  1
  O  O60  1  0.290931  0.323178  0.916787  1
  O  O61  1  0.467754  0.374145  0.290931  1
  O  O62  1  0.906391  0.374145  0.583214  1
  O  O63  1  0.374145  0.290931  0.467754  1
  O  O64  1  0.209069  0.125855  0.032246  1
  O  O65  1  0.125855  0.593609  0.916786  1
  O  O66  1  0.176822  0.209069  0.583214  1
  O  O67  1  0.583214  0.176822  0.209069  1
  O  O68  1  0.032246  0.323178  0.906391  1
  O  O69  1  0.906391  0.032246  0.323178  1
  O  O70  1  0.593609  0.916786  0.125855  1
  O  O71  1  0.176822  0.467754  0.593609  1
  O  O72  1  0.583214  0.906391  0.374145  1
  O  O73  1  0.323178  0.916786  0.290931  1
  O  O74  1  0.467754  0.593609  0.176822  1
  O  O75  1  0.374145  0.583214  0.906391  1
  O  O76  1  0.916786  0.290931  0.323178  1
  O  O77  1  0.032246  0.209069  0.125855  1
  O  O78  1  0.125855  0.032246  0.209069  1
  O  O79  1  0.416786  0.823178  0.790931  1
