# generated using pymatgen
data_Ta2Pd3Se8
_symmetry_space_group_name_H-M   'P 1'
_cell_length_a   3.61104091
_cell_length_b   11.19992870
_cell_length_c   15.64809604
_cell_angle_alpha   90.00000000
_cell_angle_beta   90.00000000
_cell_angle_gamma   90.00000000
_symmetry_Int_Tables_number   1
_chemical_formula_structural   Ta2Pd3Se8
_chemical_formula_sum   'Ta4 Pd6 Se16'
_cell_volume   632.86221873
_cell_formula_units_Z   2
loop_
 _symmetry_equiv_pos_site_id
 _symmetry_equiv_pos_as_xyz
  1  'x, y, z'
loop_
 _atom_site_type_symbol
 _atom_site_label
 _atom_site_symmetry_multiplicity
 _atom_site_fract_x
 _atom_site_fract_y
 _atom_site_fract_z
 _atom_site_occupancy
  Ta  Ta0  1  0.500000  0.694283  0.374928  1
  Ta  Ta1  1  0.500000  0.305717  0.625072  1
  Ta  Ta2  1  0.500000  0.194283  0.125072  1
  Ta  Ta3  1  0.500000  0.805717  0.874928  1
  Pd  Pd4  1  0.000000  0.851220  0.274957  1
  Pd  Pd5  1  0.000000  0.148780  0.725043  1
  Pd  Pd6  1  0.000000  0.351220  0.225043  1
  Pd  Pd7  1  0.000000  0.648780  0.774957  1
  Pd  Pd8  1  0.000000  0.500000  0.500000  1
  Pd  Pd9  1  0.000000  0.000000  0.000000  1
  Se  Se10  1  0.500000  0.924313  0.372137  1
  Se  Se11  1  0.500000  0.075687  0.627863  1
  Se  Se12  1  0.500000  0.424313  0.127863  1
  Se  Se13  1  0.500000  0.575687  0.872137  1
  Se  Se14  1  0.500000  0.723954  0.212098  1
  Se  Se15  1  0.500000  0.276046  0.787902  1
  Se  Se16  1  0.500000  0.223954  0.287902  1
  Se  Se17  1  0.500000  0.776046  0.712098  1
  Se  Se18  1  0.000000  0.526679  0.343188  1
  Se  Se19  1  0.000000  0.473321  0.656812  1
  Se  Se20  1  0.000000  0.779232  0.996191  1
  Se  Se21  1  0.000000  0.220768  0.003809  1
  Se  Se22  1  0.000000  0.279232  0.503809  1
  Se  Se23  1  0.000000  0.720768  0.496191  1
  Se  Se24  1  0.000000  0.973321  0.843188  1
  Se  Se25  1  0.000000  0.026679  0.156812  1
