# generated using pymatgen
data_Na6Ge2Se7
_symmetry_space_group_name_H-M   'P 1'
_cell_length_a   7.31737142
_cell_length_b   7.31737142
_cell_length_c   16.08266322
_cell_angle_alpha   80.76343453
_cell_angle_beta   99.23656547
_cell_angle_gamma   81.47267665
_symmetry_Int_Tables_number   1
_chemical_formula_structural   Na6Ge2Se7
_chemical_formula_sum   'Na12 Ge4 Se14'
_cell_volume   825.44697411
_cell_formula_units_Z   2
loop_
 _symmetry_equiv_pos_site_id
 _symmetry_equiv_pos_as_xyz
  1  'x, y, z'
loop_
 _atom_site_type_symbol
 _atom_site_label
 _atom_site_symmetry_multiplicity
 _atom_site_fract_x
 _atom_site_fract_y
 _atom_site_fract_z
 _atom_site_occupancy
  Na  Na0  1  0.500000  0.500000  0.000000  1
  Na  Na1  1  0.500000  0.500000  0.500000  1
  Na  Na2  1  0.969160  0.736604  0.071346  1
  Na  Na3  1  0.736604  0.969160  0.428654  1
  Na  Na4  1  0.030840  0.263396  0.928654  1
  Na  Na5  1  0.263396  0.030840  0.571346  1
  Na  Na6  1  0.419787  0.419787  0.250000  1
  Na  Na7  1  0.580213  0.580213  0.750000  1
  Na  Na8  1  0.954883  0.491669  0.358713  1
  Na  Na9  1  0.491669  0.954883  0.141287  1
  Na  Na10  1  0.045117  0.508331  0.641287  1
  Na  Na11  1  0.508331  0.045117  0.858713  1
  Ge  Ge12  1  0.923982  0.240617  0.139826  1
  Ge  Ge13  1  0.240617  0.923982  0.360174  1
  Ge  Ge14  1  0.076018  0.759383  0.860174  1
  Ge  Ge15  1  0.759383  0.076018  0.639826  1
  Se  Se16  1  0.751914  0.503944  0.179830  1
  Se  Se17  1  0.503944  0.751914  0.320170  1
  Se  Se18  1  0.248086  0.496056  0.820170  1
  Se  Se19  1  0.496056  0.248086  0.679830  1
  Se  Se20  1  0.736711  0.130221  0.028904  1
  Se  Se21  1  0.130221  0.736711  0.471096  1
  Se  Se22  1  0.263289  0.869779  0.971096  1
  Se  Se23  1  0.869779  0.263289  0.528904  1
  Se  Se24  1  0.210042  0.312307  0.104450  1
  Se  Se25  1  0.312307  0.210042  0.395550  1
  Se  Se26  1  0.789958  0.687693  0.895550  1
  Se  Se27  1  0.687693  0.789958  0.604450  1
  Se  Se28  1  0.960578  0.960578  0.250000  1
  Se  Se29  1  0.039422  0.039422  0.750000  1
