# generated using pymatgen
data_Li3VO4
_symmetry_space_group_name_H-M   'P 1'
_cell_length_a   5.03932267
_cell_length_b   5.51428408
_cell_length_c   6.39770362
_cell_angle_alpha   90.00000000
_cell_angle_beta   90.00000000
_cell_angle_gamma   90.00000000
_symmetry_Int_Tables_number   1
_chemical_formula_structural   Li3VO4
_chemical_formula_sum   'Li6 V2 O8'
_cell_volume   177.78103095
_cell_formula_units_Z   2
loop_
 _symmetry_equiv_pos_site_id
 _symmetry_equiv_pos_as_xyz
  1  'x, y, z'
loop_
 _atom_site_type_symbol
 _atom_site_label
 _atom_site_symmetry_multiplicity
 _atom_site_fract_x
 _atom_site_fract_y
 _atom_site_fract_z
 _atom_site_occupancy
  Li  Li0  1  0.008792  0.668338  0.247568  1
  Li  Li1  1  0.508792  0.331662  0.252432  1
  Li  Li2  1  0.508792  0.331662  0.747568  1
  Li  Li3  1  0.008792  0.668338  0.752432  1
  Li  Li4  1  0.009321  0.165542  0.500000  1
  Li  Li5  1  0.509321  0.834458  0.000000  1
  V  V6  1  0.001363  0.170399  0.000000  1
  V  V7  1  0.501363  0.829601  0.500000  1
  O  O8  1  0.111258  0.320315  0.225062  1
  O  O9  1  0.655439  0.173472  0.000000  1
  O  O10  1  0.111258  0.320315  0.774938  1
  O  O11  1  0.611258  0.679685  0.274938  1
  O  O12  1  0.611258  0.679685  0.725062  1
  O  O13  1  0.609576  0.130758  0.500000  1
  O  O14  1  0.109576  0.869242  0.000000  1
  O  O15  1  0.155439  0.826528  0.500000  1
