# generated using pymatgen
data_KTb3F10
_symmetry_space_group_name_H-M   'P 1'
_cell_length_a   8.29645587
_cell_length_b   8.29645587
_cell_length_c   8.29645587
_cell_angle_alpha   60.00000000
_cell_angle_beta   60.00000000
_cell_angle_gamma   60.00000000
_symmetry_Int_Tables_number   1
_chemical_formula_structural   KTb3F10
_chemical_formula_sum   'K2 Tb6 F20'
_cell_volume   403.79675520
_cell_formula_units_Z   2
loop_
 _symmetry_equiv_pos_site_id
 _symmetry_equiv_pos_as_xyz
  1  'x, y, z'
loop_
 _atom_site_type_symbol
 _atom_site_label
 _atom_site_symmetry_multiplicity
 _atom_site_fract_x
 _atom_site_fract_y
 _atom_site_fract_z
 _atom_site_occupancy
  K  K0  1  0.750000  0.750000  0.750000  1
  K  K1  1  0.250000  0.250000  0.250000  1
  Tb  Tb2  1  0.759672  0.759672  0.240328  1
  Tb  Tb3  1  0.759672  0.240328  0.759672  1
  Tb  Tb4  1  0.240328  0.759672  0.240328  1
  Tb  Tb5  1  0.759672  0.240328  0.240328  1
  Tb  Tb6  1  0.240328  0.240328  0.759672  1
  Tb  Tb7  1  0.240328  0.759672  0.759672  1
  F  F8  1  0.111729  0.664812  0.111729  1
  F  F9  1  0.888271  0.888271  0.888271  1
  F  F10  1  0.335188  0.888271  0.888271  1
  F  F11  1  0.888271  0.888271  0.335188  1
  F  F12  1  0.664812  0.111729  0.111729  1
  F  F13  1  0.111729  0.111729  0.664812  1
  F  F14  1  0.111729  0.111729  0.111729  1
  F  F15  1  0.888271  0.335188  0.888271  1
  F  F16  1  0.500000  0.169706  0.830294  1
  F  F17  1  0.500000  0.169706  0.500000  1
  F  F18  1  0.169706  0.500000  0.830294  1
  F  F19  1  0.830294  0.500000  0.500000  1
  F  F20  1  0.169706  0.500000  0.500000  1
  F  F21  1  0.830294  0.169706  0.500000  1
  F  F22  1  0.500000  0.500000  0.830294  1
  F  F23  1  0.830294  0.500000  0.169706  1
  F  F24  1  0.169706  0.830294  0.500000  1
  F  F25  1  0.500000  0.500000  0.169706  1
  F  F26  1  0.500000  0.830294  0.500000  1
  F  F27  1  0.500000  0.830294  0.169706  1
