# generated using pymatgen
data_CsNaSnF6
_symmetry_space_group_name_H-M   'P 1'
_cell_length_a   8.52461027
_cell_length_b   11.42353910
_cell_length_c   13.61486466
_cell_angle_alpha   90.00000000
_cell_angle_beta   90.00000000
_cell_angle_gamma   90.00000000
_symmetry_Int_Tables_number   1
_chemical_formula_structural   CsNaSnF6
_chemical_formula_sum   'Cs8 Na8 Sn8 F48'
_cell_volume   1325.83211346
_cell_formula_units_Z   8
loop_
 _symmetry_equiv_pos_site_id
 _symmetry_equiv_pos_as_xyz
  1  'x, y, z'
loop_
 _atom_site_type_symbol
 _atom_site_label
 _atom_site_symmetry_multiplicity
 _atom_site_fract_x
 _atom_site_fract_y
 _atom_site_fract_z
 _atom_site_occupancy
  Cs  Cs0  1  0.500000  0.750000  0.115557  1
  Cs  Cs1  1  0.000000  0.250000  0.384443  1
  Cs  Cs2  1  0.500000  0.250000  0.884443  1
  Cs  Cs3  1  0.000000  0.750000  0.073258  1
  Cs  Cs4  1  0.500000  0.250000  0.426742  1
  Cs  Cs5  1  0.000000  0.250000  0.926742  1
  Cs  Cs6  1  0.500000  0.750000  0.573258  1
  Cs  Cs7  1  0.000000  0.750000  0.615557  1
  Na  Na8  1  0.747435  0.426608  0.143112  1
  Na  Na9  1  0.247435  0.573392  0.356888  1
  Na  Na10  1  0.752565  0.926608  0.356888  1
  Na  Na11  1  0.252565  0.073392  0.143112  1
  Na  Na12  1  0.252565  0.573392  0.856888  1
  Na  Na13  1  0.752565  0.426608  0.643112  1
  Na  Na14  1  0.247435  0.073392  0.643112  1
  Na  Na15  1  0.747435  0.926608  0.856888  1
  Sn  Sn16  1  0.250321  0.423910  0.137132  1
  Sn  Sn17  1  0.749679  0.076090  0.137132  1
  Sn  Sn18  1  0.249679  0.923910  0.362868  1
  Sn  Sn19  1  0.249679  0.423910  0.637132  1
  Sn  Sn20  1  0.750321  0.076090  0.637132  1
  Sn  Sn21  1  0.749679  0.576090  0.862868  1
  Sn  Sn22  1  0.250321  0.923910  0.862868  1
  Sn  Sn23  1  0.750321  0.576090  0.362868  1
  F  F24  1  0.280527  0.878324  0.721379  1
  F  F25  1  0.780527  0.121676  0.778621  1
  F  F26  1  0.219473  0.378324  0.778621  1
  F  F27  1  0.719473  0.621676  0.721379  1
  F  F28  1  0.719473  0.121676  0.278621  1
  F  F29  1  0.219473  0.878324  0.221379  1
  F  F30  1  0.780527  0.621676  0.221379  1
  F  F31  1  0.280527  0.378324  0.278621  1
  F  F32  1  0.206533  0.977689  0.000305  1
  F  F33  1  0.706533  0.022311  0.499695  1
  F  F34  1  0.293467  0.477689  0.499695  1
  F  F35  1  0.793467  0.522311  0.000305  1
  F  F36  1  0.793467  0.022311  0.999695  1
  F  F37  1  0.293467  0.977689  0.500305  1
  F  F38  1  0.706533  0.522311  0.500305  1
  F  F39  1  0.206533  0.477689  0.999695  1
  F  F40  1  0.020998  0.890860  0.846694  1
  F  F41  1  0.478736  0.957900  0.879167  1
  F  F42  1  0.520998  0.109140  0.653306  1
  F  F43  1  0.979002  0.609140  0.846694  1
  F  F44  1  0.979002  0.109140  0.153306  1
  F  F45  1  0.479002  0.890860  0.346694  1
  F  F46  1  0.520998  0.609140  0.346694  1
  F  F47  1  0.020998  0.390860  0.153306  1
  F  F48  1  0.217719  0.761059  0.415681  1
  F  F49  1  0.717719  0.238941  0.084319  1
  F  F50  1  0.282281  0.261059  0.084319  1
  F  F51  1  0.782281  0.738941  0.415681  1
  F  F52  1  0.782281  0.238941  0.584319  1
  F  F53  1  0.282281  0.761059  0.915681  1
  F  F54  1  0.717719  0.738941  0.915681  1
  F  F55  1  0.217719  0.261059  0.584319  1
  F  F56  1  0.222807  0.590038  0.185623  1
  F  F57  1  0.722807  0.409962  0.314377  1
  F  F58  1  0.277193  0.090038  0.314377  1
  F  F59  1  0.777193  0.909962  0.185623  1
  F  F60  1  0.777193  0.409962  0.814377  1
  F  F61  1  0.277193  0.590038  0.685623  1
  F  F62  1  0.722807  0.909962  0.685623  1
  F  F63  1  0.222807  0.090038  0.814377  1
  F  F64  1  0.478736  0.457900  0.120833  1
  F  F65  1  0.978736  0.542100  0.379167  1
  F  F66  1  0.021264  0.957900  0.379167  1
  F  F67  1  0.521264  0.042100  0.120833  1
  F  F68  1  0.521264  0.542100  0.879167  1
  F  F69  1  0.021264  0.457900  0.620833  1
  F  F70  1  0.978736  0.042100  0.620833  1
  F  F71  1  0.479002  0.390860  0.653306  1
