# generated using pymatgen
data_Cd(GaTe2)2
_symmetry_space_group_name_H-M   'P 1'
_cell_length_a   7.46717636
_cell_length_b   7.46717636
_cell_length_c   7.46717636
_cell_angle_alpha   130.32859563
_cell_angle_beta   130.32859563
_cell_angle_gamma   72.88199442
_symmetry_Int_Tables_number   1
_chemical_formula_structural   Cd(GaTe2)2
_chemical_formula_sum   'Cd1 Ga2 Te4'
_cell_volume   236.35979969
_cell_formula_units_Z   1
loop_
 _symmetry_equiv_pos_site_id
 _symmetry_equiv_pos_as_xyz
  1  'x, y, z'
loop_
 _atom_site_type_symbol
 _atom_site_label
 _atom_site_symmetry_multiplicity
 _atom_site_fract_x
 _atom_site_fract_y
 _atom_site_fract_z
 _atom_site_occupancy
  Cd  Cd0  1  0.000000  0.000000  0.000000  1
  Ga  Ga1  1  0.250000  0.750000  0.500000  1
  Ga  Ga2  1  0.500000  0.500000  0.000000  1
  Te  Te3  1  0.413038  0.885004  0.021858  1
  Te  Te4  1  0.114996  0.136854  0.528034  1
  Te  Te5  1  0.608819  0.586962  0.471966  1
  Te  Te6  1  0.863146  0.391181  0.978142  1
