# generated using pymatgen
data_Al(PO3)3
_symmetry_space_group_name_H-M   'P 1'
_cell_length_a   12.06083887
_cell_length_b   12.06083887
_cell_length_c   12.06083887
_cell_angle_alpha   109.47122063
_cell_angle_beta   109.47122063
_cell_angle_gamma   109.47122063
_symmetry_Int_Tables_number   1
_chemical_formula_structural   Al(PO3)3
_chemical_formula_sum   'Al8 P24 O72'
_cell_volume   1350.54996400
_cell_formula_units_Z   8
loop_
 _symmetry_equiv_pos_site_id
 _symmetry_equiv_pos_as_xyz
  1  'x, y, z'
loop_
 _atom_site_type_symbol
 _atom_site_label
 _atom_site_symmetry_multiplicity
 _atom_site_fract_x
 _atom_site_fract_y
 _atom_site_fract_z
 _atom_site_occupancy
  Al  Al0  1  0.211674  0.211674  0.211674  1
  Al  Al1  1  0.788326  0.500000  1.000000  1
  Al  Al2  1  0.000000  0.788326  0.500000  1
  Al  Al3  1  0.500000  0.000000  0.788326  1
  Al  Al4  1  0.000000  0.288326  0.500000  1
  Al  Al5  1  0.500000  0.000000  0.288326  1
  Al  Al6  1  0.288326  0.500000  0.000000  1
  Al  Al7  1  0.711674  0.711674  0.711674  1
  P  P8  1  0.570710  0.788266  0.119636  1
  P  P9  1  0.451074  0.380364  0.168630  1
  P  P10  1  0.380364  0.168630  0.451074  1
  P  P11  1  0.282444  0.331370  0.711734  1
  P  P12  1  0.048926  0.217556  0.929290  1
  P  P13  1  0.119636  0.570710  0.788266  1
  P  P14  1  0.711734  0.282444  0.331370  1
  P  P15  1  0.217556  0.929290  0.048926  1
  P  P16  1  0.788266  0.119636  0.570710  1
  P  P17  1  0.429290  0.717556  0.548926  1
  P  P18  1  0.070710  0.619636  0.288266  1
  P  P19  1  0.619636  0.288266  0.070710  1
  P  P20  1  0.782444  0.211734  0.831370  1
  P  P21  1  0.211734  0.831370  0.782444  1
  P  P22  1  0.548926  0.429290  0.717556  1
  P  P23  1  0.168630  0.451074  0.380364  1
  P  P24  1  0.929290  0.048926  0.217556  1
  P  P25  1  0.331370  0.711734  0.282444  1
  P  P26  1  0.951074  0.668630  0.880364  1
  P  P27  1  0.880364  0.951074  0.668630  1
  P  P28  1  0.668630  0.880364  0.951074  1
  P  P29  1  0.288266  0.070710  0.619636  1
  P  P30  1  0.717556  0.548926  0.429290  1
  P  P31  1  0.831370  0.782444  0.211734  1
  O  O32  1  0.957215  0.574605  0.155147  1
  O  O33  1  0.925395  0.882610  0.580542  1
  O  O34  1  0.344853  0.919458  0.802068  1
  O  O35  1  0.542785  0.697932  0.617390  1
  O  O36  1  0.697932  0.617390  0.542785  1
  O  O37  1  0.617390  0.542785  0.697932  1
  O  O38  1  0.457215  0.655147  0.074605  1
  O  O39  1  0.080542  0.382610  0.425395  1
  O  O40  1  0.419458  0.844853  0.302068  1
  O  O41  1  0.117390  0.197932  0.042785  1
  O  O42  1  0.197932  0.042785  0.117390  1
  O  O43  1  0.074605  0.457215  0.655147  1
  O  O44  1  0.382610  0.425395  0.080542  1
  O  O45  1  0.302068  0.419458  0.844853  1
  O  O46  1  0.655147  0.074605  0.457215  1
  O  O47  1  0.425395  0.080542  0.382610  1
  O  O48  1  0.844853  0.302068  0.419458  1
  O  O49  1  0.580542  0.925395  0.882610  1
  O  O50  1  0.919458  0.802068  0.344853  1
  O  O51  1  0.802068  0.344853  0.919458  1
  O  O52  1  0.574605  0.155147  0.957215  1
  O  O53  1  0.155147  0.957215  0.574605  1
  O  O54  1  0.882610  0.580542  0.925395  1
  O  O55  1  0.042785  0.117390  0.197932  1
  O  O56  1  0.620301  0.428938  0.845114  1
  O  O57  1  0.583825  0.154886  0.275188  1
  O  O58  1  0.071062  0.691363  0.416175  1
  O  O59  1  0.879699  0.724812  0.808637  1
  O  O60  1  0.724812  0.808637  0.879699  1
  O  O61  1  0.808637  0.879699  0.724812  1
  O  O62  1  0.120301  0.345114  0.928938  1
  O  O63  1  0.916175  0.191363  0.571062  1
  O  O64  1  0.915067  0.904735  0.193664  1
  O  O65  1  0.095265  0.788928  0.010332  1
  O  O66  1  0.278597  0.084933  0.489668  1
  O  O67  1  0.489668  0.278597  0.084933  1
  O  O68  1  0.806336  0.221403  0.711072  1
  O  O69  1  0.711072  0.806336  0.221403  1
  O  O70  1  0.788928  0.010332  0.095265  1
  O  O71  1  0.721403  0.306336  0.211072  1
  O  O72  1  0.510332  0.288928  0.595265  1
  O  O73  1  0.778597  0.989668  0.584933  1
  O  O74  1  0.306336  0.211072  0.721403  1
  O  O75  1  0.595265  0.510332  0.288928  1
  O  O76  1  0.989668  0.584933  0.778597  1
  O  O77  1  0.193664  0.915067  0.904735  1
  O  O78  1  0.904735  0.193664  0.915067  1
  O  O79  1  0.211072  0.721403  0.306336  1
  O  O80  1  0.288928  0.595265  0.510332  1
  O  O81  1  0.584933  0.778597  0.989668  1
  O  O82  1  0.404735  0.415067  0.693664  1
  O  O83  1  0.693664  0.404735  0.415067  1
  O  O84  1  0.415067  0.693664  0.404735  1
  O  O85  1  0.221403  0.711072  0.806336  1
  O  O86  1  0.010332  0.095265  0.788928  1
  O  O87  1  0.084933  0.489668  0.278597  1
  O  O88  1  0.379699  0.308637  0.224812  1
  O  O89  1  0.691363  0.416175  0.071062  1
  O  O90  1  0.845114  0.620301  0.428938  1
  O  O91  1  0.428938  0.845114  0.620301  1
  O  O92  1  0.775188  0.654886  0.083825  1
  O  O93  1  0.083825  0.775188  0.654886  1
  O  O94  1  0.416175  0.071062  0.691363  1
  O  O95  1  0.154886  0.275188  0.583825  1
  O  O96  1  0.571062  0.916175  0.191363  1
  O  O97  1  0.345114  0.928938  0.120301  1
  O  O98  1  0.275188  0.583825  0.154886  1
  O  O99  1  0.191363  0.571062  0.916175  1
  O  O100  1  0.928938  0.120301  0.345114  1
  O  O101  1  0.224812  0.379699  0.308637  1
  O  O102  1  0.308637  0.224812  0.379699  1
  O  O103  1  0.654886  0.083825  0.775188  1
