# generated using pymatgen
data_TbFe3(BO3)4
_symmetry_space_group_name_H-M   'P 1'
_cell_length_a   6.12326658
_cell_length_b   6.12326658
_cell_length_c   6.12326658
_cell_angle_alpha   103.81088084
_cell_angle_beta   103.81088084
_cell_angle_gamma   103.81088084
_symmetry_Int_Tables_number   1
_chemical_formula_structural   TbFe3(BO3)4
_chemical_formula_sum   'Tb1 Fe3 B4 O12'
_cell_volume   205.58515486
_cell_formula_units_Z   1
loop_
 _symmetry_equiv_pos_site_id
 _symmetry_equiv_pos_as_xyz
  1  'x, y, z'
loop_
 _atom_site_type_symbol
 _atom_site_label
 _atom_site_symmetry_multiplicity
 _atom_site_fract_x
 _atom_site_fract_y
 _atom_site_fract_z
 _atom_site_occupancy
  Tb  Tb0  1  0.000000  0.000000  0.000000  1
  Fe  Fe1  1  0.550074  0.000000  0.449926  1
  Fe  Fe2  1  1.000000  0.449926  0.550074  1
  Fe  Fe3  1  0.449926  0.550074  1.000000  1
  B  B4  1  0.052179  0.947821  0.500000  1
  B  B5  1  0.500000  0.052179  0.947821  1
  B  B6  1  0.500000  0.500000  0.500000  1
  B  B7  1  0.947821  0.500000  0.052179  1
  O  O8  1  0.356377  0.500000  0.643623  1
  O  O9  1  0.643623  0.356377  0.500000  1
  O  O10  1  0.633066  0.030712  0.795006  1
  O  O11  1  0.969288  0.366934  0.204994  1
  O  O12  1  0.030712  0.795006  0.633066  1
  O  O13  1  0.091370  0.500000  0.908630  1
  O  O14  1  0.500000  0.643623  0.356377  1
  O  O15  1  0.908630  0.091370  0.500000  1
  O  O16  1  0.204994  0.969288  0.366934  1
  O  O17  1  0.500000  0.908630  0.091370  1
  O  O18  1  0.795006  0.633066  0.030712  1
  O  O19  1  0.366934  0.204994  0.969288  1
