# generated using pymatgen
data_KYTe2
_symmetry_space_group_name_H-M   'P 1'
_cell_length_a   8.65137915
_cell_length_b   8.65137915
_cell_length_c   8.65137915
_cell_angle_alpha   30.16627159
_cell_angle_beta   30.16627159
_cell_angle_gamma   30.16627159
_symmetry_Int_Tables_number   1
_chemical_formula_structural   KYTe2
_chemical_formula_sum   'K1 Y1 Te2'
_cell_volume   144.87100998
_cell_formula_units_Z   1
loop_
 _symmetry_equiv_pos_site_id
 _symmetry_equiv_pos_as_xyz
  1  'x, y, z'
loop_
 _atom_site_type_symbol
 _atom_site_label
 _atom_site_symmetry_multiplicity
 _atom_site_fract_x
 _atom_site_fract_y
 _atom_site_fract_z
 _atom_site_occupancy
  K  K0  1  0.500000  0.500000  0.500000  1
  Y  Y1  1  0.000000  0.000000  0.000000  1
  Te  Te2  1  0.736175  0.736175  0.736175  1
  Te  Te3  1  0.263825  0.263825  0.263825  1
