# generated using pymatgen
data_P2Ru
_symmetry_space_group_name_H-M   'P 1'
_cell_length_a   2.90365930
_cell_length_b   5.14226975
_cell_length_c   5.92702814
_cell_angle_alpha   90.00000000
_cell_angle_beta   90.00000000
_cell_angle_gamma   90.00000000
_symmetry_Int_Tables_number   1
_chemical_formula_structural   P2Ru
_chemical_formula_sum   'P4 Ru2'
_cell_volume   88.49882431
_cell_formula_units_Z   2
loop_
 _symmetry_equiv_pos_site_id
 _symmetry_equiv_pos_as_xyz
  1  'x, y, z'
loop_
 _atom_site_type_symbol
 _atom_site_label
 _atom_site_symmetry_multiplicity
 _atom_site_fract_x
 _atom_site_fract_y
 _atom_site_fract_z
 _atom_site_occupancy
  P  P0  1  0.500000  0.838057  0.372793  1
  P  P1  1  0.500000  0.161943  0.627207  1
  P  P2  1  0.000000  0.661943  0.872793  1
  P  P3  1  0.000000  0.338057  0.127207  1
  Ru  Ru4  1  0.500000  0.000000  0.000000  1
  Ru  Ru5  1  0.000000  0.500000  0.500000  1
