# generated using pymatgen
data_KAg3S2
_symmetry_space_group_name_H-M   'P 1'
_cell_length_a   9.43664945
_cell_length_b   9.43664945
_cell_length_c   9.43664945
_cell_angle_alpha   60.00000000
_cell_angle_beta   60.00000000
_cell_angle_gamma   60.00000000
_symmetry_Int_Tables_number   1
_chemical_formula_structural   KAg3S2
_chemical_formula_sum   'K4 Ag12 S8'
_cell_volume   594.20796501
_cell_formula_units_Z   4
loop_
 _symmetry_equiv_pos_site_id
 _symmetry_equiv_pos_as_xyz
  1  'x, y, z'
loop_
 _atom_site_type_symbol
 _atom_site_label
 _atom_site_symmetry_multiplicity
 _atom_site_fract_x
 _atom_site_fract_y
 _atom_site_fract_z
 _atom_site_occupancy
  K  K0  1  0.125000  0.625000  0.125000  1
  K  K1  1  0.125000  0.125000  0.125000  1
  K  K2  1  0.125000  0.125000  0.625000  1
  K  K3  1  0.625000  0.125000  0.125000  1
  Ag  Ag4  1  0.339721  0.660279  0.660279  1
  Ag  Ag5  1  0.589721  0.910279  0.910279  1
  Ag  Ag6  1  0.660279  0.660279  0.339721  1
  Ag  Ag7  1  0.339721  0.660279  0.339721  1
  Ag  Ag8  1  0.660279  0.339721  0.660279  1
  Ag  Ag9  1  0.339721  0.339721  0.660279  1
  Ag  Ag10  1  0.589721  0.589721  0.910279  1
  Ag  Ag11  1  0.910279  0.910279  0.589721  1
  Ag  Ag12  1  0.910279  0.589721  0.589721  1
  Ag  Ag13  1  0.910279  0.589721  0.910279  1
  Ag  Ag14  1  0.589721  0.910279  0.589721  1
  Ag  Ag15  1  0.660279  0.339721  0.339721  1
  S  S16  1  0.878780  0.878780  0.878780  1
  S  S17  1  0.371220  0.886340  0.371220  1
  S  S18  1  0.886340  0.371220  0.371220  1
  S  S19  1  0.371220  0.371220  0.886340  1
  S  S20  1  0.878780  0.878780  0.363660  1
  S  S21  1  0.371220  0.371220  0.371220  1
  S  S22  1  0.878780  0.363660  0.878780  1
  S  S23  1  0.363660  0.878780  0.878780  1
