# generated using pymatgen
data_Rb2SiO3
_symmetry_space_group_name_H-M   'P 1'
_cell_length_a   6.59955425
_cell_length_b   13.72753598
_cell_length_c   16.57729428
_cell_angle_alpha   90.00000000
_cell_angle_beta   107.96963166
_cell_angle_gamma   90.00000000
_symmetry_Int_Tables_number   1
_chemical_formula_structural   Rb2SiO3
_chemical_formula_sum   'Rb24 Si12 O36'
_cell_volume   1428.57120326
_cell_formula_units_Z   12
loop_
 _symmetry_equiv_pos_site_id
 _symmetry_equiv_pos_as_xyz
  1  'x, y, z'
loop_
 _atom_site_type_symbol
 _atom_site_label
 _atom_site_symmetry_multiplicity
 _atom_site_fract_x
 _atom_site_fract_y
 _atom_site_fract_z
 _atom_site_occupancy
  Rb  Rb0  1  0.098687  0.370204  0.863830  1
  Rb  Rb1  1  0.545783  0.167458  0.011606  1
  Rb  Rb2  1  0.545783  0.332542  0.511606  1
  Rb  Rb3  1  0.454217  0.832542  0.988394  1
  Rb  Rb4  1  0.901313  0.629796  0.136170  1
  Rb  Rb5  1  0.098687  0.129796  0.363830  1
  Rb  Rb6  1  0.454217  0.667458  0.488394  1
  Rb  Rb7  1  0.901313  0.870204  0.636170  1
  Rb  Rb8  1  0.867689  0.316245  0.198957  1
  Rb  Rb9  1  0.132311  0.816245  0.301043  1
  Rb  Rb10  1  0.132311  0.683755  0.801043  1
  Rb  Rb11  1  0.867689  0.183755  0.698957  1
  Rb  Rb12  1  0.642695  0.015840  0.215775  1
  Rb  Rb13  1  0.357305  0.515840  0.284225  1
  Rb  Rb14  1  0.357305  0.984160  0.784225  1
  Rb  Rb15  1  0.642695  0.484160  0.715775  1
  Rb  Rb16  1  0.719664  0.083590  0.471642  1
  Rb  Rb17  1  0.280336  0.583590  0.028358  1
  Rb  Rb18  1  0.280336  0.916410  0.528358  1
  Rb  Rb19  1  0.719664  0.416410  0.971642  1
  Rb  Rb20  1  0.992829  0.099542  0.916300  1
  Rb  Rb21  1  0.007171  0.599542  0.583700  1
  Rb  Rb22  1  0.007171  0.900458  0.083700  1
  Rb  Rb23  1  0.992829  0.400458  0.416300  1
  Si  Si24  1  0.731342  0.854833  0.391431  1
  Si  Si25  1  0.268658  0.354833  0.108569  1
  Si  Si26  1  0.268658  0.145167  0.608569  1
  Si  Si27  1  0.731342  0.645167  0.891431  1
  Si  Si28  1  0.841510  0.639485  0.361832  1
  Si  Si29  1  0.158490  0.139485  0.138168  1
  Si  Si30  1  0.158490  0.360515  0.638168  1
  Si  Si31  1  0.841510  0.860515  0.861832  1
  Si  Si32  1  0.550982  0.762569  0.213197  1
  Si  Si33  1  0.449018  0.262569  0.286803  1
  Si  Si34  1  0.449018  0.237431  0.786803  1
  Si  Si35  1  0.550982  0.737431  0.713197  1
  O  O36  1  0.892783  0.942054  0.385296  1
  O  O37  1  0.107217  0.442054  0.114704  1
  O  O38  1  0.107217  0.057946  0.614704  1
  O  O39  1  0.892783  0.557946  0.885296  1
  O  O40  1  0.604126  0.869886  0.459949  1
  O  O41  1  0.395874  0.369886  0.040051  1
  O  O42  1  0.395874  0.130114  0.540051  1
  O  O43  1  0.604126  0.630114  0.959949  1
  O  O44  1  0.930557  0.106759  0.147139  1
  O  O45  1  0.069443  0.606759  0.352861  1
  O  O46  1  0.069443  0.893241  0.852861  1
  O  O47  1  0.930557  0.393241  0.647139  1
  O  O48  1  0.734321  0.565572  0.413192  1
  O  O49  1  0.265679  0.065572  0.086808  1
  O  O50  1  0.265679  0.434428  0.586808  1
  O  O51  1  0.734321  0.934428  0.913192  1
  O  O52  1  0.702436  0.809696  0.162318  1
  O  O53  1  0.669383  0.840261  0.763208  1
  O  O54  1  0.297564  0.190304  0.837682  1
  O  O55  1  0.702436  0.690304  0.662318  1
  O  O56  1  0.306574  0.738966  0.158307  1
  O  O57  1  0.693426  0.238966  0.341693  1
  O  O58  1  0.693426  0.261034  0.841693  1
  O  O59  1  0.306574  0.761034  0.658307  1
  O  O60  1  0.549222  0.836834  0.294879  1
  O  O61  1  0.450778  0.336834  0.205121  1
  O  O62  1  0.450778  0.163166  0.705121  1
  O  O63  1  0.549222  0.663166  0.794879  1
  O  O64  1  0.874124  0.750024  0.410470  1
  O  O65  1  0.125876  0.250024  0.089530  1
  O  O66  1  0.125876  0.249976  0.589530  1
  O  O67  1  0.874124  0.749976  0.910470  1
  O  O68  1  0.669383  0.659739  0.263208  1
  O  O69  1  0.330617  0.159739  0.236792  1
  O  O70  1  0.330617  0.340261  0.736792  1
  O  O71  1  0.297564  0.309696  0.337682  1
