# generated using pymatgen
data_Nb2ZnO6
_symmetry_space_group_name_H-M   'P 1'
_cell_length_a   5.09056306
_cell_length_b   5.85056266
_cell_length_c   14.41215951
_cell_angle_alpha   90.00000000
_cell_angle_beta   90.00000000
_cell_angle_gamma   90.00000000
_symmetry_Int_Tables_number   1
_chemical_formula_structural   Nb2ZnO6
_chemical_formula_sum   'Nb8 Zn4 O24'
_cell_volume   429.23241999
_cell_formula_units_Z   4
loop_
 _symmetry_equiv_pos_site_id
 _symmetry_equiv_pos_as_xyz
  1  'x, y, z'
loop_
 _atom_site_type_symbol
 _atom_site_label
 _atom_site_symmetry_multiplicity
 _atom_site_fract_x
 _atom_site_fract_y
 _atom_site_fract_z
 _atom_site_occupancy
  Nb  Nb0  1  0.746545  0.682933  0.160158  1
  Nb  Nb1  1  0.246545  0.817067  0.339842  1
  Nb  Nb2  1  0.753455  0.682933  0.839842  1
  Nb  Nb3  1  0.253455  0.817067  0.660158  1
  Nb  Nb4  1  0.746545  0.182933  0.339842  1
  Nb  Nb5  1  0.246545  0.317067  0.160158  1
  Nb  Nb6  1  0.753455  0.182933  0.660158  1
  Nb  Nb7  1  0.253455  0.317067  0.839842  1
  Zn  Zn8  1  0.750000  0.671055  0.500000  1
  Zn  Zn9  1  0.250000  0.828945  0.000000  1
  Zn  Zn10  1  0.250000  0.328945  0.500000  1
  Zn  Zn11  1  0.750000  0.171055  0.000000  1
  O  O12  1  0.918009  0.375105  0.244807  1
  O  O13  1  0.418009  0.124895  0.255193  1
  O  O14  1  0.581991  0.375105  0.755193  1
  O  O15  1  0.081991  0.124895  0.744807  1
  O  O16  1  0.081991  0.624895  0.755193  1
  O  O17  1  0.581991  0.875105  0.744807  1
  O  O18  1  0.418009  0.624895  0.244807  1
  O  O19  1  0.918009  0.875105  0.255193  1
  O  O20  1  0.913056  0.381459  0.579113  1
  O  O21  1  0.413056  0.118541  0.920887  1
  O  O22  1  0.586944  0.381459  0.420887  1
  O  O23  1  0.086944  0.118541  0.079113  1
  O  O24  1  0.928520  0.894773  0.596320  1
  O  O25  1  0.428520  0.605227  0.903680  1
  O  O26  1  0.571480  0.894773  0.403680  1
  O  O27  1  0.071480  0.605227  0.096320  1
  O  O28  1  0.071480  0.105227  0.403680  1
  O  O29  1  0.571480  0.394773  0.096320  1
  O  O30  1  0.428520  0.105227  0.596320  1
  O  O31  1  0.928520  0.394773  0.903680  1
  O  O32  1  0.913056  0.881459  0.920887  1
  O  O33  1  0.413056  0.618541  0.579113  1
  O  O34  1  0.586944  0.881459  0.079113  1
  O  O35  1  0.086944  0.618541  0.420887  1
