# generated using pymatgen
data_BaErCuS3
_symmetry_space_group_name_H-M   'P 1'
_cell_length_a   7.08279052
_cell_length_b   7.08279052
_cell_length_c   10.17968177
_cell_angle_alpha   90.00000000
_cell_angle_beta   90.00000000
_cell_angle_gamma   147.15864277
_symmetry_Int_Tables_number   1
_chemical_formula_structural   BaErCuS3
_chemical_formula_sum   'Ba2 Er2 Cu2 S6'
_cell_volume   276.94559302
_cell_formula_units_Z   2
loop_
 _symmetry_equiv_pos_site_id
 _symmetry_equiv_pos_as_xyz
  1  'x, y, z'
loop_
 _atom_site_type_symbol
 _atom_site_label
 _atom_site_symmetry_multiplicity
 _atom_site_fract_x
 _atom_site_fract_y
 _atom_site_fract_z
 _atom_site_occupancy
  Ba  Ba0  1  0.255386  0.744614  0.250000  1
  Ba  Ba1  1  0.744614  0.255386  0.750000  1
  Er  Er2  1  0.000000  0.000000  0.500000  1
  Er  Er3  1  0.000000  0.000000  0.000000  1
  Cu  Cu4  1  0.468418  0.531582  0.750000  1
  Cu  Cu5  1  0.531582  0.468418  0.250000  1
  S  S6  1  0.065827  0.934173  0.750000  1
  S  S7  1  0.934173  0.065827  0.250000  1
  S  S8  1  0.369752  0.630248  0.561992  1
  S  S9  1  0.369752  0.630248  0.938008  1
  S  S10  1  0.630248  0.369752  0.061992  1
  S  S11  1  0.630248  0.369752  0.438008  1
