# generated using pymatgen
data_Sn(HgSe2)2
_symmetry_space_group_name_H-M   'P 1'
_cell_length_a   7.32020592
_cell_length_b   7.32020592
_cell_length_c   7.32020592
_cell_angle_alpha   132.15650763
_cell_angle_beta   132.15650763
_cell_angle_gamma   69.98195215
_symmetry_Int_Tables_number   1
_chemical_formula_structural   Sn(HgSe2)2
_chemical_formula_sum   'Sn1 Hg2 Se4'
_cell_volume   211.34865810
_cell_formula_units_Z   1
loop_
 _symmetry_equiv_pos_site_id
 _symmetry_equiv_pos_as_xyz
  1  'x, y, z'
loop_
 _atom_site_type_symbol
 _atom_site_label
 _atom_site_symmetry_multiplicity
 _atom_site_fract_x
 _atom_site_fract_y
 _atom_site_fract_z
 _atom_site_occupancy
  Sn  Sn0  1  0.250000  0.750000  0.500000  1
  Hg  Hg1  1  0.500000  0.500000  0.000000  1
  Hg  Hg2  1  0.750000  0.250000  0.500000  1
  Se  Se3  1  0.905766  0.884914  0.560032  1
  Se  Se4  1  0.115086  0.675118  0.020852  1
  Se  Se5  1  0.654266  0.094234  0.979148  1
  Se  Se6  1  0.324882  0.345734  0.439968  1
