# generated using pymatgen
data_K2Al2Sb3
_symmetry_space_group_name_H-M   'P 1'
_cell_length_a   14.93639608
_cell_length_b   7.34616282
_cell_length_c   16.90840118
_cell_angle_alpha   90.00000000
_cell_angle_beta   90.54169253
_cell_angle_gamma   90.00000000
_symmetry_Int_Tables_number   1
_chemical_formula_structural   K2Al2Sb3
_chemical_formula_sum   'K16 Al16 Sb24'
_cell_volume   1855.19474333
_cell_formula_units_Z   8
loop_
 _symmetry_equiv_pos_site_id
 _symmetry_equiv_pos_as_xyz
  1  'x, y, z'
loop_
 _atom_site_type_symbol
 _atom_site_label
 _atom_site_symmetry_multiplicity
 _atom_site_fract_x
 _atom_site_fract_y
 _atom_site_fract_z
 _atom_site_occupancy
  K  K0  1  0.858766  0.970237  0.006984  1
  K  K1  1  0.141234  0.470237  0.493016  1
  K  K2  1  0.141234  0.029763  0.993016  1
  K  K3  1  0.858766  0.529763  0.506984  1
  K  K4  1  0.349903  0.548785  0.982001  1
  K  K5  1  0.650097  0.048785  0.517999  1
  K  K6  1  0.650097  0.451215  0.017999  1
  K  K7  1  0.349903  0.951215  0.482001  1
  K  K8  1  0.074961  0.531575  0.890160  1
  K  K9  1  0.925039  0.031575  0.609840  1
  K  K10  1  0.925039  0.468425  0.109840  1
  K  K11  1  0.074961  0.968425  0.390160  1
  K  K12  1  0.556570  0.944669  0.105548  1
  K  K13  1  0.443430  0.444669  0.394452  1
  K  K14  1  0.443430  0.055331  0.894452  1
  K  K15  1  0.556570  0.555331  0.605548  1
  Al  Al16  1  0.312551  0.283585  0.173434  1
  Al  Al17  1  0.687449  0.783585  0.326566  1
  Al  Al18  1  0.687449  0.716415  0.826566  1
  Al  Al19  1  0.312551  0.216415  0.673434  1
  Al  Al20  1  0.905939  0.789893  0.269393  1
  Al  Al21  1  0.094061  0.289893  0.230607  1
  Al  Al22  1  0.094061  0.210107  0.730607  1
  Al  Al23  1  0.905939  0.710107  0.769393  1
  Al  Al24  1  0.184336  0.765768  0.179024  1
  Al  Al25  1  0.815664  0.265768  0.320976  1
  Al  Al26  1  0.815664  0.234232  0.820976  1
  Al  Al27  1  0.184336  0.734232  0.679024  1
  Al  Al28  1  0.405124  0.760668  0.238785  1
  Al  Al29  1  0.594876  0.260668  0.261215  1
  Al  Al30  1  0.594876  0.239332  0.761215  1
  Al  Al31  1  0.405124  0.739332  0.738785  1
  Sb  Sb32  1  0.028946  0.963951  0.176394  1
  Sb  Sb33  1  0.971054  0.463951  0.323606  1
  Sb  Sb34  1  0.971054  0.036049  0.823606  1
  Sb  Sb35  1  0.028946  0.536049  0.676394  1
  Sb  Sb36  1  0.164682  0.450324  0.099236  1
  Sb  Sb37  1  0.835318  0.950324  0.400764  1
  Sb  Sb38  1  0.835318  0.549676  0.900764  1
  Sb  Sb39  1  0.164682  0.049676  0.599236  1
  Sb  Sb40  1  0.328406  0.944107  0.113993  1
  Sb  Sb41  1  0.671594  0.444107  0.386007  1
  Sb  Sb42  1  0.671594  0.055893  0.886007  1
  Sb  Sb43  1  0.328406  0.555893  0.613993  1
  Sb  Sb44  1  0.252683  0.824768  0.824830  1
  Sb  Sb45  1  0.747317  0.324768  0.675170  1
  Sb  Sb46  1  0.747317  0.175232  0.175170  1
  Sb  Sb47  1  0.252683  0.675232  0.324830  1
  Sb  Sb48  1  0.475084  0.457122  0.167445  1
  Sb  Sb49  1  0.524916  0.957122  0.332555  1
  Sb  Sb50  1  0.524916  0.542878  0.832555  1
  Sb  Sb51  1  0.475084  0.042878  0.667445  1
  Sb  Sb52  1  0.246321  0.221316  0.821967  1
  Sb  Sb53  1  0.753679  0.721316  0.678033  1
  Sb  Sb54  1  0.753679  0.778684  0.178033  1
  Sb  Sb55  1  0.246321  0.278684  0.321967  1
