# generated using pymatgen
data_K3Ge4Au
_symmetry_space_group_name_H-M   'P 1'
_cell_length_a   6.19527689
_cell_length_b   6.71184602
_cell_length_c   12.17578207
_cell_angle_alpha   90.00000000
_cell_angle_beta   90.00000000
_cell_angle_gamma   90.00000000
_symmetry_Int_Tables_number   1
_chemical_formula_structural   K3Ge4Au
_chemical_formula_sum   'K6 Ge8 Au2'
_cell_volume   506.29025957
_cell_formula_units_Z   2
loop_
 _symmetry_equiv_pos_site_id
 _symmetry_equiv_pos_as_xyz
  1  'x, y, z'
loop_
 _atom_site_type_symbol
 _atom_site_label
 _atom_site_symmetry_multiplicity
 _atom_site_fract_x
 _atom_site_fract_y
 _atom_site_fract_z
 _atom_site_occupancy
  K  K0  1  0.421652  0.500000  0.500000  1
  K  K1  1  0.578348  0.000000  0.000000  1
  K  K2  1  0.168806  0.000000  0.237207  1
  K  K3  1  0.168806  0.000000  0.762793  1
  K  K4  1  0.831194  0.500000  0.262793  1
  K  K5  1  0.831194  0.500000  0.737207  1
  Ge  Ge6  1  0.942277  0.207363  0.500000  1
  Ge  Ge7  1  0.672741  0.000000  0.614452  1
  Ge  Ge8  1  0.327259  0.500000  0.114452  1
  Ge  Ge9  1  0.327259  0.500000  0.885548  1
  Ge  Ge10  1  0.057723  0.707363  0.000000  1
  Ge  Ge11  1  0.057723  0.292637  0.000000  1
  Ge  Ge12  1  0.672741  0.000000  0.385548  1
  Ge  Ge13  1  0.942277  0.792637  0.500000  1
  Au  Au14  1  0.690820  0.500000  0.000000  1
  Au  Au15  1  0.309180  0.000000  0.500000  1
