# generated using pymatgen
data_Ba2NbN3
_symmetry_space_group_name_H-M   'P 1'
_cell_length_a   6.74455224
_cell_length_b   6.74455224
_cell_length_c   13.38179698
_cell_angle_alpha   89.39440584
_cell_angle_beta   90.60559416
_cell_angle_gamma   55.23090216
_symmetry_Int_Tables_number   1
_chemical_formula_structural   Ba2NbN3
_chemical_formula_sum   'Ba8 Nb4 N12'
_cell_volume   499.91081984
_cell_formula_units_Z   4
loop_
 _symmetry_equiv_pos_site_id
 _symmetry_equiv_pos_as_xyz
  1  'x, y, z'
loop_
 _atom_site_type_symbol
 _atom_site_label
 _atom_site_symmetry_multiplicity
 _atom_site_fract_x
 _atom_site_fract_y
 _atom_site_fract_z
 _atom_site_occupancy
  Ba  Ba0  1  0.552770  0.051214  0.142257  1
  Ba  Ba1  1  0.948786  0.447230  0.642257  1
  Ba  Ba2  1  0.447230  0.948786  0.857743  1
  Ba  Ba3  1  0.051214  0.552770  0.357743  1
  Ba  Ba4  1  0.645993  0.127681  0.577213  1
  Ba  Ba5  1  0.127681  0.645993  0.922787  1
  Ba  Ba6  1  0.354007  0.872319  0.422787  1
  Ba  Ba7  1  0.872319  0.354007  0.077213  1
  Nb  Nb8  1  0.736088  0.258181  0.334111  1
  Nb  Nb9  1  0.263912  0.741819  0.665889  1
  Nb  Nb10  1  0.258181  0.736088  0.165889  1
  Nb  Nb11  1  0.741819  0.263912  0.834111  1
  N  N12  1  0.687962  0.132717  0.950966  1
  N  N13  1  0.132717  0.687962  0.549034  1
  N  N14  1  0.312038  0.867283  0.049034  1
  N  N15  1  0.867283  0.312038  0.450966  1
  N  N16  1  0.994938  0.994938  0.750000  1
  N  N17  1  0.005062  0.005062  0.250000  1
  N  N18  1  0.435861  0.435861  0.750000  1
  N  N19  1  0.156606  0.528481  0.128041  1
  N  N20  1  0.471519  0.843394  0.628041  1
  N  N21  1  0.843394  0.471519  0.871959  1
  N  N22  1  0.528481  0.156606  0.371959  1
  N  N23  1  0.564139  0.564139  0.250000  1
