# generated using pymatgen
data_Ba2Na(NiO2)3
_symmetry_space_group_name_H-M   'P 1'
_cell_length_a   9.32411652
_cell_length_b   8.44780265
_cell_length_c   7.03395374
_cell_angle_alpha   73.42480521
_cell_angle_beta   60.26953678
_cell_angle_gamma   46.30565801
_symmetry_Int_Tables_number   1
_chemical_formula_structural   Ba2Na(NiO2)3
_chemical_formula_sum   'Ba4 Na2 Ni6 O12'
_cell_volume   346.41545760
_cell_formula_units_Z   2
loop_
 _symmetry_equiv_pos_site_id
 _symmetry_equiv_pos_as_xyz
  1  'x, y, z'
loop_
 _atom_site_type_symbol
 _atom_site_label
 _atom_site_symmetry_multiplicity
 _atom_site_fract_x
 _atom_site_fract_y
 _atom_site_fract_z
 _atom_site_occupancy
  Ba  Ba0  1  0.250000  0.250000  0.250000  1
  Ba  Ba1  1  0.750000  0.750000  0.750000  1
  Ba  Ba2  1  0.765061  0.234939  0.765061  1
  Ba  Ba3  1  0.234939  0.765061  0.234939  1
  Na  Na4  1  0.335955  0.335955  0.664045  1
  Na  Na5  1  0.664045  0.664045  0.335955  1
  Ni  Ni6  1  0.287810  0.002217  0.712190  1
  Ni  Ni7  1  0.997783  0.712190  0.002217  1
  Ni  Ni8  1  0.002217  0.287810  0.997783  1
  Ni  Ni9  1  0.712190  0.997783  0.287810  1
  Ni  Ni10  1  0.700582  0.299418  0.299418  1
  Ni  Ni11  1  0.299418  0.700582  0.700582  1
  O  O12  1  0.701308  0.487471  0.077986  1
  O  O13  1  0.733235  0.077986  0.487471  1
  O  O14  1  0.077986  0.733235  0.701308  1
  O  O15  1  0.487471  0.701308  0.733235  1
  O  O16  1  0.298692  0.512529  0.922014  1
  O  O17  1  0.266765  0.922014  0.512529  1
  O  O18  1  0.304887  0.081507  0.918493  1
  O  O19  1  0.512529  0.298692  0.266765  1
  O  O20  1  0.081507  0.304887  0.695113  1
  O  O21  1  0.918493  0.695113  0.304887  1
  O  O22  1  0.695113  0.918493  0.081507  1
  O  O23  1  0.922014  0.266765  0.298692  1
