# generated using pymatgen
data_SiSbPt
_symmetry_space_group_name_H-M   'P 1'
_cell_length_a   6.40187942
_cell_length_b   6.41812433
_cell_length_c   11.61303765
_cell_angle_alpha   90.00000000
_cell_angle_beta   90.00000000
_cell_angle_gamma   90.00000000
_symmetry_Int_Tables_number   1
_chemical_formula_structural   SiSbPt
_chemical_formula_sum   'Si8 Sb8 Pt8'
_cell_volume   477.15716525
_cell_formula_units_Z   8
loop_
 _symmetry_equiv_pos_site_id
 _symmetry_equiv_pos_as_xyz
  1  'x, y, z'
loop_
 _atom_site_type_symbol
 _atom_site_label
 _atom_site_symmetry_multiplicity
 _atom_site_fract_x
 _atom_site_fract_y
 _atom_site_fract_z
 _atom_site_occupancy
  Si  Si0  1  0.853993  0.265710  0.425995  1
  Si  Si1  1  0.353993  0.234290  0.574005  1
  Si  Si2  1  0.146007  0.765710  0.074005  1
  Si  Si3  1  0.646007  0.734290  0.925995  1
  Si  Si4  1  0.146007  0.734290  0.574005  1
  Si  Si5  1  0.646007  0.765710  0.425995  1
  Si  Si6  1  0.853993  0.234290  0.925995  1
  Si  Si7  1  0.353993  0.265710  0.074005  1
  Sb  Sb8  1  0.116730  0.006254  0.327296  1
  Sb  Sb9  1  0.616730  0.493746  0.672704  1
  Sb  Sb10  1  0.883270  0.506254  0.172704  1
  Sb  Sb11  1  0.383270  0.993746  0.827296  1
  Sb  Sb12  1  0.883270  0.993746  0.672704  1
  Sb  Sb13  1  0.383270  0.506254  0.327296  1
  Sb  Sb14  1  0.116730  0.493746  0.827296  1
  Sb  Sb15  1  0.616730  0.006254  0.172704  1
  Pt  Pt16  1  0.511690  0.118482  0.393502  1
  Pt  Pt17  1  0.011690  0.381518  0.606498  1
  Pt  Pt18  1  0.488310  0.618482  0.106498  1
  Pt  Pt19  1  0.988310  0.881518  0.893502  1
  Pt  Pt20  1  0.488310  0.881518  0.606498  1
  Pt  Pt21  1  0.988310  0.618482  0.393502  1
  Pt  Pt22  1  0.511690  0.381518  0.893502  1
  Pt  Pt23  1  0.011690  0.118482  0.106498  1
