# generated using pymatgen
data_Na5Lu(MoO4)4
_symmetry_space_group_name_H-M   'P 1'
_cell_length_a   9.95461006
_cell_length_b   9.95461006
_cell_length_c   9.95461006
_cell_angle_alpha   109.44048005
_cell_angle_beta   109.44048005
_cell_angle_gamma   109.53271932
_symmetry_Int_Tables_number   1
_chemical_formula_structural   Na5Lu(MoO4)4
_chemical_formula_sum   'Na10 Lu2 Mo8 O32'
_cell_volume   759.36485223
_cell_formula_units_Z   2
loop_
 _symmetry_equiv_pos_site_id
 _symmetry_equiv_pos_as_xyz
  1  'x, y, z'
loop_
 _atom_site_type_symbol
 _atom_site_label
 _atom_site_symmetry_multiplicity
 _atom_site_fract_x
 _atom_site_fract_y
 _atom_site_fract_z
 _atom_site_occupancy
  Na  Na0  1  0.234883  0.650356  0.823612  1
  Na  Na1  1  0.661271  0.984883  0.084527  1
  Na  Na2  1  0.900356  0.576744  0.915473  1
  Na  Na3  1  0.826744  0.411271  0.176388  1
  Na  Na4  1  0.015117  0.099644  0.676388  1
  Na  Na5  1  0.588729  0.765117  0.415473  1
  Na  Na6  1  0.349644  0.173256  0.584527  1
  Na  Na7  1  0.423256  0.338729  0.323612  1
  Na  Na8  1  0.750000  0.250000  0.500000  1
  Na  Na9  1  0.500000  0.500000  0.000000  1
  Lu  Lu10  1  1.000000  1.000000  0.000000  1
  Lu  Lu11  1  0.250000  0.750000  0.500000  1
  Mo  Mo12  1  0.168609  0.442809  0.089854  1
  Mo  Mo13  1  0.328755  0.918609  0.225800  1
  Mo  Mo14  1  0.897045  0.671245  0.589854  1
  Mo  Mo15  1  0.557191  0.647045  0.725800  1
  Mo  Mo16  1  0.921245  0.831391  0.274200  1
  Mo  Mo17  1  0.081391  0.307191  0.410146  1
  Mo  Mo18  1  0.352955  0.078755  0.910146  1
  Mo  Mo19  1  0.692809  0.102955  0.774200  1
  O  O20  1  0.980944  0.885762  0.742909  1
  O  O21  1  0.488035  0.730944  0.595182  1
  O  O22  1  0.135762  0.892853  0.404818  1
  O  O23  1  0.142853  0.238035  0.257091  1
  O  O24  1  0.269056  0.864238  0.757091  1
  O  O25  1  0.761965  0.019056  0.904818  1
  O  O26  1  0.114238  0.857147  0.095182  1
  O  O27  1  0.107147  0.511965  0.242909  1
  O  O28  1  0.980133  0.650329  0.452112  1
  O  O29  1  0.778021  0.730133  0.829804  1
  O  O30  1  0.900329  0.948217  0.170196  1
  O  O31  1  0.198217  0.528021  0.547888  1
  O  O32  1  0.269867  0.099671  0.047888  1
  O  O33  1  0.471979  0.019867  0.670196  1
  O  O34  1  0.349671  0.801783  0.329804  1
  O  O35  1  0.051783  0.221979  0.952112  1
  O  O36  1  0.929553  0.546561  0.678252  1
  O  O37  1  0.501301  0.679553  0.882992  1
  O  O38  1  0.796561  0.618309  0.117008  1
  O  O39  1  0.868309  0.251301  0.321748  1
  O  O40  1  0.135822  0.529812  0.961110  1
  O  O41  1  0.424712  0.885822  0.106009  1
  O  O42  1  0.779812  0.318702  0.893991  1
  O  O43  1  0.568702  0.174712  0.038890  1
  O  O44  1  0.114178  0.220188  0.538890  1
  O  O45  1  0.825288  0.864178  0.393991  1
  O  O46  1  0.470188  0.431298  0.606009  1
  O  O47  1  0.681298  0.575288  0.461110  1
  O  O48  1  0.381691  0.498699  0.178252  1
  O  O49  1  0.453439  0.131691  0.382992  1
  O  O50  1  0.748699  0.070447  0.617008  1
  O  O51  1  0.320447  0.203439  0.821748  1
