# generated using pymatgen
data_BaNa(PO3)3
_symmetry_space_group_name_H-M   'P 1'
_cell_length_a   5.90072037
_cell_length_b   11.27744604
_cell_length_c   12.48900973
_cell_angle_alpha   90.00000000
_cell_angle_beta   90.00000000
_cell_angle_gamma   90.00000000
_symmetry_Int_Tables_number   1
_chemical_formula_structural   BaNa(PO3)3
_chemical_formula_sum   'Ba4 Na4 P12 O36'
_cell_volume   831.08184649
_cell_formula_units_Z   4
loop_
 _symmetry_equiv_pos_site_id
 _symmetry_equiv_pos_as_xyz
  1  'x, y, z'
loop_
 _atom_site_type_symbol
 _atom_site_label
 _atom_site_symmetry_multiplicity
 _atom_site_fract_x
 _atom_site_fract_y
 _atom_site_fract_z
 _atom_site_occupancy
  Ba  Ba0  1  0.401993  0.893673  0.581275  1
  Ba  Ba1  1  0.901993  0.606327  0.418725  1
  Ba  Ba2  1  0.598007  0.393673  0.918725  1
  Ba  Ba3  1  0.098007  0.106327  0.081275  1
  Na  Na4  1  0.398041  0.522828  0.636232  1
  Na  Na5  1  0.898041  0.977172  0.363768  1
  Na  Na6  1  0.601959  0.022828  0.863768  1
  Na  Na7  1  0.101959  0.477172  0.136232  1
  P  P8  1  0.105374  0.849588  0.854670  1
  P  P9  1  0.605374  0.650412  0.145330  1
  P  P10  1  0.894626  0.349588  0.645330  1
  P  P11  1  0.394626  0.150412  0.354670  1
  P  P12  1  0.912349  0.702792  0.685328  1
  P  P13  1  0.412349  0.797208  0.314672  1
  P  P14  1  0.087651  0.202792  0.814672  1
  P  P15  1  0.587651  0.297208  0.185328  1
  P  P16  1  0.111662  0.589585  0.870723  1
  P  P17  1  0.611662  0.910415  0.129277  1
  P  P18  1  0.888338  0.089585  0.629277  1
  P  P19  1  0.388338  0.410415  0.370723  1
  O  O20  1  0.994146  0.938151  0.926467  1
  O  O21  1  0.494146  0.561849  0.073533  1
  O  O22  1  0.005854  0.438151  0.573533  1
  O  O23  1  0.505854  0.061849  0.426467  1
  O  O24  1  0.329693  0.875821  0.803386  1
  O  O25  1  0.829693  0.624179  0.196614  1
  O  O26  1  0.670307  0.375821  0.696614  1
  O  O27  1  0.170307  0.124179  0.303386  1
  O  O28  1  0.688525  0.696606  0.628256  1
  O  O29  1  0.188525  0.803394  0.371744  1
  O  O30  1  0.311475  0.196606  0.871744  1
  O  O31  1  0.811475  0.303394  0.128256  1
  O  O32  1  0.120891  0.697693  0.614907  1
  O  O33  1  0.620891  0.802307  0.385093  1
  O  O34  1  0.879109  0.197693  0.885093  1
  O  O35  1  0.379109  0.302307  0.114907  1
  O  O36  1  0.335141  0.558018  0.821181  1
  O  O37  1  0.835141  0.941982  0.178819  1
  O  O38  1  0.664859  0.058018  0.678819  1
  O  O39  1  0.164859  0.441982  0.321181  1
  O  O40  1  0.387855  0.276927  0.417794  1
  O  O41  1  0.887855  0.223073  0.582206  1
  O  O42  1  0.612145  0.776927  0.082206  1
  O  O43  1  0.112145  0.723073  0.917794  1
  O  O44  1  0.580729  0.179177  0.258985  1
  O  O45  1  0.080729  0.320823  0.741015  1
  O  O46  1  0.419271  0.679177  0.241015  1
  O  O47  1  0.919271  0.820823  0.758985  1
  O  O48  1  0.580187  0.399727  0.276007  1
  O  O49  1  0.080187  0.100273  0.723993  1
  O  O50  1  0.419813  0.899727  0.223993  1
  O  O51  1  0.919813  0.600273  0.776007  1
  O  O52  1  0.487985  0.492611  0.452796  1
  O  O53  1  0.987985  0.007389  0.547204  1
  O  O54  1  0.512015  0.992611  0.047204  1
  O  O55  1  0.012015  0.507389  0.952796  1
