# generated using pymatgen
data_PdS2
_symmetry_space_group_name_H-M   'P 1'
_cell_length_a   5.50170644
_cell_length_b   5.59391901
_cell_length_c   8.60708802
_cell_angle_alpha   90.00000000
_cell_angle_beta   90.00000000
_cell_angle_gamma   90.00000000
_symmetry_Int_Tables_number   1
_chemical_formula_structural   PdS2
_chemical_formula_sum   'Pd4 S8'
_cell_volume   264.89260370
_cell_formula_units_Z   4
loop_
 _symmetry_equiv_pos_site_id
 _symmetry_equiv_pos_as_xyz
  1  'x, y, z'
loop_
 _atom_site_type_symbol
 _atom_site_label
 _atom_site_symmetry_multiplicity
 _atom_site_fract_x
 _atom_site_fract_y
 _atom_site_fract_z
 _atom_site_occupancy
  Pd  Pd0  1  0.500000  0.000000  0.500000  1
  Pd  Pd1  1  0.000000  0.500000  0.500000  1
  Pd  Pd2  1  0.500000  0.500000  0.000000  1
  Pd  Pd3  1  0.000000  0.000000  0.000000  1
  S  S4  1  0.604188  0.110293  0.073108  1
  S  S5  1  0.104188  0.389707  0.926892  1
  S  S6  1  0.395812  0.610293  0.426892  1
  S  S7  1  0.895812  0.889707  0.573108  1
  S  S8  1  0.104188  0.110293  0.426892  1
  S  S9  1  0.604188  0.389707  0.573108  1
  S  S10  1  0.895812  0.610293  0.073108  1
  S  S11  1  0.395812  0.889707  0.926892  1
