# generated using pymatgen
data_CrNiO4
_symmetry_space_group_name_H-M   'P 1'
_cell_length_a   5.02065496
_cell_length_b   5.02065496
_cell_length_c   6.29715613
_cell_angle_alpha   90.00000000
_cell_angle_beta   90.00000000
_cell_angle_gamma   113.18558050
_symmetry_Int_Tables_number   1
_chemical_formula_structural   CrNiO4
_chemical_formula_sum   'Cr2 Ni2 O8'
_cell_volume   145.91216639
_cell_formula_units_Z   2
loop_
 _symmetry_equiv_pos_site_id
 _symmetry_equiv_pos_as_xyz
  1  'x, y, z'
loop_
 _atom_site_type_symbol
 _atom_site_label
 _atom_site_symmetry_multiplicity
 _atom_site_fract_x
 _atom_site_fract_y
 _atom_site_fract_z
 _atom_site_occupancy
  Cr  Cr0  1  0.356740  0.643260  0.750000  1
  Cr  Cr1  1  0.643260  0.356740  0.250000  1
  Ni  Ni2  1  0.000000  0.000000  0.500000  1
  Ni  Ni3  1  0.000000  0.000000  0.000000  1
  O  O4  1  0.272317  0.217233  0.250000  1
  O  O5  1  0.727683  0.782767  0.750000  1
  O  O6  1  0.217233  0.272317  0.750000  1
  O  O7  1  0.782767  0.727683  0.250000  1
  O  O8  1  0.757298  0.242702  0.039922  1
  O  O9  1  0.242702  0.757298  0.539922  1
  O  O10  1  0.242702  0.757298  0.960078  1
  O  O11  1  0.757298  0.242702  0.460078  1
