# generated using pymatgen
data_Tl3AsO4
_symmetry_space_group_name_H-M   'P 1'
_cell_length_a   9.13193246
_cell_length_b   9.13193246
_cell_length_c   5.36966496
_cell_angle_alpha   90.00000000
_cell_angle_beta   90.00000000
_cell_angle_gamma   120.00000000
_symmetry_Int_Tables_number   1
_chemical_formula_structural   Tl3AsO4
_chemical_formula_sum   'Tl6 As2 O8'
_cell_volume   387.79589001
_cell_formula_units_Z   2
loop_
 _symmetry_equiv_pos_site_id
 _symmetry_equiv_pos_as_xyz
  1  'x, y, z'
loop_
 _atom_site_type_symbol
 _atom_site_label
 _atom_site_symmetry_multiplicity
 _atom_site_fract_x
 _atom_site_fract_y
 _atom_site_fract_z
 _atom_site_occupancy
  Tl  Tl0  1  0.712687  0.087746  0.999796  1
  Tl  Tl1  1  0.912254  0.624941  0.999796  1
  Tl  Tl2  1  0.624941  0.712687  0.499796  1
  Tl  Tl3  1  0.287313  0.912254  0.499796  1
  Tl  Tl4  1  0.087746  0.375059  0.499796  1
  Tl  Tl5  1  0.375059  0.287313  0.999796  1
  As  As6  1  0.333333  0.666667  0.985532  1
  As  As7  1  0.666667  0.333333  0.485532  1
  O  O8  1  0.601560  0.129833  0.584523  1
  O  O9  1  0.471728  0.601560  0.084523  1
  O  O10  1  0.129833  0.528272  0.084523  1
  O  O11  1  0.870167  0.471728  0.584523  1
  O  O12  1  0.333333  0.666667  0.659611  1
  O  O13  1  0.398440  0.870167  0.084523  1
  O  O14  1  0.666667  0.333333  0.159611  1
  O  O15  1  0.528272  0.398440  0.584523  1
