# generated using pymatgen
data_Rb3SbSe4
_symmetry_space_group_name_H-M   'P 1'
_cell_length_a   10.03621522
_cell_length_b   10.63303939
_cell_length_c   11.70207399
_cell_angle_alpha   90.00000000
_cell_angle_beta   90.00000000
_cell_angle_gamma   90.00000000
_symmetry_Int_Tables_number   1
_chemical_formula_structural   Rb3SbSe4
_chemical_formula_sum   'Rb12 Sb4 Se16'
_cell_volume   1248.79234642
_cell_formula_units_Z   4
loop_
 _symmetry_equiv_pos_site_id
 _symmetry_equiv_pos_as_xyz
  1  'x, y, z'
loop_
 _atom_site_type_symbol
 _atom_site_label
 _atom_site_symmetry_multiplicity
 _atom_site_fract_x
 _atom_site_fract_y
 _atom_site_fract_z
 _atom_site_occupancy
  Rb  Rb0  1  0.929540  0.302553  0.954789  1
  Rb  Rb1  1  0.429540  0.197447  0.954789  1
  Rb  Rb2  1  0.570460  0.802553  0.454789  1
  Rb  Rb3  1  0.070460  0.697447  0.045211  1
  Rb  Rb4  1  0.139253  0.923505  0.750000  1
  Rb  Rb5  1  0.639253  0.576495  0.750000  1
  Rb  Rb6  1  0.360747  0.423505  0.250000  1
  Rb  Rb7  1  0.860747  0.076495  0.250000  1
  Rb  Rb8  1  0.070460  0.697447  0.454789  1
  Rb  Rb9  1  0.429540  0.197447  0.545211  1
  Rb  Rb10  1  0.570460  0.802553  0.045211  1
  Rb  Rb11  1  0.929540  0.302553  0.545211  1
  Sb  Sb12  1  0.773775  0.520393  0.250000  1
  Sb  Sb13  1  0.273775  0.979607  0.250000  1
  Sb  Sb14  1  0.726225  0.020393  0.750000  1
  Sb  Sb15  1  0.226225  0.479607  0.750000  1
  Se  Se16  1  0.642890  0.471375  0.071475  1
  Se  Se17  1  0.142890  0.028625  0.428525  1
  Se  Se18  1  0.857110  0.971375  0.928525  1
  Se  Se19  1  0.357110  0.528625  0.571475  1
  Se  Se20  1  0.357110  0.528625  0.928525  1
  Se  Se21  1  0.857110  0.971375  0.571475  1
  Se  Se22  1  0.142890  0.028625  0.071475  1
  Se  Se23  1  0.642890  0.471375  0.428525  1
  Se  Se24  1  0.008584  0.599752  0.750000  1
  Se  Se25  1  0.508584  0.900248  0.750000  1
  Se  Se26  1  0.491416  0.099752  0.250000  1
  Se  Se27  1  0.991416  0.400248  0.250000  1
  Se  Se28  1  0.174994  0.247914  0.750000  1
  Se  Se29  1  0.825006  0.752086  0.250000  1
  Se  Se30  1  0.325006  0.747914  0.250000  1
  Se  Se31  1  0.674994  0.252086  0.750000  1
