# generated using pymatgen
data_KAg(NO3)2
_symmetry_space_group_name_H-M   'P 1'
_cell_length_a   8.44685557
_cell_length_b   5.03485426
_cell_length_c   14.45032572
_cell_angle_alpha   90.00000000
_cell_angle_beta   99.72399386
_cell_angle_gamma   90.00000000
_symmetry_Int_Tables_number   1
_chemical_formula_structural   KAg(NO3)2
_chemical_formula_sum   'K4 Ag4 N8 O24'
_cell_volume   605.72397938
_cell_formula_units_Z   4
loop_
 _symmetry_equiv_pos_site_id
 _symmetry_equiv_pos_as_xyz
  1  'x, y, z'
loop_
 _atom_site_type_symbol
 _atom_site_label
 _atom_site_symmetry_multiplicity
 _atom_site_fract_x
 _atom_site_fract_y
 _atom_site_fract_z
 _atom_site_occupancy
  K  K0  1  0.736016  0.547956  0.432095  1
  K  K1  1  0.263984  0.047956  0.067905  1
  K  K2  1  0.263984  0.452044  0.567905  1
  K  K3  1  0.736016  0.952044  0.932095  1
  Ag  Ag4  1  0.807496  0.085802  0.214517  1
  Ag  Ag5  1  0.192504  0.585802  0.285483  1
  Ag  Ag6  1  0.192504  0.914198  0.785483  1
  Ag  Ag7  1  0.807496  0.414198  0.714517  1
  N  N8  1  0.437812  0.142020  0.335485  1
  N  N9  1  0.562188  0.642020  0.164515  1
  N  N10  1  0.562188  0.857980  0.664515  1
  N  N11  1  0.437812  0.357980  0.835485  1
  N  N12  1  0.061969  0.053835  0.400029  1
  N  N13  1  0.938031  0.553835  0.099971  1
  N  N14  1  0.938031  0.946165  0.599971  1
  N  N15  1  0.061969  0.446165  0.900029  1
  O  O16  1  0.323716  0.458260  0.777795  1
  O  O17  1  0.676284  0.958260  0.722205  1
  O  O18  1  0.676284  0.541740  0.222205  1
  O  O19  1  0.323716  0.041740  0.277795  1
  O  O20  1  0.570159  0.473632  0.858483  1
  O  O21  1  0.429841  0.973632  0.641517  1
  O  O22  1  0.429841  0.526368  0.141517  1
  O  O23  1  0.570159  0.026368  0.358483  1
  O  O24  1  0.990337  0.611738  0.838593  1
  O  O25  1  0.009663  0.111738  0.661407  1
  O  O26  1  0.009663  0.388262  0.161407  1
  O  O27  1  0.990337  0.888262  0.338593  1
  O  O28  1  0.020267  0.204514  0.895168  1
  O  O29  1  0.979733  0.704514  0.604832  1
  O  O30  1  0.979733  0.795486  0.104832  1
  O  O31  1  0.020267  0.295486  0.395168  1
  O  O32  1  0.172753  0.527076  0.962786  1
  O  O33  1  0.827247  0.027076  0.537214  1
  O  O34  1  0.827247  0.472924  0.037214  1
  O  O35  1  0.172753  0.972924  0.462786  1
  O  O36  1  0.417907  0.127780  0.871157  1
  O  O37  1  0.582093  0.627780  0.628843  1
  O  O38  1  0.582093  0.872220  0.128843  1
  O  O39  1  0.417907  0.372220  0.371157  1
