# generated using pymatgen
data_Mn4Be3Si3SO12
_symmetry_space_group_name_H-M   'P 1'
_cell_length_a   8.38665800
_cell_length_b   8.38665800
_cell_length_c   8.38665800
_cell_angle_alpha   90.00000000
_cell_angle_beta   90.00000000
_cell_angle_gamma   90.00000000
_symmetry_Int_Tables_number   1
_chemical_formula_structural   Mn4Be3Si3SO12
_chemical_formula_sum   'Mn8 Be6 Si6 S2 O24'
_cell_volume   589.88424889
_cell_formula_units_Z   2
loop_
 _symmetry_equiv_pos_site_id
 _symmetry_equiv_pos_as_xyz
  1  'x, y, z'
loop_
 _atom_site_type_symbol
 _atom_site_label
 _atom_site_symmetry_multiplicity
 _atom_site_fract_x
 _atom_site_fract_y
 _atom_site_fract_z
 _atom_site_occupancy
  Mn  Mn0  1  0.671270  0.671270  0.671270  1
  Mn  Mn1  1  0.828730  0.171270  0.828730  1
  Mn  Mn2  1  0.171270  0.828730  0.828730  1
  Mn  Mn3  1  0.828730  0.828730  0.171270  1
  Mn  Mn4  1  0.671270  0.328730  0.328730  1
  Mn  Mn5  1  0.328730  0.328730  0.671270  1
  Mn  Mn6  1  0.328730  0.671270  0.328730  1
  Mn  Mn7  1  0.171270  0.171270  0.171270  1
  Be  Be8  1  0.500000  0.750000  0.000000  1
  Be  Be9  1  0.500000  0.250000  0.000000  1
  Be  Be10  1  0.000000  0.500000  0.250000  1
  Be  Be11  1  0.000000  0.500000  0.750000  1
  Be  Be12  1  0.250000  0.000000  0.500000  1
  Be  Be13  1  0.750000  0.000000  0.500000  1
  Si  Si14  1  0.500000  0.000000  0.250000  1
  Si  Si15  1  0.500000  0.000000  0.750000  1
  Si  Si16  1  0.000000  0.250000  0.500000  1
  Si  Si17  1  0.250000  0.500000  0.000000  1
  Si  Si18  1  0.000000  0.750000  0.500000  1
  Si  Si19  1  0.750000  0.500000  0.000000  1
  S  S20  1  0.000000  0.000000  0.000000  1
  S  S21  1  0.500000  0.500000  0.500000  1
  O  O22  1  0.358394  0.641670  0.081764  1
  O  O23  1  0.141670  0.858394  0.581764  1
  O  O24  1  0.141670  0.141606  0.418236  1
  O  O25  1  0.358330  0.918236  0.358394  1
  O  O26  1  0.358330  0.081764  0.641606  1
  O  O27  1  0.081764  0.358394  0.641670  1
  O  O28  1  0.918236  0.358394  0.358330  1
  O  O29  1  0.641606  0.358330  0.081764  1
  O  O30  1  0.418236  0.858330  0.858394  1
  O  O31  1  0.418236  0.141670  0.141606  1
  O  O32  1  0.141606  0.418236  0.141670  1
  O  O33  1  0.858394  0.581764  0.141670  1
  O  O34  1  0.641670  0.918236  0.641606  1
  O  O35  1  0.858394  0.418236  0.858330  1
  O  O36  1  0.581764  0.858330  0.141606  1
  O  O37  1  0.581764  0.141670  0.858394  1
  O  O38  1  0.918236  0.641606  0.641670  1
  O  O39  1  0.141606  0.581764  0.858330  1
  O  O40  1  0.858330  0.141606  0.581764  1
  O  O41  1  0.858330  0.858394  0.418236  1
  O  O42  1  0.358394  0.358330  0.918236  1
  O  O43  1  0.641606  0.641670  0.918236  1
  O  O44  1  0.081764  0.641606  0.358330  1
  O  O45  1  0.641670  0.081764  0.358394  1
