# generated using pymatgen
data_K3Nb3Si2O13
_symmetry_space_group_name_H-M   'P 1'
_cell_length_a   9.25780977
_cell_length_b   9.25780977
_cell_length_c   7.92675338
_cell_angle_alpha   90.00000000
_cell_angle_beta   90.00000000
_cell_angle_gamma   120.00000000
_symmetry_Int_Tables_number   1
_chemical_formula_structural   K3Nb3Si2O13
_chemical_formula_sum   'K6 Nb6 Si4 O26'
_cell_volume   588.35911109
_cell_formula_units_Z   2
loop_
 _symmetry_equiv_pos_site_id
 _symmetry_equiv_pos_as_xyz
  1  'x, y, z'
loop_
 _atom_site_type_symbol
 _atom_site_label
 _atom_site_symmetry_multiplicity
 _atom_site_fract_x
 _atom_site_fract_y
 _atom_site_fract_z
 _atom_site_occupancy
  K  K0  1  0.404125  0.404125  0.500000  1
  K  K1  1  0.000000  0.595875  0.500000  1
  K  K2  1  0.610742  0.000000  0.000000  1
  K  K3  1  0.389258  0.389258  0.000000  1
  K  K4  1  0.595875  0.000000  0.500000  1
  K  K5  1  0.000000  0.610742  0.000000  1
  Nb  Nb6  1  0.237862  0.000000  0.250423  1
  Nb  Nb7  1  0.000000  0.237862  0.749577  1
  Nb  Nb8  1  0.000000  0.237862  0.250423  1
  Nb  Nb9  1  0.762138  0.762138  0.250423  1
  Nb  Nb10  1  0.237862  0.000000  0.749577  1
  Nb  Nb11  1  0.762138  0.762138  0.749577  1
  Si  Si12  1  0.666667  0.333333  0.208906  1
  Si  Si13  1  0.666667  0.333333  0.791094  1
  Si  Si14  1  0.333333  0.666667  0.791094  1
  Si  Si15  1  0.333333  0.666667  0.208906  1
  O  O16  1  0.000000  0.231927  0.500000  1
  O  O17  1  0.768073  0.768073  0.500000  1
  O  O18  1  0.231927  0.000000  0.500000  1
  O  O19  1  0.513377  0.696130  0.270869  1
  O  O20  1  0.303870  0.817247  0.270869  1
  O  O21  1  0.182753  0.486623  0.270869  1
  O  O22  1  0.486623  0.182753  0.729131  1
  O  O23  1  0.182753  0.486623  0.729131  1
  O  O24  1  0.513377  0.696130  0.729131  1
  O  O25  1  0.303870  0.817247  0.729131  1
  O  O26  1  0.696130  0.513377  0.270869  1
  O  O27  1  0.817247  0.303870  0.270869  1
  O  O28  1  0.817247  0.303870  0.729131  1
  O  O29  1  0.696130  0.513377  0.729131  1
  O  O30  1  0.486623  0.182753  0.270869  1
  O  O31  1  0.826083  0.000000  0.765408  1
  O  O32  1  0.333333  0.666667  0.000000  1
  O  O33  1  0.666667  0.333333  0.000000  1
  O  O34  1  0.270101  0.000000  0.000000  1
  O  O35  1  0.729899  0.729899  0.000000  1
  O  O36  1  0.000000  0.270101  0.000000  1
  O  O37  1  0.826083  0.000000  0.234592  1
  O  O38  1  0.173917  0.173917  0.765408  1
  O  O39  1  0.000000  0.826083  0.765408  1
  O  O40  1  0.000000  0.826083  0.234592  1
  O  O41  1  0.173917  0.173917  0.234592  1
