# generated using pymatgen
data_K5FeO4
_symmetry_space_group_name_H-M   'P 1'
_cell_length_a   6.78806884
_cell_length_b   11.53001241
_cell_length_c   20.58400931
_cell_angle_alpha   90.00000000
_cell_angle_beta   90.00000000
_cell_angle_gamma   90.00000000
_symmetry_Int_Tables_number   1
_chemical_formula_structural   K5FeO4
_chemical_formula_sum   'K40 Fe8 O32'
_cell_volume   1611.03873446
_cell_formula_units_Z   8
loop_
 _symmetry_equiv_pos_site_id
 _symmetry_equiv_pos_as_xyz
  1  'x, y, z'
loop_
 _atom_site_type_symbol
 _atom_site_label
 _atom_site_symmetry_multiplicity
 _atom_site_fract_x
 _atom_site_fract_y
 _atom_site_fract_z
 _atom_site_occupancy
  K  K0  1  0.075666  0.352917  0.999101  1
  K  K1  1  0.416113  0.063689  0.434208  1
  K  K2  1  0.583887  0.436311  0.934208  1
  K  K3  1  0.083887  0.563689  0.565792  1
  K  K4  1  0.083887  0.063689  0.934208  1
  K  K5  1  0.583887  0.936311  0.565792  1
  K  K6  1  0.416113  0.563689  0.065792  1
  K  K7  1  0.916113  0.436311  0.434208  1
  K  K8  1  0.926489  0.702837  0.365357  1
  K  K9  1  0.426489  0.297163  0.134643  1
  K  K10  1  0.573511  0.202837  0.634643  1
  K  K11  1  0.073511  0.797163  0.865357  1
  K  K12  1  0.073511  0.297163  0.634643  1
  K  K13  1  0.573511  0.702837  0.865357  1
  K  K14  1  0.426489  0.797163  0.365357  1
  K  K15  1  0.926489  0.202837  0.134643  1
  K  K16  1  0.610027  0.083775  0.247867  1
  K  K17  1  0.110027  0.916225  0.252133  1
  K  K18  1  0.889973  0.583775  0.752133  1
  K  K19  1  0.389973  0.416225  0.747867  1
  K  K20  1  0.389973  0.916225  0.752133  1
  K  K21  1  0.889973  0.083775  0.747867  1
  K  K22  1  0.110027  0.416225  0.247867  1
  K  K23  1  0.610027  0.583775  0.252133  1
  K  K24  1  0.606038  0.828167  0.174601  1
  K  K25  1  0.424334  0.852917  0.000899  1
  K  K26  1  0.575666  0.647083  0.500899  1
  K  K27  1  0.916113  0.936311  0.065792  1
  K  K28  1  0.075666  0.852917  0.500899  1
  K  K29  1  0.575666  0.147083  0.999101  1
  K  K30  1  0.424334  0.352917  0.499101  1
  K  K31  1  0.924334  0.647083  0.000899  1
  K  K32  1  0.606038  0.328167  0.325399  1
  K  K33  1  0.106038  0.671833  0.174601  1
  K  K34  1  0.893962  0.828167  0.674601  1
  K  K35  1  0.393962  0.171833  0.825399  1
  K  K36  1  0.393962  0.671833  0.674601  1
  K  K37  1  0.893962  0.328167  0.825399  1
  K  K38  1  0.106038  0.171833  0.325399  1
  K  K39  1  0.924334  0.147083  0.499101  1
  Fe  Fe40  1  0.821823  0.464417  0.124502  1
  Fe  Fe41  1  0.321823  0.535583  0.375498  1
  Fe  Fe42  1  0.678177  0.964417  0.875498  1
  Fe  Fe43  1  0.178177  0.035583  0.624502  1
  Fe  Fe44  1  0.178177  0.535583  0.875498  1
  Fe  Fe45  1  0.678177  0.464417  0.624502  1
  Fe  Fe46  1  0.321823  0.035583  0.124502  1
  Fe  Fe47  1  0.821823  0.964417  0.375498  1
  O  O48  1  0.745224  0.126673  0.371885  1
  O  O49  1  0.245224  0.873327  0.128115  1
  O  O50  1  0.754776  0.626673  0.628115  1
  O  O51  1  0.254776  0.373327  0.871885  1
  O  O52  1  0.254776  0.873327  0.628115  1
  O  O53  1  0.754776  0.126673  0.871885  1
  O  O54  1  0.245224  0.373327  0.371885  1
  O  O55  1  0.745224  0.626673  0.128115  1
  O  O56  1  0.740280  0.384671  0.203586  1
  O  O57  1  0.240280  0.615329  0.296414  1
  O  O58  1  0.759720  0.884671  0.796414  1
  O  O59  1  0.259720  0.115329  0.703586  1
  O  O60  1  0.259720  0.615329  0.796414  1
  O  O61  1  0.759720  0.384671  0.703586  1
  O  O62  1  0.240280  0.115329  0.203586  1
  O  O63  1  0.740280  0.884671  0.296414  1
  O  O64  1  0.704253  0.385382  0.051494  1
  O  O65  1  0.204253  0.614618  0.448506  1
  O  O66  1  0.795747  0.885382  0.948506  1
  O  O67  1  0.295747  0.114618  0.551494  1
  O  O68  1  0.295747  0.614618  0.948506  1
  O  O69  1  0.795747  0.385382  0.551494  1
  O  O70  1  0.204253  0.114618  0.051494  1
  O  O71  1  0.704253  0.885382  0.448506  1
  O  O72  1  0.605099  0.044037  0.117440  1
  O  O73  1  0.105099  0.955963  0.382560  1
  O  O74  1  0.894901  0.544037  0.882560  1
  O  O75  1  0.394901  0.455963  0.617440  1
  O  O76  1  0.394901  0.955963  0.882560  1
  O  O77  1  0.894901  0.044037  0.617440  1
  O  O78  1  0.105099  0.455963  0.117440  1
  O  O79  1  0.605099  0.544037  0.382560  1
