# generated using pymatgen
data_ZnP2PbO7
_symmetry_space_group_name_H-M   'P 1'
_cell_length_a   5.40856912
_cell_length_b   8.41694253
_cell_length_c   14.12864651
_cell_angle_alpha   90.00000000
_cell_angle_beta   112.13554710
_cell_angle_gamma   90.00000000
_symmetry_Int_Tables_number   1
_chemical_formula_structural   ZnP2PbO7
_chemical_formula_sum   'Zn4 P8 Pb4 O28'
_cell_volume   595.78099210
_cell_formula_units_Z   4
loop_
 _symmetry_equiv_pos_site_id
 _symmetry_equiv_pos_as_xyz
  1  'x, y, z'
loop_
 _atom_site_type_symbol
 _atom_site_label
 _atom_site_symmetry_multiplicity
 _atom_site_fract_x
 _atom_site_fract_y
 _atom_site_fract_z
 _atom_site_occupancy
  Zn  Zn0  1  0.276191  0.347990  0.604209  1
  Zn  Zn1  1  0.723809  0.652010  0.395791  1
  Zn  Zn2  1  0.276191  0.152010  0.104209  1
  Zn  Zn3  1  0.723809  0.847990  0.895791  1
  P  P4  1  0.337536  0.799667  0.020241  1
  P  P5  1  0.337536  0.700333  0.520241  1
  P  P6  1  0.662464  0.200333  0.979759  1
  P  P7  1  0.662464  0.299667  0.479759  1
  P  P8  1  0.418626  0.536331  0.166855  1
  P  P9  1  0.418626  0.963669  0.666855  1
  P  P10  1  0.581374  0.463669  0.833145  1
  P  P11  1  0.581374  0.036331  0.333145  1
  Pb  Pb12  1  0.981075  0.327019  0.277274  1
  Pb  Pb13  1  0.018925  0.827019  0.222726  1
  Pb  Pb14  1  0.018925  0.672981  0.722726  1
  Pb  Pb15  1  0.981075  0.172981  0.777274  1
  O  O16  1  0.184620  0.559327  0.201476  1
  O  O17  1  0.815380  0.059327  0.298524  1
  O  O18  1  0.815380  0.440673  0.798524  1
  O  O19  1  0.184620  0.940673  0.701476  1
  O  O20  1  0.480533  0.361852  0.154130  1
  O  O21  1  0.519467  0.861852  0.345870  1
  O  O22  1  0.519467  0.638148  0.845870  1
  O  O23  1  0.480533  0.138148  0.654130  1
  O  O24  1  0.675568  0.619094  0.239134  1
  O  O25  1  0.324432  0.119094  0.260866  1
  O  O26  1  0.324432  0.380906  0.760866  1
  O  O27  1  0.675568  0.880906  0.739134  1
  O  O28  1  0.278951  0.902917  0.099742  1
  O  O29  1  0.721049  0.402917  0.400258  1
  O  O30  1  0.721049  0.097083  0.900258  1
  O  O31  1  0.278951  0.597083  0.599742  1
  O  O32  1  0.109882  0.692819  0.414380  1
  O  O33  1  0.890118  0.192819  0.085620  1
  O  O34  1  0.890118  0.307181  0.585620  1
  O  O35  1  0.109882  0.807181  0.914380  1
  O  O36  1  0.335194  0.884406  0.555023  1
  O  O37  1  0.664806  0.384406  0.944977  1
  O  O38  1  0.664806  0.115594  0.444977  1
  O  O39  1  0.335194  0.615594  0.055023  1
  O  O40  1  0.616770  0.668252  0.520105  1
  O  O41  1  0.383230  0.168252  0.979895  1
  O  O42  1  0.383230  0.331748  0.479895  1
  O  O43  1  0.616770  0.831748  0.020105  1
