# generated using pymatgen
data_KSmGeSe4
_symmetry_space_group_name_H-M   'P 1'
_cell_length_a   6.89853995
_cell_length_b   7.11327604
_cell_length_c   9.15959504
_cell_angle_alpha   90.00000000
_cell_angle_beta   107.67086525
_cell_angle_gamma   90.00000000
_symmetry_Int_Tables_number   1
_chemical_formula_structural   KSmGeSe4
_chemical_formula_sum   'K2 Sm2 Ge2 Se8'
_cell_volume   428.26456482
_cell_formula_units_Z   2
loop_
 _symmetry_equiv_pos_site_id
 _symmetry_equiv_pos_as_xyz
  1  'x, y, z'
loop_
 _atom_site_type_symbol
 _atom_site_label
 _atom_site_symmetry_multiplicity
 _atom_site_fract_x
 _atom_site_fract_y
 _atom_site_fract_z
 _atom_site_occupancy
  K  K0  1  0.754540  0.707560  0.062358  1
  K  K1  1  0.245460  0.207560  0.937642  1
  Sm  Sm2  1  0.270969  0.203062  0.448840  1
  Sm  Sm3  1  0.729031  0.703062  0.551160  1
  Ge  Ge4  1  0.722652  0.237012  0.326304  1
  Ge  Ge5  1  0.277348  0.737012  0.673696  1
  Se  Se6  1  0.532959  0.976092  0.724278  1
  Se  Se7  1  0.467041  0.476092  0.275722  1
  Se  Se8  1  0.486047  0.462274  0.706250  1
  Se  Se9  1  0.925919  0.240807  0.161301  1
  Se  Se10  1  0.074081  0.740807  0.838699  1
  Se  Se11  1  0.065988  0.809083  0.421888  1
  Se  Se12  1  0.934012  0.309083  0.578112  1
  Se  Se13  1  0.513953  0.962274  0.293750  1
