# generated using pymatgen
data_Na3In2(PO4)3
_symmetry_space_group_name_H-M   'P 1'
_cell_length_a   9.05353735
_cell_length_b   9.05353735
_cell_length_c   6.70580506
_cell_angle_alpha   73.28573671
_cell_angle_beta   106.71426329
_cell_angle_gamma   88.41782834
_symmetry_Int_Tables_number   1
_chemical_formula_structural   Na3In2(PO4)3
_chemical_formula_sum   'Na6 In4 P6 O24'
_cell_volume   500.52830484
_cell_formula_units_Z   2
loop_
 _symmetry_equiv_pos_site_id
 _symmetry_equiv_pos_as_xyz
  1  'x, y, z'
loop_
 _atom_site_type_symbol
 _atom_site_label
 _atom_site_symmetry_multiplicity
 _atom_site_fract_x
 _atom_site_fract_y
 _atom_site_fract_z
 _atom_site_occupancy
  Na  Na0  1  0.724753  0.724753  0.250000  1
  Na  Na1  1  0.016780  0.016780  0.250000  1
  Na  Na2  1  0.500000  0.500000  0.000000  1
  Na  Na3  1  0.983220  0.983220  0.750000  1
  Na  Na4  1  0.275247  0.275247  0.750000  1
  Na  Na5  1  0.500000  0.500000  0.500000  1
  In  In6  1  0.616140  0.071082  0.345797  1
  In  In7  1  0.383860  0.928918  0.654203  1
  In  In8  1  0.928918  0.383860  0.845797  1
  In  In9  1  0.071082  0.616140  0.154203  1
  P  P10  1  0.341120  0.862086  0.133354  1
  P  P11  1  0.137914  0.658880  0.633354  1
  P  P12  1  0.274534  0.274534  0.250000  1
  P  P13  1  0.725466  0.725466  0.750000  1
  P  P14  1  0.862086  0.341120  0.366646  1
  P  P15  1  0.658880  0.137914  0.866646  1
  O  O16  1  0.260053  0.437615  0.281630  1
  O  O17  1  0.437615  0.260053  0.218370  1
  O  O18  1  0.739947  0.562385  0.718370  1
  O  O19  1  0.562385  0.739947  0.781630  1
  O  O20  1  0.153437  0.255083  0.044308  1
  O  O21  1  0.255083  0.153437  0.455692  1
  O  O22  1  0.846563  0.744917  0.955692  1
  O  O23  1  0.744917  0.846563  0.544308  1
  O  O24  1  0.666189  0.010138  0.084227  1
  O  O25  1  0.010138  0.666189  0.415773  1
  O  O26  1  0.333811  0.989862  0.915773  1
  O  O27  1  0.989862  0.333811  0.584227  1
  O  O28  1  0.832418  0.164150  0.879817  1
  O  O29  1  0.164150  0.832418  0.620183  1
  O  O30  1  0.167582  0.835850  0.120183  1
  O  O31  1  0.835850  0.167582  0.379817  1
  O  O32  1  0.713088  0.441935  0.327644  1
  O  O33  1  0.441935  0.713088  0.172356  1
  O  O34  1  0.286912  0.558065  0.672356  1
  O  O35  1  0.558065  0.286912  0.827644  1
  O  O36  1  0.935154  0.406279  0.175543  1
  O  O37  1  0.406279  0.935154  0.324457  1
  O  O38  1  0.064846  0.593721  0.824457  1
  O  O39  1  0.593721  0.064846  0.675543  1
