# generated using pymatgen
data_K3PS4
_symmetry_space_group_name_H-M   'P 1'
_cell_length_a   9.14396685
_cell_length_b   9.32127314
_cell_length_c   10.66343898
_cell_angle_alpha   90.00000000
_cell_angle_beta   90.00000000
_cell_angle_gamma   90.00000000
_symmetry_Int_Tables_number   1
_chemical_formula_structural   K3PS4
_chemical_formula_sum   'K12 P4 S16'
_cell_volume   908.88129423
_cell_formula_units_Z   4
loop_
 _symmetry_equiv_pos_site_id
 _symmetry_equiv_pos_as_xyz
  1  'x, y, z'
loop_
 _atom_site_type_symbol
 _atom_site_label
 _atom_site_symmetry_multiplicity
 _atom_site_fract_x
 _atom_site_fract_y
 _atom_site_fract_z
 _atom_site_occupancy
  K  K0  1  0.639922  0.420929  0.250000  1
  K  K1  1  0.860078  0.920929  0.750000  1
  K  K2  1  0.139922  0.079071  0.250000  1
  K  K3  1  0.360078  0.579071  0.750000  1
  K  K4  1  0.444929  0.797725  0.044506  1
  K  K5  1  0.055071  0.297725  0.955494  1
  K  K6  1  0.944929  0.702275  0.455494  1
  K  K7  1  0.555071  0.202275  0.544506  1
  K  K8  1  0.555071  0.202275  0.955494  1
  K  K9  1  0.944929  0.702275  0.044506  1
  K  K10  1  0.055071  0.297725  0.544506  1
  K  K11  1  0.444929  0.797725  0.455494  1
  P  P12  1  0.722047  0.980634  0.250000  1
  P  P13  1  0.777953  0.480634  0.750000  1
  P  P14  1  0.222047  0.519366  0.250000  1
  P  P15  1  0.277953  0.019366  0.750000  1
  S  S16  1  0.693574  0.761066  0.250000  1
  S  S17  1  0.806426  0.261066  0.750000  1
  S  S18  1  0.193574  0.738934  0.250000  1
  S  S19  1  0.306426  0.238934  0.750000  1
  S  S20  1  0.519926  0.081146  0.250000  1
  S  S21  1  0.980074  0.581146  0.750000  1
  S  S22  1  0.019926  0.418854  0.250000  1
  S  S23  1  0.480074  0.918854  0.750000  1
  S  S24  1  0.834469  0.037550  0.090360  1
  S  S25  1  0.665531  0.537550  0.909640  1
  S  S26  1  0.334469  0.462450  0.409640  1
  S  S27  1  0.165531  0.962450  0.590360  1
  S  S28  1  0.165531  0.962450  0.909640  1
  S  S29  1  0.334469  0.462450  0.090360  1
  S  S30  1  0.665531  0.537550  0.590360  1
  S  S31  1  0.834469  0.037550  0.409640  1
