# generated using pymatgen
data_Sr3(GeP2)2
_symmetry_space_group_name_H-M   'P 1'
_cell_length_a   7.31810549
_cell_length_b   18.27841510
_cell_length_c   7.50364721
_cell_angle_alpha   90.00000000
_cell_angle_beta   112.04539042
_cell_angle_gamma   90.00000000
_symmetry_Int_Tables_number   1
_chemical_formula_structural   Sr3(GeP2)2
_chemical_formula_sum   'Sr12 Ge8 P16'
_cell_volume   930.32845267
_cell_formula_units_Z   4
loop_
 _symmetry_equiv_pos_site_id
 _symmetry_equiv_pos_as_xyz
  1  'x, y, z'
loop_
 _atom_site_type_symbol
 _atom_site_label
 _atom_site_symmetry_multiplicity
 _atom_site_fract_x
 _atom_site_fract_y
 _atom_site_fract_z
 _atom_site_occupancy
  Sr  Sr0  1  0.011160  0.315559  0.216234  1
  Sr  Sr1  1  0.488840  0.815559  0.783766  1
  Sr  Sr2  1  0.988840  0.684441  0.783766  1
  Sr  Sr3  1  0.511160  0.184441  0.216234  1
  Sr  Sr4  1  0.995470  0.441379  0.739284  1
  Sr  Sr5  1  0.504530  0.941379  0.260716  1
  Sr  Sr6  1  0.004530  0.558621  0.260716  1
  Sr  Sr7  1  0.495470  0.058621  0.739284  1
  Sr  Sr8  1  0.511408  0.436598  0.256322  1
  Sr  Sr9  1  0.988592  0.936598  0.743678  1
  Sr  Sr10  1  0.488592  0.563402  0.743678  1
  Sr  Sr11  1  0.011408  0.063402  0.256322  1
  Ge  Ge12  1  0.526686  0.627304  0.212298  1
  Ge  Ge13  1  0.973314  0.127304  0.787702  1
  Ge  Ge14  1  0.473314  0.372696  0.787702  1
  Ge  Ge15  1  0.026686  0.872696  0.212298  1
  Ge  Ge16  1  0.408435  0.741518  0.314371  1
  Ge  Ge17  1  0.908435  0.758482  0.314371  1
  Ge  Ge18  1  0.591565  0.258482  0.685629  1
  Ge  Ge19  1  0.091565  0.241518  0.685629  1
  P  P20  1  0.261594  0.431805  0.508855  1
  P  P21  1  0.238406  0.931805  0.491145  1
  P  P22  1  0.738406  0.568195  0.491145  1
  P  P23  1  0.761594  0.068195  0.508855  1
  P  P24  1  0.742966  0.439445  0.990083  1
  P  P25  1  0.757034  0.939445  0.009917  1
  P  P26  1  0.257034  0.560555  0.009917  1
  P  P27  1  0.242966  0.060555  0.990083  1
  P  P28  1  0.781999  0.184963  0.952931  1
  P  P29  1  0.718001  0.684963  0.047069  1
  P  P30  1  0.218001  0.815037  0.047069  1
  P  P31  1  0.281999  0.315037  0.952931  1
  P  P32  1  0.718102  0.799594  0.497271  1
  P  P33  1  0.218102  0.700406  0.497271  1
  P  P34  1  0.281898  0.200406  0.502729  1
  P  P35  1  0.781898  0.299594  0.502729  1
