# generated using pymatgen
data_Ca(YS2)2
_symmetry_space_group_name_H-M   'P 1'
_cell_length_a   3.90903391
_cell_length_b   13.03352526
_cell_length_c   13.17932975
_cell_angle_alpha   90.00000000
_cell_angle_beta   90.00000000
_cell_angle_gamma   90.00000000
_symmetry_Int_Tables_number   1
_chemical_formula_structural   Ca(YS2)2
_chemical_formula_sum   'Ca4 Y8 S16'
_cell_volume   671.46697908
_cell_formula_units_Z   4
loop_
 _symmetry_equiv_pos_site_id
 _symmetry_equiv_pos_as_xyz
  1  'x, y, z'
loop_
 _atom_site_type_symbol
 _atom_site_label
 _atom_site_symmetry_multiplicity
 _atom_site_fract_x
 _atom_site_fract_y
 _atom_site_fract_z
 _atom_site_occupancy
  Ca  Ca0  1  0.750000  0.629719  0.418723  1
  Ca  Ca1  1  0.250000  0.370281  0.581277  1
  Ca  Ca2  1  0.750000  0.129719  0.081277  1
  Ca  Ca3  1  0.250000  0.870281  0.918723  1
  Y  Y4  1  0.750000  0.892067  0.583414  1
  Y  Y5  1  0.250000  0.107933  0.416586  1
  Y  Y6  1  0.750000  0.392067  0.916586  1
  Y  Y7  1  0.250000  0.607933  0.083414  1
  Y  Y8  1  0.250000  0.646350  0.703057  1
  Y  Y9  1  0.750000  0.353650  0.296943  1
  Y  Y10  1  0.250000  0.146350  0.796943  1
  Y  Y11  1  0.750000  0.853650  0.203057  1
  S  S12  1  0.250000  0.971185  0.117551  1
  S  S13  1  0.750000  0.028815  0.882449  1
  S  S14  1  0.250000  0.471185  0.382449  1
  S  S15  1  0.750000  0.528815  0.617551  1
  S  S16  1  0.750000  0.743950  0.025346  1
  S  S17  1  0.250000  0.256050  0.974654  1
  S  S18  1  0.750000  0.243950  0.474654  1
  S  S19  1  0.250000  0.756050  0.525346  1
  S  S20  1  0.250000  0.533221  0.882781  1
  S  S21  1  0.750000  0.466779  0.117219  1
  S  S22  1  0.250000  0.033221  0.617219  1
  S  S23  1  0.750000  0.966779  0.382781  1
  S  S24  1  0.750000  0.782285  0.763206  1
  S  S25  1  0.250000  0.217715  0.236794  1
  S  S26  1  0.750000  0.282285  0.736794  1
  S  S27  1  0.250000  0.717715  0.263206  1
