# generated using pymatgen
data_LiDyS2
_symmetry_space_group_name_H-M   'P 1'
_cell_length_a   6.57617157
_cell_length_b   6.57617157
_cell_length_c   6.57617157
_cell_angle_alpha   34.61023643
_cell_angle_beta   34.61023643
_cell_angle_gamma   34.61023643
_symmetry_Int_Tables_number   1
_chemical_formula_structural   LiDyS2
_chemical_formula_sum   'Li1 Dy1 S2'
_cell_volume   81.86677248
_cell_formula_units_Z   1
loop_
 _symmetry_equiv_pos_site_id
 _symmetry_equiv_pos_as_xyz
  1  'x, y, z'
loop_
 _atom_site_type_symbol
 _atom_site_label
 _atom_site_symmetry_multiplicity
 _atom_site_fract_x
 _atom_site_fract_y
 _atom_site_fract_z
 _atom_site_occupancy
  Li  Li0  1  0.500000  0.500000  0.500000  1
  Dy  Dy1  1  0.000000  0.000000  0.000000  1
  S  S2  1  0.750129  0.750129  0.750129  1
  S  S3  1  0.249871  0.249871  0.249871  1
