# generated using pymatgen
data_ZnAg2P2O7
_symmetry_space_group_name_H-M   'P 1'
_cell_length_a   7.90356398
_cell_length_b   7.90356398
_cell_length_c   10.61219276
_cell_angle_alpha   90.00000000
_cell_angle_beta   90.00000000
_cell_angle_gamma   90.00000000
_symmetry_Int_Tables_number   1
_chemical_formula_structural   ZnAg2P2O7
_chemical_formula_sum   'Zn4 Ag8 P8 O28'
_cell_volume   662.90466690
_cell_formula_units_Z   4
loop_
 _symmetry_equiv_pos_site_id
 _symmetry_equiv_pos_as_xyz
  1  'x, y, z'
loop_
 _atom_site_type_symbol
 _atom_site_label
 _atom_site_symmetry_multiplicity
 _atom_site_fract_x
 _atom_site_fract_y
 _atom_site_fract_z
 _atom_site_occupancy
  Zn  Zn0  1  0.000000  0.500000  0.750000  1
  Zn  Zn1  1  0.500000  0.000000  0.250000  1
  Zn  Zn2  1  0.000000  0.500000  0.250000  1
  Zn  Zn3  1  0.500000  0.000000  0.750000  1
  Ag  Ag4  1  0.639493  0.639493  0.000000  1
  Ag  Ag5  1  0.860507  0.139493  0.500000  1
  Ag  Ag6  1  0.139493  0.860507  0.500000  1
  Ag  Ag7  1  0.360507  0.360507  0.000000  1
  Ag  Ag8  1  0.299185  0.299185  0.500000  1
  Ag  Ag9  1  0.799185  0.200815  0.000000  1
  Ag  Ag10  1  0.700815  0.700815  0.500000  1
  Ag  Ag11  1  0.200815  0.799185  0.000000  1
  P  P12  1  0.862778  0.862778  0.788649  1
  P  P13  1  0.137222  0.137222  0.788649  1
  P  P14  1  0.862778  0.862778  0.211351  1
  P  P15  1  0.362778  0.637222  0.288649  1
  P  P16  1  0.637222  0.362778  0.288649  1
  P  P17  1  0.637222  0.362778  0.711351  1
  P  P18  1  0.362778  0.637222  0.711351  1
  P  P19  1  0.137222  0.137222  0.211351  1
  O  O20  1  0.304986  0.079832  0.150228  1
  O  O21  1  0.695013  0.920168  0.150228  1
  O  O22  1  0.079832  0.304986  0.849772  1
  O  O23  1  0.579832  0.195014  0.650228  1
  O  O24  1  0.420168  0.804987  0.650228  1
  O  O25  1  0.195014  0.579832  0.349772  1
  O  O26  1  0.804987  0.420168  0.349772  1
  O  O27  1  0.920168  0.695013  0.849772  1
  O  O28  1  0.695013  0.920168  0.849772  1
  O  O29  1  0.304986  0.079832  0.849772  1
  O  O30  1  0.920168  0.695013  0.150228  1
  O  O31  1  0.420168  0.804987  0.349772  1
  O  O32  1  0.579832  0.195014  0.349772  1
  O  O33  1  0.804987  0.420168  0.650228  1
  O  O34  1  0.195014  0.579832  0.650228  1
  O  O35  1  0.079832  0.304986  0.150228  1
  O  O36  1  0.865377  0.865377  0.645254  1
  O  O37  1  0.134623  0.134623  0.645254  1
  O  O38  1  0.865377  0.865377  0.354746  1
  O  O39  1  0.365377  0.634623  0.145254  1
  O  O40  1  0.000000  0.000000  0.157297  1
  O  O41  1  0.500000  0.500000  0.657297  1
  O  O42  1  0.500000  0.500000  0.342703  1
  O  O43  1  0.000000  0.000000  0.842703  1
  O  O44  1  0.134623  0.134623  0.354746  1
  O  O45  1  0.365377  0.634623  0.854746  1
  O  O46  1  0.634623  0.365377  0.854746  1
  O  O47  1  0.634623  0.365377  0.145254  1
