# generated using pymatgen
data_RbNd2CuS4
_symmetry_space_group_name_H-M   'P 1'
_cell_length_a   7.37361927
_cell_length_b   7.37361927
_cell_length_c   14.08177704
_cell_angle_alpha   90.00000000
_cell_angle_beta   90.00000000
_cell_angle_gamma   147.74770605
_symmetry_Int_Tables_number   1
_chemical_formula_structural   RbNd2CuS4
_chemical_formula_sum   'Rb2 Nd4 Cu2 S8'
_cell_volume   408.57715041
_cell_formula_units_Z   2
loop_
 _symmetry_equiv_pos_site_id
 _symmetry_equiv_pos_as_xyz
  1  'x, y, z'
loop_
 _atom_site_type_symbol
 _atom_site_label
 _atom_site_symmetry_multiplicity
 _atom_site_fract_x
 _atom_site_fract_y
 _atom_site_fract_z
 _atom_site_occupancy
  Rb  Rb0  1  0.105949  0.894051  0.250000  1
  Rb  Rb1  1  0.894051  0.105949  0.750000  1
  Nd  Nd2  1  0.634457  0.365543  0.938514  1
  Nd  Nd3  1  0.365543  0.634457  0.438514  1
  Nd  Nd4  1  0.634457  0.365543  0.561486  1
  Nd  Nd5  1  0.365543  0.634457  0.061486  1
  Cu  Cu6  1  0.164650  0.835350  0.750000  1
  Cu  Cu7  1  0.835350  0.164650  0.250000  1
  S  S8  1  0.000000  0.000000  0.500000  1
  S  S9  1  0.000000  0.000000  0.000000  1
  S  S10  1  0.424202  0.575798  0.250000  1
  S  S11  1  0.575798  0.424202  0.750000  1
  S  S12  1  0.740006  0.259994  0.387227  1
  S  S13  1  0.259994  0.740006  0.887227  1
  S  S14  1  0.259994  0.740006  0.612773  1
  S  S15  1  0.740006  0.259994  0.112773  1
