# generated using pymatgen
data_K6CdO4
_symmetry_space_group_name_H-M   'P 1'
_cell_length_a   8.83173285
_cell_length_b   8.83173285
_cell_length_c   6.73896576
_cell_angle_alpha   90.00000000
_cell_angle_beta   90.00000000
_cell_angle_gamma   120.00000000
_symmetry_Int_Tables_number   1
_chemical_formula_structural   K6CdO4
_chemical_formula_sum   'K12 Cd2 O8'
_cell_volume   455.21412453
_cell_formula_units_Z   2
loop_
 _symmetry_equiv_pos_site_id
 _symmetry_equiv_pos_as_xyz
  1  'x, y, z'
loop_
 _atom_site_type_symbol
 _atom_site_label
 _atom_site_symmetry_multiplicity
 _atom_site_fract_x
 _atom_site_fract_y
 _atom_site_fract_z
 _atom_site_occupancy
  K  K0  1  0.538113  0.076226  0.139163  1
  K  K1  1  0.461887  0.538113  0.639163  1
  K  K2  1  0.923774  0.461887  0.139163  1
  K  K3  1  0.538113  0.461887  0.139163  1
  K  K4  1  0.143342  0.856658  0.975574  1
  K  K5  1  0.286684  0.143342  0.475574  1
  K  K6  1  0.076226  0.538113  0.639163  1
  K  K7  1  0.856658  0.713316  0.475574  1
  K  K8  1  0.856658  0.143342  0.475574  1
  K  K9  1  0.713316  0.856658  0.975574  1
  K  K10  1  0.143342  0.286684  0.975574  1
  K  K11  1  0.461887  0.923774  0.639163  1
  Cd  Cd12  1  0.666667  0.333333  0.747575  1
  Cd  Cd13  1  0.333333  0.666667  0.247575  1
  O  O14  1  0.191924  0.808076  0.361755  1
  O  O15  1  0.383847  0.191924  0.861755  1
  O  O16  1  0.808076  0.616153  0.861755  1
  O  O17  1  0.191924  0.383847  0.361755  1
  O  O18  1  0.616153  0.808076  0.361755  1
  O  O19  1  0.808076  0.191924  0.861755  1
  O  O20  1  0.666667  0.333333  0.415348  1
  O  O21  1  0.333333  0.666667  0.915348  1
