# generated using pymatgen
data_Sr10P6SO24
_symmetry_space_group_name_H-M   'P 1'
_cell_length_a   9.93135799
_cell_length_b   9.93135799
_cell_length_c   7.28635200
_cell_angle_alpha   90.00000000
_cell_angle_beta   90.00000000
_cell_angle_gamma   120.00000000
_symmetry_Int_Tables_number   1
_chemical_formula_structural   Sr10P6SO24
_chemical_formula_sum   'Sr10 P6 S1 O24'
_cell_volume   622.38347550
_cell_formula_units_Z   1
loop_
 _symmetry_equiv_pos_site_id
 _symmetry_equiv_pos_as_xyz
  1  'x, y, z'
loop_
 _atom_site_type_symbol
 _atom_site_label
 _atom_site_symmetry_multiplicity
 _atom_site_fract_x
 _atom_site_fract_y
 _atom_site_fract_z
 _atom_site_occupancy
  Sr  Sr0  1  0.988616  0.742780  0.740764  1
  Sr  Sr1  1  0.257220  0.245835  0.740764  1
  Sr  Sr2  1  0.754165  0.011384  0.740764  1
  Sr  Sr3  1  0.742780  0.754165  0.259236  1
  Sr  Sr4  1  0.011384  0.257220  0.259236  1
  Sr  Sr5  1  0.245835  0.988616  0.259236  1
  Sr  Sr6  1  0.666667  0.333333  0.481177  1
  Sr  Sr7  1  0.333333  0.666667  0.518823  1
  Sr  Sr8  1  0.666667  0.333333  0.979063  1
  Sr  Sr9  1  0.333333  0.666667  0.020937  1
  P  P10  1  0.369038  0.971083  0.753016  1
  P  P11  1  0.602045  0.630962  0.753016  1
  P  P12  1  0.971083  0.602045  0.246984  1
  P  P13  1  0.028917  0.397955  0.753016  1
  P  P14  1  0.397955  0.369038  0.246984  1
  P  P15  1  0.630962  0.028917  0.246984  1
  S  S16  1  0.000000  0.000000  0.500000  1
  O  O17  1  0.479212  0.150279  0.739182  1
  O  O18  1  0.099194  0.381102  0.569468  1
  O  O19  1  0.281909  0.900806  0.569468  1
  O  O20  1  0.618898  0.718091  0.569468  1
  O  O21  1  0.900806  0.618898  0.430532  1
  O  O22  1  0.718091  0.099194  0.430532  1
  O  O23  1  0.381102  0.281909  0.430532  1
  O  O24  1  0.064880  0.309876  0.904690  1
  O  O25  1  0.244996  0.935120  0.904690  1
  O  O26  1  0.690124  0.755004  0.904690  1
  O  O27  1  0.309876  0.244996  0.095310  1
  O  O28  1  0.112448  0.576135  0.794919  1
  O  O29  1  0.463687  0.887552  0.794919  1
  O  O30  1  0.423865  0.536313  0.794919  1
  O  O31  1  0.887552  0.423865  0.205081  1
  O  O32  1  0.536313  0.112448  0.205081  1
  O  O33  1  0.328933  0.479212  0.260818  1
  O  O34  1  0.520788  0.849721  0.260818  1
  O  O35  1  0.150279  0.671067  0.260818  1
  O  O36  1  0.671067  0.520788  0.739182  1
  O  O37  1  0.755004  0.064880  0.095310  1
  O  O38  1  0.849721  0.328933  0.739182  1
  O  O39  1  0.576135  0.463687  0.205081  1
  O  O40  1  0.935120  0.690124  0.095310  1
