# generated using pymatgen
data_Ca2ZnGe2O7
_symmetry_space_group_name_H-M   'P 1'
_cell_length_a   8.06421844
_cell_length_b   8.06421844
_cell_length_c   5.22891172
_cell_angle_alpha   90.00000000
_cell_angle_beta   90.00000000
_cell_angle_gamma   90.00000000
_symmetry_Int_Tables_number   1
_chemical_formula_structural   Ca2ZnGe2O7
_chemical_formula_sum   'Ca4 Zn2 Ge4 O14'
_cell_volume   340.04459501
_cell_formula_units_Z   2
loop_
 _symmetry_equiv_pos_site_id
 _symmetry_equiv_pos_as_xyz
  1  'x, y, z'
loop_
 _atom_site_type_symbol
 _atom_site_label
 _atom_site_symmetry_multiplicity
 _atom_site_fract_x
 _atom_site_fract_y
 _atom_site_fract_z
 _atom_site_occupancy
  Ca  Ca0  1  0.332893  0.832893  0.508649  1
  Ca  Ca1  1  0.167107  0.332893  0.491351  1
  Ca  Ca2  1  0.832893  0.667107  0.491351  1
  Ca  Ca3  1  0.667107  0.167107  0.508649  1
  Zn  Zn4  1  0.500000  0.500000  0.000000  1
  Zn  Zn5  1  0.000000  0.000000  0.000000  1
  Ge  Ge6  1  0.144889  0.644889  0.943254  1
  Ge  Ge7  1  0.355111  0.144889  0.056746  1
  Ge  Ge8  1  0.644889  0.855111  0.056746  1
  Ge  Ge9  1  0.855111  0.355111  0.943254  1
  O  O10  1  0.673500  0.412837  0.774363  1
  O  O11  1  0.326500  0.587163  0.774363  1
  O  O12  1  0.412837  0.326500  0.225637  1
  O  O13  1  0.587163  0.673500  0.225637  1
  O  O14  1  0.912837  0.173500  0.774363  1
  O  O15  1  0.826500  0.912837  0.225637  1
  O  O16  1  0.173500  0.087163  0.225637  1
  O  O17  1  0.087163  0.826500  0.774363  1
  O  O18  1  0.860035  0.360035  0.275332  1
  O  O19  1  0.639965  0.860035  0.724668  1
  O  O20  1  0.500000  0.000000  0.204222  1
  O  O21  1  0.000000  0.500000  0.795778  1
  O  O22  1  0.139965  0.639965  0.275332  1
  O  O23  1  0.360035  0.139965  0.724668  1
