# generated using pymatgen
data_Tl2TeMo2(PO7)2
_symmetry_space_group_name_H-M   'P 1'
_cell_length_a   9.22945290
_cell_length_b   11.50348501
_cell_length_c   12.65698931
_cell_angle_alpha   90.00000000
_cell_angle_beta   90.00000000
_cell_angle_gamma   90.00000000
_symmetry_Int_Tables_number   1
_chemical_formula_structural   Tl2TeMo2(PO7)2
_chemical_formula_sum   'Tl8 Te4 Mo8 P8 O56'
_cell_volume   1343.80360568
_cell_formula_units_Z   4
loop_
 _symmetry_equiv_pos_site_id
 _symmetry_equiv_pos_as_xyz
  1  'x, y, z'
loop_
 _atom_site_type_symbol
 _atom_site_label
 _atom_site_symmetry_multiplicity
 _atom_site_fract_x
 _atom_site_fract_y
 _atom_site_fract_z
 _atom_site_occupancy
  Tl  Tl0  1  0.526355  0.275596  0.182898  1
  Tl  Tl1  1  0.526355  0.224404  0.817102  1
  Tl  Tl2  1  0.973645  0.775596  0.317102  1
  Tl  Tl3  1  0.973645  0.724404  0.682898  1
  Tl  Tl4  1  0.473645  0.724404  0.817102  1
  Tl  Tl5  1  0.473645  0.775596  0.182898  1
  Tl  Tl6  1  0.026355  0.224404  0.682898  1
  Tl  Tl7  1  0.026355  0.275596  0.317102  1
  Te  Te8  1  0.628118  0.250000  0.500000  1
  Te  Te9  1  0.871882  0.750000  0.000000  1
  Te  Te10  1  0.371882  0.750000  0.500000  1
  Te  Te11  1  0.128118  0.250000  0.000000  1
  Mo  Mo12  1  0.751069  0.518180  0.377045  1
  Mo  Mo13  1  0.751069  0.981820  0.622955  1
  Mo  Mo14  1  0.748931  0.018180  0.122955  1
  Mo  Mo15  1  0.748931  0.481820  0.877045  1
  Mo  Mo16  1  0.248931  0.481820  0.622955  1
  Mo  Mo17  1  0.248931  0.018180  0.377045  1
  Mo  Mo18  1  0.251069  0.981820  0.877045  1
  Mo  Mo19  1  0.251069  0.518180  0.122955  1
  P  P20  1  0.635200  0.996047  0.368455  1
  P  P21  1  0.635200  0.503953  0.631545  1
  P  P22  1  0.864800  0.496047  0.131545  1
  P  P23  1  0.864800  0.003953  0.868455  1
  P  P24  1  0.364800  0.003953  0.631545  1
  P  P25  1  0.364800  0.496047  0.368455  1
  P  P26  1  0.135200  0.503953  0.868455  1
  P  P27  1  0.135200  0.996047  0.131545  1
  O  O28  1  0.641815  0.131097  0.368903  1
  O  O29  1  0.641815  0.368903  0.631097  1
  O  O30  1  0.858185  0.631097  0.131097  1
  O  O31  1  0.858185  0.868903  0.868903  1
  O  O32  1  0.358185  0.868903  0.631097  1
  O  O33  1  0.358185  0.631097  0.368903  1
  O  O34  1  0.141815  0.368903  0.868903  1
  O  O35  1  0.141815  0.131097  0.131097  1
  O  O36  1  0.520703  0.449525  0.360723  1
  O  O37  1  0.520703  0.050475  0.639277  1
  O  O38  1  0.979297  0.949525  0.139277  1
  O  O39  1  0.979297  0.550475  0.860723  1
  O  O40  1  0.479297  0.550475  0.639277  1
  O  O41  1  0.479297  0.949525  0.360723  1
  O  O42  1  0.020703  0.050475  0.860723  1
  O  O43  1  0.020703  0.449525  0.139277  1
  O  O44  1  0.706237  0.554131  0.530211  1
  O  O45  1  0.706237  0.945869  0.469789  1
  O  O46  1  0.793763  0.054131  0.969789  1
  O  O47  1  0.793763  0.445869  0.030211  1
  O  O48  1  0.312714  0.346375  0.664670  1
  O  O49  1  0.293763  0.445869  0.469789  1
  O  O50  1  0.206237  0.945869  0.030211  1
  O  O51  1  0.206237  0.554131  0.969789  1
  O  O52  1  0.687286  0.653625  0.335330  1
  O  O53  1  0.687286  0.846375  0.664670  1
  O  O54  1  0.812714  0.153625  0.164670  1
  O  O55  1  0.812714  0.346375  0.835330  1
  O  O56  1  0.264616  0.342590  0.073129  1
  O  O57  1  0.264616  0.157410  0.926871  1
  O  O58  1  0.235384  0.842590  0.426871  1
  O  O59  1  0.235384  0.657410  0.573129  1
  O  O60  1  0.735384  0.657410  0.926871  1
  O  O61  1  0.735384  0.842590  0.073129  1
  O  O62  1  0.764616  0.157410  0.573129  1
  O  O63  1  0.764616  0.342590  0.426871  1
  O  O64  1  0.273136  0.450747  0.272949  1
  O  O65  1  0.273136  0.049253  0.727051  1
  O  O66  1  0.226864  0.950747  0.227051  1
  O  O67  1  0.226864  0.549253  0.772949  1
  O  O68  1  0.726864  0.549253  0.727051  1
  O  O69  1  0.726864  0.950747  0.272949  1
  O  O70  1  0.773136  0.049253  0.772949  1
  O  O71  1  0.773136  0.450747  0.227051  1
  O  O72  1  0.436554  0.542592  0.113072  1
  O  O73  1  0.436554  0.957408  0.886928  1
  O  O74  1  0.063446  0.042592  0.386928  1
  O  O75  1  0.063446  0.457408  0.613072  1
  O  O76  1  0.563446  0.457408  0.886928  1
  O  O77  1  0.563446  0.042592  0.113072  1
  O  O78  1  0.936554  0.957408  0.613072  1
  O  O79  1  0.936554  0.542592  0.386928  1
  O  O80  1  0.187286  0.653625  0.164670  1
  O  O81  1  0.187286  0.846375  0.835330  1
  O  O82  1  0.312714  0.153625  0.335330  1
  O  O83  1  0.293763  0.054131  0.530211  1
