# generated using pymatgen
data_MgAg(PO3)3
_symmetry_space_group_name_H-M   'P 1'
_cell_length_a   10.18529759
_cell_length_b   10.88676967
_cell_length_c   14.12282141
_cell_angle_alpha   90.00000000
_cell_angle_beta   90.00000000
_cell_angle_gamma   90.00000000
_symmetry_Int_Tables_number   1
_chemical_formula_structural   MgAg(PO3)3
_chemical_formula_sum   'Mg8 Ag8 P24 O72'
_cell_volume   1566.00889504
_cell_formula_units_Z   8
loop_
 _symmetry_equiv_pos_site_id
 _symmetry_equiv_pos_as_xyz
  1  'x, y, z'
loop_
 _atom_site_type_symbol
 _atom_site_label
 _atom_site_symmetry_multiplicity
 _atom_site_fract_x
 _atom_site_fract_y
 _atom_site_fract_z
 _atom_site_occupancy
  Mg  Mg0  1  0.968824  0.500000  0.750000  1
  Mg  Mg1  1  0.468824  0.500000  0.750000  1
  Mg  Mg2  1  0.031176  0.500000  0.250000  1
  Mg  Mg3  1  0.000000  0.000000  0.000000  1
  Mg  Mg4  1  0.000000  0.000000  0.500000  1
  Mg  Mg5  1  0.500000  0.000000  0.000000  1
  Mg  Mg6  1  0.500000  0.000000  0.500000  1
  Mg  Mg7  1  0.531176  0.500000  0.250000  1
  Ag  Ag8  1  0.479744  0.752729  0.124265  1
  Ag  Ag9  1  0.479744  0.247271  0.375735  1
  Ag  Ag10  1  0.020256  0.752729  0.875735  1
  Ag  Ag11  1  0.020256  0.247271  0.624265  1
  Ag  Ag12  1  0.520256  0.247271  0.875735  1
  Ag  Ag13  1  0.520256  0.752729  0.624265  1
  Ag  Ag14  1  0.979744  0.247271  0.124265  1
  Ag  Ag15  1  0.979744  0.752729  0.375735  1
  P  P16  1  0.945638  0.747713  0.125620  1
  P  P17  1  0.445638  0.252287  0.125620  1
  P  P18  1  0.054362  0.747713  0.625620  1
  P  P19  1  0.054362  0.252287  0.874380  1
  P  P20  1  0.554362  0.252287  0.625620  1
  P  P21  1  0.554362  0.747713  0.874380  1
  P  P22  1  0.945638  0.252287  0.374380  1
  P  P23  1  0.445638  0.747713  0.374380  1
  P  P24  1  0.261168  0.954259  0.351708  1
  P  P25  1  0.261168  0.045741  0.148292  1
  P  P26  1  0.238832  0.954259  0.648292  1
  P  P27  1  0.238832  0.045741  0.851708  1
  P  P28  1  0.786039  0.526984  0.100812  1
  P  P29  1  0.738832  0.954259  0.851708  1
  P  P30  1  0.761168  0.045741  0.351708  1
  P  P31  1  0.761168  0.954259  0.148292  1
  P  P32  1  0.786039  0.473016  0.399188  1
  P  P33  1  0.713961  0.526984  0.899188  1
  P  P34  1  0.713961  0.473016  0.600812  1
  P  P35  1  0.213961  0.473016  0.899188  1
  P  P36  1  0.213961  0.526984  0.600812  1
  P  P37  1  0.286039  0.473016  0.100812  1
  P  P38  1  0.286039  0.526984  0.399188  1
  P  P39  1  0.738832  0.045741  0.648292  1
  O  O40  1  0.163333  0.561265  0.347752  1
  O  O41  1  0.163333  0.438735  0.152248  1
  O  O42  1  0.336667  0.561265  0.652248  1
  O  O43  1  0.336667  0.438735  0.847752  1
  O  O44  1  0.836667  0.438735  0.652248  1
  O  O45  1  0.836667  0.561265  0.847752  1
  O  O46  1  0.663333  0.438735  0.347752  1
  O  O47  1  0.663333  0.561265  0.152248  1
  O  O48  1  0.384190  0.555084  0.149356  1
  O  O49  1  0.384190  0.444916  0.350644  1
  O  O50  1  0.115810  0.555084  0.850644  1
  O  O51  1  0.115810  0.444916  0.649356  1
  O  O52  1  0.615810  0.444916  0.850644  1
  O  O53  1  0.615810  0.555084  0.649356  1
  O  O54  1  0.884190  0.444916  0.149356  1
  O  O55  1  0.884190  0.555084  0.350644  1
  O  O56  1  0.518710  0.824678  0.444952  1
  O  O57  1  0.518710  0.175322  0.055048  1
  O  O58  1  0.981290  0.824678  0.555048  1
  O  O59  1  0.981290  0.175322  0.944952  1
  O  O60  1  0.481290  0.175322  0.555048  1
  O  O61  1  0.481290  0.824678  0.944952  1
  O  O62  1  0.018710  0.175322  0.444952  1
  O  O63  1  0.018710  0.824678  0.055048  1
  O  O64  1  0.019411  0.680681  0.201603  1
  O  O65  1  0.019411  0.319319  0.298397  1
  O  O66  1  0.480589  0.680681  0.798397  1
  O  O67  1  0.139939  0.922170  0.407217  1
  O  O68  1  0.480589  0.319319  0.701603  1
  O  O69  1  0.980589  0.680681  0.701603  1
  O  O70  1  0.519411  0.319319  0.201603  1
  O  O71  1  0.519411  0.680681  0.298397  1
  O  O72  1  0.359150  0.958678  0.105434  1
  O  O73  1  0.359150  0.041322  0.394566  1
  O  O74  1  0.140850  0.958678  0.894566  1
  O  O75  1  0.140850  0.041322  0.605434  1
  O  O76  1  0.640850  0.041322  0.894566  1
  O  O77  1  0.640850  0.958678  0.605434  1
  O  O78  1  0.859150  0.041322  0.105434  1
  O  O79  1  0.859150  0.958678  0.394566  1
  O  O80  1  0.710193  0.000000  0.250000  1
  O  O81  1  0.789807  0.000000  0.750000  1
  O  O82  1  0.289807  0.000000  0.750000  1
  O  O83  1  0.210193  0.000000  0.250000  1
  O  O84  1  0.835116  0.828665  0.179584  1
  O  O85  1  0.835116  0.171335  0.320416  1
  O  O86  1  0.664884  0.828665  0.820416  1
  O  O87  1  0.664884  0.171335  0.679584  1
  O  O88  1  0.164884  0.171335  0.820416  1
  O  O89  1  0.164884  0.828665  0.679584  1
  O  O90  1  0.335116  0.171335  0.179584  1
  O  O91  1  0.335116  0.828665  0.320416  1
  O  O92  1  0.859692  0.650953  0.064928  1
  O  O93  1  0.859692  0.349047  0.435072  1
  O  O94  1  0.640308  0.650953  0.935072  1
  O  O95  1  0.640308  0.349047  0.564928  1
  O  O96  1  0.140308  0.349047  0.935072  1
  O  O97  1  0.140308  0.650953  0.564928  1
  O  O98  1  0.359692  0.349047  0.064928  1
  O  O99  1  0.359692  0.650953  0.435072  1
  O  O100  1  0.750000  0.534157  0.500000  1
  O  O101  1  0.750000  0.465843  0.000000  1
  O  O102  1  0.250000  0.465843  0.500000  1
  O  O103  1  0.250000  0.534157  0.000000  1
  O  O104  1  0.639939  0.922170  0.092783  1
  O  O105  1  0.639939  0.077830  0.407217  1
  O  O106  1  0.860061  0.922170  0.907217  1
  O  O107  1  0.860061  0.077830  0.592783  1
  O  O108  1  0.360061  0.077830  0.907217  1
  O  O109  1  0.360061  0.922170  0.592783  1
  O  O110  1  0.139939  0.077830  0.092783  1
  O  O111  1  0.980589  0.319319  0.798397  1
