# generated using pymatgen
data_HoVO3
_symmetry_space_group_name_H-M   'P 1'
_cell_length_a   5.31062637
_cell_length_b   5.73114246
_cell_length_c   7.62643324
_cell_angle_alpha   90.00000000
_cell_angle_beta   90.00000000
_cell_angle_gamma   90.00000000
_symmetry_Int_Tables_number   1
_chemical_formula_structural   HoVO3
_chemical_formula_sum   'Ho4 V4 O12'
_cell_volume   232.11778865
_cell_formula_units_Z   4
loop_
 _symmetry_equiv_pos_site_id
 _symmetry_equiv_pos_as_xyz
  1  'x, y, z'
loop_
 _atom_site_type_symbol
 _atom_site_label
 _atom_site_symmetry_multiplicity
 _atom_site_fract_x
 _atom_site_fract_y
 _atom_site_fract_z
 _atom_site_occupancy
  Ho  Ho0  1  0.979354  0.429045  0.750000  1
  Ho  Ho1  1  0.479354  0.070955  0.250000  1
  Ho  Ho2  1  0.520646  0.929045  0.750000  1
  Ho  Ho3  1  0.020646  0.570955  0.250000  1
  V  V4  1  0.000000  0.000000  0.500000  1
  V  V5  1  0.500000  0.500000  0.500000  1
  V  V6  1  0.500000  0.500000  0.000000  1
  V  V7  1  0.000000  0.000000  0.000000  1
  O  O8  1  0.193324  0.312276  0.439530  1
  O  O9  1  0.693324  0.187724  0.560470  1
  O  O10  1  0.306676  0.812276  0.060470  1
  O  O11  1  0.806676  0.687724  0.939530  1
  O  O12  1  0.806676  0.687724  0.560470  1
  O  O13  1  0.306676  0.812276  0.439530  1
  O  O14  1  0.693324  0.187724  0.939530  1
  O  O15  1  0.193324  0.312276  0.060470  1
  O  O16  1  0.878695  0.951393  0.250000  1
  O  O17  1  0.378695  0.548607  0.750000  1
  O  O18  1  0.621305  0.451393  0.250000  1
  O  O19  1  0.121305  0.048607  0.750000  1
