# generated using pymatgen
data_ZnTeO3
_symmetry_space_group_name_H-M   'P 1'
_cell_length_a   6.45244525
_cell_length_b   7.54967183
_cell_length_c   12.42932270
_cell_angle_alpha   90.00000000
_cell_angle_beta   90.00000000
_cell_angle_gamma   90.00000000
_symmetry_Int_Tables_number   1
_chemical_formula_structural   ZnTeO3
_chemical_formula_sum   'Zn8 Te8 O24'
_cell_volume   605.48008876
_cell_formula_units_Z   8
loop_
 _symmetry_equiv_pos_site_id
 _symmetry_equiv_pos_as_xyz
  1  'x, y, z'
loop_
 _atom_site_type_symbol
 _atom_site_label
 _atom_site_symmetry_multiplicity
 _atom_site_fract_x
 _atom_site_fract_y
 _atom_site_fract_z
 _atom_site_occupancy
  Zn  Zn0  1  0.878822  0.890817  0.410013  1
  Zn  Zn1  1  0.378822  0.109183  0.089987  1
  Zn  Zn2  1  0.621178  0.390817  0.589987  1
  Zn  Zn3  1  0.121178  0.609183  0.910013  1
  Zn  Zn4  1  0.121178  0.109183  0.589987  1
  Zn  Zn5  1  0.621178  0.890817  0.910013  1
  Zn  Zn6  1  0.378822  0.609183  0.410013  1
  Zn  Zn7  1  0.878822  0.390817  0.089987  1
  Te  Te8  1  0.907833  0.941820  0.143983  1
  Te  Te9  1  0.407833  0.058180  0.356017  1
  Te  Te10  1  0.592167  0.441820  0.856017  1
  Te  Te11  1  0.092167  0.558180  0.643983  1
  Te  Te12  1  0.092167  0.058180  0.856017  1
  Te  Te13  1  0.592167  0.941820  0.643983  1
  Te  Te14  1  0.407833  0.558180  0.143983  1
  Te  Te15  1  0.907833  0.441820  0.356017  1
  O  O16  1  0.525215  0.342245  0.088926  1
  O  O17  1  0.025215  0.657755  0.411074  1
  O  O18  1  0.974785  0.842245  0.911074  1
  O  O19  1  0.474785  0.157755  0.588926  1
  O  O20  1  0.474785  0.657755  0.911074  1
  O  O21  1  0.974785  0.342245  0.588926  1
  O  O22  1  0.025215  0.157755  0.088926  1
  O  O23  1  0.525215  0.842245  0.411074  1
  O  O24  1  0.653639  0.460779  0.434049  1
  O  O25  1  0.153639  0.539221  0.065951  1
  O  O26  1  0.846361  0.960779  0.565951  1
  O  O27  1  0.346361  0.039221  0.934049  1
  O  O28  1  0.346361  0.539221  0.565951  1
  O  O29  1  0.846361  0.460779  0.934049  1
  O  O30  1  0.153639  0.039221  0.434049  1
  O  O31  1  0.653639  0.960779  0.065951  1
  O  O32  1  0.799566  0.528212  0.223396  1
  O  O33  1  0.299566  0.471788  0.276604  1
  O  O34  1  0.700434  0.028212  0.776604  1
  O  O35  1  0.200434  0.971788  0.723396  1
  O  O36  1  0.200434  0.471788  0.776604  1
  O  O37  1  0.700434  0.528212  0.723396  1
  O  O38  1  0.299566  0.971788  0.223396  1
  O  O39  1  0.799566  0.028212  0.276604  1
