# generated using pymatgen
data_K3Na2SnAs3
_symmetry_space_group_name_H-M   'P 1'
_cell_length_a   10.88884391
_cell_length_b   10.88884391
_cell_length_c   15.61491138
_cell_angle_alpha   90.00000000
_cell_angle_beta   90.00000000
_cell_angle_gamma   143.24732019
_symmetry_Int_Tables_number   1
_chemical_formula_structural   K3Na2SnAs3
_chemical_formula_sum   'K12 Na8 Sn4 As12'
_cell_volume   1107.81471261
_cell_formula_units_Z   4
loop_
 _symmetry_equiv_pos_site_id
 _symmetry_equiv_pos_as_xyz
  1  'x, y, z'
loop_
 _atom_site_type_symbol
 _atom_site_label
 _atom_site_symmetry_multiplicity
 _atom_site_fract_x
 _atom_site_fract_y
 _atom_site_fract_z
 _atom_site_occupancy
  K  K0  1  0.600498  0.933883  0.824555  1
  K  K1  1  0.259698  0.259698  0.322300  1
  K  K2  1  0.240302  0.240302  0.822300  1
  K  K3  1  0.740302  0.740302  0.677700  1
  K  K4  1  0.433883  0.100498  0.675445  1
  K  K5  1  0.899502  0.566117  0.324555  1
  K  K6  1  0.066117  0.399502  0.175445  1
  K  K7  1  0.399502  0.066117  0.175445  1
  K  K8  1  0.566117  0.899502  0.324555  1
  K  K9  1  0.100498  0.433883  0.675445  1
  K  K10  1  0.933883  0.600498  0.824555  1
  K  K11  1  0.759698  0.759698  0.177700  1
  Na  Na12  1  0.081360  0.918640  0.000000  1
  Na  Na13  1  0.581360  0.418640  0.500000  1
  Na  Na14  1  0.918640  0.081360  0.000000  1
  Na  Na15  1  0.754773  0.245227  0.000000  1
  Na  Na16  1  0.745227  0.254773  0.500000  1
  Na  Na17  1  0.245227  0.754773  0.000000  1
  Na  Na18  1  0.254773  0.745227  0.500000  1
  Na  Na19  1  0.418640  0.581360  0.500000  1
  Sn  Sn20  1  0.088597  0.911403  0.500000  1
  Sn  Sn21  1  0.411403  0.588597  0.000000  1
  Sn  Sn22  1  0.911403  0.088597  0.500000  1
  Sn  Sn23  1  0.588597  0.411403  0.000000  1
  As  As24  1  0.063724  0.381487  0.394254  1
  As  As25  1  0.881487  0.563724  0.105746  1
  As  As26  1  0.436276  0.118513  0.894254  1
  As  As27  1  0.618513  0.936276  0.605746  1
  As  As28  1  0.936276  0.618513  0.605746  1
  As  As29  1  0.118513  0.436276  0.894254  1
  As  As30  1  0.563724  0.881487  0.105746  1
  As  As31  1  0.381487  0.063724  0.394254  1
  As  As32  1  0.206078  0.206078  0.594864  1
  As  As33  1  0.706078  0.706078  0.905136  1
  As  As34  1  0.293922  0.293922  0.094864  1
  As  As35  1  0.793922  0.793922  0.405136  1
