# generated using pymatgen
data_Ba4SiP4
_symmetry_space_group_name_H-M   'P 1'
_cell_length_a   13.13525901
_cell_length_b   13.13525901
_cell_length_c   13.13525901
_cell_angle_alpha   90.00000000
_cell_angle_beta   90.00000000
_cell_angle_gamma   90.00000000
_symmetry_Int_Tables_number   1
_chemical_formula_structural   Ba4SiP4
_chemical_formula_sum   'Ba32 Si8 P32'
_cell_volume   2266.29229763
_cell_formula_units_Z   8
loop_
 _symmetry_equiv_pos_site_id
 _symmetry_equiv_pos_as_xyz
  1  'x, y, z'
loop_
 _atom_site_type_symbol
 _atom_site_label
 _atom_site_symmetry_multiplicity
 _atom_site_fract_x
 _atom_site_fract_y
 _atom_site_fract_z
 _atom_site_occupancy
  Ba  Ba0  1  0.906626  0.867200  0.645847  1
  Ba  Ba1  1  0.906626  0.132800  0.354153  1
  Ba  Ba2  1  0.867200  0.645847  0.906626  1
  Ba  Ba3  1  0.132800  0.645847  0.093374  1
  Ba  Ba4  1  0.645847  0.906626  0.867200  1
  Ba  Ba5  1  0.354153  0.093374  0.867200  1
  Ba  Ba6  1  0.593374  0.854153  0.367200  1
  Ba  Ba7  1  0.593374  0.145847  0.632800  1
  Ba  Ba8  1  0.406626  0.854153  0.632800  1
  Ba  Ba9  1  0.145847  0.632800  0.593374  1
  Ba  Ba10  1  0.632800  0.406626  0.854153  1
  Ba  Ba11  1  0.632800  0.593374  0.145847  1
  Ba  Ba12  1  0.854153  0.367200  0.593374  1
  Ba  Ba13  1  0.367200  0.593374  0.854153  1
  Ba  Ba14  1  0.854153  0.632800  0.406626  1
  Ba  Ba15  1  0.145847  0.367200  0.406626  1
  Ba  Ba16  1  0.367200  0.406626  0.145847  1
  Ba  Ba17  1  0.354153  0.906626  0.132800  1
  Ba  Ba18  1  0.645847  0.093374  0.132800  1
  Ba  Ba19  1  0.867200  0.354153  0.093374  1
  Ba  Ba20  1  0.132800  0.354153  0.906626  1
  Ba  Ba21  1  0.093374  0.132800  0.645847  1
  Ba  Ba22  1  0.093374  0.867200  0.354153  1
  Ba  Ba23  1  0.406626  0.145847  0.367200  1
  Ba  Ba24  1  0.145931  0.145931  0.145931  1
  Ba  Ba25  1  0.354069  0.645931  0.354069  1
  Ba  Ba26  1  0.645931  0.354069  0.354069  1
  Ba  Ba27  1  0.354069  0.354069  0.645931  1
  Ba  Ba28  1  0.145931  0.854069  0.854069  1
  Ba  Ba29  1  0.854069  0.854069  0.145931  1
  Ba  Ba30  1  0.854069  0.145931  0.854069  1
  Ba  Ba31  1  0.645931  0.645931  0.645931  1
  Si  Si32  1  0.500000  0.750000  0.000000  1
  Si  Si33  1  0.500000  0.250000  0.000000  1
  Si  Si34  1  0.000000  0.500000  0.250000  1
  Si  Si35  1  0.000000  0.500000  0.750000  1
  Si  Si36  1  0.250000  0.000000  0.500000  1
  Si  Si37  1  0.500000  0.500000  0.500000  1
  Si  Si38  1  0.000000  0.000000  0.000000  1
  Si  Si39  1  0.750000  0.000000  0.500000  1
  P  P40  1  0.899226  0.391363  0.346049  1
  P  P41  1  0.108637  0.600774  0.846049  1
  P  P42  1  0.600774  0.153951  0.891363  1
  P  P43  1  0.600774  0.846049  0.108637  1
  P  P44  1  0.891363  0.399226  0.846049  1
  P  P45  1  0.399226  0.846049  0.891363  1
  P  P46  1  0.891363  0.600774  0.153951  1
  P  P47  1  0.108637  0.399226  0.153951  1
  P  P48  1  0.399226  0.153951  0.108637  1
  P  P49  1  0.846049  0.108637  0.600774  1
  P  P50  1  0.608637  0.346049  0.100774  1
  P  P51  1  0.153951  0.891363  0.600774  1
  P  P52  1  0.100774  0.391363  0.653951  1
  P  P53  1  0.346049  0.100774  0.608637  1
  P  P54  1  0.346049  0.899226  0.391363  1
  P  P55  1  0.153951  0.108637  0.399226  1
  P  P56  1  0.898523  0.898523  0.898523  1
  P  P57  1  0.601477  0.398523  0.601477  1
  P  P58  1  0.398523  0.601477  0.601477  1
  P  P59  1  0.601477  0.601477  0.398523  1
  P  P60  1  0.898523  0.101477  0.101477  1
  P  P61  1  0.101477  0.101477  0.898523  1
  P  P62  1  0.101477  0.898523  0.101477  1
  P  P63  1  0.398523  0.398523  0.398523  1
  P  P64  1  0.846049  0.891363  0.399226  1
  P  P65  1  0.391363  0.346049  0.899226  1
  P  P66  1  0.608637  0.653951  0.899226  1
  P  P67  1  0.100774  0.608637  0.346049  1
  P  P68  1  0.899226  0.608637  0.653951  1
  P  P69  1  0.653951  0.100774  0.391363  1
  P  P70  1  0.653951  0.899226  0.608637  1
  P  P71  1  0.391363  0.653951  0.100774  1
