# generated using pymatgen
data_Cu2SiSe3
_symmetry_space_group_name_H-M   'P 1'
_cell_length_a   6.80548238
_cell_length_b   6.80548238
_cell_length_c   6.75522642
_cell_angle_alpha   80.92990556
_cell_angle_beta   99.07009444
_cell_angle_gamma   59.32520751
_symmetry_Int_Tables_number   1
_chemical_formula_structural   Cu2SiSe3
_chemical_formula_sum   'Cu4 Si2 Se6'
_cell_volume   255.07144731
_cell_formula_units_Z   2
loop_
 _symmetry_equiv_pos_site_id
 _symmetry_equiv_pos_as_xyz
  1  'x, y, z'
loop_
 _atom_site_type_symbol
 _atom_site_label
 _atom_site_symmetry_multiplicity
 _atom_site_fract_x
 _atom_site_fract_y
 _atom_site_fract_z
 _atom_site_occupancy
  Cu  Cu0  1  0.767712  0.742338  0.502784  1
  Cu  Cu1  1  0.257662  0.232288  0.002784  1
  Cu  Cu2  1  0.414850  0.411889  0.500256  1
  Cu  Cu3  1  0.588111  0.585150  0.000256  1
  Si  Si4  1  0.114077  0.055288  0.523981  1
  Si  Si5  1  0.944712  0.885923  0.023981  1
  Se  Se6  1  0.302307  0.527722  0.123157  1
  Se  Se7  1  0.472278  0.697693  0.623157  1
  Se  Se8  1  0.133425  0.350982  0.627299  1
  Se  Se9  1  0.649018  0.866575  0.127299  1
  Se  Se10  1  0.969017  0.188969  0.144023  1
  Se  Se11  1  0.811031  0.030983  0.644023  1
