# generated using pymatgen
data_Nd2Au5F21
_symmetry_space_group_name_H-M   'P 1'
_cell_length_a   8.44915163
_cell_length_b   8.44915163
_cell_length_c   26.36171032
_cell_angle_alpha   90.00000000
_cell_angle_beta   90.00000000
_cell_angle_gamma   90.00000000
_symmetry_Int_Tables_number   1
_chemical_formula_structural   Nd2Au5F21
_chemical_formula_sum   'Nd8 Au20 F84'
_cell_volume   1881.91408031
_cell_formula_units_Z   4
loop_
 _symmetry_equiv_pos_site_id
 _symmetry_equiv_pos_as_xyz
  1  'x, y, z'
loop_
 _atom_site_type_symbol
 _atom_site_label
 _atom_site_symmetry_multiplicity
 _atom_site_fract_x
 _atom_site_fract_y
 _atom_site_fract_z
 _atom_site_occupancy
  Nd  Nd0  1  0.554263  0.929535  0.998245  1
  Nd  Nd1  1  0.445737  0.070465  0.498245  1
  Nd  Nd2  1  0.929535  0.554263  0.001755  1
  Nd  Nd3  1  0.429535  0.945737  0.748245  1
  Nd  Nd4  1  0.570465  0.054263  0.248245  1
  Nd  Nd5  1  0.945737  0.429535  0.251755  1
  Nd  Nd6  1  0.054263  0.570465  0.751755  1
  Nd  Nd7  1  0.070465  0.445737  0.501755  1
  Au  Au8  1  0.405847  0.355857  0.842776  1
  Au  Au9  1  0.594153  0.644143  0.342776  1
  Au  Au10  1  0.355857  0.405847  0.157224  1
  Au  Au11  1  0.855857  0.094153  0.592776  1
  Au  Au12  1  0.144143  0.905847  0.092776  1
  Au  Au13  1  0.094153  0.855857  0.407224  1
  Au  Au14  1  0.905847  0.144143  0.907224  1
  Au  Au15  1  0.644143  0.594153  0.657224  1
  Au  Au16  1  0.208874  0.821265  0.889255  1
  Au  Au17  1  0.791126  0.178735  0.389255  1
  Au  Au18  1  0.821265  0.208874  0.110745  1
  Au  Au19  1  0.321265  0.291126  0.639255  1
  Au  Au20  1  0.678735  0.708874  0.139255  1
  Au  Au21  1  0.291126  0.321265  0.360745  1
  Au  Au22  1  0.708874  0.678735  0.860745  1
  Au  Au23  1  0.178735  0.791126  0.610745  1
  Au  Au24  1  0.562316  0.562316  0.500000  1
  Au  Au25  1  0.937684  0.062316  0.750000  1
  Au  Au26  1  0.062316  0.937684  0.250000  1
  Au  Au27  1  0.437684  0.437684  0.000000  1
  F  F28  1  0.593283  0.781410  0.804622  1
  F  F29  1  0.406717  0.218590  0.304622  1
  F  F30  1  0.781410  0.593283  0.195378  1
  F  F31  1  0.281410  0.906717  0.554622  1
  F  F32  1  0.718590  0.093283  0.054622  1
  F  F33  1  0.906717  0.281410  0.445378  1
  F  F34  1  0.093283  0.718590  0.945378  1
  F  F35  1  0.218590  0.406717  0.695378  1
  F  F36  1  0.039936  0.686808  0.455960  1
  F  F37  1  0.960064  0.313192  0.955960  1
  F  F38  1  0.686808  0.039936  0.544040  1
  F  F39  1  0.186808  0.460064  0.205960  1
  F  F40  1  0.813192  0.539936  0.705960  1
  F  F41  1  0.460064  0.186808  0.794040  1
  F  F42  1  0.539936  0.813192  0.294040  1
  F  F43  1  0.313192  0.960064  0.044040  1
  F  F44  1  0.907749  0.805758  0.367980  1
  F  F45  1  0.092251  0.194242  0.867980  1
  F  F46  1  0.805758  0.907749  0.632020  1
  F  F47  1  0.305758  0.592251  0.117980  1
  F  F48  1  0.694242  0.407749  0.617980  1
  F  F49  1  0.592251  0.305758  0.882020  1
  F  F50  1  0.407749  0.694242  0.382020  1
  F  F51  1  0.194242  0.092251  0.132020  1
  F  F52  1  0.937819  0.294453  0.752039  1
  F  F53  1  0.062181  0.705547  0.252039  1
  F  F54  1  0.294453  0.937819  0.247961  1
  F  F55  1  0.205547  0.437819  0.002039  1
  F  F56  1  0.794453  0.562181  0.502039  1
  F  F57  1  0.067470  0.677315  0.664863  1
  F  F58  1  0.932530  0.322685  0.164863  1
  F  F59  1  0.677315  0.067470  0.335137  1
  F  F60  1  0.322685  0.932530  0.835137  1
  F  F61  1  0.822685  0.567470  0.914863  1
  F  F62  1  0.432530  0.177315  0.585137  1
  F  F63  1  0.567470  0.822685  0.085137  1
  F  F64  1  0.914066  0.300034  0.339139  1
  F  F65  1  0.199966  0.414066  0.589139  1
  F  F66  1  0.800034  0.585934  0.089139  1
  F  F67  1  0.414066  0.199966  0.410861  1
  F  F68  1  0.585934  0.800034  0.910861  1
  F  F69  1  0.085934  0.699966  0.839139  1
  F  F70  1  0.300034  0.914066  0.660861  1
  F  F71  1  0.699966  0.085934  0.160861  1
  F  F72  1  0.449280  0.174679  0.689616  1
  F  F73  1  0.325321  0.949280  0.939616  1
  F  F74  1  0.674679  0.050720  0.439616  1
  F  F75  1  0.949280  0.325321  0.060384  1
  F  F76  1  0.050720  0.674679  0.560384  1
  F  F77  1  0.550720  0.825321  0.189616  1
  F  F78  1  0.174679  0.449280  0.310384  1
  F  F79  1  0.825321  0.550720  0.810384  1
  F  F80  1  0.329061  0.565243  0.500189  1
  F  F81  1  0.934757  0.829061  0.750189  1
  F  F82  1  0.065243  0.170939  0.250189  1
  F  F83  1  0.829061  0.934757  0.249811  1
  F  F84  1  0.170939  0.065243  0.749811  1
  F  F85  1  0.670939  0.434757  0.000189  1
  F  F86  1  0.565243  0.329061  0.499811  1
  F  F87  1  0.434757  0.670939  0.999811  1
  F  F88  1  0.911886  0.283143  0.551602  1
  F  F89  1  0.216857  0.411886  0.801602  1
  F  F90  1  0.783143  0.588114  0.301602  1
  F  F91  1  0.411886  0.216857  0.198398  1
  F  F92  1  0.588114  0.783143  0.698398  1
  F  F93  1  0.088114  0.716857  0.051602  1
  F  F94  1  0.283143  0.911886  0.448398  1
  F  F95  1  0.716857  0.088114  0.948398  1
  F  F96  1  0.778458  0.778458  0.000000  1
  F  F97  1  0.721542  0.278458  0.250000  1
  F  F98  1  0.278458  0.721542  0.750000  1
  F  F99  1  0.221542  0.221542  0.500000  1
  F  F100  1  0.524664  0.361148  0.109105  1
  F  F101  1  0.138852  0.024664  0.359105  1
  F  F102  1  0.861148  0.975336  0.859105  1
  F  F103  1  0.024664  0.138852  0.640895  1
  F  F104  1  0.975336  0.861148  0.140895  1
  F  F105  1  0.475336  0.638852  0.609105  1
  F  F106  1  0.361148  0.524664  0.890895  1
  F  F107  1  0.638852  0.475336  0.390895  1
  F  F108  1  0.705547  0.062181  0.747961  1
  F  F109  1  0.437819  0.205547  0.997961  1
  F  F110  1  0.562181  0.794453  0.497961  1
  F  F111  1  0.177315  0.432530  0.414863  1
