# generated using pymatgen
data_NbSeOF7
_symmetry_space_group_name_H-M   'P 1'
_cell_length_a   7.32548462
_cell_length_b   8.11399491
_cell_length_c   11.52218969
_cell_angle_alpha   90.00000000
_cell_angle_beta   90.00000000
_cell_angle_gamma   90.00000000
_symmetry_Int_Tables_number   1
_chemical_formula_structural   NbSeOF7
_chemical_formula_sum   'Nb4 Se4 O4 F28'
_cell_volume   684.86679834
_cell_formula_units_Z   4
loop_
 _symmetry_equiv_pos_site_id
 _symmetry_equiv_pos_as_xyz
  1  'x, y, z'
loop_
 _atom_site_type_symbol
 _atom_site_label
 _atom_site_symmetry_multiplicity
 _atom_site_fract_x
 _atom_site_fract_y
 _atom_site_fract_z
 _atom_site_occupancy
  Nb  Nb0  1  0.700365  0.750000  0.150347  1
  Nb  Nb1  1  0.200365  0.250000  0.349653  1
  Nb  Nb2  1  0.299635  0.250000  0.849653  1
  Nb  Nb3  1  0.799635  0.750000  0.650347  1
  Se  Se4  1  0.265390  0.750000  0.997811  1
  Se  Se5  1  0.765390  0.250000  0.502189  1
  Se  Se6  1  0.734610  0.250000  0.002189  1
  Se  Se7  1  0.234610  0.750000  0.497811  1
  O  O8  1  0.488422  0.750000  0.016887  1
  O  O9  1  0.011578  0.750000  0.516887  1
  O  O10  1  0.511578  0.250000  0.983113  1
  O  O11  1  0.988422  0.250000  0.483113  1
  F  F12  1  0.700072  0.093012  0.405113  1
  F  F13  1  0.799928  0.406988  0.905113  1
  F  F14  1  0.299928  0.593012  0.594887  1
  F  F15  1  0.200072  0.906988  0.094887  1
  F  F16  1  0.299928  0.906988  0.594887  1
  F  F17  1  0.799928  0.093012  0.905113  1
  F  F18  1  0.700072  0.406988  0.405113  1
  F  F19  1  0.200072  0.593012  0.094887  1
  F  F20  1  0.860905  0.750000  0.018167  1
  F  F21  1  0.360905  0.250000  0.481833  1
  F  F22  1  0.139095  0.250000  0.981833  1
  F  F23  1  0.639095  0.750000  0.518167  1
  F  F24  1  0.884290  0.750000  0.263191  1
  F  F25  1  0.384290  0.250000  0.236809  1
  F  F26  1  0.115710  0.250000  0.736809  1
  F  F27  1  0.615710  0.750000  0.763191  1
  F  F28  1  0.500805  0.750000  0.256956  1
  F  F29  1  0.000805  0.250000  0.243044  1
  F  F30  1  0.499195  0.250000  0.743044  1
  F  F31  1  0.999195  0.750000  0.756956  1
  F  F32  1  0.688678  0.512071  0.137057  1
  F  F33  1  0.188678  0.487929  0.362943  1
  F  F34  1  0.311322  0.012071  0.862943  1
  F  F35  1  0.811322  0.987929  0.637057  1
  F  F36  1  0.311322  0.487929  0.862943  1
  F  F37  1  0.811322  0.512071  0.637057  1
  F  F38  1  0.688678  0.987929  0.137057  1
  F  F39  1  0.188678  0.012071  0.362943  1
