# generated using pymatgen
data_KInTe2
_symmetry_space_group_name_H-M   'P 1'
_cell_length_a   7.24391442
_cell_length_b   7.24391442
_cell_length_c   7.24391442
_cell_angle_alpha   105.25631435
_cell_angle_beta   105.25631435
_cell_angle_gamma   118.27636232
_symmetry_Int_Tables_number   1
_chemical_formula_structural   KInTe2
_chemical_formula_sum   'K2 In2 Te4'
_cell_volume   287.36095980
_cell_formula_units_Z   2
loop_
 _symmetry_equiv_pos_site_id
 _symmetry_equiv_pos_as_xyz
  1  'x, y, z'
loop_
 _atom_site_type_symbol
 _atom_site_label
 _atom_site_symmetry_multiplicity
 _atom_site_fract_x
 _atom_site_fract_y
 _atom_site_fract_z
 _atom_site_occupancy
  K  K0  1  0.250000  0.250000  0.000000  1
  K  K1  1  0.750000  0.750000  0.000000  1
  In  In2  1  0.250000  0.750000  0.500000  1
  In  In3  1  0.750000  0.250000  0.500000  1
  Te  Te4  1  0.324803  0.175197  0.500000  1
  Te  Te5  1  0.824803  0.324803  0.149605  1
  Te  Te6  1  0.175197  0.675197  0.850395  1
  Te  Te7  1  0.675197  0.824803  0.500000  1
