# generated using pymatgen
data_Na2V(PO4)2
_symmetry_space_group_name_H-M   'P 1'
_cell_length_a   6.37217885
_cell_length_b   13.62592308
_cell_length_c   7.82323540
_cell_angle_alpha   90.00000000
_cell_angle_beta   99.73504937
_cell_angle_gamma   90.00000000
_symmetry_Int_Tables_number   1
_chemical_formula_structural   Na2V(PO4)2
_chemical_formula_sum   'Na8 V4 P8 O32'
_cell_volume   669.48535006
_cell_formula_units_Z   4
loop_
 _symmetry_equiv_pos_site_id
 _symmetry_equiv_pos_as_xyz
  1  'x, y, z'
loop_
 _atom_site_type_symbol
 _atom_site_label
 _atom_site_symmetry_multiplicity
 _atom_site_fract_x
 _atom_site_fract_y
 _atom_site_fract_z
 _atom_site_occupancy
  Na  Na0  1  0.561914  0.867875  0.970705  1
  Na  Na1  1  0.938086  0.367875  0.029295  1
  Na  Na2  1  0.438086  0.132125  0.029295  1
  Na  Na3  1  0.061914  0.632125  0.970705  1
  Na  Na4  1  0.340589  0.211819  0.435743  1
  Na  Na5  1  0.159411  0.711819  0.564257  1
  Na  Na6  1  0.659411  0.788181  0.564257  1
  Na  Na7  1  0.840589  0.288181  0.435743  1
  V  V8  1  0.230812  0.926034  0.272128  1
  V  V9  1  0.269188  0.426034  0.727872  1
  V  V10  1  0.769188  0.073966  0.727872  1
  V  V11  1  0.730812  0.573966  0.272128  1
  P  P12  1  0.750009  0.981550  0.326749  1
  P  P13  1  0.749991  0.481550  0.673251  1
  P  P14  1  0.249991  0.018450  0.673251  1
  P  P15  1  0.250009  0.518450  0.326749  1
  P  P16  1  0.958811  0.133070  0.141113  1
  P  P17  1  0.541189  0.633070  0.858887  1
  P  P18  1  0.041189  0.866930  0.858887  1
  P  P19  1  0.458811  0.366930  0.141113  1
  O  O20  1  0.024811  0.233739  0.213132  1
  O  O21  1  0.475189  0.733739  0.786868  1
  O  O22  1  0.975189  0.766261  0.786868  1
  O  O23  1  0.524811  0.266261  0.213132  1
  O  O24  1  0.814931  0.091548  0.281697  1
  O  O25  1  0.685069  0.591548  0.718303  1
  O  O26  1  0.185069  0.908452  0.718303  1
  O  O27  1  0.314931  0.408452  0.281697  1
  O  O28  1  0.528086  0.964822  0.216629  1
  O  O29  1  0.971914  0.464822  0.783371  1
  O  O30  1  0.471914  0.035178  0.783371  1
  O  O31  1  0.028086  0.535178  0.216629  1
  O  O32  1  0.255176  0.023297  0.479145  1
  O  O33  1  0.244824  0.523297  0.520855  1
  O  O34  1  0.744824  0.976703  0.520855  1
  O  O35  1  0.755176  0.476703  0.479145  1
  O  O36  1  0.911426  0.910664  0.268828  1
  O  O37  1  0.588574  0.410664  0.731172  1
  O  O38  1  0.088574  0.089336  0.731172  1
  O  O39  1  0.411426  0.589336  0.268828  1
  O  O40  1  0.645946  0.437159  0.139928  1
  O  O41  1  0.854054  0.937159  0.860072  1
  O  O42  1  0.354054  0.562841  0.860072  1
  O  O43  1  0.145946  0.062841  0.139928  1
  O  O44  1  0.695403  0.637357  0.033192  1
  O  O45  1  0.804597  0.137357  0.966808  1
  O  O46  1  0.304597  0.362643  0.966808  1
  O  O47  1  0.195403  0.862643  0.033192  1
  O  O48  1  0.814211  0.672119  0.391155  1
  O  O49  1  0.685789  0.172119  0.608845  1
  O  O50  1  0.185789  0.327881  0.608845  1
  O  O51  1  0.314211  0.827881  0.391155  1
