# generated using pymatgen
data_Sr(ScTe2)2
_symmetry_space_group_name_H-M   'P 1'
_cell_length_a   4.25894532
_cell_length_b   13.30724019
_cell_length_c   15.47403782
_cell_angle_alpha   90.00000000
_cell_angle_beta   90.00000000
_cell_angle_gamma   90.00000000
_symmetry_Int_Tables_number   1
_chemical_formula_structural   Sr(ScTe2)2
_chemical_formula_sum   'Sr4 Sc8 Te16'
_cell_volume   876.98812753
_cell_formula_units_Z   4
loop_
 _symmetry_equiv_pos_site_id
 _symmetry_equiv_pos_as_xyz
  1  'x, y, z'
loop_
 _atom_site_type_symbol
 _atom_site_label
 _atom_site_symmetry_multiplicity
 _atom_site_fract_x
 _atom_site_fract_y
 _atom_site_fract_z
 _atom_site_occupancy
  Sr  Sr0  1  0.250000  0.738278  0.173476  1
  Sr  Sr1  1  0.750000  0.261722  0.826524  1
  Sr  Sr2  1  0.250000  0.238278  0.326524  1
  Sr  Sr3  1  0.750000  0.761722  0.673476  1
  Sc  Sc4  1  0.250000  0.053568  0.111888  1
  Sc  Sc5  1  0.750000  0.946432  0.888112  1
  Sc  Sc6  1  0.250000  0.553568  0.388112  1
  Sc  Sc7  1  0.750000  0.446432  0.611888  1
  Sc  Sc8  1  0.750000  0.915848  0.406127  1
  Sc  Sc9  1  0.250000  0.084152  0.593873  1
  Sc  Sc10  1  0.750000  0.415848  0.093873  1
  Sc  Sc11  1  0.250000  0.584152  0.906127  1
  Te  Te12  1  0.750000  0.907308  0.073494  1
  Te  Te13  1  0.250000  0.092692  0.926506  1
  Te  Te14  1  0.750000  0.407308  0.426506  1
  Te  Te15  1  0.250000  0.592692  0.573494  1
  Te  Te16  1  0.750000  0.702004  0.342769  1
  Te  Te17  1  0.250000  0.297996  0.657231  1
  Te  Te18  1  0.750000  0.202004  0.157231  1
  Te  Te19  1  0.250000  0.797996  0.842769  1
  Te  Te20  1  0.750000  0.624403  0.032314  1
  Te  Te21  1  0.250000  0.375597  0.967686  1
  Te  Te22  1  0.750000  0.124403  0.467686  1
  Te  Te23  1  0.250000  0.875597  0.532314  1
  Te  Te24  1  0.750000  0.531937  0.785844  1
  Te  Te25  1  0.250000  0.468063  0.214156  1
  Te  Te26  1  0.750000  0.031937  0.714156  1
  Te  Te27  1  0.250000  0.968063  0.285844  1
