# generated using pymatgen
data_TiTl2F6
_symmetry_space_group_name_H-M   'P 1'
_cell_length_a   6.03942353
_cell_length_b   6.03942353
_cell_length_c   4.95172415
_cell_angle_alpha   90.00000000
_cell_angle_beta   90.00000000
_cell_angle_gamma   120.00000000
_symmetry_Int_Tables_number   1
_chemical_formula_structural   TiTl2F6
_chemical_formula_sum   'Ti1 Tl2 F6'
_cell_volume   156.41487354
_cell_formula_units_Z   1
loop_
 _symmetry_equiv_pos_site_id
 _symmetry_equiv_pos_as_xyz
  1  'x, y, z'
loop_
 _atom_site_type_symbol
 _atom_site_label
 _atom_site_symmetry_multiplicity
 _atom_site_fract_x
 _atom_site_fract_y
 _atom_site_fract_z
 _atom_site_occupancy
  Ti  Ti0  1  0.000000  0.000000  0.000000  1
  Tl  Tl1  1  0.666667  0.333333  0.310919  1
  Tl  Tl2  1  0.333333  0.666667  0.689081  1
  F  F3  1  0.849800  0.150200  0.784475  1
  F  F4  1  0.849800  0.699601  0.784475  1
  F  F5  1  0.300399  0.150200  0.784475  1
  F  F6  1  0.150200  0.849800  0.215525  1
  F  F7  1  0.150200  0.300399  0.215525  1
  F  F8  1  0.699601  0.849800  0.215525  1
