# generated using pymatgen
data_CsTmCdTe3
_symmetry_space_group_name_H-M   'P 1'
_cell_length_a   8.97592044
_cell_length_b   8.97592044
_cell_length_c   11.81866523
_cell_angle_alpha   90.00000000
_cell_angle_beta   90.00000000
_cell_angle_gamma   150.86319944
_symmetry_Int_Tables_number   1
_chemical_formula_structural   CsTmCdTe3
_chemical_formula_sum   'Cs2 Tm2 Cd2 Te6'
_cell_volume   463.62096739
_cell_formula_units_Z   2
loop_
 _symmetry_equiv_pos_site_id
 _symmetry_equiv_pos_as_xyz
  1  'x, y, z'
loop_
 _atom_site_type_symbol
 _atom_site_label
 _atom_site_symmetry_multiplicity
 _atom_site_fract_x
 _atom_site_fract_y
 _atom_site_fract_z
 _atom_site_occupancy
  Cs  Cs0  1  0.751257  0.248743  0.250000  1
  Cs  Cs1  1  0.248743  0.751257  0.750000  1
  Tm  Tm2  1  0.000000  0.000000  0.500000  1
  Tm  Tm3  1  0.000000  0.000000  0.000000  1
  Cd  Cd4  1  0.537949  0.462051  0.750000  1
  Cd  Cd5  1  0.462051  0.537949  0.250000  1
  Te  Te6  1  0.618856  0.381144  0.956095  1
  Te  Te7  1  0.381144  0.618856  0.043905  1
  Te  Te8  1  0.064585  0.935415  0.250000  1
  Te  Te9  1  0.935415  0.064585  0.750000  1
  Te  Te10  1  0.618856  0.381144  0.543905  1
  Te  Te11  1  0.381144  0.618856  0.456095  1
