# generated using pymatgen
data_K2ZrO3
_symmetry_space_group_name_H-M   'P 1'
_cell_length_a   5.95096719
_cell_length_b   7.07465888
_cell_length_c   10.60943558
_cell_angle_alpha   90.00000000
_cell_angle_beta   90.00000000
_cell_angle_gamma   90.00000000
_symmetry_Int_Tables_number   1
_chemical_formula_structural   K2ZrO3
_chemical_formula_sum   'K8 Zr4 O12'
_cell_volume   446.66851443
_cell_formula_units_Z   4
loop_
 _symmetry_equiv_pos_site_id
 _symmetry_equiv_pos_as_xyz
  1  'x, y, z'
loop_
 _atom_site_type_symbol
 _atom_site_label
 _atom_site_symmetry_multiplicity
 _atom_site_fract_x
 _atom_site_fract_y
 _atom_site_fract_z
 _atom_site_occupancy
  K  K0  1  0.235405  0.614693  0.914346  1
  K  K1  1  0.235405  0.614693  0.585654  1
  K  K2  1  0.764595  0.385307  0.085654  1
  K  K3  1  0.264595  0.114693  0.414346  1
  K  K4  1  0.264595  0.114693  0.085654  1
  K  K5  1  0.764595  0.385307  0.414346  1
  K  K6  1  0.735405  0.885307  0.585654  1
  K  K7  1  0.735405  0.885307  0.914346  1
  Zr  Zr8  1  0.279580  0.159076  0.750000  1
  Zr  Zr9  1  0.779580  0.340924  0.750000  1
  Zr  Zr10  1  0.220420  0.659076  0.250000  1
  Zr  Zr11  1  0.720420  0.840924  0.250000  1
  O  O12  1  0.983149  0.770448  0.378441  1
  O  O13  1  0.483149  0.729552  0.121559  1
  O  O14  1  0.516851  0.270448  0.621559  1
  O  O15  1  0.016851  0.229552  0.878441  1
  O  O16  1  0.016851  0.229552  0.621559  1
  O  O17  1  0.516851  0.270448  0.878441  1
  O  O18  1  0.483149  0.729552  0.378441  1
  O  O19  1  0.983149  0.770448  0.121559  1
  O  O20  1  0.158415  0.390586  0.250000  1
  O  O21  1  0.841585  0.609414  0.750000  1
  O  O22  1  0.341585  0.890586  0.750000  1
  O  O23  1  0.658415  0.109414  0.250000  1
