# generated using pymatgen
data_Ga2Sn2S5
_symmetry_space_group_name_H-M   'P 1'
_cell_length_a   6.39807617
_cell_length_b   11.02564109
_cell_length_c   12.70926781
_cell_angle_alpha   90.00000000
_cell_angle_beta   90.00000000
_cell_angle_gamma   90.00000000
_symmetry_Int_Tables_number   1
_chemical_formula_structural   Ga2Sn2S5
_chemical_formula_sum   'Ga8 Sn8 S20'
_cell_volume   896.54850038
_cell_formula_units_Z   4
loop_
 _symmetry_equiv_pos_site_id
 _symmetry_equiv_pos_as_xyz
  1  'x, y, z'
loop_
 _atom_site_type_symbol
 _atom_site_label
 _atom_site_symmetry_multiplicity
 _atom_site_fract_x
 _atom_site_fract_y
 _atom_site_fract_z
 _atom_site_occupancy
  Ga  Ga0  1  0.646514  0.114902  0.768197  1
  Ga  Ga1  1  0.353486  0.614902  0.231803  1
  Ga  Ga2  1  0.853486  0.114902  0.268197  1
  Ga  Ga3  1  0.146514  0.614902  0.731803  1
  Ga  Ga4  1  0.151881  0.280909  0.818166  1
  Ga  Ga5  1  0.848119  0.780909  0.181834  1
  Ga  Ga6  1  0.348119  0.280909  0.318166  1
  Ga  Ga7  1  0.651881  0.780909  0.681834  1
  Sn  Sn8  1  0.543899  0.481212  0.538829  1
  Sn  Sn9  1  0.456101  0.981212  0.461171  1
  Sn  Sn10  1  0.956101  0.481212  0.038829  1
  Sn  Sn11  1  0.043899  0.981212  0.961171  1
  Sn  Sn12  1  0.550018  0.256575  0.017666  1
  Sn  Sn13  1  0.449982  0.756575  0.982334  1
  Sn  Sn14  1  0.949982  0.256575  0.517666  1
  Sn  Sn15  1  0.050018  0.756575  0.482334  1
  S  S16  1  0.478094  0.965926  0.672418  1
  S  S17  1  0.521906  0.465926  0.327582  1
  S  S18  1  0.021906  0.965926  0.172418  1
  S  S19  1  0.978094  0.465926  0.827582  1
  S  S20  1  0.505926  0.802054  0.226206  1
  S  S21  1  0.494074  0.302054  0.773794  1
  S  S22  1  0.994074  0.802054  0.726206  1
  S  S23  1  0.005926  0.302054  0.273794  1
  S  S24  1  0.142825  0.537689  0.561596  1
  S  S25  1  0.857175  0.037689  0.438404  1
  S  S26  1  0.357175  0.537689  0.061596  1
  S  S27  1  0.642825  0.037689  0.938404  1
  S  S28  1  0.640436  0.721835  0.506882  1
  S  S29  1  0.359564  0.221835  0.493118  1
  S  S30  1  0.859564  0.721835  0.006882  1
  S  S31  1  0.140436  0.221835  0.993118  1
  S  S32  1  0.988553  0.139297  0.711951  1
  S  S33  1  0.011447  0.639297  0.288049  1
  S  S34  1  0.511447  0.139297  0.211951  1
  S  S35  1  0.488553  0.639297  0.788049  1
