# generated using pymatgen
data_Sr2YSbO6
_symmetry_space_group_name_H-M   'P 1'
_cell_length_a   5.86665572
_cell_length_b   5.93425488
_cell_length_c   10.17060338
_cell_angle_alpha   90.00000000
_cell_angle_beta   124.99528751
_cell_angle_gamma   90.00000000
_symmetry_Int_Tables_number   1
_chemical_formula_structural   Sr2YSbO6
_chemical_formula_sum   'Sr4 Y2 Sb2 O12'
_cell_volume   290.06347485
_cell_formula_units_Z   2
loop_
 _symmetry_equiv_pos_site_id
 _symmetry_equiv_pos_as_xyz
  1  'x, y, z'
loop_
 _atom_site_type_symbol
 _atom_site_label
 _atom_site_symmetry_multiplicity
 _atom_site_fract_x
 _atom_site_fract_y
 _atom_site_fract_z
 _atom_site_occupancy
  Sr  Sr0  1  0.241266  0.034986  0.249648  1
  Sr  Sr1  1  0.758734  0.534986  0.250352  1
  Sr  Sr2  1  0.758734  0.965014  0.750352  1
  Sr  Sr3  1  0.241266  0.465014  0.749648  1
  Y  Y4  1  0.500000  0.500000  0.500000  1
  Y  Y5  1  0.500000  0.000000  0.000000  1
  Sb  Sb6  1  0.000000  0.000000  0.500000  1
  Sb  Sb7  1  0.000000  0.500000  0.000000  1
  O  O8  1  0.313822  0.477157  0.235247  1
  O  O9  1  0.686178  0.977157  0.264753  1
  O  O10  1  0.686178  0.522843  0.764753  1
  O  O11  1  0.313822  0.022843  0.735247  1
  O  O12  1  0.232554  0.800418  0.459742  1
  O  O13  1  0.767446  0.300418  0.040258  1
  O  O14  1  0.767446  0.199582  0.540258  1
  O  O15  1  0.232554  0.699582  0.959742  1
  O  O16  1  0.153132  0.226224  0.956811  1
  O  O17  1  0.846868  0.726224  0.543189  1
  O  O18  1  0.846868  0.773776  0.043189  1
  O  O19  1  0.153132  0.273776  0.456811  1
