# generated using pymatgen
data_Cs2NaAl3F12
_symmetry_space_group_name_H-M   'P 1'
_cell_length_a   7.43163329
_cell_length_b   7.43163329
_cell_length_c   7.43163329
_cell_angle_alpha   57.46966092
_cell_angle_beta   57.46966092
_cell_angle_gamma   57.46966092
_symmetry_Int_Tables_number   1
_chemical_formula_structural   Cs2NaAl3F12
_chemical_formula_sum   'Cs2 Na1 Al3 F12'
_cell_volume   273.33417417
_cell_formula_units_Z   1
loop_
 _symmetry_equiv_pos_site_id
 _symmetry_equiv_pos_as_xyz
  1  'x, y, z'
loop_
 _atom_site_type_symbol
 _atom_site_label
 _atom_site_symmetry_multiplicity
 _atom_site_fract_x
 _atom_site_fract_y
 _atom_site_fract_z
 _atom_site_occupancy
  Cs  Cs0  1  0.377011  0.377011  0.377011  1
  Cs  Cs1  1  0.622989  0.622989  0.622989  1
  Na  Na2  1  0.000000  0.000000  0.000000  1
  Al  Al3  1  0.500000  0.000000  0.000000  1
  Al  Al4  1  0.000000  0.500000  1.000000  1
  Al  Al5  1  0.000000  0.000000  0.500000  1
  F  F6  1  0.915246  0.382546  0.915246  1
  F  F7  1  0.382546  0.915246  0.915246  1
  F  F8  1  0.915246  0.915246  0.382546  1
  F  F9  1  0.084754  0.084754  0.617454  1
  F  F10  1  0.084754  0.617454  0.084754  1
  F  F11  1  0.617454  0.084754  0.084754  1
  F  F12  1  0.077460  0.702887  0.702887  1
  F  F13  1  0.702887  0.077460  0.702887  1
  F  F14  1  0.702887  0.702887  0.077460  1
  F  F15  1  0.297113  0.297113  0.922540  1
  F  F16  1  0.922540  0.297113  0.297113  1
  F  F17  1  0.297113  0.922540  0.297113  1
