# generated using pymatgen
data_TiTl2(GeO3)3
_symmetry_space_group_name_H-M   'P 1'
_cell_length_a   7.10262359
_cell_length_b   7.10262359
_cell_length_c   10.48469028
_cell_angle_alpha   90.00000000
_cell_angle_beta   90.00000000
_cell_angle_gamma   120.00000000
_symmetry_Int_Tables_number   1
_chemical_formula_structural   TiTl2(GeO3)3
_chemical_formula_sum   'Ti2 Tl4 Ge6 O18'
_cell_volume   458.06154772
_cell_formula_units_Z   2
loop_
 _symmetry_equiv_pos_site_id
 _symmetry_equiv_pos_as_xyz
  1  'x, y, z'
loop_
 _atom_site_type_symbol
 _atom_site_label
 _atom_site_symmetry_multiplicity
 _atom_site_fract_x
 _atom_site_fract_y
 _atom_site_fract_z
 _atom_site_occupancy
  Ti  Ti0  1  0.000000  0.000000  0.500000  1
  Ti  Ti1  1  0.000000  0.000000  0.000000  1
  Tl  Tl2  1  0.333333  0.666667  0.442531  1
  Tl  Tl3  1  0.666667  0.333333  0.942531  1
  Tl  Tl4  1  0.666667  0.333333  0.557469  1
  Tl  Tl5  1  0.333333  0.666667  0.057469  1
  Ge  Ge6  1  0.241960  0.874504  0.750000  1
  Ge  Ge7  1  0.632543  0.758040  0.750000  1
  Ge  Ge8  1  0.125496  0.367457  0.750000  1
  Ge  Ge9  1  0.367457  0.241960  0.250000  1
  Ge  Ge10  1  0.874504  0.632543  0.250000  1
  Ge  Ge11  1  0.758040  0.125496  0.250000  1
  O  O12  1  0.232851  0.224697  0.392513  1
  O  O13  1  0.008154  0.232851  0.892513  1
  O  O14  1  0.224697  0.991846  0.892513  1
  O  O15  1  0.775303  0.008154  0.392513  1
  O  O16  1  0.991846  0.767149  0.392513  1
  O  O17  1  0.767149  0.775303  0.892513  1
  O  O18  1  0.767149  0.775303  0.607487  1
  O  O19  1  0.991846  0.767149  0.107487  1
  O  O20  1  0.775303  0.008154  0.107487  1
  O  O21  1  0.224697  0.991846  0.607487  1
  O  O22  1  0.008154  0.232851  0.607487  1
  O  O23  1  0.232851  0.224697  0.107487  1
  O  O24  1  0.478047  0.064324  0.250000  1
  O  O25  1  0.413723  0.478047  0.750000  1
  O  O26  1  0.064324  0.586277  0.750000  1
  O  O27  1  0.935676  0.413723  0.250000  1
  O  O28  1  0.586277  0.521953  0.250000  1
  O  O29  1  0.521953  0.935676  0.750000  1
