# generated using pymatgen
data_Ba3(SnAs2)2
_symmetry_space_group_name_H-M   'P 1'
_cell_length_a   8.06699706
_cell_length_b   20.15552175
_cell_length_c   8.18103408
_cell_angle_alpha   90.00000000
_cell_angle_beta   112.23367186
_cell_angle_gamma   90.00000000
_symmetry_Int_Tables_number   1
_chemical_formula_structural   Ba3(SnAs2)2
_chemical_formula_sum   'Ba12 Sn8 As16'
_cell_volume   1231.28953433
_cell_formula_units_Z   4
loop_
 _symmetry_equiv_pos_site_id
 _symmetry_equiv_pos_as_xyz
  1  'x, y, z'
loop_
 _atom_site_type_symbol
 _atom_site_label
 _atom_site_symmetry_multiplicity
 _atom_site_fract_x
 _atom_site_fract_y
 _atom_site_fract_z
 _atom_site_occupancy
  Ba  Ba0  1  0.009350  0.317046  0.213091  1
  Ba  Ba1  1  0.490650  0.817046  0.786909  1
  Ba  Ba2  1  0.990650  0.682954  0.786909  1
  Ba  Ba3  1  0.509350  0.182954  0.213091  1
  Ba  Ba4  1  0.994907  0.439288  0.738325  1
  Ba  Ba5  1  0.505093  0.939288  0.261675  1
  Ba  Ba6  1  0.005093  0.560712  0.261675  1
  Ba  Ba7  1  0.494907  0.060712  0.738325  1
  Ba  Ba8  1  0.511195  0.436801  0.257407  1
  Ba  Ba9  1  0.988805  0.936801  0.742593  1
  Ba  Ba10  1  0.488805  0.563199  0.742593  1
  Ba  Ba11  1  0.011195  0.063199  0.257407  1
  Sn  Sn12  1  0.525719  0.623297  0.210057  1
  Sn  Sn13  1  0.974281  0.123297  0.789943  1
  Sn  Sn14  1  0.474281  0.376703  0.789943  1
  Sn  Sn15  1  0.025719  0.876703  0.210057  1
  Sn  Sn16  1  0.400659  0.741905  0.316619  1
  Sn  Sn17  1  0.900659  0.758095  0.316619  1
  Sn  Sn18  1  0.599341  0.258095  0.683381  1
  Sn  Sn19  1  0.099341  0.241905  0.683381  1
  As  As20  1  0.253853  0.435797  0.501849  1
  As  As21  1  0.246147  0.935797  0.498151  1
  As  As22  1  0.746147  0.564203  0.498151  1
  As  As23  1  0.753853  0.064203  0.501849  1
  As  As24  1  0.750589  0.445181  0.998984  1
  As  As25  1  0.749411  0.945181  0.001016  1
  As  As26  1  0.249411  0.554819  0.001016  1
  As  As27  1  0.250589  0.054819  0.998984  1
  As  As28  1  0.784117  0.182875  0.964622  1
  As  As29  1  0.715883  0.682875  0.035378  1
  As  As30  1  0.215883  0.817125  0.035378  1
  As  As31  1  0.284117  0.317125  0.964622  1
  As  As32  1  0.715456  0.800934  0.512342  1
  As  As33  1  0.215456  0.699066  0.512342  1
  As  As34  1  0.284544  0.199066  0.487658  1
  As  As35  1  0.784544  0.300934  0.487658  1
