# generated using pymatgen
data_RbGe
_symmetry_space_group_name_H-M   'P 1'
_cell_length_a   13.35724322
_cell_length_b   13.35724322
_cell_length_c   13.35724322
_cell_angle_alpha   90.00000000
_cell_angle_beta   90.00000000
_cell_angle_gamma   90.00000000
_symmetry_Int_Tables_number   1
_chemical_formula_structural   RbGe
_chemical_formula_sum   'Rb32 Ge32'
_cell_volume   2383.14519090
_cell_formula_units_Z   32
loop_
 _symmetry_equiv_pos_site_id
 _symmetry_equiv_pos_as_xyz
  1  'x, y, z'
loop_
 _atom_site_type_symbol
 _atom_site_label
 _atom_site_symmetry_multiplicity
 _atom_site_fract_x
 _atom_site_fract_y
 _atom_site_fract_z
 _atom_site_occupancy
  Rb  Rb0  1  0.167600  0.832400  0.167600  1
  Rb  Rb1  1  0.832400  0.167600  0.167600  1
  Rb  Rb2  1  0.167600  0.167600  0.832400  1
  Rb  Rb3  1  0.832400  0.832400  0.832400  1
  Rb  Rb4  1  0.667600  0.667600  0.332400  1
  Rb  Rb5  1  0.332400  0.667600  0.667600  1
  Rb  Rb6  1  0.667600  0.332400  0.667600  1
  Rb  Rb7  1  0.332400  0.332400  0.332400  1
  Rb  Rb8  1  0.435667  0.641081  0.163624  1
  Rb  Rb9  1  0.358919  0.836376  0.435667  1
  Rb  Rb10  1  0.163624  0.564333  0.358919  1
  Rb  Rb11  1  0.564333  0.358919  0.163624  1
  Rb  Rb12  1  0.641081  0.163624  0.435667  1
  Rb  Rb13  1  0.836376  0.435667  0.358919  1
  Rb  Rb14  1  0.435667  0.358919  0.836376  1
  Rb  Rb15  1  0.358919  0.163624  0.564333  1
  Rb  Rb16  1  0.163624  0.435667  0.641081  1
  Rb  Rb17  1  0.564333  0.641081  0.836376  1
  Rb  Rb18  1  0.641081  0.836376  0.564333  1
  Rb  Rb19  1  0.836376  0.564333  0.641081  1
  Rb  Rb20  1  0.935667  0.663624  0.141081  1
  Rb  Rb21  1  0.858919  0.935667  0.336376  1
  Rb  Rb22  1  0.663624  0.858919  0.064333  1
  Rb  Rb23  1  0.064333  0.663624  0.858919  1
  Rb  Rb24  1  0.141081  0.935667  0.663624  1
  Rb  Rb25  1  0.336376  0.858919  0.935667  1
  Rb  Rb26  1  0.935667  0.336376  0.858919  1
  Rb  Rb27  1  0.858919  0.064333  0.663624  1
  Rb  Rb28  1  0.663624  0.141081  0.935667  1
  Rb  Rb29  1  0.064333  0.336376  0.141081  1
  Rb  Rb30  1  0.141081  0.064333  0.336376  1
  Rb  Rb31  1  0.336376  0.141081  0.064333  1
  Ge  Ge32  1  0.431064  0.568936  0.431064  1
  Ge  Ge33  1  0.568936  0.431064  0.431064  1
  Ge  Ge34  1  0.431064  0.431064  0.568936  1
  Ge  Ge35  1  0.568936  0.568936  0.568936  1
  Ge  Ge36  1  0.931064  0.931064  0.068936  1
  Ge  Ge37  1  0.068936  0.931064  0.931064  1
  Ge  Ge38  1  0.931064  0.068936  0.931064  1
  Ge  Ge39  1  0.068936  0.068936  0.068936  1
  Ge  Ge40  1  0.075838  0.817865  0.437300  1
  Ge  Ge41  1  0.182135  0.562700  0.075838  1
  Ge  Ge42  1  0.437300  0.924162  0.182135  1
  Ge  Ge43  1  0.924162  0.182135  0.437300  1
  Ge  Ge44  1  0.817865  0.437300  0.075838  1
  Ge  Ge45  1  0.562700  0.075838  0.182135  1
  Ge  Ge46  1  0.075838  0.182135  0.562700  1
  Ge  Ge47  1  0.182135  0.437300  0.924162  1
  Ge  Ge48  1  0.437300  0.075838  0.817865  1
  Ge  Ge49  1  0.924162  0.817865  0.562700  1
  Ge  Ge50  1  0.817865  0.562700  0.924162  1
  Ge  Ge51  1  0.562700  0.924162  0.817865  1
  Ge  Ge52  1  0.575838  0.937300  0.317865  1
  Ge  Ge53  1  0.682135  0.575838  0.062700  1
  Ge  Ge54  1  0.937300  0.682135  0.424162  1
  Ge  Ge55  1  0.424162  0.937300  0.682135  1
  Ge  Ge56  1  0.317865  0.575838  0.937300  1
  Ge  Ge57  1  0.062700  0.682135  0.575838  1
  Ge  Ge58  1  0.575838  0.062700  0.682135  1
  Ge  Ge59  1  0.682135  0.424162  0.937300  1
  Ge  Ge60  1  0.937300  0.317865  0.575838  1
  Ge  Ge61  1  0.424162  0.062700  0.317865  1
  Ge  Ge62  1  0.317865  0.424162  0.062700  1
  Ge  Ge63  1  0.062700  0.317865  0.424162  1
