# generated using pymatgen
data_Na3WN3
_symmetry_space_group_name_H-M   'P 1'
_cell_length_a   8.88625353
_cell_length_b   8.88625353
_cell_length_c   6.44309688
_cell_angle_alpha   69.05732889
_cell_angle_beta   110.94267111
_cell_angle_gamma   102.69370403
_symmetry_Int_Tables_number   1
_chemical_formula_structural   Na3WN3
_chemical_formula_sum   'Na12 W4 N12'
_cell_volume   441.30656431
_cell_formula_units_Z   4
loop_
 _symmetry_equiv_pos_site_id
 _symmetry_equiv_pos_as_xyz
  1  'x, y, z'
loop_
 _atom_site_type_symbol
 _atom_site_label
 _atom_site_symmetry_multiplicity
 _atom_site_fract_x
 _atom_site_fract_y
 _atom_site_fract_z
 _atom_site_occupancy
  Na  Na0  1  0.080793  0.851385  0.611623  1
  Na  Na1  1  0.148615  0.919207  0.111623  1
  Na  Na2  1  0.882396  0.152293  0.126936  1
  Na  Na3  1  0.847707  0.117604  0.626936  1
  Na  Na4  1  0.640351  0.391996  0.307129  1
  Na  Na5  1  0.608004  0.359649  0.807129  1
  Na  Na6  1  0.395395  0.634529  0.074505  1
  Na  Na7  1  0.365471  0.604605  0.574505  1
  Na  Na8  1  0.704888  0.725477  0.528630  1
  Na  Na9  1  0.274523  0.295112  0.028630  1
  Na  Na10  1  0.470826  0.004546  0.531605  1
  Na  Na11  1  0.995454  0.529174  0.031605  1
  W  W12  1  0.508918  0.007686  0.075773  1
  W  W13  1  0.992314  0.491082  0.575773  1
  W  W14  1  0.238134  0.240183  0.508288  1
  W  W15  1  0.759817  0.761866  0.008288  1
  N  N16  1  0.644983  0.944108  0.950390  1
  N  N17  1  0.055892  0.355017  0.450390  1
  N  N18  1  0.878679  0.671743  0.334096  1
  N  N19  1  0.328257  0.121321  0.834096  1
  N  N20  1  0.637087  0.143122  0.244419  1
  N  N21  1  0.856878  0.362913  0.744419  1
  N  N22  1  0.166972  0.097112  0.335709  1
  N  N23  1  0.902888  0.833028  0.835709  1
  N  N24  1  0.398772  0.386349  0.408652  1
  N  N25  1  0.613651  0.601228  0.908652  1
  N  N26  1  0.424575  0.832181  0.274045  1
  N  N27  1  0.167819  0.575425  0.774045  1
