# generated using pymatgen
data_BaGeO3
_symmetry_space_group_name_H-M   'P 1'
_cell_length_a   4.68198347
_cell_length_b   5.81614703
_cell_length_c   13.10337862
_cell_angle_alpha   90.00000000
_cell_angle_beta   90.00000000
_cell_angle_gamma   90.00000000
_symmetry_Int_Tables_number   1
_chemical_formula_structural   BaGeO3
_chemical_formula_sum   'Ba4 Ge4 O12'
_cell_volume   356.81946927
_cell_formula_units_Z   4
loop_
 _symmetry_equiv_pos_site_id
 _symmetry_equiv_pos_as_xyz
  1  'x, y, z'
loop_
 _atom_site_type_symbol
 _atom_site_label
 _atom_site_symmetry_multiplicity
 _atom_site_fract_x
 _atom_site_fract_y
 _atom_site_fract_z
 _atom_site_occupancy
  Ba  Ba0  1  0.276908  0.318348  0.860971  1
  Ba  Ba1  1  0.776908  0.181652  0.139029  1
  Ba  Ba2  1  0.723092  0.818348  0.639029  1
  Ba  Ba3  1  0.223092  0.681652  0.360971  1
  Ge  Ge4  1  0.821312  0.809335  0.923908  1
  Ge  Ge5  1  0.321312  0.690665  0.076092  1
  Ge  Ge6  1  0.178688  0.309335  0.576092  1
  Ge  Ge7  1  0.678688  0.190665  0.423908  1
  O  O8  1  0.764359  0.104565  0.912447  1
  O  O9  1  0.264359  0.395435  0.087553  1
  O  O10  1  0.235641  0.604565  0.587553  1
  O  O11  1  0.735641  0.895435  0.412447  1
  O  O12  1  0.750775  0.620911  0.824014  1
  O  O13  1  0.250775  0.879089  0.175986  1
  O  O14  1  0.249225  0.120911  0.675986  1
  O  O15  1  0.749225  0.379089  0.324014  1
  O  O16  1  0.294170  0.217073  0.449248  1
  O  O17  1  0.794170  0.282927  0.550752  1
  O  O18  1  0.705830  0.717073  0.050752  1
  O  O19  1  0.205830  0.782927  0.949248  1
