# generated using pymatgen
data_KNaLi2(SO4)2
_symmetry_space_group_name_H-M   'P 1'
_cell_length_a   4.99856845
_cell_length_b   7.88121113
_cell_length_c   19.33226709
_cell_angle_alpha   90.00000000
_cell_angle_beta   90.00000000
_cell_angle_gamma   90.00000000
_symmetry_Int_Tables_number   1
_chemical_formula_structural   KNaLi2(SO4)2
_chemical_formula_sum   'K4 Na4 Li8 S8 O32'
_cell_volume   761.59027943
_cell_formula_units_Z   4
loop_
 _symmetry_equiv_pos_site_id
 _symmetry_equiv_pos_as_xyz
  1  'x, y, z'
loop_
 _atom_site_type_symbol
 _atom_site_label
 _atom_site_symmetry_multiplicity
 _atom_site_fract_x
 _atom_site_fract_y
 _atom_site_fract_z
 _atom_site_occupancy
  K  K0  1  0.497602  0.943402  0.572727  1
  K  K1  1  0.997602  0.556598  0.427273  1
  K  K2  1  0.502398  0.443402  0.927273  1
  K  K3  1  0.002398  0.056598  0.072727  1
  Na  Na4  1  0.015223  0.249282  0.276182  1
  Na  Na5  1  0.984777  0.749282  0.223818  1
  Na  Na6  1  0.484777  0.750718  0.776182  1
  Na  Na7  1  0.515223  0.250718  0.723818  1
  Li  Li8  1  0.004760  0.743715  0.911167  1
  Li  Li9  1  0.504760  0.756285  0.088833  1
  Li  Li10  1  0.995240  0.243715  0.588833  1
  Li  Li11  1  0.495240  0.256285  0.411167  1
  Li  Li12  1  0.035657  0.099328  0.859406  1
  Li  Li13  1  0.535657  0.400672  0.140594  1
  Li  Li14  1  0.964343  0.599328  0.640594  1
  Li  Li15  1  0.464343  0.900672  0.359406  1
  S  S16  1  0.967243  0.467881  0.793194  1
  S  S17  1  0.532757  0.532119  0.293194  1
  S  S18  1  0.467243  0.032119  0.206806  1
  S  S19  1  0.032757  0.967881  0.706806  1
  S  S20  1  0.007921  0.548184  0.059287  1
  S  S21  1  0.507921  0.951816  0.940713  1
  S  S22  1  0.992079  0.048184  0.440713  1
  S  S23  1  0.492079  0.451816  0.559287  1
  O  O24  1  0.199646  0.461607  0.577006  1
  O  O25  1  0.699646  0.038393  0.422994  1
  O  O26  1  0.800354  0.961607  0.922994  1
  O  O27  1  0.300354  0.538393  0.077006  1
  O  O28  1  0.518406  0.433671  0.482858  1
  O  O29  1  0.018406  0.066329  0.517142  1
  O  O30  1  0.481594  0.933671  0.017142  1
  O  O31  1  0.981594  0.566329  0.982858  1
  O  O32  1  0.630898  0.609109  0.581857  1
  O  O33  1  0.130898  0.890891  0.418143  1
  O  O34  1  0.369102  0.109109  0.918143  1
  O  O35  1  0.869102  0.390891  0.081857  1
  O  O36  1  0.610335  0.301019  0.594689  1
  O  O37  1  0.110335  0.198981  0.405311  1
  O  O38  1  0.389665  0.801019  0.905311  1
  O  O39  1  0.889665  0.698981  0.094689  1
  O  O40  1  0.631739  0.380842  0.332347  1
  O  O41  1  0.131739  0.119158  0.667653  1
  O  O42  1  0.368261  0.880842  0.167653  1
  O  O43  1  0.868261  0.619158  0.832347  1
  O  O44  1  0.871352  0.310682  0.828750  1
  O  O45  1  0.371352  0.189318  0.171250  1
  O  O46  1  0.128648  0.810682  0.671250  1
  O  O47  1  0.628648  0.689318  0.328750  1
  O  O48  1  0.265098  0.470120  0.790240  1
  O  O49  1  0.765098  0.029880  0.209760  1
  O  O50  1  0.734902  0.970120  0.709760  1
  O  O51  1  0.234902  0.529880  0.290240  1
  O  O52  1  0.849755  0.472824  0.722373  1
  O  O53  1  0.349755  0.027176  0.277627  1
  O  O54  1  0.150245  0.972824  0.777627  1
  O  O55  1  0.650245  0.527176  0.222373  1
