# generated using pymatgen
data_LiSm2OsO6
_symmetry_space_group_name_H-M   'P 1'
_cell_length_a   5.41668892
_cell_length_b   5.82385568
_cell_length_c   9.39443362
_cell_angle_alpha   90.00000000
_cell_angle_beta   124.47387342
_cell_angle_gamma   90.00000000
_symmetry_Int_Tables_number   1
_chemical_formula_structural   LiSm2OsO6
_chemical_formula_sum   'Li2 Sm4 Os2 O12'
_cell_volume   244.31203249
_cell_formula_units_Z   2
loop_
 _symmetry_equiv_pos_site_id
 _symmetry_equiv_pos_as_xyz
  1  'x, y, z'
loop_
 _atom_site_type_symbol
 _atom_site_label
 _atom_site_symmetry_multiplicity
 _atom_site_fract_x
 _atom_site_fract_y
 _atom_site_fract_z
 _atom_site_occupancy
  Li  Li0  1  0.000000  0.000000  0.000000  1
  Li  Li1  1  0.000000  0.500000  0.500000  1
  Sm  Sm2  1  0.771143  0.074891  0.251710  1
  Sm  Sm3  1  0.228857  0.574892  0.248290  1
  Sm  Sm4  1  0.771143  0.425109  0.751710  1
  Sm  Sm5  1  0.228857  0.925109  0.748290  1
  Os  Os6  1  0.500000  0.500000  0.000000  1
  Os  Os7  1  0.500000  0.000000  0.500000  1
  O  O8  1  0.265365  0.290859  0.441330  1
  O  O9  1  0.734635  0.790859  0.058670  1
  O  O10  1  0.734635  0.709141  0.558670  1
  O  O11  1  0.265365  0.209141  0.941330  1
  O  O12  1  0.634543  0.038134  0.743929  1
  O  O13  1  0.365457  0.538134  0.756071  1
  O  O14  1  0.851956  0.317151  0.051695  1
  O  O15  1  0.148044  0.817151  0.448305  1
  O  O16  1  0.148044  0.682849  0.948305  1
  O  O17  1  0.851956  0.182849  0.551695  1
  O  O18  1  0.634543  0.461866  0.243929  1
  O  O19  1  0.365457  0.961866  0.256071  1
