# generated using pymatgen
data_NdPO4
_symmetry_space_group_name_H-M   'P 1'
_cell_length_a   7.16741674
_cell_length_b   7.16741674
_cell_length_c   6.40189908
_cell_angle_alpha   90.00000000
_cell_angle_beta   90.00000000
_cell_angle_gamma   120.00000000
_symmetry_Int_Tables_number   1
_chemical_formula_structural   NdPO4
_chemical_formula_sum   'Nd3 P3 O12'
_cell_volume   284.81625316
_cell_formula_units_Z   3
loop_
 _symmetry_equiv_pos_site_id
 _symmetry_equiv_pos_as_xyz
  1  'x, y, z'
loop_
 _atom_site_type_symbol
 _atom_site_label
 _atom_site_symmetry_multiplicity
 _atom_site_fract_x
 _atom_site_fract_y
 _atom_site_fract_z
 _atom_site_occupancy
  Nd  Nd0  1  0.000000  0.500000  0.666667  1
  Nd  Nd1  1  0.500000  0.500000  0.333333  1
  Nd  Nd2  1  0.500000  0.000000  0.000000  1
  P  P3  1  0.000000  0.500000  0.166667  1
  P  P4  1  0.500000  0.500000  0.833333  1
  P  P5  1  0.500000  0.000000  0.500000  1
  O  O6  1  0.445988  0.308902  0.982397  1
  O  O7  1  0.691098  0.137087  0.649064  1
  O  O8  1  0.862913  0.554012  0.315730  1
  O  O9  1  0.137087  0.445988  0.315730  1
  O  O10  1  0.554012  0.862913  0.350936  1
  O  O11  1  0.554012  0.691098  0.982397  1
  O  O12  1  0.445988  0.137087  0.350936  1
  O  O13  1  0.308902  0.445988  0.684270  1
  O  O14  1  0.137087  0.691098  0.017603  1
  O  O15  1  0.862913  0.308902  0.017603  1
  O  O16  1  0.691098  0.554012  0.684270  1
  O  O17  1  0.308902  0.862913  0.649064  1
