# generated using pymatgen
data_Tb2O3
_symmetry_space_group_name_H-M   'P 1'
_cell_length_a   9.30467476
_cell_length_b   9.30467476
_cell_length_c   9.30467476
_cell_angle_alpha   109.47122063
_cell_angle_beta   109.47122063
_cell_angle_gamma   109.47122063
_symmetry_Int_Tables_number   1
_chemical_formula_structural   Tb2O3
_chemical_formula_sum   'Tb16 O24'
_cell_volume   620.12851372
_cell_formula_units_Z   8
loop_
 _symmetry_equiv_pos_site_id
 _symmetry_equiv_pos_as_xyz
  1  'x, y, z'
loop_
 _atom_site_type_symbol
 _atom_site_label
 _atom_site_symmetry_multiplicity
 _atom_site_fract_x
 _atom_site_fract_y
 _atom_site_fract_z
 _atom_site_occupancy
  Tb  Tb0  1  0.750000  0.782233  0.032233  1
  Tb  Tb1  1  0.467767  0.250000  0.717767  1
  Tb  Tb2  1  0.717767  0.467767  0.250000  1
  Tb  Tb3  1  0.032233  0.750000  0.782233  1
  Tb  Tb4  1  0.782233  0.032233  0.750000  1
  Tb  Tb5  1  0.250000  0.717767  0.467767  1
  Tb  Tb6  1  0.750000  0.282233  0.532233  1
  Tb  Tb7  1  0.967767  0.250000  0.217767  1
  Tb  Tb8  1  0.217767  0.967767  0.250000  1
  Tb  Tb9  1  0.532233  0.750000  0.282233  1
  Tb  Tb10  1  0.282233  0.532233  0.750000  1
  Tb  Tb11  1  0.250000  0.217767  0.967767  1
  Tb  Tb12  1  0.000000  0.500000  0.000000  1
  Tb  Tb13  1  0.500000  0.000000  0.000000  1
  Tb  Tb14  1  0.000000  0.000000  0.500000  1
  Tb  Tb15  1  0.500000  0.500000  0.500000  1
  O  O16  1  0.729661  0.260113  0.771745  1
  O  O17  1  0.988368  0.957915  0.728255  1
  O  O18  1  0.511632  0.239887  0.969548  1
  O  O19  1  0.542085  0.530452  0.770339  1
  O  O20  1  0.530452  0.770339  0.542085  1
  O  O21  1  0.771745  0.729661  0.260113  1
  O  O22  1  0.957915  0.728255  0.988368  1
  O  O23  1  0.969548  0.511632  0.239887  1
  O  O24  1  0.260113  0.771745  0.729661  1
  O  O25  1  0.728255  0.988368  0.957915  1
  O  O26  1  0.239887  0.969548  0.511632  1
  O  O27  1  0.770339  0.542085  0.530452  1
  O  O28  1  0.042085  0.271745  0.011632  1
  O  O29  1  0.760113  0.030452  0.488368  1
  O  O30  1  0.739887  0.228255  0.270339  1
  O  O31  1  0.469548  0.229661  0.457915  1
  O  O32  1  0.457915  0.469548  0.229661  1
  O  O33  1  0.228255  0.270339  0.739887  1
  O  O34  1  0.488368  0.760113  0.030452  1
  O  O35  1  0.271745  0.011632  0.042085  1
  O  O36  1  0.270339  0.739887  0.228255  1
  O  O37  1  0.030452  0.488368  0.760113  1
  O  O38  1  0.011632  0.042085  0.271745  1
  O  O39  1  0.229661  0.457915  0.469548  1
