# generated using pymatgen
data_TaTlS3
_symmetry_space_group_name_H-M   'P 1'
_cell_length_a   3.52349341
_cell_length_b   9.42706544
_cell_length_c   14.72465436
_cell_angle_alpha   90.00000000
_cell_angle_beta   90.00000000
_cell_angle_gamma   90.00000000
_symmetry_Int_Tables_number   1
_chemical_formula_structural   TaTlS3
_chemical_formula_sum   'Ta4 Tl4 S12'
_cell_volume   489.09710764
_cell_formula_units_Z   4
loop_
 _symmetry_equiv_pos_site_id
 _symmetry_equiv_pos_as_xyz
  1  'x, y, z'
loop_
 _atom_site_type_symbol
 _atom_site_label
 _atom_site_symmetry_multiplicity
 _atom_site_fract_x
 _atom_site_fract_y
 _atom_site_fract_z
 _atom_site_occupancy
  Ta  Ta0  1  0.250000  0.659063  0.069615  1
  Ta  Ta1  1  0.750000  0.340937  0.930385  1
  Ta  Ta2  1  0.250000  0.159063  0.430385  1
  Ta  Ta3  1  0.750000  0.840937  0.569615  1
  Tl  Tl4  1  0.750000  0.516587  0.327455  1
  Tl  Tl5  1  0.250000  0.483413  0.672545  1
  Tl  Tl6  1  0.750000  0.016587  0.172545  1
  Tl  Tl7  1  0.250000  0.983413  0.827455  1
  S  S8  1  0.250000  0.522812  0.903801  1
  S  S9  1  0.750000  0.477188  0.096199  1
  S  S10  1  0.250000  0.022812  0.596199  1
  S  S11  1  0.750000  0.977188  0.403801  1
  S  S12  1  0.250000  0.748931  0.211903  1
  S  S13  1  0.750000  0.251069  0.788097  1
  S  S14  1  0.250000  0.248931  0.288097  1
  S  S15  1  0.750000  0.751069  0.711903  1
  S  S16  1  0.250000  0.693078  0.501590  1
  S  S17  1  0.750000  0.306922  0.498410  1
  S  S18  1  0.250000  0.193078  0.998410  1
  S  S19  1  0.750000  0.806922  0.001590  1
