# generated using pymatgen
data_Na2LiBe2F7
_symmetry_space_group_name_H-M   'P 1'
_cell_length_a   7.69856595
_cell_length_b   7.69856595
_cell_length_c   4.89643223
_cell_angle_alpha   90.00000000
_cell_angle_beta   90.00000000
_cell_angle_gamma   90.00000000
_symmetry_Int_Tables_number   1
_chemical_formula_structural   Na2LiBe2F7
_chemical_formula_sum   'Na4 Li2 Be4 F14'
_cell_volume   290.20134237
_cell_formula_units_Z   2
loop_
 _symmetry_equiv_pos_site_id
 _symmetry_equiv_pos_as_xyz
  1  'x, y, z'
loop_
 _atom_site_type_symbol
 _atom_site_label
 _atom_site_symmetry_multiplicity
 _atom_site_fract_x
 _atom_site_fract_y
 _atom_site_fract_z
 _atom_site_occupancy
  Na  Na0  1  0.832237  0.667763  0.495000  1
  Na  Na1  1  0.332237  0.832237  0.505000  1
  Na  Na2  1  0.667763  0.167763  0.505000  1
  Na  Na3  1  0.167763  0.332237  0.495000  1
  Li  Li4  1  0.500000  0.500000  0.000000  1
  Li  Li5  1  0.000000  0.000000  0.000000  1
  Be  Be6  1  0.859502  0.359502  0.929329  1
  Be  Be7  1  0.359502  0.140498  0.070671  1
  Be  Be8  1  0.140498  0.640498  0.929329  1
  Be  Be9  1  0.640498  0.859502  0.070671  1
  F  F10  1  0.583161  0.686291  0.207073  1
  F  F11  1  0.416839  0.313709  0.207073  1
  F  F12  1  0.313709  0.583161  0.792927  1
  F  F13  1  0.686291  0.416839  0.792927  1
  F  F14  1  0.000000  0.500000  0.818576  1
  F  F15  1  0.500000  0.000000  0.181424  1
  F  F16  1  0.357780  0.142220  0.759095  1
  F  F17  1  0.857780  0.357780  0.240905  1
  F  F18  1  0.142220  0.642220  0.240905  1
  F  F19  1  0.642220  0.857780  0.759095  1
  F  F20  1  0.083161  0.813709  0.792927  1
  F  F21  1  0.186291  0.083161  0.207073  1
  F  F22  1  0.813709  0.916839  0.207073  1
  F  F23  1  0.916839  0.186291  0.792927  1
