# generated using pymatgen
data_Be3Cd4Si3TeO12
_symmetry_space_group_name_H-M   'P 1'
_cell_length_a   8.68419467
_cell_length_b   8.68419467
_cell_length_c   8.68419467
_cell_angle_alpha   90.00000000
_cell_angle_beta   90.00000000
_cell_angle_gamma   90.00000000
_symmetry_Int_Tables_number   1
_chemical_formula_structural   Be3Cd4Si3TeO12
_chemical_formula_sum   'Be6 Cd8 Si6 Te2 O24'
_cell_volume   654.92059977
_cell_formula_units_Z   2
loop_
 _symmetry_equiv_pos_site_id
 _symmetry_equiv_pos_as_xyz
  1  'x, y, z'
loop_
 _atom_site_type_symbol
 _atom_site_label
 _atom_site_symmetry_multiplicity
 _atom_site_fract_x
 _atom_site_fract_y
 _atom_site_fract_z
 _atom_site_occupancy
  Be  Be0  1  0.250000  0.500000  0.000000  1
  Be  Be1  1  0.500000  0.000000  0.750000  1
  Be  Be2  1  0.500000  0.000000  0.250000  1
  Be  Be3  1  0.000000  0.250000  0.500000  1
  Be  Be4  1  0.000000  0.750000  0.500000  1
  Be  Be5  1  0.750000  0.500000  0.000000  1
  Cd  Cd6  1  0.184690  0.184690  0.184690  1
  Cd  Cd7  1  0.315310  0.684690  0.315310  1
  Cd  Cd8  1  0.315310  0.315310  0.684690  1
  Cd  Cd9  1  0.684690  0.315310  0.315310  1
  Cd  Cd10  1  0.815310  0.815310  0.184690  1
  Cd  Cd11  1  0.184690  0.815310  0.815310  1
  Cd  Cd12  1  0.815310  0.184690  0.815310  1
  Cd  Cd13  1  0.684690  0.684690  0.684690  1
  Si  Si14  1  0.750000  0.000000  0.500000  1
  Si  Si15  1  0.500000  0.750000  0.000000  1
  Si  Si16  1  0.500000  0.250000  0.000000  1
  Si  Si17  1  0.000000  0.500000  0.250000  1
  Si  Si18  1  0.000000  0.500000  0.750000  1
  Si  Si19  1  0.250000  0.000000  0.500000  1
  Te  Te20  1  0.000000  0.000000  0.000000  1
  Te  Te21  1  0.500000  0.500000  0.500000  1
  O  O22  1  0.853857  0.437700  0.853847  1
  O  O23  1  0.853857  0.562300  0.146153  1
  O  O24  1  0.437700  0.853847  0.853857  1
  O  O25  1  0.562300  0.853847  0.146143  1
  O  O26  1  0.853847  0.853857  0.437700  1
  O  O27  1  0.146153  0.146143  0.437700  1
  O  O28  1  0.353857  0.353847  0.937700  1
  O  O29  1  0.146143  0.437700  0.146153  1
  O  O30  1  0.146143  0.562300  0.853847  1
  O  O31  1  0.562300  0.146153  0.853857  1
  O  O32  1  0.437700  0.146153  0.146143  1
  O  O33  1  0.853847  0.146143  0.562300  1
  O  O34  1  0.146153  0.853857  0.562300  1
  O  O35  1  0.937700  0.353857  0.353847  1
  O  O36  1  0.353847  0.937700  0.353857  1
  O  O37  1  0.646153  0.062300  0.353857  1
  O  O38  1  0.937700  0.646143  0.646153  1
  O  O39  1  0.646153  0.937700  0.646143  1
  O  O40  1  0.062300  0.646143  0.353847  1
  O  O41  1  0.062300  0.353857  0.646153  1
  O  O42  1  0.353847  0.062300  0.646143  1
  O  O43  1  0.353857  0.646153  0.062300  1
  O  O44  1  0.646143  0.353847  0.062300  1
  O  O45  1  0.646143  0.646153  0.937700  1
