# generated using pymatgen
data_Sr(NiO2)4
_symmetry_space_group_name_H-M   'P 1'
_cell_length_a   6.83372970
_cell_length_b   6.83372970
_cell_length_c   6.83372970
_cell_angle_alpha   49.47849782
_cell_angle_beta   49.47849782
_cell_angle_gamma   49.47849782
_symmetry_Int_Tables_number   1
_chemical_formula_structural   Sr(NiO2)4
_chemical_formula_sum   'Sr1 Ni4 O8'
_cell_volume   169.50625148
_cell_formula_units_Z   1
loop_
 _symmetry_equiv_pos_site_id
 _symmetry_equiv_pos_as_xyz
  1  'x, y, z'
loop_
 _atom_site_type_symbol
 _atom_site_label
 _atom_site_symmetry_multiplicity
 _atom_site_fract_x
 _atom_site_fract_y
 _atom_site_fract_z
 _atom_site_occupancy
  Sr  Sr0  1  0.500000  0.500000  0.500000  1
  Ni  Ni1  1  0.000000  0.000000  0.000000  1
  Ni  Ni2  1  1.000000  0.500000  0.500000  1
  Ni  Ni3  1  0.500000  0.000000  0.500000  1
  Ni  Ni4  1  0.500000  0.500000  0.000000  1
  O  O5  1  0.701180  0.232969  0.232969  1
  O  O6  1  0.767031  0.298820  0.767031  1
  O  O7  1  0.298820  0.767031  0.767031  1
  O  O8  1  0.767031  0.767031  0.298820  1
  O  O9  1  0.720101  0.720101  0.720101  1
  O  O10  1  0.279899  0.279899  0.279899  1
  O  O11  1  0.232969  0.701180  0.232969  1
  O  O12  1  0.232969  0.232969  0.701180  1
