# generated using pymatgen
data_Li4SiO4
_symmetry_space_group_name_H-M   'P 1'
_cell_length_a   5.04538926
_cell_length_b   5.05195488
_cell_length_c   7.57033237
_cell_angle_alpha   82.76164750
_cell_angle_beta   70.99812516
_cell_angle_gamma   68.34251643
_symmetry_Int_Tables_number   1
_chemical_formula_structural   Li4SiO4
_chemical_formula_sum   'Li8 Si2 O8'
_cell_volume   169.56276357
_cell_formula_units_Z   2
loop_
 _symmetry_equiv_pos_site_id
 _symmetry_equiv_pos_as_xyz
  1  'x, y, z'
loop_
 _atom_site_type_symbol
 _atom_site_label
 _atom_site_symmetry_multiplicity
 _atom_site_fract_x
 _atom_site_fract_y
 _atom_site_fract_z
 _atom_site_occupancy
  Li  Li0  1  0.762283  0.735863  0.006191  1
  Li  Li1  1  0.237717  0.264137  0.993809  1
  Li  Li2  1  0.510051  0.763494  0.443719  1
  Li  Li3  1  0.489949  0.236506  0.556281  1
  Li  Li4  1  0.077295  0.249149  0.408542  1
  Li  Li5  1  0.922705  0.750851  0.591458  1
  Li  Li6  1  0.611297  0.213574  0.192493  1
  Li  Li7  1  0.388703  0.786426  0.807507  1
  Si  Si8  1  0.841451  0.218461  0.763026  1
  Si  Si9  1  0.158549  0.781539  0.236974  1
  O  O10  1  0.636815  0.013561  0.806149  1
  O  O11  1  0.363185  0.986439  0.193851  1
  O  O12  1  0.300094  0.518499  0.374006  1
  O  O13  1  0.699906  0.481501  0.625994  1
  O  O14  1  0.819421  0.970096  0.368700  1
  O  O15  1  0.180579  0.029904  0.631300  1
  O  O16  1  0.149809  0.664211  0.048234  1
  O  O17  1  0.850191  0.335789  0.951766  1
