# generated using pymatgen
data_BaCu2SnSe4
_symmetry_space_group_name_H-M   'P 1'
_cell_length_a   6.65600495
_cell_length_b   6.65600495
_cell_length_c   11.21363155
_cell_angle_alpha   90.00000000
_cell_angle_beta   90.00000000
_cell_angle_gamma   118.15927012
_symmetry_Int_Tables_number   1
_chemical_formula_structural   BaCu2SnSe4
_chemical_formula_sum   'Ba2 Cu4 Sn2 Se8'
_cell_volume   437.99022991
_cell_formula_units_Z   2
loop_
 _symmetry_equiv_pos_site_id
 _symmetry_equiv_pos_as_xyz
  1  'x, y, z'
loop_
 _atom_site_type_symbol
 _atom_site_label
 _atom_site_symmetry_multiplicity
 _atom_site_fract_x
 _atom_site_fract_y
 _atom_site_fract_z
 _atom_site_occupancy
  Ba  Ba0  1  0.632347  0.632347  0.500000  1
  Ba  Ba1  1  0.632347  0.632347  0.000000  1
  Cu  Cu2  1  0.007958  0.449414  0.129650  1
  Cu  Cu3  1  0.007958  0.449414  0.370350  1
  Cu  Cu4  1  0.449414  0.007958  0.629650  1
  Cu  Cu5  1  0.449414  0.007958  0.870350  1
  Sn  Sn6  1  0.379088  0.081402  0.250000  1
  Sn  Sn7  1  0.081402  0.379088  0.750000  1
  Se  Se8  1  0.440657  0.316600  0.750000  1
  Se  Se9  1  0.968906  0.743519  0.250000  1
  Se  Se10  1  0.316600  0.440657  0.250000  1
  Se  Se11  1  0.743519  0.968906  0.750000  1
  Se  Se12  1  0.132513  0.642312  0.931493  1
  Se  Se13  1  0.642312  0.132513  0.068507  1
  Se  Se14  1  0.132513  0.642312  0.568507  1
  Se  Se15  1  0.642312  0.132513  0.431493  1
