# generated using pymatgen
data_Cs2Ti(PO4)2
_symmetry_space_group_name_H-M   'P 1'
_cell_length_a   7.36267754
_cell_length_b   9.48403238
_cell_length_c   14.03609621
_cell_angle_alpha   90.00000000
_cell_angle_beta   90.00000000
_cell_angle_gamma   90.00000000
_symmetry_Int_Tables_number   1
_chemical_formula_structural   Cs2Ti(PO4)2
_chemical_formula_sum   'Cs8 Ti4 P8 O32'
_cell_volume   980.11073224
_cell_formula_units_Z   4
loop_
 _symmetry_equiv_pos_site_id
 _symmetry_equiv_pos_as_xyz
  1  'x, y, z'
loop_
 _atom_site_type_symbol
 _atom_site_label
 _atom_site_symmetry_multiplicity
 _atom_site_fract_x
 _atom_site_fract_y
 _atom_site_fract_z
 _atom_site_occupancy
  Cs  Cs0  1  0.774749  0.615457  0.079465  1
  Cs  Cs1  1  0.274749  0.884543  0.920535  1
  Cs  Cs2  1  0.225251  0.115457  0.420535  1
  Cs  Cs3  1  0.725251  0.384543  0.579465  1
  Cs  Cs4  1  0.265026  0.342699  0.095030  1
  Cs  Cs5  1  0.765026  0.157301  0.904970  1
  Cs  Cs6  1  0.734974  0.842699  0.404970  1
  Cs  Cs7  1  0.234974  0.657301  0.595030  1
  Ti  Ti8  1  0.745392  0.743686  0.798934  1
  Ti  Ti9  1  0.245392  0.756314  0.201066  1
  Ti  Ti10  1  0.254608  0.243686  0.701066  1
  Ti  Ti11  1  0.754608  0.256314  0.298934  1
  P  P12  1  0.025505  0.527734  0.342881  1
  P  P13  1  0.525505  0.972266  0.657119  1
  P  P14  1  0.974495  0.027734  0.157119  1
  P  P15  1  0.474495  0.472266  0.842881  1
  P  P16  1  0.923986  0.992465  0.664123  1
  P  P17  1  0.423986  0.507535  0.335877  1
  P  P18  1  0.076014  0.492465  0.835877  1
  P  P19  1  0.576014  0.007535  0.164123  1
  O  O20  1  0.063614  0.665962  0.287218  1
  O  O21  1  0.563614  0.834038  0.712782  1
  O  O22  1  0.936386  0.165962  0.212782  1
  O  O23  1  0.436386  0.334038  0.787218  1
  O  O24  1  0.900686  0.432802  0.281350  1
  O  O25  1  0.400686  0.067198  0.718650  1
  O  O26  1  0.099314  0.932802  0.218650  1
  O  O27  1  0.599314  0.567198  0.781350  1
  O  O28  1  0.309787  0.300810  0.592085  1
  O  O29  1  0.809787  0.199190  0.407915  1
  O  O30  1  0.690213  0.800810  0.907915  1
  O  O31  1  0.190213  0.699190  0.092085  1
  O  O32  1  0.962248  0.553946  0.442897  1
  O  O33  1  0.462248  0.946054  0.557103  1
  O  O34  1  0.037752  0.053946  0.057103  1
  O  O35  1  0.537752  0.446054  0.942897  1
  O  O36  1  0.217973  0.441023  0.344376  1
  O  O37  1  0.717973  0.058977  0.655624  1
  O  O38  1  0.782027  0.941023  0.155624  1
  O  O39  1  0.282027  0.558977  0.844376  1
  O  O40  1  0.533322  0.373775  0.311597  1
  O  O41  1  0.033322  0.126225  0.688403  1
  O  O42  1  0.466678  0.873775  0.188403  1
  O  O43  1  0.966678  0.626225  0.811597  1
  O  O44  1  0.475752  0.581042  0.426576  1
  O  O45  1  0.975752  0.918958  0.573424  1
  O  O46  1  0.524248  0.081042  0.073424  1
  O  O47  1  0.024248  0.418958  0.926576  1
  O  O48  1  0.583346  0.103719  0.253504  1
  O  O49  1  0.083346  0.396281  0.746496  1
  O  O50  1  0.416654  0.603719  0.246496  1
  O  O51  1  0.916654  0.896281  0.753504  1
