# generated using pymatgen
data_MgB4O7
_symmetry_space_group_name_H-M   'P 1'
_cell_length_a   8.11913399
_cell_length_b   8.73412628
_cell_length_c   13.89833588
_cell_angle_alpha   90.00000000
_cell_angle_beta   90.00000000
_cell_angle_gamma   90.00000000
_symmetry_Int_Tables_number   1
_chemical_formula_structural   MgB4O7
_chemical_formula_sum   'Mg8 B32 O56'
_cell_volume   985.58021894
_cell_formula_units_Z   8
loop_
 _symmetry_equiv_pos_site_id
 _symmetry_equiv_pos_as_xyz
  1  'x, y, z'
loop_
 _atom_site_type_symbol
 _atom_site_label
 _atom_site_symmetry_multiplicity
 _atom_site_fract_x
 _atom_site_fract_y
 _atom_site_fract_z
 _atom_site_occupancy
  Mg  Mg0  1  0.620946  0.101700  0.387471  1
  Mg  Mg1  1  0.120946  0.398300  0.612529  1
  Mg  Mg2  1  0.379054  0.601700  0.112529  1
  Mg  Mg3  1  0.879054  0.898300  0.887471  1
  Mg  Mg4  1  0.379054  0.898300  0.612529  1
  Mg  Mg5  1  0.879054  0.601700  0.387471  1
  Mg  Mg6  1  0.620946  0.398300  0.887471  1
  Mg  Mg7  1  0.120946  0.101700  0.112529  1
  B  B8  1  0.177379  0.137000  0.465114  1
  B  B9  1  0.677379  0.363000  0.534886  1
  B  B10  1  0.822621  0.637000  0.034886  1
  B  B11  1  0.322621  0.863000  0.965114  1
  B  B12  1  0.822621  0.863000  0.534886  1
  B  B13  1  0.322621  0.637000  0.465114  1
  B  B14  1  0.177379  0.363000  0.965114  1
  B  B15  1  0.677379  0.137000  0.034886  1
  B  B16  1  0.983937  0.076420  0.333946  1
  B  B17  1  0.483937  0.423580  0.666054  1
  B  B18  1  0.016063  0.576420  0.166054  1
  B  B19  1  0.516063  0.923580  0.833946  1
  B  B20  1  0.016063  0.923580  0.666054  1
  B  B21  1  0.516063  0.576420  0.333946  1
  B  B22  1  0.983937  0.423580  0.833946  1
  B  B23  1  0.483937  0.076420  0.166054  1
  B  B24  1  0.036354  0.337422  0.264549  1
  B  B25  1  0.536354  0.162578  0.735451  1
  B  B26  1  0.963646  0.837422  0.235451  1
  B  B27  1  0.463646  0.662578  0.764549  1
  B  B28  1  0.963646  0.662578  0.735451  1
  B  B29  1  0.463646  0.837422  0.264549  1
  B  B30  1  0.036354  0.162578  0.764549  1
  B  B31  1  0.536354  0.337422  0.235451  1
  B  B32  1  0.931018  0.296342  0.432800  1
  B  B33  1  0.431018  0.203658  0.567200  1
  B  B34  1  0.068982  0.796342  0.067200  1
  B  B35  1  0.568982  0.703658  0.932800  1
  B  B36  1  0.068982  0.703658  0.567200  1
  B  B37  1  0.568982  0.796342  0.432800  1
  B  B38  1  0.931018  0.203658  0.932800  1
  B  B39  1  0.431018  0.296342  0.067200  1
  O  O40  1  0.135102  0.050682  0.388486  1
  O  O41  1  0.635102  0.449318  0.611514  1
  O  O42  1  0.864898  0.550682  0.111514  1
  O  O43  1  0.364898  0.949318  0.888486  1
  O  O44  1  0.864898  0.949318  0.611514  1
  O  O45  1  0.364898  0.550682  0.388486  1
  O  O46  1  0.135102  0.449318  0.888486  1
  O  O47  1  0.635102  0.050682  0.111514  1
  O  O48  1  0.076968  0.257765  0.496223  1
  O  O49  1  0.576968  0.242235  0.503777  1
  O  O50  1  0.923032  0.757765  0.003777  1
  O  O51  1  0.423032  0.742235  0.996223  1
  O  O52  1  0.923032  0.742235  0.503777  1
  O  O53  1  0.423032  0.757765  0.496223  1
  O  O54  1  0.076968  0.242235  0.996223  1
  O  O55  1  0.576968  0.257765  0.003777  1
  O  O56  1  0.032749  0.180547  0.247181  1
  O  O57  1  0.532749  0.319453  0.752819  1
  O  O58  1  0.967251  0.680547  0.252819  1
  O  O59  1  0.467251  0.819453  0.747181  1
  O  O60  1  0.967251  0.819453  0.752819  1
  O  O61  1  0.467251  0.680547  0.247181  1
  O  O62  1  0.032749  0.319453  0.747181  1
  O  O63  1  0.532749  0.180547  0.252819  1
  O  O64  1  0.988057  0.397585  0.352447  1
  O  O65  1  0.488057  0.102415  0.647553  1
  O  O66  1  0.011943  0.897585  0.147553  1
  O  O67  1  0.511943  0.602415  0.852447  1
  O  O68  1  0.011943  0.602415  0.647553  1
  O  O69  1  0.511943  0.897585  0.352447  1
  O  O70  1  0.988057  0.102415  0.852447  1
  O  O71  1  0.488057  0.397585  0.147553  1
  O  O72  1  0.824072  0.395827  0.488283  1
  O  O73  1  0.324072  0.104173  0.511717  1
  O  O74  1  0.175928  0.895827  0.011717  1
  O  O75  1  0.675928  0.604173  0.988283  1
  O  O76  1  0.175928  0.604173  0.511717  1
  O  O77  1  0.675928  0.895827  0.488283  1
  O  O78  1  0.824072  0.104173  0.988283  1
  O  O79  1  0.324072  0.395827  0.011717  1
  O  O80  1  0.859767  0.159391  0.391812  1
  O  O81  1  0.359767  0.340609  0.608188  1
  O  O82  1  0.140233  0.659391  0.108188  1
  O  O83  1  0.640233  0.840609  0.891812  1
  O  O84  1  0.140233  0.840609  0.608188  1
  O  O85  1  0.640233  0.659391  0.391812  1
  O  O86  1  0.859767  0.340609  0.891812  1
  O  O87  1  0.359767  0.159391  0.108188  1
  O  O88  1  0.588833  0.432997  0.305897  1
  O  O89  1  0.088833  0.067003  0.694103  1
  O  O90  1  0.411167  0.932997  0.194103  1
  O  O91  1  0.911167  0.567003  0.805897  1
  O  O92  1  0.411167  0.567003  0.694103  1
  O  O93  1  0.911167  0.932997  0.305897  1
  O  O94  1  0.588833  0.067003  0.805897  1
  O  O95  1  0.088833  0.432997  0.194103  1
