# generated using pymatgen
data_Ba2CuSi2O7
_symmetry_space_group_name_H-M   'P 1'
_cell_length_a   8.41731983
_cell_length_b   8.41731983
_cell_length_c   5.35818398
_cell_angle_alpha   90.00000000
_cell_angle_beta   90.00000000
_cell_angle_gamma   90.00000000
_symmetry_Int_Tables_number   1
_chemical_formula_structural   Ba2CuSi2O7
_chemical_formula_sum   'Ba4 Cu2 Si4 O14'
_cell_volume   379.63415660
_cell_formula_units_Z   2
loop_
 _symmetry_equiv_pos_site_id
 _symmetry_equiv_pos_as_xyz
  1  'x, y, z'
loop_
 _atom_site_type_symbol
 _atom_site_label
 _atom_site_symmetry_multiplicity
 _atom_site_fract_x
 _atom_site_fract_y
 _atom_site_fract_z
 _atom_site_occupancy
  Ba  Ba0  1  0.667224  0.167224  0.509164  1
  Ba  Ba1  1  0.832776  0.667224  0.490836  1
  Ba  Ba2  1  0.167224  0.332776  0.490836  1
  Ba  Ba3  1  0.332776  0.832776  0.509164  1
  Cu  Cu4  1  0.500000  0.500000  0.000000  1
  Cu  Cu5  1  0.000000  0.000000  0.000000  1
  Si  Si6  1  0.865950  0.365950  0.975522  1
  Si  Si7  1  0.634050  0.865950  0.024478  1
  Si  Si8  1  0.365950  0.134050  0.024478  1
  Si  Si9  1  0.134050  0.634050  0.975522  1
  O  O10  1  0.697790  0.421150  0.843763  1
  O  O11  1  0.302210  0.578850  0.843763  1
  O  O12  1  0.421150  0.302210  0.156237  1
  O  O13  1  0.578850  0.697790  0.156237  1
  O  O14  1  0.921150  0.197790  0.843763  1
  O  O15  1  0.802210  0.921150  0.156237  1
  O  O16  1  0.197790  0.078850  0.156237  1
  O  O17  1  0.078850  0.802210  0.843763  1
  O  O18  1  0.866036  0.366036  0.277321  1
  O  O19  1  0.633964  0.866036  0.722679  1
  O  O20  1  0.000000  0.500000  0.869655  1
  O  O21  1  0.500000  0.000000  0.130345  1
  O  O22  1  0.133964  0.633964  0.277321  1
  O  O23  1  0.366036  0.133964  0.722679  1
