# generated using pymatgen
data_BaPdF4
_symmetry_space_group_name_H-M   'P 1'
_cell_length_a   7.09123276
_cell_length_b   7.09123276
_cell_length_c   7.09123276
_cell_angle_alpha   127.42191626
_cell_angle_beta   127.42191626
_cell_angle_gamma   77.56339044
_symmetry_Int_Tables_number   1
_chemical_formula_structural   BaPdF4
_chemical_formula_sum   'Ba2 Pd2 F8'
_cell_volume   218.10889936
_cell_formula_units_Z   2
loop_
 _symmetry_equiv_pos_site_id
 _symmetry_equiv_pos_as_xyz
  1  'x, y, z'
loop_
 _atom_site_type_symbol
 _atom_site_label
 _atom_site_symmetry_multiplicity
 _atom_site_fract_x
 _atom_site_fract_y
 _atom_site_fract_z
 _atom_site_occupancy
  Ba  Ba0  1  0.750000  0.750000  0.000000  1
  Ba  Ba1  1  0.250000  0.250000  0.000000  1
  Pd  Pd2  1  0.000000  0.500000  0.500000  1
  Pd  Pd3  1  0.500000  0.000000  0.500000  1
  F  F4  1  0.467262  0.967262  0.178448  1
  F  F5  1  0.211186  0.711186  0.178448  1
  F  F6  1  0.532738  0.032738  0.821552  1
  F  F7  1  0.032738  0.211186  0.500000  1
  F  F8  1  0.788814  0.288814  0.821552  1
  F  F9  1  0.288814  0.467262  0.500000  1
  F  F10  1  0.967262  0.788814  0.500000  1
  F  F11  1  0.711186  0.532738  0.500000  1
