# generated using pymatgen
data_KSc(MoO4)2
_symmetry_space_group_name_H-M   'P 1'
_cell_length_a   5.88498906
_cell_length_b   5.88498906
_cell_length_c   7.40486641
_cell_angle_alpha   90.00000000
_cell_angle_beta   90.00000000
_cell_angle_gamma   120.00000000
_symmetry_Int_Tables_number   1
_chemical_formula_structural   KSc(MoO4)2
_chemical_formula_sum   'K1 Sc1 Mo2 O8'
_cell_volume   222.09520322
_cell_formula_units_Z   1
loop_
 _symmetry_equiv_pos_site_id
 _symmetry_equiv_pos_as_xyz
  1  'x, y, z'
loop_
 _atom_site_type_symbol
 _atom_site_label
 _atom_site_symmetry_multiplicity
 _atom_site_fract_x
 _atom_site_fract_y
 _atom_site_fract_z
 _atom_site_occupancy
  K  K0  1  0.000000  0.000000  0.500000  1
  Sc  Sc1  1  0.000000  0.000000  0.000000  1
  Mo  Mo2  1  0.333333  0.666667  0.248180  1
  Mo  Mo3  1  0.666667  0.333333  0.751820  1
  O  O4  1  0.329000  0.164500  0.828077  1
  O  O5  1  0.835500  0.164500  0.828077  1
  O  O6  1  0.835500  0.671000  0.828077  1
  O  O7  1  0.164500  0.835500  0.171923  1
  O  O8  1  0.333333  0.666667  0.484368  1
  O  O9  1  0.666667  0.333333  0.515632  1
  O  O10  1  0.164500  0.329000  0.171923  1
  O  O11  1  0.671000  0.835500  0.171923  1
