# generated using pymatgen
data_GaSe
_symmetry_space_group_name_H-M   'P 1'
_cell_length_a   3.81906690
_cell_length_b   3.81906690
_cell_length_c   17.80179614
_cell_angle_alpha   90.00000000
_cell_angle_beta   90.00000000
_cell_angle_gamma   120.00000000
_symmetry_Int_Tables_number   1
_chemical_formula_structural   GaSe
_chemical_formula_sum   'Ga4 Se4'
_cell_volume   224.85833312
_cell_formula_units_Z   4
loop_
 _symmetry_equiv_pos_site_id
 _symmetry_equiv_pos_as_xyz
  1  'x, y, z'
loop_
 _atom_site_type_symbol
 _atom_site_label
 _atom_site_symmetry_multiplicity
 _atom_site_fract_x
 _atom_site_fract_y
 _atom_site_fract_z
 _atom_site_occupancy
  Ga  Ga0  1  0.000000  0.000000  0.069406  1
  Ga  Ga1  1  0.000000  0.000000  0.930594  1
  Ga  Ga2  1  0.666667  0.333333  0.430600  1
  Ga  Ga3  1  0.666667  0.333333  0.569400  1
  Se  Se4  1  0.666667  0.333333  0.864701  1
  Se  Se5  1  0.666667  0.333333  0.135299  1
  Se  Se6  1  0.333333  0.666667  0.635307  1
  Se  Se7  1  0.333333  0.666667  0.364693  1
