# generated using pymatgen
data_SrZrSi2O7
_symmetry_space_group_name_H-M   'P 1'
_cell_length_a   7.85793368
_cell_length_b   8.20483610
_cell_length_c   10.19373076
_cell_angle_alpha   90.00000000
_cell_angle_beta   111.78476114
_cell_angle_gamma   90.00000000
_symmetry_Int_Tables_number   1
_chemical_formula_structural   SrZrSi2O7
_chemical_formula_sum   'Sr4 Zr4 Si8 O28'
_cell_volume   610.28527130
_cell_formula_units_Z   4
loop_
 _symmetry_equiv_pos_site_id
 _symmetry_equiv_pos_as_xyz
  1  'x, y, z'
loop_
 _atom_site_type_symbol
 _atom_site_label
 _atom_site_symmetry_multiplicity
 _atom_site_fract_x
 _atom_site_fract_y
 _atom_site_fract_z
 _atom_site_occupancy
  Sr  Sr0  1  0.716885  0.517343  0.707147  1
  Sr  Sr1  1  0.283115  0.017343  0.792853  1
  Sr  Sr2  1  0.283115  0.482657  0.292853  1
  Sr  Sr3  1  0.716885  0.982657  0.207147  1
  Zr  Zr4  1  0.743799  0.988910  0.753039  1
  Zr  Zr5  1  0.256201  0.488910  0.746961  1
  Zr  Zr6  1  0.256201  0.011090  0.246961  1
  Zr  Zr7  1  0.743799  0.511090  0.253039  1
  Si  Si8  1  0.325451  0.714994  0.041080  1
  Si  Si9  1  0.674549  0.214994  0.458920  1
  Si  Si10  1  0.674549  0.285006  0.958920  1
  Si  Si11  1  0.325451  0.785006  0.541080  1
  Si  Si12  1  0.935690  0.749036  0.042460  1
  Si  Si13  1  0.064310  0.249036  0.457540  1
  Si  Si14  1  0.064310  0.250964  0.957540  1
  Si  Si15  1  0.935690  0.750964  0.542460  1
  O  O16  1  0.370218  0.905212  0.095770  1
  O  O17  1  0.629782  0.405212  0.404230  1
  O  O18  1  0.629782  0.094788  0.904230  1
  O  O19  1  0.370218  0.594788  0.595770  1
  O  O20  1  0.304695  0.705391  0.876122  1
  O  O21  1  0.695305  0.205391  0.623878  1
  O  O22  1  0.695305  0.294609  0.123878  1
  O  O23  1  0.304695  0.794609  0.376122  1
  O  O24  1  0.474785  0.592666  0.150744  1
  O  O25  1  0.525215  0.092666  0.349256  1
  O  O26  1  0.525215  0.407334  0.849256  1
  O  O27  1  0.474785  0.907334  0.650744  1
  O  O28  1  0.829016  0.634474  0.116937  1
  O  O29  1  0.170984  0.134474  0.383063  1
  O  O30  1  0.170984  0.365526  0.883063  1
  O  O31  1  0.829016  0.865526  0.616937  1
  O  O32  1  0.132923  0.843204  0.562782  1
  O  O33  1  0.867077  0.343204  0.937218  1
  O  O34  1  0.867077  0.156796  0.437218  1
  O  O35  1  0.132923  0.656796  0.062782  1
  O  O36  1  0.811642  0.728720  0.375605  1
  O  O37  1  0.188358  0.228720  0.124395  1
  O  O38  1  0.188358  0.271280  0.624395  1
  O  O39  1  0.811642  0.771280  0.875605  1
  O  O40  1  0.987753  0.579342  0.631053  1
  O  O41  1  0.012247  0.079342  0.868947  1
  O  O42  1  0.012247  0.420658  0.368947  1
  O  O43  1  0.987753  0.920658  0.131053  1
