# generated using pymatgen
data_Sr2BN2F
_symmetry_space_group_name_H-M   'P 1'
_cell_length_a   3.93708053
_cell_length_b   9.93011586
_cell_length_c   10.30454153
_cell_angle_alpha   90.00000000
_cell_angle_beta   90.00000000
_cell_angle_gamma   90.00000000
_symmetry_Int_Tables_number   1
_chemical_formula_structural   Sr2BN2F
_chemical_formula_sum   'Sr8 B4 N8 F4'
_cell_volume   402.86291201
_cell_formula_units_Z   4
loop_
 _symmetry_equiv_pos_site_id
 _symmetry_equiv_pos_as_xyz
  1  'x, y, z'
loop_
 _atom_site_type_symbol
 _atom_site_label
 _atom_site_symmetry_multiplicity
 _atom_site_fract_x
 _atom_site_fract_y
 _atom_site_fract_z
 _atom_site_occupancy
  Sr  Sr0  1  0.250000  0.677418  0.020564  1
  Sr  Sr1  1  0.750000  0.822582  0.520564  1
  Sr  Sr2  1  0.250000  0.177418  0.479436  1
  Sr  Sr3  1  0.750000  0.322582  0.979436  1
  Sr  Sr4  1  0.250000  0.527577  0.661127  1
  Sr  Sr5  1  0.750000  0.472423  0.338873  1
  Sr  Sr6  1  0.250000  0.027577  0.838873  1
  Sr  Sr7  1  0.750000  0.972423  0.161127  1
  B  B8  1  0.250000  0.729315  0.327003  1
  B  B9  1  0.750000  0.270685  0.672997  1
  B  B10  1  0.250000  0.229315  0.172997  1
  B  B11  1  0.750000  0.770685  0.827003  1
  N  N12  1  0.250000  0.648212  0.433183  1
  N  N13  1  0.750000  0.351788  0.566817  1
  N  N14  1  0.250000  0.148212  0.066817  1
  N  N15  1  0.750000  0.183743  0.772138  1
  N  N16  1  0.250000  0.316257  0.272138  1
  N  N17  1  0.750000  0.683743  0.727862  1
  N  N18  1  0.250000  0.816257  0.227862  1
  N  N19  1  0.750000  0.851788  0.933183  1
  F  F20  1  0.750000  0.545588  0.101760  1
  F  F21  1  0.750000  0.045588  0.398240  1
  F  F22  1  0.250000  0.454412  0.898240  1
  F  F23  1  0.250000  0.954412  0.601760  1
