# generated using pymatgen
data_SrZn2(AsO4)2
_symmetry_space_group_name_H-M   'P 1'
_cell_length_a   8.74395974
_cell_length_b   9.90812975
_cell_length_c   9.44062629
_cell_angle_alpha   90.00000000
_cell_angle_beta   91.82087417
_cell_angle_gamma   90.00000000
_symmetry_Int_Tables_number   1
_chemical_formula_structural   SrZn2(AsO4)2
_chemical_formula_sum   'Sr4 Zn8 As8 O32'
_cell_volume   817.48781525
_cell_formula_units_Z   4
loop_
 _symmetry_equiv_pos_site_id
 _symmetry_equiv_pos_as_xyz
  1  'x, y, z'
loop_
 _atom_site_type_symbol
 _atom_site_label
 _atom_site_symmetry_multiplicity
 _atom_site_fract_x
 _atom_site_fract_y
 _atom_site_fract_z
 _atom_site_occupancy
  Sr  Sr0  1  0.250039  0.916807  0.384876  1
  Sr  Sr1  1  0.749961  0.416807  0.115124  1
  Sr  Sr2  1  0.749961  0.083193  0.615124  1
  Sr  Sr3  1  0.250039  0.583193  0.884876  1
  Zn  Zn4  1  0.577637  0.686062  0.549593  1
  Zn  Zn5  1  0.422363  0.186062  0.950407  1
  Zn  Zn6  1  0.422363  0.313938  0.450407  1
  Zn  Zn7  1  0.577637  0.813938  0.049593  1
  Zn  Zn8  1  0.074005  0.926380  0.779332  1
  Zn  Zn9  1  0.925995  0.426380  0.720668  1
  Zn  Zn10  1  0.925995  0.073620  0.220668  1
  Zn  Zn11  1  0.074005  0.573620  0.279332  1
  As  As12  1  0.558353  0.416544  0.749567  1
  As  As13  1  0.441647  0.916544  0.750433  1
  As  As14  1  0.441647  0.583456  0.250433  1
  As  As15  1  0.558353  0.083456  0.249567  1
  As  As16  1  0.049228  0.204067  0.937099  1
  As  As17  1  0.950772  0.704067  0.562901  1
  As  As18  1  0.950772  0.795933  0.062901  1
  As  As19  1  0.049228  0.295933  0.437099  1
  O  O20  1  0.736734  0.430921  0.832589  1
  O  O21  1  0.263266  0.930921  0.667411  1
  O  O22  1  0.263266  0.569079  0.167411  1
  O  O23  1  0.736734  0.069079  0.332589  1
  O  O24  1  0.783430  0.633205  0.500846  1
  O  O25  1  0.216570  0.133205  0.999154  1
  O  O26  1  0.216570  0.366795  0.499154  1
  O  O27  1  0.783430  0.866795  0.000846  1
  O  O28  1  0.431216  0.701602  0.383024  1
  O  O29  1  0.568784  0.201602  0.116976  1
  O  O30  1  0.568784  0.298398  0.616976  1
  O  O31  1  0.431216  0.798398  0.883024  1
  O  O32  1  0.084345  0.706992  0.432144  1
  O  O33  1  0.915655  0.206992  0.067856  1
  O  O34  1  0.915655  0.293008  0.567856  1
  O  O35  1  0.084345  0.793008  0.932144  1
  O  O36  1  0.564570  0.875180  0.617274  1
  O  O37  1  0.435430  0.375180  0.882726  1
  O  O38  1  0.435430  0.124820  0.382726  1
  O  O39  1  0.564570  0.624820  0.117274  1
  O  O40  1  0.025768  0.897181  0.197639  1
  O  O41  1  0.974232  0.397181  0.302361  1
  O  O42  1  0.974232  0.102819  0.802361  1
  O  O43  1  0.025768  0.602819  0.697639  1
  O  O44  1  0.479707  0.934948  0.187642  1
  O  O45  1  0.520293  0.434948  0.312358  1
  O  O46  1  0.520293  0.065052  0.812358  1
  O  O47  1  0.479707  0.565052  0.687642  1
  O  O48  1  0.930268  0.631536  0.119556  1
  O  O49  1  0.069732  0.131536  0.380444  1
  O  O50  1  0.069732  0.368464  0.880444  1
  O  O51  1  0.930268  0.868464  0.619556  1
