# generated using pymatgen
data_SrMoO4
_symmetry_space_group_name_H-M   'P 1'
_cell_length_a   7.23921136
_cell_length_b   7.23921136
_cell_length_c   7.23921136
_cell_angle_alpha   135.44395048
_cell_angle_beta   135.44395048
_cell_angle_gamma   64.84117807
_symmetry_Int_Tables_number   1
_chemical_formula_structural   SrMoO4
_chemical_formula_sum   'Sr2 Mo2 O8'
_cell_volume   184.10107674
_cell_formula_units_Z   2
loop_
 _symmetry_equiv_pos_site_id
 _symmetry_equiv_pos_as_xyz
  1  'x, y, z'
loop_
 _atom_site_type_symbol
 _atom_site_label
 _atom_site_symmetry_multiplicity
 _atom_site_fract_x
 _atom_site_fract_y
 _atom_site_fract_z
 _atom_site_occupancy
  Sr  Sr0  1  0.500000  0.500000  0.000000  1
  Sr  Sr1  1  0.250000  0.750000  0.500000  1
  Mo  Mo2  1  0.000000  0.000000  0.000000  1
  Mo  Mo3  1  0.750000  0.250000  0.500000  1
  O  O4  1  0.533011  0.930383  0.127451  1
  O  O5  1  0.947067  0.844440  0.627451  1
  O  O6  1  0.594440  0.466989  0.397373  1
  O  O7  1  0.069617  0.197067  0.602627  1
  O  O8  1  0.680383  0.052933  0.897373  1
  O  O9  1  0.216989  0.319617  0.372549  1
  O  O10  1  0.802933  0.405560  0.872549  1
  O  O11  1  0.155560  0.783011  0.102627  1
