# generated using pymatgen
data_ErCrO3
_symmetry_space_group_name_H-M   'P 1'
_cell_length_a   5.26750362
_cell_length_b   5.59176049
_cell_length_c   7.62117396
_cell_angle_alpha   90.00000000
_cell_angle_beta   90.00000000
_cell_angle_gamma   90.00000000
_symmetry_Int_Tables_number   1
_chemical_formula_structural   ErCrO3
_chemical_formula_sum   'Er4 Cr4 O12'
_cell_volume   224.47877245
_cell_formula_units_Z   4
loop_
 _symmetry_equiv_pos_site_id
 _symmetry_equiv_pos_as_xyz
  1  'x, y, z'
loop_
 _atom_site_type_symbol
 _atom_site_label
 _atom_site_symmetry_multiplicity
 _atom_site_fract_x
 _atom_site_fract_y
 _atom_site_fract_z
 _atom_site_occupancy
  Er  Er0  1  0.020843  0.929910  0.750000  1
  Er  Er1  1  0.520843  0.570090  0.250000  1
  Er  Er2  1  0.479157  0.429910  0.750000  1
  Er  Er3  1  0.979157  0.070090  0.250000  1
  Cr  Cr4  1  0.500000  0.000000  0.500000  1
  Cr  Cr5  1  0.000000  0.500000  0.500000  1
  Cr  Cr6  1  0.000000  0.500000  0.000000  1
  Cr  Cr7  1  0.500000  0.000000  0.000000  1
  O  O8  1  0.690475  0.304585  0.439489  1
  O  O9  1  0.190475  0.195415  0.560511  1
  O  O10  1  0.809525  0.804585  0.060511  1
  O  O11  1  0.309525  0.695415  0.939489  1
  O  O12  1  0.309525  0.695415  0.560511  1
  O  O13  1  0.809525  0.804585  0.439489  1
  O  O14  1  0.190475  0.195415  0.939489  1
  O  O15  1  0.690475  0.304585  0.060511  1
  O  O16  1  0.118661  0.455312  0.250000  1
  O  O17  1  0.618661  0.044688  0.750000  1
  O  O18  1  0.381339  0.955312  0.250000  1
  O  O19  1  0.881339  0.544688  0.750000  1
