# generated using pymatgen
data_KBe3ZnF9
_symmetry_space_group_name_H-M   'P 1'
_cell_length_a   6.68106177
_cell_length_b   6.68106177
_cell_length_c   9.76666565
_cell_angle_alpha   90.00000000
_cell_angle_beta   90.00000000
_cell_angle_gamma   120.00000000
_symmetry_Int_Tables_number   1
_chemical_formula_structural   KBe3ZnF9
_chemical_formula_sum   'K2 Be6 Zn2 F18'
_cell_volume   377.54430756
_cell_formula_units_Z   2
loop_
 _symmetry_equiv_pos_site_id
 _symmetry_equiv_pos_as_xyz
  1  'x, y, z'
loop_
 _atom_site_type_symbol
 _atom_site_label
 _atom_site_symmetry_multiplicity
 _atom_site_fract_x
 _atom_site_fract_y
 _atom_site_fract_z
 _atom_site_occupancy
  K  K0  1  0.666667  0.333333  0.000000  1
  K  K1  1  0.666667  0.333333  0.500000  1
  Be  Be2  1  0.217469  0.941185  0.250000  1
  Be  Be3  1  0.217469  0.276284  0.750000  1
  Be  Be4  1  0.723716  0.941185  0.750000  1
  Be  Be5  1  0.058815  0.782531  0.750000  1
  Be  Be6  1  0.058815  0.276284  0.250000  1
  Be  Be7  1  0.723716  0.782531  0.250000  1
  Zn  Zn8  1  0.333333  0.666667  0.000000  1
  Zn  Zn9  1  0.333333  0.666667  0.500000  1
  F  F10  1  0.075972  0.662955  0.618528  1
  F  F11  1  0.586983  0.924028  0.618528  1
  F  F12  1  0.337045  0.413017  0.618528  1
  F  F13  1  0.337045  0.924028  0.381472  1
  F  F14  1  0.241196  0.191125  0.250000  1
  F  F15  1  0.949929  0.758804  0.250000  1
  F  F16  1  0.808875  0.050071  0.250000  1
  F  F17  1  0.808875  0.758804  0.750000  1
  F  F18  1  0.949929  0.191125  0.750000  1
  F  F19  1  0.241196  0.050071  0.750000  1
  F  F20  1  0.337045  0.924028  0.118527  1
  F  F21  1  0.586983  0.662955  0.381472  1
  F  F22  1  0.075972  0.413017  0.381472  1
  F  F23  1  0.075972  0.413017  0.118527  1
  F  F24  1  0.586983  0.662955  0.118527  1
  F  F25  1  0.075972  0.662955  0.881472  1
  F  F26  1  0.586983  0.924028  0.881472  1
  F  F27  1  0.337045  0.413017  0.881472  1
