# generated using pymatgen
data_CsMnO4
_symmetry_space_group_name_H-M   'P 1'
_cell_length_a   6.00301590
_cell_length_b   8.16277995
_cell_length_c   10.22816261
_cell_angle_alpha   90.00000000
_cell_angle_beta   90.00000000
_cell_angle_gamma   90.00000000
_symmetry_Int_Tables_number   1
_chemical_formula_structural   CsMnO4
_chemical_formula_sum   'Cs4 Mn4 O16'
_cell_volume   501.19324229
_cell_formula_units_Z   4
loop_
 _symmetry_equiv_pos_site_id
 _symmetry_equiv_pos_as_xyz
  1  'x, y, z'
loop_
 _atom_site_type_symbol
 _atom_site_label
 _atom_site_symmetry_multiplicity
 _atom_site_fract_x
 _atom_site_fract_y
 _atom_site_fract_z
 _atom_site_occupancy
  Cs  Cs0  1  0.250000  0.846179  0.810675  1
  Cs  Cs1  1  0.750000  0.153821  0.189325  1
  Cs  Cs2  1  0.750000  0.346179  0.689325  1
  Cs  Cs3  1  0.250000  0.653821  0.310675  1
  Mn  Mn4  1  0.250000  0.294579  0.949140  1
  Mn  Mn5  1  0.750000  0.705421  0.050860  1
  Mn  Mn6  1  0.750000  0.794579  0.550860  1
  Mn  Mn7  1  0.250000  0.205421  0.449140  1
  O  O8  1  0.529927  0.815495  0.078926  1
  O  O9  1  0.029927  0.184505  0.921074  1
  O  O10  1  0.470073  0.315495  0.421074  1
  O  O11  1  0.970073  0.684505  0.578926  1
  O  O12  1  0.470073  0.184505  0.921074  1
  O  O13  1  0.970073  0.815495  0.078926  1
  O  O14  1  0.529927  0.684505  0.578926  1
  O  O15  1  0.029927  0.315495  0.421074  1
  O  O16  1  0.250000  0.048332  0.352913  1
  O  O17  1  0.750000  0.951668  0.647087  1
  O  O18  1  0.750000  0.548332  0.147087  1
  O  O19  1  0.250000  0.451668  0.852913  1
  O  O20  1  0.250000  0.147743  0.600345  1
  O  O21  1  0.750000  0.852257  0.399655  1
  O  O22  1  0.750000  0.647743  0.899655  1
  O  O23  1  0.250000  0.352257  0.100345  1
