# generated using pymatgen
data_MgSeO3
_symmetry_space_group_name_H-M   'P 1'
_cell_length_a   5.07224804
_cell_length_b   5.98990103
_cell_length_c   7.77857913
_cell_angle_alpha   90.00000000
_cell_angle_beta   90.00000000
_cell_angle_gamma   90.00000000
_symmetry_Int_Tables_number   1
_chemical_formula_structural   MgSeO3
_chemical_formula_sum   'Mg4 Se4 O12'
_cell_volume   236.33084280
_cell_formula_units_Z   4
loop_
 _symmetry_equiv_pos_site_id
 _symmetry_equiv_pos_as_xyz
  1  'x, y, z'
loop_
 _atom_site_type_symbol
 _atom_site_label
 _atom_site_symmetry_multiplicity
 _atom_site_fract_x
 _atom_site_fract_y
 _atom_site_fract_z
 _atom_site_occupancy
  Mg  Mg0  1  0.500000  0.500000  0.000000  1
  Mg  Mg1  1  0.000000  0.000000  0.000000  1
  Mg  Mg2  1  0.000000  0.000000  0.500000  1
  Mg  Mg3  1  0.500000  0.500000  0.500000  1
  Se  Se4  1  0.981917  0.521972  0.250000  1
  Se  Se5  1  0.481917  0.978028  0.750000  1
  Se  Se6  1  0.518083  0.021972  0.250000  1
  Se  Se7  1  0.018083  0.478028  0.750000  1
  O  O8  1  0.859339  0.683137  0.421317  1
  O  O9  1  0.359339  0.816863  0.578683  1
  O  O10  1  0.640661  0.183137  0.078683  1
  O  O11  1  0.140661  0.316863  0.921317  1
  O  O12  1  0.140661  0.316863  0.578683  1
  O  O13  1  0.640661  0.183137  0.421317  1
  O  O14  1  0.359339  0.816863  0.921317  1
  O  O15  1  0.859339  0.683137  0.078683  1
  O  O16  1  0.321416  0.571025  0.250000  1
  O  O17  1  0.821416  0.928975  0.750000  1
  O  O18  1  0.178584  0.071025  0.250000  1
  O  O19  1  0.678584  0.428975  0.750000  1
