# generated using pymatgen
data_Rb9Fe2Se7
_symmetry_space_group_name_H-M   'P 1'
_cell_length_a   13.76815798
_cell_length_b   13.76815798
_cell_length_c   13.76815798
_cell_angle_alpha   90.00000000
_cell_angle_beta   90.00000000
_cell_angle_gamma   90.00000000
_symmetry_Int_Tables_number   1
_chemical_formula_structural   Rb9Fe2Se7
_chemical_formula_sum   'Rb36 Fe8 Se28'
_cell_volume   2609.92196090
_cell_formula_units_Z   4
loop_
 _symmetry_equiv_pos_site_id
 _symmetry_equiv_pos_as_xyz
  1  'x, y, z'
loop_
 _atom_site_type_symbol
 _atom_site_label
 _atom_site_symmetry_multiplicity
 _atom_site_fract_x
 _atom_site_fract_y
 _atom_site_fract_z
 _atom_site_occupancy
  Rb  Rb0  1  0.956727  0.292978  0.321538  1
  Rb  Rb1  1  0.556839  0.443161  0.943161  1
  Rb  Rb2  1  0.443161  0.943161  0.556839  1
  Rb  Rb3  1  0.056839  0.056839  0.056839  1
  Rb  Rb4  1  0.761668  0.738332  0.261668  1
  Rb  Rb5  1  0.738332  0.261668  0.761668  1
  Rb  Rb6  1  0.261668  0.761668  0.738332  1
  Rb  Rb7  1  0.238332  0.238332  0.238332  1
  Rb  Rb8  1  0.582403  0.917597  0.082403  1
  Rb  Rb9  1  0.917597  0.082403  0.582403  1
  Rb  Rb10  1  0.082403  0.582403  0.917597  1
  Rb  Rb11  1  0.417597  0.417597  0.417597  1
  Rb  Rb12  1  0.321538  0.956727  0.292978  1
  Rb  Rb13  1  0.821538  0.543273  0.707022  1
  Rb  Rb14  1  0.678462  0.456727  0.207022  1
  Rb  Rb15  1  0.543273  0.707022  0.821538  1
  Rb  Rb16  1  0.207022  0.678462  0.456727  1
  Rb  Rb17  1  0.707022  0.821538  0.543273  1
  Rb  Rb18  1  0.943161  0.556839  0.443161  1
  Rb  Rb19  1  0.292978  0.321538  0.956727  1
  Rb  Rb20  1  0.456727  0.207022  0.678462  1
  Rb  Rb21  1  0.043273  0.792978  0.178462  1
  Rb  Rb22  1  0.792978  0.178462  0.043273  1
  Rb  Rb23  1  0.178462  0.043273  0.792978  1
  Rb  Rb24  1  0.668013  0.999119  0.800520  1
  Rb  Rb25  1  0.168013  0.500881  0.199480  1
  Rb  Rb26  1  0.331987  0.499119  0.699480  1
  Rb  Rb27  1  0.500881  0.199480  0.168013  1
  Rb  Rb28  1  0.699480  0.331987  0.499119  1
  Rb  Rb29  1  0.199480  0.168013  0.500881  1
  Rb  Rb30  1  0.999119  0.800520  0.668013  1
  Rb  Rb31  1  0.800520  0.668013  0.999119  1
  Rb  Rb32  1  0.499119  0.699480  0.331987  1
  Rb  Rb33  1  0.000881  0.300520  0.831987  1
  Rb  Rb34  1  0.300520  0.831987  0.000881  1
  Rb  Rb35  1  0.831987  0.000881  0.300520  1
  Fe  Fe36  1  0.928390  0.428390  0.071610  1
  Fe  Fe37  1  0.071610  0.928390  0.428390  1
  Fe  Fe38  1  0.428390  0.071610  0.928390  1
  Fe  Fe39  1  0.900199  0.900199  0.900199  1
  Fe  Fe40  1  0.599801  0.099801  0.400199  1
  Fe  Fe41  1  0.400199  0.599801  0.099801  1
  Fe  Fe42  1  0.099801  0.400199  0.599801  1
  Fe  Fe43  1  0.571610  0.571610  0.571610  1
  Se  Se44  1  0.413965  0.435464  0.165874  1
  Se  Se45  1  0.188264  0.923303  0.555167  1
  Se  Se46  1  0.944833  0.811736  0.423303  1
  Se  Se47  1  0.811736  0.423303  0.944833  1
  Se  Se48  1  0.444833  0.688264  0.576697  1
  Se  Se49  1  0.055167  0.311736  0.076697  1
  Se  Se50  1  0.311736  0.076697  0.055167  1
  Se  Se51  1  0.076697  0.055167  0.311736  1
  Se  Se52  1  0.586035  0.935464  0.334126  1
  Se  Se53  1  0.555167  0.188264  0.923303  1
  Se  Se54  1  0.688264  0.576697  0.444833  1
  Se  Se55  1  0.564536  0.665874  0.086035  1
  Se  Se56  1  0.165874  0.413965  0.435464  1
  Se  Se57  1  0.665874  0.086035  0.564536  1
  Se  Se58  1  0.935464  0.334126  0.586035  1
  Se  Se59  1  0.334126  0.586035  0.935464  1
  Se  Se60  1  0.435464  0.165874  0.413965  1
  Se  Se61  1  0.064536  0.834126  0.913965  1
  Se  Se62  1  0.834126  0.913965  0.064536  1
  Se  Se63  1  0.913965  0.064536  0.834126  1
  Se  Se64  1  0.576697  0.444833  0.688264  1
  Se  Se65  1  0.923303  0.555167  0.188264  1
  Se  Se66  1  0.423303  0.944833  0.811736  1
  Se  Se67  1  0.795563  0.795563  0.795563  1
  Se  Se68  1  0.704437  0.204437  0.295563  1
  Se  Se69  1  0.295563  0.704437  0.204437  1
  Se  Se70  1  0.204437  0.295563  0.704437  1
  Se  Se71  1  0.086035  0.564536  0.665874  1
