# generated using pymatgen
data_Na5Y(WO4)4
_symmetry_space_group_name_H-M   'P 1'
_cell_length_a   10.03547183
_cell_length_b   10.03547183
_cell_length_c   10.03547183
_cell_angle_alpha   108.88574233
_cell_angle_beta   108.88574233
_cell_angle_gamma   110.64863198
_symmetry_Int_Tables_number   1
_chemical_formula_structural   Na5Y(WO4)4
_chemical_formula_sum   'Na10 Y2 W8 O32'
_cell_volume   777.77432887
_cell_formula_units_Z   2
loop_
 _symmetry_equiv_pos_site_id
 _symmetry_equiv_pos_as_xyz
  1  'x, y, z'
loop_
 _atom_site_type_symbol
 _atom_site_label
 _atom_site_symmetry_multiplicity
 _atom_site_fract_x
 _atom_site_fract_y
 _atom_site_fract_z
 _atom_site_occupancy
  Na  Na0  1  0.160726  0.074600  0.675053  1
  Na  Na1  1  0.735673  0.910726  0.586126  1
  Na  Na2  1  0.324600  0.149547  0.413874  1
  Na  Na3  1  0.399547  0.485673  0.324947  1
  Na  Na4  1  0.089274  0.675400  0.824947  1
  Na  Na5  1  1.000000  1.000000  0.000000  1
  Na  Na6  1  0.925400  0.600453  0.086126  1
  Na  Na7  1  0.850453  0.264327  0.175053  1
  Na  Na8  1  0.250000  0.750000  0.500000  1
  Na  Na9  1  0.514327  0.839274  0.913874  1
  Y  Y10  1  0.500000  0.500000  0.000000  1
  Y  Y11  1  0.750000  0.250000  0.500000  1
  W  W12  1  0.826651  0.602853  0.408701  1
  W  W13  1  0.852853  0.944152  0.276202  1
  W  W14  1  0.667950  0.576651  0.723798  1
  W  W15  1  0.194152  0.417950  0.591299  1
  W  W16  1  0.055848  0.332050  0.908701  1
  W  W17  1  0.397147  0.805848  0.223798  1
  W  W18  1  0.582050  0.173349  0.776202  1
  W  W19  1  0.423349  0.147147  0.091299  1
  O  O20  1  0.296268  0.178034  0.177791  1
  O  O21  1  0.368477  0.046268  0.618234  1
  O  O22  1  0.428034  0.750243  0.381766  1
  O  O23  1  0.000243  0.118477  0.822209  1
  O  O24  1  0.953732  0.571966  0.322209  1
  O  O25  1  0.881523  0.703732  0.881766  1
  O  O26  1  0.821966  0.999757  0.118234  1
  O  O27  1  0.249757  0.631523  0.677791  1
  O  O28  1  0.609958  0.512527  0.256703  1
  O  O29  1  0.603255  0.359958  0.597431  1
  O  O30  1  0.762527  0.005824  0.402569  1
  O  O31  1  0.255824  0.353255  0.743297  1
  O  O32  1  0.640042  0.237473  0.243297  1
  O  O33  1  0.646745  0.390042  0.902569  1
  O  O34  1  0.487473  0.744176  0.097431  1
  O  O35  1  0.994176  0.396745  0.756703  1
  O  O36  1  0.398009  0.223533  0.947124  1
  O  O37  1  0.700885  0.148009  0.674476  1
  O  O38  1  0.473533  0.026408  0.325524  1
  O  O39  1  0.276408  0.450885  0.052876  1
  O  O40  1  0.288957  0.389715  0.468430  1
  O  O41  1  0.070527  0.038957  0.399242  1
  O  O42  1  0.639715  0.671285  0.600758  1
  O  O43  1  0.921285  0.820527  0.531570  1
  O  O44  1  0.961043  0.360285  0.031570  1
  O  O45  1  0.179473  0.711043  0.100758  1
  O  O46  1  0.610285  0.078715  0.899242  1
  O  O47  1  0.328715  0.929473  0.968430  1
  O  O48  1  0.973592  0.299115  0.447124  1
  O  O49  1  0.776467  0.723592  0.174476  1
  O  O50  1  0.549115  0.601991  0.825524  1
  O  O51  1  0.851991  0.526467  0.552876  1
