# generated using pymatgen
data_HfO2
_symmetry_space_group_name_H-M   'P 1'
_cell_length_a   5.08568255
_cell_length_b   5.24835519
_cell_length_c   10.05880796
_cell_angle_alpha   90.00000000
_cell_angle_beta   90.00000000
_cell_angle_gamma   90.00000000
_symmetry_Int_Tables_number   1
_chemical_formula_structural   HfO2
_chemical_formula_sum   'Hf8 O16'
_cell_volume   268.48435487
_cell_formula_units_Z   8
loop_
 _symmetry_equiv_pos_site_id
 _symmetry_equiv_pos_as_xyz
  1  'x, y, z'
loop_
 _atom_site_type_symbol
 _atom_site_label
 _atom_site_symmetry_multiplicity
 _atom_site_fract_x
 _atom_site_fract_y
 _atom_site_fract_z
 _atom_site_occupancy
  Hf  Hf0  1  0.754046  0.464277  0.115568  1
  Hf  Hf1  1  0.254046  0.535723  0.384432  1
  Hf  Hf2  1  0.745954  0.964277  0.884432  1
  Hf  Hf3  1  0.245954  0.035723  0.615568  1
  Hf  Hf4  1  0.245954  0.535723  0.884432  1
  Hf  Hf5  1  0.745954  0.464277  0.615568  1
  Hf  Hf6  1  0.254046  0.035723  0.115568  1
  Hf  Hf7  1  0.754046  0.964277  0.384432  1
  O  O8  1  0.997595  0.261427  0.477487  1
  O  O9  1  0.497595  0.738573  0.022513  1
  O  O10  1  0.502405  0.761427  0.522513  1
  O  O11  1  0.002405  0.238573  0.977487  1
  O  O12  1  0.002405  0.738573  0.522513  1
  O  O13  1  0.502405  0.261427  0.977487  1
  O  O14  1  0.497595  0.238573  0.477487  1
  O  O15  1  0.997595  0.761427  0.022513  1
  O  O16  1  0.624314  0.627441  0.289051  1
  O  O17  1  0.124314  0.372559  0.210949  1
  O  O18  1  0.875686  0.127441  0.710949  1
  O  O19  1  0.375686  0.872559  0.789051  1
  O  O20  1  0.375686  0.372559  0.710949  1
  O  O21  1  0.875686  0.627441  0.789051  1
  O  O22  1  0.124314  0.872559  0.289051  1
  O  O23  1  0.624314  0.127441  0.210949  1
