# generated using pymatgen
data_CsEr2Cu3S5
_symmetry_space_group_name_H-M   'P 1'
_cell_length_a   7.29792203
_cell_length_b   7.29792203
_cell_length_c   16.70246845
_cell_angle_alpha   90.00000000
_cell_angle_beta   90.00000000
_cell_angle_gamma   148.63276820
_symmetry_Int_Tables_number   1
_chemical_formula_structural   CsEr2Cu3S5
_chemical_formula_sum   'Cs2 Er4 Cu6 S10'
_cell_volume   463.03911458
_cell_formula_units_Z   2
loop_
 _symmetry_equiv_pos_site_id
 _symmetry_equiv_pos_as_xyz
  1  'x, y, z'
loop_
 _atom_site_type_symbol
 _atom_site_label
 _atom_site_symmetry_multiplicity
 _atom_site_fract_x
 _atom_site_fract_y
 _atom_site_fract_z
 _atom_site_occupancy
  Cs  Cs0  1  0.936230  0.063770  0.250000  1
  Cs  Cs1  1  0.063770  0.936230  0.750000  1
  Er  Er2  1  0.192056  0.807944  0.408232  1
  Er  Er3  1  0.192056  0.807944  0.091768  1
  Er  Er4  1  0.807944  0.192056  0.591768  1
  Er  Er5  1  0.807944  0.192056  0.908232  1
  Cu  Cu6  1  0.584283  0.415717  0.536110  1
  Cu  Cu7  1  0.584283  0.415717  0.963890  1
  Cu  Cu8  1  0.415717  0.584283  0.036110  1
  Cu  Cu9  1  0.343931  0.656069  0.750000  1
  Cu  Cu10  1  0.656069  0.343931  0.250000  1
  Cu  Cu11  1  0.415717  0.584283  0.463890  1
  S  S12  1  0.829804  0.170196  0.068235  1
  S  S13  1  0.437227  0.562773  0.891532  1
  S  S14  1  0.437227  0.562773  0.608468  1
  S  S15  1  0.562773  0.437227  0.391532  1
  S  S16  1  0.231640  0.768360  0.250000  1
  S  S17  1  0.768360  0.231640  0.750000  1
  S  S18  1  0.562773  0.437227  0.108468  1
  S  S19  1  0.170196  0.829804  0.931765  1
  S  S20  1  0.170196  0.829804  0.568235  1
  S  S21  1  0.829804  0.170196  0.431765  1
