# generated using pymatgen
data_KPrTe4
_symmetry_space_group_name_H-M   'P 1'
_cell_length_a   6.97049538
_cell_length_b   6.97049538
_cell_length_c   9.02564657
_cell_angle_alpha   90.00000000
_cell_angle_beta   90.00000000
_cell_angle_gamma   90.00000000
_symmetry_Int_Tables_number   1
_chemical_formula_structural   KPrTe4
_chemical_formula_sum   'K2 Pr2 Te8'
_cell_volume   438.53636315
_cell_formula_units_Z   2
loop_
 _symmetry_equiv_pos_site_id
 _symmetry_equiv_pos_as_xyz
  1  'x, y, z'
loop_
 _atom_site_type_symbol
 _atom_site_label
 _atom_site_symmetry_multiplicity
 _atom_site_fract_x
 _atom_site_fract_y
 _atom_site_fract_z
 _atom_site_occupancy
  K  K0  1  0.500000  0.500000  0.000000  1
  K  K1  1  0.000000  0.000000  0.000000  1
  Pr  Pr2  1  0.500000  0.500000  0.500000  1
  Pr  Pr3  1  0.000000  0.000000  0.500000  1
  Te  Te4  1  0.356409  0.856409  0.284986  1
  Te  Te5  1  0.143591  0.356409  0.284986  1
  Te  Te6  1  0.856409  0.643591  0.284986  1
  Te  Te7  1  0.356409  0.143591  0.715014  1
  Te  Te8  1  0.643591  0.856409  0.715014  1
  Te  Te9  1  0.643591  0.143591  0.284986  1
  Te  Te10  1  0.856409  0.356409  0.715014  1
  Te  Te11  1  0.143591  0.643591  0.715014  1
