# generated using pymatgen
data_Ba3WN4
_symmetry_space_group_name_H-M   'P 1'
_cell_length_a   10.56264865
_cell_length_b   10.98306868
_cell_length_c   12.42217710
_cell_angle_alpha   90.00000000
_cell_angle_beta   90.00000000
_cell_angle_gamma   90.00000000
_symmetry_Int_Tables_number   1
_chemical_formula_structural   Ba3WN4
_chemical_formula_sum   'Ba24 W8 N32'
_cell_volume   1441.10043694
_cell_formula_units_Z   8
loop_
 _symmetry_equiv_pos_site_id
 _symmetry_equiv_pos_as_xyz
  1  'x, y, z'
loop_
 _atom_site_type_symbol
 _atom_site_label
 _atom_site_symmetry_multiplicity
 _atom_site_fract_x
 _atom_site_fract_y
 _atom_site_fract_z
 _atom_site_occupancy
  Ba  Ba0  1  0.880148  0.968847  0.139100  1
  Ba  Ba1  1  0.380148  0.031153  0.360900  1
  Ba  Ba2  1  0.619852  0.468847  0.860900  1
  Ba  Ba3  1  0.119852  0.531153  0.639100  1
  Ba  Ba4  1  0.119852  0.031153  0.860900  1
  Ba  Ba5  1  0.619852  0.968847  0.639100  1
  Ba  Ba6  1  0.380148  0.531153  0.139100  1
  Ba  Ba7  1  0.880148  0.468847  0.360900  1
  Ba  Ba8  1  0.707079  0.277845  0.121755  1
  Ba  Ba9  1  0.207079  0.722155  0.378245  1
  Ba  Ba10  1  0.792921  0.777845  0.878245  1
  Ba  Ba11  1  0.292921  0.222155  0.621755  1
  Ba  Ba12  1  0.292921  0.722155  0.878245  1
  Ba  Ba13  1  0.792921  0.277845  0.621755  1
  Ba  Ba14  1  0.207079  0.222155  0.121755  1
  Ba  Ba15  1  0.707079  0.777845  0.378245  1
  Ba  Ba16  1  0.533535  0.875102  0.106438  1
  Ba  Ba17  1  0.033535  0.624898  0.106438  1
  Ba  Ba18  1  0.966465  0.875102  0.606438  1
  Ba  Ba19  1  0.466465  0.124898  0.893562  1
  Ba  Ba20  1  0.466465  0.624898  0.606438  1
  Ba  Ba21  1  0.966465  0.375102  0.893562  1
  Ba  Ba22  1  0.033535  0.124898  0.393562  1
  Ba  Ba23  1  0.533535  0.375102  0.393562  1
  W  W24  1  0.702285  0.594885  0.114878  1
  W  W25  1  0.202285  0.405115  0.385122  1
  W  W26  1  0.797715  0.094885  0.885122  1
  W  W27  1  0.297715  0.905115  0.614878  1
  W  W28  1  0.297715  0.405115  0.885122  1
  W  W29  1  0.797715  0.594885  0.614878  1
  W  W30  1  0.202285  0.905115  0.114878  1
  W  W31  1  0.702285  0.094885  0.385122  1
  N  N32  1  0.793559  0.225496  0.320951  1
  N  N33  1  0.293559  0.774504  0.179049  1
  N  N34  1  0.706441  0.725496  0.679049  1
  N  N35  1  0.206441  0.274504  0.820951  1
  N  N36  1  0.206441  0.774504  0.679049  1
  N  N37  1  0.706441  0.225496  0.820951  1
  N  N38  1  0.293559  0.274504  0.320951  1
  N  N39  1  0.793559  0.725496  0.179049  1
  N  N40  1  0.813919  0.492861  0.037111  1
  N  N41  1  0.313919  0.507139  0.462889  1
  N  N42  1  0.686081  0.992861  0.962889  1
  N  N43  1  0.186081  0.007139  0.537111  1
  N  N44  1  0.186081  0.507139  0.962889  1
  N  N45  1  0.686081  0.492861  0.537111  1
  N  N46  1  0.313919  0.007139  0.037111  1
  N  N47  1  0.623573  0.994114  0.282314  1
  N  N48  1  0.576802  0.152448  0.481796  1
  N  N49  1  0.076802  0.847552  0.018204  1
  N  N50  1  0.923198  0.652448  0.518204  1
  N  N51  1  0.423198  0.347552  0.981796  1
  N  N52  1  0.423198  0.847552  0.518204  1
  N  N53  1  0.923198  0.152448  0.981796  1
  N  N54  1  0.076802  0.347552  0.481796  1
  N  N55  1  0.576802  0.652448  0.018204  1
  N  N56  1  0.623573  0.494114  0.217686  1
  N  N57  1  0.123573  0.505886  0.282314  1
  N  N58  1  0.876427  0.994114  0.782314  1
  N  N59  1  0.376427  0.005886  0.717686  1
  N  N60  1  0.376427  0.505886  0.782314  1
  N  N61  1  0.876427  0.494114  0.717686  1
  N  N62  1  0.123573  0.005886  0.217686  1
  N  N63  1  0.813919  0.992861  0.462889  1
