# generated using pymatgen
data_Li3In2(PO4)3
_symmetry_space_group_name_H-M   'P 1'
_cell_length_a   8.70171693
_cell_length_b   9.00054826
_cell_length_c   15.19617252
_cell_angle_alpha   90.00000000
_cell_angle_beta   124.96414356
_cell_angle_gamma   90.00000000
_symmetry_Int_Tables_number   1
_chemical_formula_structural   Li3In2(PO4)3
_chemical_formula_sum   'Li12 In8 P12 O48'
_cell_volume   975.35526309
_cell_formula_units_Z   4
loop_
 _symmetry_equiv_pos_site_id
 _symmetry_equiv_pos_as_xyz
  1  'x, y, z'
loop_
 _atom_site_type_symbol
 _atom_site_label
 _atom_site_symmetry_multiplicity
 _atom_site_fract_x
 _atom_site_fract_y
 _atom_site_fract_z
 _atom_site_occupancy
  Li  Li0  1  0.359344  0.217869  0.179846  1
  Li  Li1  1  0.640656  0.717869  0.320154  1
  Li  Li2  1  0.640656  0.782131  0.820154  1
  Li  Li3  1  0.359344  0.282131  0.679846  1
  Li  Li4  1  0.586731  0.987701  0.151513  1
  Li  Li5  1  0.413269  0.487701  0.348487  1
  Li  Li6  1  0.413269  0.012299  0.848487  1
  Li  Li7  1  0.586731  0.512299  0.651513  1
  Li  Li8  1  0.770135  0.913989  0.685563  1
  Li  Li9  1  0.229865  0.413989  0.814437  1
  Li  Li10  1  0.229865  0.086011  0.314437  1
  Li  Li11  1  0.770135  0.586011  0.185563  1
  In  In12  1  0.656293  0.038125  0.397120  1
  In  In13  1  0.343707  0.538125  0.102880  1
  In  In14  1  0.343707  0.961875  0.602880  1
  In  In15  1  0.656293  0.461875  0.897120  1
  In  In16  1  0.136050  0.968907  0.898347  1
  In  In17  1  0.863950  0.468907  0.601653  1
  In  In18  1  0.863950  0.031093  0.101653  1
  In  In19  1  0.136050  0.531093  0.398347  1
  P  P20  1  0.462179  0.247832  0.008154  1
  P  P21  1  0.537821  0.747832  0.491846  1
  P  P22  1  0.537821  0.752168  0.991846  1
  P  P23  1  0.462179  0.252168  0.508154  1
  P  P24  1  0.046996  0.120306  0.657271  1
  P  P25  1  0.953004  0.620306  0.842729  1
  P  P26  1  0.953004  0.879694  0.342729  1
  P  P27  1  0.046996  0.379694  0.157271  1
  P  P28  1  0.270371  0.892897  0.153796  1
  P  P29  1  0.729629  0.392897  0.346204  1
  P  P30  1  0.729629  0.107103  0.846204  1
  P  P31  1  0.270371  0.607103  0.653796  1
  O  O32  1  0.936936  0.790648  0.817651  1
  O  O33  1  0.063064  0.290648  0.682349  1
  O  O34  1  0.063064  0.209352  0.182349  1
  O  O35  1  0.936936  0.709352  0.317651  1
  O  O36  1  0.747791  0.922031  0.306356  1
  O  O37  1  0.252209  0.422031  0.193644  1
  O  O38  1  0.252209  0.077969  0.693644  1
  O  O39  1  0.747791  0.577969  0.806356  1
  O  O40  1  0.354196  0.830272  0.903114  1
  O  O41  1  0.645804  0.330272  0.596886  1
  O  O42  1  0.645804  0.169728  0.096886  1
  O  O43  1  0.354196  0.669728  0.403114  1
  O  O44  1  0.488368  0.128431  0.447324  1
  O  O45  1  0.511632  0.628431  0.052676  1
  O  O46  1  0.511632  0.871569  0.552676  1
  O  O47  1  0.488368  0.371569  0.947324  1
  O  O48  1  0.367021  0.006612  0.249462  1
  O  O49  1  0.632979  0.506612  0.250538  1
  O  O50  1  0.632979  0.993388  0.750538  1
  O  O51  1  0.367021  0.493388  0.749462  1
  O  O52  1  0.631300  0.239088  0.306883  1
  O  O53  1  0.368700  0.739088  0.193117  1
  O  O54  1  0.368700  0.760912  0.693117  1
  O  O55  1  0.631300  0.260912  0.806883  1
  O  O56  1  0.310095  0.957189  0.072656  1
  O  O57  1  0.689905  0.457189  0.427344  1
  O  O58  1  0.689905  0.042811  0.927344  1
  O  O59  1  0.310095  0.542811  0.572656  1
  O  O60  1  0.993986  0.027284  0.721445  1
  O  O61  1  0.006014  0.527284  0.778555  1
  O  O62  1  0.006014  0.972716  0.278555  1
  O  O63  1  0.993986  0.472716  0.221445  1
  O  O64  1  0.633890  0.811924  0.439488  1
  O  O65  1  0.366110  0.311924  0.060512  1
  O  O66  1  0.366110  0.188076  0.560512  1
  O  O67  1  0.633890  0.688076  0.939488  1
  O  O68  1  0.940247  0.114983  0.896925  1
  O  O69  1  0.059753  0.614983  0.603075  1
  O  O70  1  0.059753  0.885017  0.103075  1
  O  O71  1  0.940247  0.385017  0.396925  1
  O  O72  1  0.325471  0.137208  0.917538  1
  O  O73  1  0.674529  0.637208  0.582462  1
  O  O74  1  0.674529  0.862792  0.082462  1
  O  O75  1  0.325471  0.362792  0.417538  1
  O  O76  1  0.910140  0.098513  0.536478  1
  O  O77  1  0.089860  0.598513  0.963522  1
  O  O78  1  0.089860  0.901487  0.463522  1
  O  O79  1  0.910140  0.401487  0.036478  1
