# generated using pymatgen
data_Er2SiO5
_symmetry_space_group_name_H-M   'P 1'
_cell_length_a   6.70942184
_cell_length_b   6.77365038
_cell_length_c   9.14488089
_cell_angle_alpha   90.00000000
_cell_angle_beta   103.56807064
_cell_angle_gamma   90.00000000
_symmetry_Int_Tables_number   1
_chemical_formula_structural   Er2SiO5
_chemical_formula_sum   'Er8 Si4 O20'
_cell_volume   404.01105301
_cell_formula_units_Z   4
loop_
 _symmetry_equiv_pos_site_id
 _symmetry_equiv_pos_as_xyz
  1  'x, y, z'
loop_
 _atom_site_type_symbol
 _atom_site_label
 _atom_site_symmetry_multiplicity
 _atom_site_fract_x
 _atom_site_fract_y
 _atom_site_fract_z
 _atom_site_occupancy
  Er  Er0  1  0.731019  0.120907  0.531206  1
  Er  Er1  1  0.768981  0.620907  0.468794  1
  Er  Er2  1  0.268981  0.879093  0.468794  1
  Er  Er3  1  0.231019  0.379093  0.531206  1
  Er  Er4  1  0.970715  0.640436  0.138439  1
  Er  Er5  1  0.529285  0.140436  0.861561  1
  Er  Er6  1  0.029285  0.359564  0.861561  1
  Er  Er7  1  0.470715  0.859564  0.138439  1
  Si  Si8  1  0.987862  0.093564  0.201590  1
  Si  Si9  1  0.512138  0.593564  0.798410  1
  Si  Si10  1  0.012138  0.906436  0.798410  1
  Si  Si11  1  0.487862  0.406436  0.201590  1
  O  O12  1  0.567991  0.879271  0.390105  1
  O  O13  1  0.932009  0.379271  0.609895  1
  O  O14  1  0.432009  0.120729  0.609895  1
  O  O15  1  0.067991  0.620729  0.390105  1
  O  O16  1  0.988835  0.290975  0.102067  1
  O  O17  1  0.511165  0.790975  0.897933  1
  O  O18  1  0.011165  0.709025  0.897933  1
  O  O19  1  0.488835  0.209025  0.102067  1
  O  O20  1  0.019170  0.141537  0.385157  1
  O  O21  1  0.480830  0.641537  0.614843  1
  O  O22  1  0.980830  0.858463  0.614843  1
  O  O23  1  0.519170  0.358463  0.385157  1
  O  O24  1  0.681699  0.565503  0.210556  1
  O  O25  1  0.818301  0.065503  0.789444  1
  O  O26  1  0.318301  0.434497  0.789444  1
  O  O27  1  0.181699  0.934497  0.210556  1
  O  O28  1  0.297913  0.559267  0.138034  1
  O  O29  1  0.202087  0.059267  0.861966  1
  O  O30  1  0.702087  0.440733  0.861966  1
  O  O31  1  0.797913  0.940733  0.138034  1
