# generated using pymatgen
data_PrTl(MoO4)2
_symmetry_space_group_name_H-M   'P 1'
_cell_length_a   6.41509316
_cell_length_b   6.41509316
_cell_length_c   9.76429181
_cell_angle_alpha   90.00000000
_cell_angle_beta   90.00000000
_cell_angle_gamma   90.00000000
_symmetry_Int_Tables_number   1
_chemical_formula_structural   PrTl(MoO4)2
_chemical_formula_sum   'Pr2 Tl2 Mo4 O16'
_cell_volume   401.83400432
_cell_formula_units_Z   2
loop_
 _symmetry_equiv_pos_site_id
 _symmetry_equiv_pos_as_xyz
  1  'x, y, z'
loop_
 _atom_site_type_symbol
 _atom_site_label
 _atom_site_symmetry_multiplicity
 _atom_site_fract_x
 _atom_site_fract_y
 _atom_site_fract_z
 _atom_site_occupancy
  Pr  Pr0  1  0.500000  0.500000  0.500000  1
  Pr  Pr1  1  0.000000  0.000000  0.000000  1
  Tl  Tl2  1  0.500000  0.500000  0.000000  1
  Tl  Tl3  1  0.000000  0.000000  0.500000  1
  Mo  Mo4  1  0.000000  0.500000  0.750000  1
  Mo  Mo5  1  0.000000  0.500000  0.250000  1
  Mo  Mo6  1  0.500000  0.000000  0.750000  1
  Mo  Mo7  1  0.500000  0.000000  0.250000  1
  O  O8  1  0.885280  0.692801  0.860443  1
  O  O9  1  0.114720  0.307199  0.860443  1
  O  O10  1  0.114720  0.692801  0.139557  1
  O  O11  1  0.885280  0.307199  0.139557  1
  O  O12  1  0.614720  0.807199  0.639557  1
  O  O13  1  0.385280  0.192801  0.639557  1
  O  O14  1  0.385280  0.807199  0.360443  1
  O  O15  1  0.614720  0.192801  0.360443  1
  O  O16  1  0.692801  0.885280  0.139557  1
  O  O17  1  0.307199  0.114720  0.139557  1
  O  O18  1  0.692801  0.114720  0.860443  1
  O  O19  1  0.307199  0.885280  0.860443  1
  O  O20  1  0.807199  0.614720  0.360443  1
  O  O21  1  0.192801  0.385280  0.360443  1
  O  O22  1  0.807199  0.385280  0.639557  1
  O  O23  1  0.192801  0.614720  0.639557  1
