# generated using pymatgen
data_Tl2Cu2SnS4
_symmetry_space_group_name_H-M   'P 1'
_cell_length_a   9.37416202
_cell_length_b   9.37416202
_cell_length_c   9.37416202
_cell_angle_alpha   147.03976807
_cell_angle_beta   103.20176043
_cell_angle_gamma   86.13365926
_symmetry_Int_Tables_number   1
_chemical_formula_structural   Tl2Cu2SnS4
_chemical_formula_sum   'Tl4 Cu4 Sn2 S8'
_cell_volume   424.16133533
_cell_formula_units_Z   2
loop_
 _symmetry_equiv_pos_site_id
 _symmetry_equiv_pos_as_xyz
  1  'x, y, z'
loop_
 _atom_site_type_symbol
 _atom_site_label
 _atom_site_symmetry_multiplicity
 _atom_site_fract_x
 _atom_site_fract_y
 _atom_site_fract_z
 _atom_site_occupancy
  Tl  Tl0  1  0.620419  0.263261  0.883680  1
  Tl  Tl1  1  0.879581  0.763261  0.642841  1
  Tl  Tl2  1  0.379581  0.736739  0.116320  1
  Tl  Tl3  1  0.120419  0.236739  0.357159  1
  Cu  Cu4  1  0.523793  0.750000  0.773793  1
  Cu  Cu5  1  0.023793  0.250000  0.773793  1
  Cu  Cu6  1  0.476207  0.250000  0.226207  1
  Cu  Cu7  1  0.976207  0.750000  0.226207  1
  Sn  Sn8  1  0.750000  0.250000  0.500000  1
  Sn  Sn9  1  0.250000  0.750000  0.500000  1
  S  S10  1  0.223781  0.087526  0.600824  1
  S  S11  1  0.276219  0.877043  0.863745  1
  S  S12  1  0.013298  0.412474  0.136255  1
  S  S13  1  0.486702  0.622957  0.399176  1
  S  S14  1  0.986702  0.587526  0.863745  1
  S  S15  1  0.723781  0.122957  0.136255  1
  S  S16  1  0.776219  0.912474  0.399176  1
  S  S17  1  0.513298  0.377043  0.600824  1
