# generated using pymatgen
data_Pr3TaO7
_symmetry_space_group_name_H-M   'P 1'
_cell_length_a   6.73269227
_cell_length_b   6.73269227
_cell_length_c   7.76880821
_cell_angle_alpha   90.00000000
_cell_angle_beta   90.00000000
_cell_angle_gamma   111.08223955
_symmetry_Int_Tables_number   1
_chemical_formula_structural   Pr3TaO7
_chemical_formula_sum   'Pr6 Ta2 O14'
_cell_volume   328.58207345
_cell_formula_units_Z   2
loop_
 _symmetry_equiv_pos_site_id
 _symmetry_equiv_pos_as_xyz
  1  'x, y, z'
loop_
 _atom_site_type_symbol
 _atom_site_label
 _atom_site_symmetry_multiplicity
 _atom_site_fract_x
 _atom_site_fract_y
 _atom_site_fract_z
 _atom_site_occupancy
  Pr  Pr0  1  0.000000  0.000000  0.000000  1
  Pr  Pr1  1  0.000000  0.000000  0.500000  1
  Pr  Pr2  1  0.478858  0.932312  0.750000  1
  Pr  Pr3  1  0.521142  0.067688  0.250000  1
  Pr  Pr4  1  0.932312  0.478858  0.750000  1
  Pr  Pr5  1  0.067688  0.521142  0.250000  1
  Ta  Ta6  1  0.500000  0.500000  0.000000  1
  Ta  Ta7  1  0.500000  0.500000  0.500000  1
  O  O8  1  0.564827  0.564827  0.750000  1
  O  O9  1  0.435173  0.435173  0.250000  1
  O  O10  1  0.846910  0.109265  0.750000  1
  O  O11  1  0.153090  0.890735  0.250000  1
  O  O12  1  0.109265  0.846910  0.750000  1
  O  O13  1  0.890735  0.153090  0.250000  1
  O  O14  1  0.439279  0.188043  0.966969  1
  O  O15  1  0.560721  0.811957  0.466969  1
  O  O16  1  0.188043  0.439279  0.966969  1
  O  O17  1  0.811957  0.560721  0.466969  1
  O  O18  1  0.439279  0.188043  0.533031  1
  O  O19  1  0.560721  0.811957  0.033031  1
  O  O20  1  0.811957  0.560721  0.033031  1
  O  O21  1  0.188043  0.439279  0.533031  1
