# generated using pymatgen
data_FeAsO4
_symmetry_space_group_name_H-M   'P 1'
_cell_length_a   9.39862419
_cell_length_b   9.39862419
_cell_length_c   9.39862419
_cell_angle_alpha   138.68263042
_cell_angle_beta   108.50014210
_cell_angle_gamma   86.07957044
_symmetry_Int_Tables_number   1
_chemical_formula_structural   FeAsO4
_chemical_formula_sum   'Fe6 As6 O24'
_cell_volume   500.29419569
_cell_formula_units_Z   6
loop_
 _symmetry_equiv_pos_site_id
 _symmetry_equiv_pos_as_xyz
  1  'x, y, z'
loop_
 _atom_site_type_symbol
 _atom_site_label
 _atom_site_symmetry_multiplicity
 _atom_site_fract_x
 _atom_site_fract_y
 _atom_site_fract_z
 _atom_site_occupancy
  Fe  Fe0  1  0.500000  1.000000  0.000000  1
  Fe  Fe1  1  0.000000  0.500000  0.000000  1
  Fe  Fe2  1  0.385961  0.885961  0.500000  1
  Fe  Fe3  1  0.114039  0.114039  0.000000  1
  Fe  Fe4  1  0.614039  0.114039  0.500000  1
  Fe  Fe5  1  0.885961  0.885961  0.000000  1
  As  As6  1  0.750000  0.179208  0.929208  1
  As  As7  1  0.250000  0.820792  0.070792  1
  As  As8  1  0.323262  0.323262  0.000000  1
  As  As9  1  0.176738  0.676738  0.500000  1
  As  As10  1  0.676738  0.676738  0.000000  1
  As  As11  1  0.823262  0.323262  0.500000  1
  O  O12  1  0.621706  0.023296  0.645002  1
  O  O13  1  0.878294  0.023296  0.901589  1
  O  O14  1  0.121706  0.976704  0.098411  1
  O  O15  1  0.378294  0.976704  0.354998  1
  O  O16  1  0.644127  0.206104  0.061977  1
  O  O17  1  0.855873  0.417850  0.061977  1
  O  O18  1  0.355873  0.793896  0.938023  1
  O  O19  1  0.144127  0.582150  0.938023  1
  O  O20  1  0.641488  0.815317  0.237880  1
  O  O21  1  0.858512  0.596392  0.673829  1
  O  O22  1  0.922563  0.184683  0.326171  1
  O  O23  1  0.577437  0.403608  0.762120  1
  O  O24  1  0.151769  0.725789  0.345636  1
  O  O25  1  0.348231  0.193868  0.074020  1
  O  O26  1  0.119848  0.274211  0.925980  1
  O  O27  1  0.380152  0.806132  0.654364  1
  O  O28  1  0.848231  0.274211  0.654364  1
  O  O29  1  0.651769  0.806132  0.925980  1
  O  O30  1  0.880152  0.725789  0.074020  1
  O  O31  1  0.619848  0.193868  0.345636  1
  O  O32  1  0.422563  0.596392  0.237880  1
  O  O33  1  0.077437  0.815317  0.673829  1
  O  O34  1  0.141488  0.403608  0.326171  1
  O  O35  1  0.358512  0.184683  0.762120  1
