# generated using pymatgen
data_K2GaAs2
_symmetry_space_group_name_H-M   'P 1'
_cell_length_a   9.05262748
_cell_length_b   14.57339556
_cell_length_c   11.33190514
_cell_angle_alpha   90.00000000
_cell_angle_beta   118.17639497
_cell_angle_gamma   90.00000000
_symmetry_Int_Tables_number   1
_chemical_formula_structural   K2GaAs2
_chemical_formula_sum   'K16 Ga8 As16'
_cell_volume   1317.83092405
_cell_formula_units_Z   8
loop_
 _symmetry_equiv_pos_site_id
 _symmetry_equiv_pos_as_xyz
  1  'x, y, z'
loop_
 _atom_site_type_symbol
 _atom_site_label
 _atom_site_symmetry_multiplicity
 _atom_site_fract_x
 _atom_site_fract_y
 _atom_site_fract_z
 _atom_site_occupancy
  K  K0  1  0.993363  0.628229  0.531765  1
  K  K1  1  0.006637  0.128229  0.968235  1
  K  K2  1  0.006637  0.371771  0.468235  1
  K  K3  1  0.993363  0.871771  0.031765  1
  K  K4  1  0.589719  0.629003  0.912177  1
  K  K5  1  0.410281  0.129003  0.587823  1
  K  K6  1  0.410281  0.370997  0.087823  1
  K  K7  1  0.589719  0.870997  0.412177  1
  K  K8  1  0.199743  0.884881  0.522189  1
  K  K9  1  0.800257  0.384881  0.977811  1
  K  K10  1  0.800257  0.115119  0.477811  1
  K  K11  1  0.199743  0.615119  0.022189  1
  K  K12  1  0.477663  0.878108  0.941247  1
  K  K13  1  0.522337  0.378108  0.558753  1
  K  K14  1  0.522337  0.121892  0.058753  1
  K  K15  1  0.477663  0.621892  0.441247  1
  Ga  Ga16  1  0.845847  0.717259  0.745057  1
  Ga  Ga17  1  0.154153  0.217259  0.754943  1
  Ga  Ga18  1  0.154153  0.282741  0.254943  1
  Ga  Ga19  1  0.845847  0.782741  0.245057  1
  Ga  Ga20  1  0.004607  0.942547  0.743034  1
  Ga  Ga21  1  0.995393  0.442547  0.756966  1
  Ga  Ga22  1  0.995393  0.057453  0.256966  1
  Ga  Ga23  1  0.004607  0.557453  0.243034  1
  As  As24  1  0.103865  0.784639  0.772386  1
  As  As25  1  0.896135  0.284639  0.727614  1
  As  As26  1  0.896135  0.215361  0.227614  1
  As  As27  1  0.103865  0.715361  0.272386  1
  As  As28  1  0.619087  0.817123  0.718199  1
  As  As29  1  0.380913  0.317123  0.781801  1
  As  As30  1  0.380913  0.182877  0.281801  1
  As  As31  1  0.619087  0.682877  0.218199  1
  As  As32  1  0.784401  0.553095  0.742374  1
  As  As33  1  0.215599  0.053095  0.757626  1
  As  As34  1  0.215599  0.446905  0.257626  1
  As  As35  1  0.784401  0.946905  0.242374  1
  As  As36  1  0.732941  0.973587  0.724311  1
  As  As37  1  0.267059  0.473587  0.775689  1
  As  As38  1  0.267059  0.026413  0.275689  1
  As  As39  1  0.732941  0.526413  0.224311  1
