# generated using pymatgen
data_CsPrCdSe3
_symmetry_space_group_name_H-M   'P 1'
_cell_length_a   8.48594945
_cell_length_b   8.48594945
_cell_length_c   11.55323887
_cell_angle_alpha   90.00000000
_cell_angle_beta   90.00000000
_cell_angle_gamma   149.70878455
_symmetry_Int_Tables_number   1
_chemical_formula_structural   CsPrCdSe3
_chemical_formula_sum   'Cs2 Pr2 Cd2 Se6'
_cell_volume   419.63877906
_cell_formula_units_Z   2
loop_
 _symmetry_equiv_pos_site_id
 _symmetry_equiv_pos_as_xyz
  1  'x, y, z'
loop_
 _atom_site_type_symbol
 _atom_site_label
 _atom_site_symmetry_multiplicity
 _atom_site_fract_x
 _atom_site_fract_y
 _atom_site_fract_z
 _atom_site_occupancy
  Cs  Cs0  1  0.744935  0.255065  0.250000  1
  Cs  Cs1  1  0.255065  0.744935  0.750000  1
  Pr  Pr2  1  0.000000  0.000000  0.500000  1
  Pr  Pr3  1  0.000000  0.000000  0.000000  1
  Cd  Cd4  1  0.536653  0.463347  0.750000  1
  Cd  Cd5  1  0.463347  0.536653  0.250000  1
  Se  Se6  1  0.619465  0.380535  0.554196  1
  Se  Se7  1  0.380535  0.619465  0.445804  1
  Se  Se8  1  0.380535  0.619465  0.054196  1
  Se  Se9  1  0.938117  0.061883  0.750000  1
  Se  Se10  1  0.061883  0.938117  0.250000  1
  Se  Se11  1  0.619465  0.380535  0.945804  1
