# generated using pymatgen
data_WO3
_symmetry_space_group_name_H-M   'P 1'
_cell_length_a   7.67759917
_cell_length_b   7.73374593
_cell_length_c   7.76418290
_cell_angle_alpha   90.00000000
_cell_angle_beta   90.00000000
_cell_angle_gamma   90.00000000
_symmetry_Int_Tables_number   1
_chemical_formula_structural   WO3
_chemical_formula_sum   'W8 O24'
_cell_volume   461.01079273
_cell_formula_units_Z   8
loop_
 _symmetry_equiv_pos_site_id
 _symmetry_equiv_pos_as_xyz
  1  'x, y, z'
loop_
 _atom_site_type_symbol
 _atom_site_label
 _atom_site_symmetry_multiplicity
 _atom_site_fract_x
 _atom_site_fract_y
 _atom_site_fract_z
 _atom_site_occupancy
  W  W0  1  0.751307  0.484532  0.234961  1
  W  W1  1  0.251307  0.515468  0.265039  1
  W  W2  1  0.748693  0.984532  0.265039  1
  W  W3  1  0.248693  0.015468  0.234961  1
  W  W4  1  0.248693  0.515468  0.765039  1
  W  W5  1  0.748693  0.484532  0.734961  1
  W  W6  1  0.251307  0.015468  0.734961  1
  W  W7  1  0.751307  0.984532  0.765039  1
  O  O8  1  0.758075  0.494473  0.496600  1
  O  O9  1  0.258075  0.505527  0.003400  1
  O  O10  1  0.741925  0.994473  0.003400  1
  O  O11  1  0.241925  0.005527  0.496600  1
  O  O12  1  0.241925  0.505527  0.503400  1
  O  O13  1  0.741925  0.494473  0.996600  1
  O  O14  1  0.258075  0.005527  0.996600  1
  O  O15  1  0.758075  0.994473  0.503400  1
  O  O16  1  0.500065  0.984838  0.741976  1
  O  O17  1  0.000065  0.015162  0.758024  1
  O  O18  1  0.999935  0.484838  0.758024  1
  O  O19  1  0.499935  0.515162  0.741976  1
  O  O20  1  0.499935  0.015162  0.258024  1
  O  O21  1  0.999935  0.984838  0.241976  1
  O  O22  1  0.000065  0.515162  0.241976  1
  O  O23  1  0.500065  0.484838  0.258024  1
  O  O24  1  0.765374  0.244530  0.248781  1
  O  O25  1  0.265374  0.255470  0.748781  1
  O  O26  1  0.734626  0.244530  0.748781  1
  O  O27  1  0.234626  0.755470  0.751219  1
  O  O28  1  0.234626  0.255470  0.248781  1
  O  O29  1  0.734626  0.744530  0.251219  1
  O  O30  1  0.265374  0.755470  0.251219  1
  O  O31  1  0.765374  0.744530  0.751219  1
