# generated using pymatgen
data_Zn(GaSe2)2
_symmetry_space_group_name_H-M   'P 1'
_cell_length_a   6.82161110
_cell_length_b   6.82161110
_cell_length_c   6.82161110
_cell_angle_alpha   131.19122131
_cell_angle_beta   131.19122131
_cell_angle_gamma   71.50944411
_symmetry_Int_Tables_number   1
_chemical_formula_structural   Zn(GaSe2)2
_chemical_formula_sum   'Zn1 Ga2 Se4'
_cell_volume   175.90961859
_cell_formula_units_Z   1
loop_
 _symmetry_equiv_pos_site_id
 _symmetry_equiv_pos_as_xyz
  1  'x, y, z'
loop_
 _atom_site_type_symbol
 _atom_site_label
 _atom_site_symmetry_multiplicity
 _atom_site_fract_x
 _atom_site_fract_y
 _atom_site_fract_z
 _atom_site_occupancy
  Zn  Zn0  1  0.000000  0.000000  0.000000  1
  Ga  Ga1  1  0.500000  0.500000  0.000000  1
  Ga  Ga2  1  0.250000  0.750000  0.500000  1
  Se  Se3  1  0.397641  0.891027  0.023094  1
  Se  Se4  1  0.108973  0.132067  0.506614  1
  Se  Se5  1  0.625453  0.602359  0.493386  1
  Se  Se6  1  0.867933  0.374547  0.976906  1
