# generated using pymatgen
data_NbF5
_symmetry_space_group_name_H-M   'P 1'
_cell_length_a   8.97122183
_cell_length_b   8.97122183
_cell_length_c   5.35852658
_cell_angle_alpha   87.19779668
_cell_angle_beta   92.80220332
_cell_angle_gamma   67.48529962
_symmetry_Int_Tables_number   1
_chemical_formula_structural   NbF5
_chemical_formula_sum   'Nb4 F20'
_cell_volume   396.85249028
_cell_formula_units_Z   4
loop_
 _symmetry_equiv_pos_site_id
 _symmetry_equiv_pos_as_xyz
  1  'x, y, z'
loop_
 _atom_site_type_symbol
 _atom_site_label
 _atom_site_symmetry_multiplicity
 _atom_site_fract_x
 _atom_site_fract_y
 _atom_site_fract_z
 _atom_site_occupancy
  Nb  Nb0  1  0.742750  0.257250  0.250083  1
  Nb  Nb1  1  0.257250  0.742750  0.749917  1
  Nb  Nb2  1  0.199719  0.199719  0.000000  1
  Nb  Nb3  1  0.800281  0.800281  0.000000  1
  F  F4  1  0.400434  0.165599  0.876130  1
  F  F5  1  0.165599  0.400434  0.123870  1
  F  F6  1  0.599566  0.834401  0.123870  1
  F  F7  1  0.834401  0.599566  0.876130  1
  F  F8  1  0.134191  0.865809  0.462238  1
  F  F9  1  0.865809  0.134191  0.537762  1
  F  F10  1  0.328605  0.671395  0.090866  1
  F  F11  1  0.671395  0.328605  0.909134  1
  F  F12  1  0.270947  0.541166  0.652451  1
  F  F13  1  0.541166  0.270947  0.347549  1
  F  F14  1  0.729053  0.458834  0.347549  1
  F  F15  1  0.458834  0.729053  0.652451  1
  F  F16  1  0.026454  0.783672  0.879395  1
  F  F17  1  0.783672  0.026454  0.120605  1
  F  F18  1  0.973546  0.216328  0.120605  1
  F  F19  1  0.216328  0.973546  0.879395  1
  F  F20  1  0.922104  0.716961  0.309883  1
  F  F21  1  0.716961  0.922104  0.690117  1
  F  F22  1  0.077896  0.283039  0.690117  1
  F  F23  1  0.283039  0.077896  0.309883  1
