# generated using pymatgen
data_V2O3
_symmetry_space_group_name_H-M   'P 1'
_cell_length_a   5.56360029
_cell_length_b   5.56360029
_cell_length_c   5.56360029
_cell_angle_alpha   54.85739436
_cell_angle_beta   54.85739436
_cell_angle_gamma   54.85739436
_symmetry_Int_Tables_number   1
_chemical_formula_structural   V2O3
_chemical_formula_sum   'V4 O6'
_cell_volume   107.19449025
_cell_formula_units_Z   2
loop_
 _symmetry_equiv_pos_site_id
 _symmetry_equiv_pos_as_xyz
  1  'x, y, z'
loop_
 _atom_site_type_symbol
 _atom_site_label
 _atom_site_symmetry_multiplicity
 _atom_site_fract_x
 _atom_site_fract_y
 _atom_site_fract_z
 _atom_site_occupancy
  V  V0  1  0.648977  0.648977  0.648977  1
  V  V1  1  0.148977  0.148977  0.148977  1
  V  V2  1  0.851023  0.851023  0.851023  1
  V  V3  1  0.351023  0.351023  0.351023  1
  O  O4  1  0.750000  0.446531  0.053469  1
  O  O5  1  0.946531  0.250000  0.553469  1
  O  O6  1  0.553469  0.946531  0.250000  1
  O  O7  1  0.053469  0.750000  0.446531  1
  O  O8  1  0.250000  0.553469  0.946531  1
  O  O9  1  0.446531  0.053469  0.750000  1
