# generated using pymatgen
data_Ba2NaNb5O15
_symmetry_space_group_name_H-M   'P 1'
_cell_length_a   12.64543682
_cell_length_b   12.64543682
_cell_length_c   4.14390326
_cell_angle_alpha   90.00000000
_cell_angle_beta   90.00000000
_cell_angle_gamma   90.00000000
_symmetry_Int_Tables_number   1
_chemical_formula_structural   Ba2NaNb5O15
_chemical_formula_sum   'Ba4 Na2 Nb10 O30'
_cell_volume   662.63943849
_cell_formula_units_Z   2
loop_
 _symmetry_equiv_pos_site_id
 _symmetry_equiv_pos_as_xyz
  1  'x, y, z'
loop_
 _atom_site_type_symbol
 _atom_site_label
 _atom_site_symmetry_multiplicity
 _atom_site_fract_x
 _atom_site_fract_y
 _atom_site_fract_z
 _atom_site_occupancy
  Ba  Ba0  1  0.329431  0.829431  0.183014  1
  Ba  Ba1  1  0.829431  0.670569  0.183014  1
  Ba  Ba2  1  0.170569  0.329431  0.183014  1
  Ba  Ba3  1  0.670569  0.170569  0.183014  1
  Na  Na4  1  0.500000  0.500000  0.135781  1
  Na  Na5  1  0.000000  0.000000  0.135781  1
  Nb  Nb6  1  0.000000  0.500000  0.671610  1
  Nb  Nb7  1  0.500000  0.000000  0.671610  1
  Nb  Nb8  1  0.791732  0.924222  0.677330  1
  Nb  Nb9  1  0.208268  0.075778  0.677330  1
  Nb  Nb10  1  0.075778  0.791732  0.677330  1
  Nb  Nb11  1  0.924222  0.208268  0.677330  1
  Nb  Nb12  1  0.575778  0.708268  0.677330  1
  Nb  Nb13  1  0.708268  0.424222  0.677330  1
  Nb  Nb14  1  0.291732  0.575778  0.677330  1
  Nb  Nb15  1  0.424222  0.291732  0.677330  1
  O  O16  1  0.000000  0.500000  0.224988  1
  O  O17  1  0.500000  0.000000  0.224988  1
  O  O18  1  0.704234  0.422080  0.231269  1
  O  O19  1  0.295766  0.577920  0.231269  1
  O  O20  1  0.577920  0.704234  0.231269  1
  O  O21  1  0.422080  0.295766  0.231269  1
  O  O22  1  0.077920  0.795766  0.231269  1
  O  O23  1  0.795766  0.922080  0.231269  1
  O  O24  1  0.204234  0.077920  0.231269  1
  O  O25  1  0.922080  0.204234  0.231269  1
  O  O26  1  0.858613  0.068345  0.742020  1
  O  O27  1  0.141387  0.931655  0.742020  1
  O  O28  1  0.931655  0.858613  0.742020  1
  O  O29  1  0.068345  0.141387  0.742020  1
  O  O30  1  0.431655  0.641387  0.742020  1
  O  O31  1  0.641387  0.568345  0.742020  1
  O  O32  1  0.505987  0.156769  0.731274  1
  O  O33  1  0.156769  0.494013  0.731274  1
  O  O34  1  0.843231  0.505987  0.731274  1
  O  O35  1  0.494013  0.843231  0.731274  1
  O  O36  1  0.005987  0.343231  0.731274  1
  O  O37  1  0.994013  0.656769  0.731274  1
  O  O38  1  0.343231  0.994013  0.731274  1
  O  O39  1  0.656769  0.005987  0.731274  1
  O  O40  1  0.781194  0.281194  0.723561  1
  O  O41  1  0.281194  0.218806  0.723561  1
  O  O42  1  0.718806  0.781194  0.723561  1
  O  O43  1  0.218806  0.718806  0.723561  1
  O  O44  1  0.568345  0.358613  0.742020  1
  O  O45  1  0.358613  0.431655  0.742020  1
