# generated using pymatgen
data_Rb2Hf3OF12
_symmetry_space_group_name_H-M   'P 1'
_cell_length_a   11.04224391
_cell_length_b   11.04224391
_cell_length_c   11.04224391
_cell_angle_alpha   41.13111189
_cell_angle_beta   41.13111189
_cell_angle_gamma   41.13111189
_symmetry_Int_Tables_number   1
_chemical_formula_structural   Rb2Hf3OF12
_chemical_formula_sum   'Rb4 Hf6 O2 F24'
_cell_volume   526.05641716
_cell_formula_units_Z   2
loop_
 _symmetry_equiv_pos_site_id
 _symmetry_equiv_pos_as_xyz
  1  'x, y, z'
loop_
 _atom_site_type_symbol
 _atom_site_label
 _atom_site_symmetry_multiplicity
 _atom_site_fract_x
 _atom_site_fract_y
 _atom_site_fract_z
 _atom_site_occupancy
  Rb  Rb0  1  0.000000  1.000000  0.000000  1
  Rb  Rb1  1  0.500000  0.500000  0.500000  1
  Rb  Rb2  1  0.861410  0.861410  0.861410  1
  Rb  Rb3  1  0.138590  0.138590  0.138590  1
  Hf  Hf4  1  0.424729  0.971917  0.424729  1
  Hf  Hf5  1  0.971917  0.424729  0.424729  1
  Hf  Hf6  1  0.424729  0.424729  0.971917  1
  Hf  Hf7  1  0.575271  0.575271  0.028083  1
  Hf  Hf8  1  0.028083  0.575271  0.575271  1
  Hf  Hf9  1  0.575271  0.028083  0.575271  1
  O  O10  1  0.712933  0.712933  0.712933  1
  O  O11  1  0.287067  0.287067  0.287067  1
  F  F12  1  0.627537  0.292254  0.292254  1
  F  F13  1  0.292254  0.292254  0.627537  1
  F  F14  1  0.292254  0.627537  0.292254  1
  F  F15  1  0.372463  0.707746  0.707746  1
  F  F16  1  0.707746  0.707746  0.372463  1
  F  F17  1  0.707746  0.372463  0.707746  1
  F  F18  1  0.909543  0.909543  0.401686  1
  F  F19  1  0.909543  0.401686  0.909543  1
  F  F20  1  0.000000  0.352801  0.647199  1
  F  F21  1  0.647199  1.000000  0.352801  1
  F  F22  1  0.352801  0.647199  0.000000  1
  F  F23  1  1.000000  0.647199  0.352801  1
  F  F24  1  0.352801  1.000000  0.647199  1
  F  F25  1  0.647199  0.352801  0.000000  1
  F  F26  1  0.917022  0.353644  0.353644  1
  F  F27  1  0.353644  0.917022  0.353644  1
  F  F28  1  0.353644  0.353644  0.917022  1
  F  F29  1  0.646356  0.646356  0.082978  1
  F  F30  1  0.082978  0.646356  0.646356  1
  F  F31  1  0.646356  0.082978  0.646356  1
  F  F32  1  0.090457  0.090457  0.598314  1
  F  F33  1  0.598314  0.090457  0.090457  1
  F  F34  1  0.090457  0.598314  0.090457  1
  F  F35  1  0.401686  0.909543  0.909543  1
