# generated using pymatgen
data_Nd2Ti2O7
_symmetry_space_group_name_H-M   'P 1'
_cell_length_a   7.70291396
_cell_length_b   5.52429401
_cell_length_c   13.29079238
_cell_angle_alpha   90.00000000
_cell_angle_beta   98.43488763
_cell_angle_gamma   90.00000000
_symmetry_Int_Tables_number   1
_chemical_formula_structural   Nd2Ti2O7
_chemical_formula_sum   'Nd8 Ti8 O28'
_cell_volume   559.44762750
_cell_formula_units_Z   4
loop_
 _symmetry_equiv_pos_site_id
 _symmetry_equiv_pos_as_xyz
  1  'x, y, z'
loop_
 _atom_site_type_symbol
 _atom_site_label
 _atom_site_symmetry_multiplicity
 _atom_site_fract_x
 _atom_site_fract_y
 _atom_site_fract_z
 _atom_site_occupancy
  Nd  Nd0  1  0.730595  0.753384  0.914584  1
  Nd  Nd1  1  0.269405  0.253384  0.085416  1
  Nd  Nd2  1  0.217779  0.739962  0.876041  1
  Nd  Nd3  1  0.782221  0.239962  0.123959  1
  Nd  Nd4  1  0.645115  0.354979  0.569323  1
  Nd  Nd5  1  0.354885  0.854979  0.430677  1
  Nd  Nd6  1  0.148985  0.282371  0.617913  1
  Nd  Nd7  1  0.851015  0.782371  0.382087  1
  Ti  Ti8  1  0.971313  0.255816  0.875938  1
  Ti  Ti9  1  0.028687  0.755816  0.124062  1
  Ti  Ti10  1  0.468297  0.257683  0.878764  1
  Ti  Ti11  1  0.531703  0.757683  0.121236  1
  Ti  Ti12  1  0.914398  0.793394  0.673936  1
  Ti  Ti13  1  0.085602  0.293394  0.326064  1
  Ti  Ti14  1  0.429741  0.784209  0.679715  1
  Ti  Ti15  1  0.570259  0.284209  0.320285  1
  O  O16  1  0.546908  0.013255  0.021672  1
  O  O17  1  0.453092  0.513255  0.978328  1
  O  O18  1  0.964728  0.012120  0.023646  1
  O  O19  1  0.035272  0.512120  0.976354  1
  O  O20  1  0.722145  0.312196  0.888575  1
  O  O21  1  0.277855  0.812196  0.111425  1
  O  O22  1  0.227064  0.159507  0.907567  1
  O  O23  1  0.772936  0.659507  0.092433  1
  O  O24  1  0.930292  0.932167  0.819446  1
  O  O25  1  0.069708  0.432167  0.180554  1
  O  O26  1  0.480103  0.935268  0.817788  1
  O  O27  1  0.519897  0.435268  0.182212  1
  O  O28  1  0.005319  0.445270  0.768194  1
  O  O29  1  0.994681  0.945270  0.231806  1
  O  O30  1  0.380883  0.448788  0.771054  1
  O  O31  1  0.619117  0.948788  0.228946  1
  O  O32  1  0.673485  0.688099  0.692237  1
  O  O33  1  0.326515  0.188099  0.307763  1
  O  O34  1  0.172256  0.851742  0.693840  1
  O  O35  1  0.827744  0.351742  0.306160  1
  O  O36  1  0.871783  0.078076  0.613092  1
  O  O37  1  0.631423  0.067247  0.428305  1
  O  O38  1  0.128217  0.578076  0.386908  1
  O  O39  1  0.576626  0.552499  0.405416  1
  O  O40  1  0.910162  0.584966  0.558428  1
  O  O41  1  0.089838  0.084966  0.441572  1
  O  O42  1  0.368577  0.567247  0.571695  1
  O  O43  1  0.423374  0.052499  0.594584  1
