# generated using pymatgen
data_Cs2Pt
_symmetry_space_group_name_H-M   'P 1'
_cell_length_a   5.83628368
_cell_length_b   5.83628368
_cell_length_c   8.21469217
_cell_angle_alpha   90.00000000
_cell_angle_beta   90.00000000
_cell_angle_gamma   120.00000000
_symmetry_Int_Tables_number   1
_chemical_formula_structural   Cs2Pt
_chemical_formula_sum   'Cs4 Pt2'
_cell_volume   242.32304169
_cell_formula_units_Z   2
loop_
 _symmetry_equiv_pos_site_id
 _symmetry_equiv_pos_as_xyz
  1  'x, y, z'
loop_
 _atom_site_type_symbol
 _atom_site_label
 _atom_site_symmetry_multiplicity
 _atom_site_fract_x
 _atom_site_fract_y
 _atom_site_fract_z
 _atom_site_occupancy
  Cs  Cs0  1  0.666667  0.333333  0.250000  1
  Cs  Cs1  1  0.333333  0.666667  0.750000  1
  Cs  Cs2  1  0.000000  0.000000  0.000000  1
  Cs  Cs3  1  0.000000  0.000000  0.500000  1
  Pt  Pt4  1  0.666667  0.333333  0.750000  1
  Pt  Pt5  1  0.333333  0.666667  0.250000  1
