# generated using pymatgen
data_NaSr3SbO6
_symmetry_space_group_name_H-M   'P 1'
_cell_length_a   6.91926613
_cell_length_b   6.91926613
_cell_length_c   6.91926613
_cell_angle_alpha   91.18726402
_cell_angle_beta   91.18726402
_cell_angle_gamma   91.18726402
_symmetry_Int_Tables_number   1
_chemical_formula_structural   NaSr3SbO6
_chemical_formula_sum   'Na2 Sr6 Sb2 O12'
_cell_volume   331.05212089
_cell_formula_units_Z   2
loop_
 _symmetry_equiv_pos_site_id
 _symmetry_equiv_pos_as_xyz
  1  'x, y, z'
loop_
 _atom_site_type_symbol
 _atom_site_label
 _atom_site_symmetry_multiplicity
 _atom_site_fract_x
 _atom_site_fract_y
 _atom_site_fract_z
 _atom_site_occupancy
  Na  Na0  1  0.250000  0.250000  0.250000  1
  Na  Na1  1  0.750000  0.750000  0.750000  1
  Sr  Sr2  1  0.900337  0.599663  0.250000  1
  Sr  Sr3  1  0.250000  0.900337  0.599663  1
  Sr  Sr4  1  0.400337  0.750000  0.099663  1
  Sr  Sr5  1  0.099663  0.400337  0.750000  1
  Sr  Sr6  1  0.750000  0.099663  0.400337  1
  Sr  Sr7  1  0.599663  0.250000  0.900337  1
  Sb  Sb8  1  0.000000  0.000000  0.000000  1
  Sb  Sb9  1  0.500000  0.500000  0.500000  1
  O  O10  1  0.445846  0.572951  0.779928  1
  O  O11  1  0.779928  0.445846  0.572951  1
  O  O12  1  0.572951  0.779928  0.445846  1
  O  O13  1  0.720072  0.927049  0.054154  1
  O  O14  1  0.054154  0.720072  0.927049  1
  O  O15  1  0.927049  0.054154  0.720072  1
  O  O16  1  0.554154  0.427049  0.220072  1
  O  O17  1  0.220072  0.554154  0.427049  1
  O  O18  1  0.427049  0.220072  0.554154  1
  O  O19  1  0.279928  0.072951  0.945846  1
  O  O20  1  0.072951  0.945846  0.279928  1
  O  O21  1  0.945846  0.279928  0.072951  1
