# generated using pymatgen
data_Sr2Ta2O7
_symmetry_space_group_name_H-M   'P 1'
_cell_length_a   13.97290283
_cell_length_b   13.97290283
_cell_length_c   5.75570000
_cell_angle_alpha   90.00000000
_cell_angle_beta   90.00000000
_cell_angle_gamma   163.58353969
_symmetry_Int_Tables_number   1
_chemical_formula_structural   Sr2Ta2O7
_chemical_formula_sum   'Sr4 Ta4 O14'
_cell_volume   317.59216189
_cell_formula_units_Z   2
loop_
 _symmetry_equiv_pos_site_id
 _symmetry_equiv_pos_as_xyz
  1  'x, y, z'
loop_
 _atom_site_type_symbol
 _atom_site_label
 _atom_site_symmetry_multiplicity
 _atom_site_fract_x
 _atom_site_fract_y
 _atom_site_fract_z
 _atom_site_occupancy
  Sr  Sr0  1  0.285357  0.714643  0.750000  1
  Sr  Sr1  1  0.714643  0.285357  0.250000  1
  Sr  Sr2  1  0.446579  0.553421  0.250000  1
  Sr  Sr3  1  0.553421  0.446579  0.750000  1
  Ta  Ta4  1  0.840913  0.159087  0.250000  1
  Ta  Ta5  1  0.159087  0.840913  0.750000  1
  Ta  Ta6  1  0.945321  0.054679  0.750000  1
  Ta  Ta7  1  0.054679  0.945321  0.250000  1
  O  O8  1  0.000000  0.000000  0.000000  1
  O  O9  1  0.000000  0.000000  0.500000  1
  O  O10  1  0.547002  0.452998  0.250000  1
  O  O11  1  0.452998  0.547002  0.750000  1
  O  O12  1  0.901026  0.098974  0.007646  1
  O  O13  1  0.098974  0.901026  0.992354  1
  O  O14  1  0.098974  0.901026  0.507646  1
  O  O15  1  0.901026  0.098974  0.492354  1
  O  O16  1  0.794174  0.205826  0.488126  1
  O  O17  1  0.205826  0.794174  0.511874  1
  O  O18  1  0.205826  0.794174  0.988126  1
  O  O19  1  0.794174  0.205826  0.011874  1
  O  O20  1  0.350939  0.649061  0.250000  1
  O  O21  1  0.649061  0.350939  0.750000  1
