# generated using pymatgen
data_Sr2YTaO6
_symmetry_space_group_name_H-M   'P 1'
_cell_length_a   5.85324177
_cell_length_b   5.94446346
_cell_length_c   10.15857586
_cell_angle_alpha   90.00000000
_cell_angle_beta   124.98546756
_cell_angle_gamma   90.00000000
_symmetry_Int_Tables_number   1
_chemical_formula_structural   Sr2YTaO6
_chemical_formula_sum   'Sr4 Y2 Ta2 O12'
_cell_volume   289.59001431
_cell_formula_units_Z   2
loop_
 _symmetry_equiv_pos_site_id
 _symmetry_equiv_pos_as_xyz
  1  'x, y, z'
loop_
 _atom_site_type_symbol
 _atom_site_label
 _atom_site_symmetry_multiplicity
 _atom_site_fract_x
 _atom_site_fract_y
 _atom_site_fract_z
 _atom_site_occupancy
  Sr  Sr0  1  0.258143  0.462778  0.249406  1
  Sr  Sr1  1  0.741857  0.962778  0.250594  1
  Sr  Sr2  1  0.258143  0.037222  0.749406  1
  Sr  Sr3  1  0.741857  0.537222  0.750594  1
  Y  Y4  1  0.000000  0.000000  0.000000  1
  Y  Y5  1  0.000000  0.500000  0.500000  1
  Ta  Ta6  1  0.500000  0.500000  0.000000  1
  Ta  Ta7  1  0.500000  0.000000  0.500000  1
  O  O8  1  0.647984  0.725696  0.454150  1
  O  O9  1  0.352016  0.225696  0.045850  1
  O  O10  1  0.352016  0.274304  0.545850  1
  O  O11  1  0.647984  0.774304  0.954150  1
  O  O12  1  0.732630  0.196563  0.458619  1
  O  O13  1  0.267370  0.696563  0.041381  1
  O  O14  1  0.267370  0.803437  0.541381  1
  O  O15  1  0.732630  0.303437  0.958619  1
  O  O16  1  0.183580  0.025302  0.265682  1
  O  O17  1  0.816420  0.525302  0.234318  1
  O  O18  1  0.816420  0.974698  0.734318  1
  O  O19  1  0.183580  0.474698  0.765682  1
