# generated using pymatgen
data_Ba3SbN
_symmetry_space_group_name_H-M   'P 1'
_cell_length_a   7.66724049
_cell_length_b   7.66724049
_cell_length_c   6.75528389
_cell_angle_alpha   90.00000000
_cell_angle_beta   90.00000000
_cell_angle_gamma   120.00000000
_symmetry_Int_Tables_number   1
_chemical_formula_structural   Ba3SbN
_chemical_formula_sum   'Ba6 Sb2 N2'
_cell_volume   343.91602096
_cell_formula_units_Z   2
loop_
 _symmetry_equiv_pos_site_id
 _symmetry_equiv_pos_as_xyz
  1  'x, y, z'
loop_
 _atom_site_type_symbol
 _atom_site_label
 _atom_site_symmetry_multiplicity
 _atom_site_fract_x
 _atom_site_fract_y
 _atom_site_fract_z
 _atom_site_occupancy
  Ba  Ba0  1  0.680948  0.840474  0.250000  1
  Ba  Ba1  1  0.840474  0.159526  0.750000  1
  Ba  Ba2  1  0.159526  0.319052  0.250000  1
  Ba  Ba3  1  0.840474  0.680948  0.750000  1
  Ba  Ba4  1  0.319052  0.159526  0.750000  1
  Ba  Ba5  1  0.159526  0.840474  0.250000  1
  Sb  Sb6  1  0.666667  0.333333  0.250000  1
  Sb  Sb7  1  0.333333  0.666667  0.750000  1
  N  N8  1  0.000000  0.000000  0.500000  1
  N  N9  1  0.000000  0.000000  0.000000  1
