# generated using pymatgen
data_Sr2CoWO6
_symmetry_space_group_name_H-M   'P 1'
_cell_length_a   5.71769716
_cell_length_b   5.71769716
_cell_length_c   5.71769716
_cell_angle_alpha   121.31691431
_cell_angle_beta   121.31691431
_cell_angle_gamma   87.73378113
_symmetry_Int_Tables_number   1
_chemical_formula_structural   Sr2CoWO6
_chemical_formula_sum   'Sr2 Co1 W1 O6'
_cell_volume   129.43379505
_cell_formula_units_Z   1
loop_
 _symmetry_equiv_pos_site_id
 _symmetry_equiv_pos_as_xyz
  1  'x, y, z'
loop_
 _atom_site_type_symbol
 _atom_site_label
 _atom_site_symmetry_multiplicity
 _atom_site_fract_x
 _atom_site_fract_y
 _atom_site_fract_z
 _atom_site_occupancy
  Sr  Sr0  1  0.250000  0.750000  0.500000  1
  Sr  Sr1  1  0.750000  0.250000  0.500000  1
  Co  Co2  1  0.500000  0.500000  1.000000  1
  W  W3  1  0.000000  0.000000  0.000000  1
  O  O4  1  0.203072  0.283293  0.486365  1
  O  O5  1  0.796928  0.716707  0.513635  1
  O  O6  1  0.283293  0.796928  0.080221  1
  O  O7  1  0.716707  0.203072  0.919779  1
  O  O8  1  0.236845  0.236845  0.000000  1
  O  O9  1  0.763155  0.763155  1.000000  1
