# generated using pymatgen
data_Ti4Mn(PO4)6
_symmetry_space_group_name_H-M   'P 1'
_cell_length_a   8.68685021
_cell_length_b   8.68685021
_cell_length_c   8.68685021
_cell_angle_alpha   59.71699700
_cell_angle_beta   59.71699700
_cell_angle_gamma   59.71699700
_symmetry_Int_Tables_number   1
_chemical_formula_structural   Ti4Mn(PO4)6
_chemical_formula_sum   'Ti4 Mn1 P6 O24'
_cell_volume   460.54436428
_cell_formula_units_Z   1
loop_
 _symmetry_equiv_pos_site_id
 _symmetry_equiv_pos_as_xyz
  1  'x, y, z'
loop_
 _atom_site_type_symbol
 _atom_site_label
 _atom_site_symmetry_multiplicity
 _atom_site_fract_x
 _atom_site_fract_y
 _atom_site_fract_z
 _atom_site_occupancy
  Ti  Ti0  1  0.852386  0.852386  0.852386  1
  Ti  Ti1  1  0.147614  0.147614  0.147614  1
  Ti  Ti2  1  0.634377  0.634377  0.634377  1
  Ti  Ti3  1  0.365623  0.365623  0.365623  1
  Mn  Mn4  1  0.000000  0.000000  0.000000  1
  P  P5  1  0.028802  0.754408  0.456014  1
  P  P6  1  0.456014  0.028802  0.754408  1
  P  P7  1  0.754408  0.456014  0.028802  1
  P  P8  1  0.971198  0.245592  0.543986  1
  P  P9  1  0.543986  0.971198  0.245592  1
  P  P10  1  0.245592  0.543986  0.971198  1
  O  O11  1  0.492177  0.860221  0.713699  1
  O  O12  1  0.713699  0.492177  0.860221  1
  O  O13  1  0.860221  0.713699  0.492177  1
  O  O14  1  0.507823  0.139779  0.286301  1
  O  O15  1  0.286301  0.507823  0.139779  1
  O  O16  1  0.139779  0.286301  0.507823  1
  O  O17  1  0.990651  0.811941  0.618725  1
  O  O18  1  0.618725  0.990651  0.811941  1
  O  O19  1  0.811941  0.618725  0.990651  1
  O  O20  1  0.009349  0.188059  0.381275  1
  O  O21  1  0.381275  0.009349  0.188059  1
  O  O22  1  0.188059  0.381275  0.009349  1
  O  O23  1  0.554555  0.787387  0.415986  1
  O  O24  1  0.415986  0.554555  0.787387  1
  O  O25  1  0.787387  0.415986  0.554555  1
  O  O26  1  0.445445  0.212613  0.584014  1
  O  O27  1  0.584014  0.445445  0.212613  1
  O  O28  1  0.212613  0.584014  0.445445  1
  O  O29  1  0.943445  0.079785  0.735529  1
  O  O30  1  0.735529  0.943445  0.079785  1
  O  O31  1  0.079785  0.735529  0.943445  1
  O  O32  1  0.056555  0.920215  0.264471  1
  O  O33  1  0.264471  0.056555  0.920215  1
  O  O34  1  0.920215  0.264471  0.056555  1
