# generated using pymatgen
data_TiAs2O7
_symmetry_space_group_name_H-M   'P 1'
_cell_length_a   5.23651163
_cell_length_b   13.19610188
_cell_length_c   9.84338101
_cell_angle_alpha   90.00000000
_cell_angle_beta   120.90636905
_cell_angle_gamma   90.00000000
_symmetry_Int_Tables_number   1
_chemical_formula_structural   TiAs2O7
_chemical_formula_sum   'Ti4 As8 O28'
_cell_volume   583.61073475
_cell_formula_units_Z   4
loop_
 _symmetry_equiv_pos_site_id
 _symmetry_equiv_pos_as_xyz
  1  'x, y, z'
loop_
 _atom_site_type_symbol
 _atom_site_label
 _atom_site_symmetry_multiplicity
 _atom_site_fract_x
 _atom_site_fract_y
 _atom_site_fract_z
 _atom_site_occupancy
  Ti  Ti0  1  0.365478  0.348095  0.655324  1
  Ti  Ti1  1  0.634522  0.848095  0.844676  1
  Ti  Ti2  1  0.634522  0.651905  0.344676  1
  Ti  Ti3  1  0.365478  0.151905  0.155324  1
  As  As4  1  0.772578  0.308699  0.060105  1
  As  As5  1  0.227422  0.808699  0.439895  1
  As  As6  1  0.227422  0.691301  0.939895  1
  As  As7  1  0.772578  0.191301  0.560105  1
  As  As8  1  0.118199  0.483206  0.309979  1
  As  As9  1  0.881801  0.983206  0.190021  1
  As  As10  1  0.881801  0.516794  0.690021  1
  As  As11  1  0.118199  0.016794  0.809979  1
  O  O12  1  0.816508  0.436118  0.129399  1
  O  O13  1  0.183492  0.936118  0.370601  1
  O  O14  1  0.183492  0.563882  0.870601  1
  O  O15  1  0.816508  0.063882  0.629399  1
  O  O16  1  0.642251  0.034257  0.239193  1
  O  O17  1  0.357749  0.534257  0.260807  1
  O  O18  1  0.357749  0.965743  0.760807  1
  O  O19  1  0.642251  0.465743  0.739193  1
  O  O20  1  0.097729  0.272381  0.076016  1
  O  O21  1  0.902271  0.772381  0.423984  1
  O  O22  1  0.902271  0.727619  0.923984  1
  O  O23  1  0.097729  0.227619  0.576016  1
  O  O24  1  0.679001  0.260024  0.674257  1
  O  O25  1  0.320999  0.760024  0.825743  1
  O  O26  1  0.320999  0.739976  0.325743  1
  O  O27  1  0.679001  0.239976  0.174257  1
  O  O28  1  0.479374  0.319648  0.872409  1
  O  O29  1  0.520626  0.819648  0.627591  1
  O  O30  1  0.520626  0.680352  0.127591  1
  O  O31  1  0.479374  0.180352  0.372409  1
  O  O32  1  0.273532  0.384587  0.438425  1
  O  O33  1  0.726468  0.884587  0.061575  1
  O  O34  1  0.726468  0.615413  0.561575  1
  O  O35  1  0.273532  0.115413  0.938425  1
  O  O36  1  0.031094  0.428495  0.625397  1
  O  O37  1  0.968906  0.928495  0.874603  1
  O  O38  1  0.968906  0.571505  0.374603  1
  O  O39  1  0.031094  0.071505  0.125397  1
