# generated using pymatgen
data_Rb2S5
_symmetry_space_group_name_H-M   'P 1'
_cell_length_a   6.79182086
_cell_length_b   6.85280614
_cell_length_c   19.31843307
_cell_angle_alpha   90.00000000
_cell_angle_beta   90.00000000
_cell_angle_gamma   90.00000000
_symmetry_Int_Tables_number   1
_chemical_formula_structural   Rb2S5
_chemical_formula_sum   'Rb8 S20'
_cell_volume   899.13844260
_cell_formula_units_Z   4
loop_
 _symmetry_equiv_pos_site_id
 _symmetry_equiv_pos_as_xyz
  1  'x, y, z'
loop_
 _atom_site_type_symbol
 _atom_site_label
 _atom_site_symmetry_multiplicity
 _atom_site_fract_x
 _atom_site_fract_y
 _atom_site_fract_z
 _atom_site_occupancy
  Rb  Rb0  1  0.411537  0.704754  0.321359  1
  Rb  Rb1  1  0.911537  0.795246  0.678641  1
  Rb  Rb2  1  0.588463  0.204754  0.178641  1
  Rb  Rb3  1  0.088463  0.295246  0.821359  1
  Rb  Rb4  1  0.863611  0.574421  0.008599  1
  Rb  Rb5  1  0.363611  0.925579  0.991401  1
  Rb  Rb6  1  0.136389  0.074421  0.491401  1
  Rb  Rb7  1  0.636389  0.425579  0.508599  1
  S  S8  1  0.533866  0.701726  0.148265  1
  S  S9  1  0.033866  0.798274  0.851735  1
  S  S10  1  0.466134  0.201726  0.351735  1
  S  S11  1  0.966134  0.298274  0.648265  1
  S  S12  1  0.243237  0.623311  0.135998  1
  S  S13  1  0.743237  0.876689  0.864002  1
  S  S14  1  0.756763  0.123311  0.364002  1
  S  S15  1  0.256763  0.376689  0.635998  1
  S  S16  1  0.590381  0.917372  0.544676  1
  S  S17  1  0.090381  0.582628  0.455324  1
  S  S18  1  0.409619  0.417372  0.955324  1
  S  S19  1  0.909619  0.082628  0.044676  1
  S  S20  1  0.431507  0.909757  0.635133  1
  S  S21  1  0.931507  0.590243  0.364867  1
  S  S22  1  0.568493  0.409757  0.864867  1
  S  S23  1  0.068493  0.090243  0.135133  1
  S  S24  1  0.440806  0.177749  0.686528  1
  S  S25  1  0.940806  0.322251  0.313472  1
  S  S26  1  0.559194  0.677749  0.813472  1
  S  S27  1  0.059194  0.822251  0.186528  1
