# generated using pymatgen
data_MgSeO4
_symmetry_space_group_name_H-M   'P 1'
_cell_length_a   4.99999950
_cell_length_b   4.99999950
_cell_length_c   6.67071279
_cell_angle_alpha   90.00000000
_cell_angle_beta   90.00000000
_cell_angle_gamma   113.21786946
_symmetry_Int_Tables_number   1
_chemical_formula_structural   MgSeO4
_chemical_formula_sum   'Mg2 Se2 O8'
_cell_volume   153.26166881
_cell_formula_units_Z   2
loop_
 _symmetry_equiv_pos_site_id
 _symmetry_equiv_pos_as_xyz
  1  'x, y, z'
loop_
 _atom_site_type_symbol
 _atom_site_label
 _atom_site_symmetry_multiplicity
 _atom_site_fract_x
 _atom_site_fract_y
 _atom_site_fract_z
 _atom_site_occupancy
  Mg  Mg0  1  0.000000  0.000000  0.000000  1
  Mg  Mg1  1  0.000000  0.000000  0.500000  1
  Se  Se2  1  0.650644  0.349356  0.250000  1
  Se  Se3  1  0.349356  0.650644  0.750000  1
  O  O4  1  0.281771  0.220836  0.250000  1
  O  O5  1  0.718229  0.779164  0.750000  1
  O  O6  1  0.220836  0.281771  0.750000  1
  O  O7  1  0.779164  0.718229  0.250000  1
  O  O8  1  0.757519  0.242481  0.042134  1
  O  O9  1  0.242481  0.757519  0.542134  1
  O  O10  1  0.242481  0.757519  0.957866  1
  O  O11  1  0.757519  0.242481  0.457866  1
