# generated using pymatgen
data_Sr2CrO4
_symmetry_space_group_name_H-M   'P 1'
_cell_length_a   5.90983461
_cell_length_b   10.12194225
_cell_length_c   14.38378597
_cell_angle_alpha   90.00000000
_cell_angle_beta   90.00000000
_cell_angle_gamma   90.00000000
_symmetry_Int_Tables_number   1
_chemical_formula_structural   Sr2CrO4
_chemical_formula_sum   'Sr16 Cr8 O32'
_cell_volume   860.42375953
_cell_formula_units_Z   8
loop_
 _symmetry_equiv_pos_site_id
 _symmetry_equiv_pos_as_xyz
  1  'x, y, z'
loop_
 _atom_site_type_symbol
 _atom_site_label
 _atom_site_symmetry_multiplicity
 _atom_site_fract_x
 _atom_site_fract_y
 _atom_site_fract_z
 _atom_site_occupancy
  Sr  Sr0  1  0.723716  0.775675  0.046278  1
  Sr  Sr1  1  0.276284  0.275675  0.953722  1
  Sr  Sr2  1  0.776284  0.775675  0.546278  1
  Sr  Sr3  1  0.223716  0.275675  0.453722  1
  Sr  Sr4  1  0.693518  0.414028  0.118780  1
  Sr  Sr5  1  0.306482  0.914028  0.881220  1
  Sr  Sr6  1  0.806482  0.414028  0.618780  1
  Sr  Sr7  1  0.193518  0.914028  0.381220  1
  Sr  Sr8  1  0.692359  0.140422  0.295196  1
  Sr  Sr9  1  0.307641  0.640422  0.704804  1
  Sr  Sr10  1  0.807641  0.140422  0.795196  1
  Sr  Sr11  1  0.192359  0.640422  0.204804  1
  Sr  Sr12  1  0.722783  0.502740  0.369554  1
  Sr  Sr13  1  0.277217  0.002740  0.630446  1
  Sr  Sr14  1  0.777217  0.502740  0.869554  1
  Sr  Sr15  1  0.222783  0.002740  0.130446  1
  Cr  Cr16  1  0.196849  0.288295  0.230687  1
  Cr  Cr17  1  0.803151  0.788295  0.769313  1
  Cr  Cr18  1  0.303151  0.288295  0.730687  1
  Cr  Cr19  1  0.696849  0.788295  0.269313  1
  Cr  Cr20  1  0.276208  0.626248  0.475500  1
  Cr  Cr21  1  0.723792  0.126248  0.524500  1
  Cr  Cr22  1  0.223792  0.626248  0.975500  1
  Cr  Cr23  1  0.776208  0.126248  0.024500  1
  O  O24  1  0.053816  0.508339  0.486905  1
  O  O25  1  0.946184  0.008339  0.513095  1
  O  O26  1  0.446184  0.508339  0.986905  1
  O  O27  1  0.553816  0.008339  0.013095  1
  O  O28  1  0.529905  0.558314  0.528672  1
  O  O29  1  0.470095  0.058314  0.471328  1
  O  O30  1  0.970095  0.558314  0.028672  1
  O  O31  1  0.029905  0.058314  0.971328  1
  O  O32  1  0.945615  0.846529  0.202192  1
  O  O33  1  0.054385  0.346529  0.797808  1
  O  O34  1  0.554385  0.846529  0.702192  1
  O  O35  1  0.445615  0.346529  0.297808  1
  O  O36  1  0.283240  0.771469  0.045180  1
  O  O37  1  0.716760  0.271469  0.954820  1
  O  O38  1  0.216760  0.771469  0.545180  1
  O  O39  1  0.783240  0.271469  0.454820  1
  O  O40  1  0.633097  0.643268  0.198415  1
  O  O41  1  0.366903  0.143268  0.801585  1
  O  O42  1  0.866903  0.643268  0.698415  1
  O  O43  1  0.133097  0.143268  0.301585  1
  O  O44  1  0.358080  0.678466  0.360996  1
  O  O45  1  0.641920  0.178466  0.639004  1
  O  O46  1  0.141920  0.678466  0.860996  1
  O  O47  1  0.858080  0.178466  0.139004  1
  O  O48  1  0.340843  0.253184  0.123933  1
  O  O49  1  0.659157  0.753184  0.876067  1
  O  O50  1  0.159157  0.253184  0.623933  1
  O  O51  1  0.840843  0.753184  0.376067  1
  O  O52  1  0.999213  0.423323  0.243390  1
  O  O53  1  0.000787  0.923323  0.756610  1
  O  O54  1  0.500787  0.423323  0.743390  1
  O  O55  1  0.499213  0.923323  0.256610  1
