# generated using pymatgen
data_Na2B4O7
_symmetry_space_group_name_H-M   'P 1'
_cell_length_a   6.62122919
_cell_length_b   8.76689643
_cell_length_c   10.64452710
_cell_angle_alpha   93.28672564
_cell_angle_beta   94.40120091
_cell_angle_gamma   90.85162448
_symmetry_Int_Tables_number   1
_chemical_formula_structural   Na2B4O7
_chemical_formula_sum   'Na8 B16 O28'
_cell_volume   614.93898062
_cell_formula_units_Z   4
loop_
 _symmetry_equiv_pos_site_id
 _symmetry_equiv_pos_as_xyz
  1  'x, y, z'
loop_
 _atom_site_type_symbol
 _atom_site_label
 _atom_site_symmetry_multiplicity
 _atom_site_fract_x
 _atom_site_fract_y
 _atom_site_fract_z
 _atom_site_occupancy
  Na  Na0  1  0.562151  0.081180  0.143699  1
  Na  Na1  1  0.437849  0.918820  0.856301  1
  Na  Na2  1  0.521845  0.542035  0.771351  1
  Na  Na3  1  0.478155  0.457965  0.228649  1
  Na  Na4  1  0.826951  0.658775  0.980703  1
  Na  Na5  1  0.173049  0.341225  0.019297  1
  Na  Na6  1  0.890211  0.858852  0.388432  1
  Na  Na7  1  0.109789  0.141148  0.611568  1
  B  B8  1  0.654091  0.252830  0.590193  1
  B  B9  1  0.345909  0.747170  0.409807  1
  B  B10  1  0.606551  0.812832  0.577148  1
  B  B11  1  0.393449  0.187168  0.422852  1
  B  B12  1  0.950368  0.443389  0.276995  1
  B  B13  1  0.049632  0.556611  0.723005  1
  B  B14  1  0.838157  0.059518  0.860925  1
  B  B15  1  0.161843  0.940482  0.139075  1
  B  B16  1  0.877099  0.319577  0.798150  1
  B  B17  1  0.122901  0.680423  0.201850  1
  B  B18  1  0.752874  0.239640  0.369149  1
  B  B19  1  0.247126  0.760360  0.630851  1
  B  B20  1  0.926967  0.824159  0.727046  1
  B  B21  1  0.073033  0.175841  0.272954  1
  B  B22  1  0.666508  0.277056  0.971638  1
  B  B23  1  0.333492  0.722944  0.028362  1
  O  O24  1  0.864524  0.133625  0.291780  1
  O  O25  1  0.800793  0.228581  0.508232  1
  O  O26  1  0.214322  0.599662  0.661913  1
  O  O27  1  0.785678  0.400338  0.338087  1
  O  O28  1  0.468141  0.794803  0.663932  1
  O  O29  1  0.199207  0.771419  0.491768  1
  O  O30  1  0.310735  0.685178  0.289254  1
  O  O31  1  0.689265  0.314822  0.710746  1
  O  O32  1  0.042874  0.837994  0.193753  1
  O  O33  1  0.957126  0.162006  0.806247  1
  O  O34  1  0.191091  0.624758  0.076768  1
  O  O35  1  0.808909  0.375242  0.923232  1
  O  O36  1  0.044617  0.408393  0.759390  1
  O  O37  1  0.955383  0.591607  0.240610  1
  O  O38  1  0.450178  0.214729  0.552229  1
  O  O39  1  0.549822  0.785271  0.447771  1
  O  O40  1  0.309580  0.885744  0.060518  1
  O  O41  1  0.690420  0.114256  0.939482  1
  O  O42  1  0.478126  0.683434  0.955339  1
  O  O43  1  0.521874  0.316566  0.044661  1
  O  O44  1  0.900930  0.658251  0.753421  1
  O  O45  1  0.099070  0.341749  0.246579  1
  O  O46  1  0.802677  0.855960  0.608022  1
  O  O47  1  0.197323  0.144040  0.391978  1
  O  O48  1  0.847790  0.905474  0.839859  1
  O  O49  1  0.152210  0.094526  0.160141  1
  O  O50  1  0.531859  0.205197  0.336068  1
  O  O51  1  0.135476  0.866375  0.708220  1
