# generated using pymatgen
data_Sr(CuO)2
_symmetry_space_group_name_H-M   'P 1'
_cell_length_a   6.28748990
_cell_length_b   6.28748990
_cell_length_c   6.28748990
_cell_angle_alpha   127.89824532
_cell_angle_beta   127.89824532
_cell_angle_gamma   76.78992467
_symmetry_Int_Tables_number   1
_chemical_formula_structural   Sr(CuO)2
_chemical_formula_sum   'Sr2 Cu4 O4'
_cell_volume   150.29062529
_cell_formula_units_Z   2
loop_
 _symmetry_equiv_pos_site_id
 _symmetry_equiv_pos_as_xyz
  1  'x, y, z'
loop_
 _atom_site_type_symbol
 _atom_site_label
 _atom_site_symmetry_multiplicity
 _atom_site_fract_x
 _atom_site_fract_y
 _atom_site_fract_z
 _atom_site_occupancy
  Sr  Sr0  1  0.250000  0.750000  0.500000  1
  Sr  Sr1  1  0.500000  0.500000  0.000000  1
  Cu  Cu2  1  0.875000  0.625000  0.750000  1
  Cu  Cu3  1  0.875000  0.125000  0.750000  1
  Cu  Cu4  1  0.875000  0.125000  0.250000  1
  Cu  Cu5  1  0.375000  0.125000  0.250000  1
  O  O6  1  0.250586  0.250586  0.000000  1
  O  O7  1  0.000586  0.500586  0.500000  1
  O  O8  1  0.499414  0.999414  0.500000  1
  O  O9  1  0.749414  0.749414  0.000000  1
