# generated using pymatgen
data_Ca3In2(SiO4)3
_symmetry_space_group_name_H-M   'P 1'
_cell_length_a   10.80102418
_cell_length_b   10.80102418
_cell_length_c   10.80102418
_cell_angle_alpha   109.47122063
_cell_angle_beta   109.47122063
_cell_angle_gamma   109.47122063
_symmetry_Int_Tables_number   1
_chemical_formula_structural   Ca3In2(SiO4)3
_chemical_formula_sum   'Ca12 In8 Si12 O48'
_cell_volume   970.00265689
_cell_formula_units_Z   4
loop_
 _symmetry_equiv_pos_site_id
 _symmetry_equiv_pos_as_xyz
  1  'x, y, z'
loop_
 _atom_site_type_symbol
 _atom_site_label
 _atom_site_symmetry_multiplicity
 _atom_site_fract_x
 _atom_site_fract_y
 _atom_site_fract_z
 _atom_site_occupancy
  Ca  Ca0  1  0.875000  0.625000  0.250000  1
  Ca  Ca1  1  0.625000  0.875000  0.750000  1
  Ca  Ca2  1  0.875000  0.750000  0.625000  1
  Ca  Ca3  1  0.625000  0.250000  0.875000  1
  Ca  Ca4  1  0.750000  0.625000  0.875000  1
  Ca  Ca5  1  0.750000  0.125000  0.375000  1
  Ca  Ca6  1  0.125000  0.375000  0.750000  1
  Ca  Ca7  1  0.375000  0.125000  0.250000  1
  Ca  Ca8  1  0.125000  0.250000  0.375000  1
  Ca  Ca9  1  0.375000  0.750000  0.125000  1
  Ca  Ca10  1  0.250000  0.875000  0.625000  1
  Ca  Ca11  1  0.250000  0.375000  0.125000  1
  In  In12  1  0.500000  0.500000  0.500000  1
  In  In13  1  0.500000  0.500000  0.000000  1
  In  In14  1  0.500000  1.000000  0.500000  1
  In  In15  1  0.500000  0.000000  0.000000  1
  In  In16  1  0.000000  0.000000  0.500000  1
  In  In17  1  0.000000  0.500000  0.000000  1
  In  In18  1  0.000000  0.000000  0.000000  1
  In  In19  1  0.000000  0.500000  0.500000  1
  Si  Si20  1  0.250000  0.125000  0.875000  1
  Si  Si21  1  0.625000  0.750000  0.375000  1
  Si  Si22  1  0.250000  0.625000  0.375000  1
  Si  Si23  1  0.375000  0.625000  0.750000  1
  Si  Si24  1  0.750000  0.375000  0.625000  1
  Si  Si25  1  0.875000  0.125000  0.750000  1
  Si  Si26  1  0.125000  0.875000  0.250000  1
  Si  Si27  1  0.125000  0.750000  0.875000  1
  Si  Si28  1  0.625000  0.375000  0.250000  1
  Si  Si29  1  0.375000  0.250000  0.625000  1
  Si  Si30  1  0.750000  0.875000  0.125000  1
  Si  Si31  1  0.875000  0.250000  0.125000  1
  O  O32  1  0.714138  0.701595  0.092856  1
  O  O33  1  0.701595  0.108739  0.987457  1
  O  O34  1  0.621282  0.714138  0.512543  1
  O  O35  1  0.512543  0.621282  0.714138  1
  O  O36  1  0.092856  0.878718  0.391261  1
  O  O37  1  0.391261  0.092856  0.878718  1
  O  O38  1  0.108739  0.987457  0.701595  1
  O  O39  1  0.621282  0.407144  0.108739  1
  O  O40  1  0.512543  0.391261  0.798405  1
  O  O41  1  0.878718  0.987457  0.785862  1
  O  O42  1  0.407144  0.108739  0.621282  1
  O  O43  1  0.798405  0.512543  0.391261  1
  O  O44  1  0.987457  0.785862  0.878718  1
  O  O45  1  0.092856  0.714138  0.701595  1
  O  O46  1  0.701595  0.092856  0.714138  1
  O  O47  1  0.108739  0.621282  0.407144  1
  O  O48  1  0.798405  0.785862  0.407144  1
  O  O49  1  0.391261  0.798405  0.512543  1
  O  O50  1  0.407144  0.798405  0.785862  1
  O  O51  1  0.785862  0.878718  0.987457  1
  O  O52  1  0.785862  0.407144  0.798405  1
  O  O53  1  0.878718  0.391261  0.092856  1
  O  O54  1  0.987457  0.701595  0.108739  1
  O  O55  1  0.714138  0.512543  0.621282  1
  O  O56  1  0.285862  0.298405  0.907144  1
  O  O57  1  0.298405  0.891261  0.012543  1
  O  O58  1  0.378718  0.285862  0.487457  1
  O  O59  1  0.487457  0.378718  0.285862  1
  O  O60  1  0.907144  0.121282  0.608739  1
  O  O61  1  0.608739  0.907144  0.121282  1
  O  O62  1  0.891261  0.012543  0.298405  1
  O  O63  1  0.378718  0.592856  0.891261  1
  O  O64  1  0.487457  0.608739  0.201595  1
  O  O65  1  0.121282  0.012543  0.214138  1
  O  O66  1  0.592856  0.891261  0.378718  1
  O  O67  1  0.201595  0.487457  0.608739  1
  O  O68  1  0.012543  0.214138  0.121282  1
  O  O69  1  0.907144  0.285862  0.298405  1
  O  O70  1  0.298405  0.907144  0.285862  1
  O  O71  1  0.891261  0.378718  0.592856  1
  O  O72  1  0.201595  0.214138  0.592856  1
  O  O73  1  0.608739  0.201595  0.487457  1
  O  O74  1  0.592856  0.201595  0.214138  1
  O  O75  1  0.214138  0.121282  0.012543  1
  O  O76  1  0.214138  0.592856  0.201595  1
  O  O77  1  0.121282  0.608739  0.907144  1
  O  O78  1  0.012543  0.298405  0.891261  1
  O  O79  1  0.285862  0.487457  0.378718  1
