# generated using pymatgen
data_NaMn(SiO3)2
_symmetry_space_group_name_H-M   'P 1'
_cell_length_a   6.52022848
_cell_length_b   6.52022848
_cell_length_c   5.43564580
_cell_angle_alpha   78.68694701
_cell_angle_beta   101.31305299
_cell_angle_gamma   95.63831663
_symmetry_Int_Tables_number   1
_chemical_formula_structural   NaMn(SiO3)2
_chemical_formula_sum   'Na2 Mn2 Si4 O12'
_cell_volume   221.76519074
_cell_formula_units_Z   2
loop_
 _symmetry_equiv_pos_site_id
 _symmetry_equiv_pos_as_xyz
  1  'x, y, z'
loop_
 _atom_site_type_symbol
 _atom_site_label
 _atom_site_symmetry_multiplicity
 _atom_site_fract_x
 _atom_site_fract_y
 _atom_site_fract_z
 _atom_site_occupancy
  Na  Na0  1  0.296451  0.296451  0.250000  1
  Na  Na1  1  0.703549  0.703549  0.750000  1
  Mn  Mn2  1  0.904451  0.904451  0.250000  1
  Mn  Mn3  1  0.095549  0.095549  0.750000  1
  Si  Si4  1  0.793858  0.381426  0.253479  1
  Si  Si5  1  0.618574  0.206142  0.753479  1
  Si  Si6  1  0.381426  0.793858  0.246521  1
  Si  Si7  1  0.206142  0.618574  0.746521  1
  O  O8  1  0.651298  0.362084  0.479474  1
  O  O9  1  0.362084  0.651298  0.020526  1
  O  O10  1  0.348702  0.637916  0.520526  1
  O  O11  1  0.637916  0.348702  0.979474  1
  O  O12  1  0.896845  0.618286  0.196454  1
  O  O13  1  0.618286  0.896845  0.303546  1
  O  O14  1  0.103155  0.381714  0.803546  1
  O  O15  1  0.381714  0.103155  0.696454  1
  O  O16  1  0.805955  0.041933  0.838651  1
  O  O17  1  0.041933  0.805955  0.661349  1
  O  O18  1  0.194045  0.958067  0.161349  1
  O  O19  1  0.958067  0.194045  0.338651  1
