# generated using pymatgen
data_Ca2MnO4
_symmetry_space_group_name_H-M   'P 1'
_cell_length_a   12.79494145
_cell_length_b   12.79494145
_cell_length_c   12.79494145
_cell_angle_alpha   156.32727513
_cell_angle_beta   156.32727513
_cell_angle_gamma   33.72544169
_symmetry_Int_Tables_number   1
_chemical_formula_structural   Ca2MnO4
_chemical_formula_sum   'Ca8 Mn4 O16'
_cell_volume   337.35901910
_cell_formula_units_Z   4
loop_
 _symmetry_equiv_pos_site_id
 _symmetry_equiv_pos_as_xyz
  1  'x, y, z'
loop_
 _atom_site_type_symbol
 _atom_site_label
 _atom_site_symmetry_multiplicity
 _atom_site_fract_x
 _atom_site_fract_y
 _atom_site_fract_z
 _atom_site_occupancy
  Ca  Ca0  1  0.425128  0.925128  0.500000  1
  Ca  Ca1  1  0.675128  0.675128  0.000000  1
  Ca  Ca2  1  0.824872  0.824872  0.000000  1
  Ca  Ca3  1  0.574872  0.074872  0.500000  1
  Ca  Ca4  1  0.175128  0.175128  0.000000  1
  Ca  Ca5  1  0.925128  0.425128  0.500000  1
  Ca  Ca6  1  0.074872  0.574872  0.500000  1
  Ca  Ca7  1  0.324872  0.324872  0.000000  1
  Mn  Mn8  1  0.250000  0.750000  0.500000  1
  Mn  Mn9  1  0.500000  0.500000  0.000000  1
  Mn  Mn10  1  0.000000  0.000000  0.000000  1
  Mn  Mn11  1  0.750000  0.250000  0.500000  1
  O  O12  1  0.945341  0.554659  1.000000  1
  O  O13  1  0.304659  0.804659  0.109318  1
  O  O14  1  0.695341  0.195341  0.890682  1
  O  O15  1  0.554659  0.945341  0.000000  1
  O  O16  1  0.804659  0.695341  0.500000  1
  O  O17  1  0.445341  0.445341  0.390682  1
  O  O18  1  0.054659  0.054659  0.609318  1
  O  O19  1  0.195341  0.304659  0.500000  1
  O  O20  1  0.080586  0.080586  0.000000  1
  O  O21  1  0.830586  0.330586  0.500000  1
  O  O22  1  0.169414  0.669414  0.500000  1
  O  O23  1  0.419414  0.419414  0.000000  1
  O  O24  1  0.330586  0.830586  0.500000  1
  O  O25  1  0.580586  0.580586  0.000000  1
  O  O26  1  0.919414  0.919414  0.000000  1
  O  O27  1  0.669414  0.169414  0.500000  1
