# generated using pymatgen
data_Ho2Si2O7
_symmetry_space_group_name_H-M   'P 1'
_cell_length_a   6.63854772
_cell_length_b   6.67128976
_cell_length_c   12.11895767
_cell_angle_alpha   94.28309686
_cell_angle_beta   91.48553324
_cell_angle_gamma   92.11317184
_symmetry_Int_Tables_number   1
_chemical_formula_structural   Ho2Si2O7
_chemical_formula_sum   'Ho8 Si8 O28'
_cell_volume   534.63600755
_cell_formula_units_Z   4
loop_
 _symmetry_equiv_pos_site_id
 _symmetry_equiv_pos_as_xyz
  1  'x, y, z'
loop_
 _atom_site_type_symbol
 _atom_site_label
 _atom_site_symmetry_multiplicity
 _atom_site_fract_x
 _atom_site_fract_y
 _atom_site_fract_z
 _atom_site_occupancy
  Ho  Ho0  1  0.674415  0.173278  0.890081  1
  Ho  Ho1  1  0.325585  0.826722  0.109919  1
  Ho  Ho2  1  0.367434  0.215250  0.634468  1
  Ho  Ho3  1  0.632566  0.784750  0.365532  1
  Ho  Ho4  1  0.881868  0.910280  0.644347  1
  Ho  Ho5  1  0.118132  0.089720  0.355653  1
  Ho  Ho6  1  0.950082  0.672454  0.885428  1
  Ho  Ho7  1  0.049918  0.327546  0.114572  1
  Si  Si8  1  0.144463  0.625202  0.377582  1
  Si  Si9  1  0.855537  0.374798  0.622418  1
  Si  Si10  1  0.377267  0.724024  0.593747  1
  Si  Si11  1  0.622733  0.275976  0.406253  1
  Si  Si12  1  0.487280  0.665260  0.824701  1
  Si  Si13  1  0.512720  0.334740  0.175299  1
  Si  Si14  1  0.155504  0.148074  0.885429  1
  Si  Si15  1  0.844496  0.851926  0.114571  1
  O  O16  1  0.000829  0.984799  0.814912  1
  O  O17  1  0.999171  0.015201  0.185088  1
  O  O18  1  0.000195  0.333275  0.918447  1
  O  O19  1  0.999805  0.666725  0.081553  1
  O  O20  1  0.349761  0.209293  0.815243  1
  O  O21  1  0.650239  0.790707  0.184757  1
  O  O22  1  0.230010  0.083381  0.006043  1
  O  O23  1  0.769990  0.916619  0.993957  1
  O  O24  1  0.075931  0.414146  0.309071  1
  O  O25  1  0.924069  0.585854  0.690929  1
  O  O26  1  0.961955  0.772020  0.417608  1
  O  O27  1  0.038045  0.227980  0.582392  1
  O  O28  1  0.290395  0.782398  0.311607  1
  O  O29  1  0.709605  0.217602  0.688393  1
  O  O30  1  0.282550  0.573533  0.488489  1
  O  O31  1  0.717450  0.426467  0.511511  1
  O  O32  1  0.353862  0.488325  0.125717  1
  O  O33  1  0.646138  0.511675  0.874283  1
  O  O34  1  0.383835  0.136312  0.212280  1
  O  O35  1  0.616165  0.863688  0.787720  1
  O  O36  1  0.700841  0.294701  0.094445  1
  O  O37  1  0.299159  0.705299  0.905555  1
  O  O38  1  0.599491  0.434208  0.306192  1
  O  O39  1  0.400509  0.565792  0.693808  1
  O  O40  1  0.412845  0.174600  0.448240  1
  O  O41  1  0.587155  0.825400  0.551760  1
  O  O42  1  0.773938  0.096990  0.377193  1
  O  O43  1  0.226062  0.903010  0.622807  1
