# generated using pymatgen
data_NaCoO2
_symmetry_space_group_name_H-M   'P 1'
_cell_length_a   5.51386355
_cell_length_b   5.51386355
_cell_length_c   5.51386355
_cell_angle_alpha   30.70722290
_cell_angle_beta   30.70722290
_cell_angle_gamma   30.70722290
_symmetry_Int_Tables_number   1
_chemical_formula_structural   NaCoO2
_chemical_formula_sum   'Na1 Co1 O2'
_cell_volume   38.76181543
_cell_formula_units_Z   1
loop_
 _symmetry_equiv_pos_site_id
 _symmetry_equiv_pos_as_xyz
  1  'x, y, z'
loop_
 _atom_site_type_symbol
 _atom_site_label
 _atom_site_symmetry_multiplicity
 _atom_site_fract_x
 _atom_site_fract_y
 _atom_site_fract_z
 _atom_site_occupancy
  Na  Na0  1  0.000000  0.000000  0.000000  1
  Co  Co1  1  0.500000  0.500000  0.500000  1
  O  O2  1  0.770079  0.770079  0.770079  1
  O  O3  1  0.229921  0.229921  0.229921  1
