# generated using pymatgen
data_Ga7Te10
_symmetry_space_group_name_H-M   'P 1'
_cell_length_a   10.44823711
_cell_length_b   10.44823711
_cell_length_c   10.44823711
_cell_angle_alpha   89.70749421
_cell_angle_beta   89.70749421
_cell_angle_gamma   89.70749421
_symmetry_Int_Tables_number   1
_chemical_formula_structural   Ga7Te10
_chemical_formula_sum   'Ga14 Te20'
_cell_volume   1140.54424831
_cell_formula_units_Z   2
loop_
 _symmetry_equiv_pos_site_id
 _symmetry_equiv_pos_as_xyz
  1  'x, y, z'
loop_
 _atom_site_type_symbol
 _atom_site_label
 _atom_site_symmetry_multiplicity
 _atom_site_fract_x
 _atom_site_fract_y
 _atom_site_fract_z
 _atom_site_occupancy
  Ga  Ga0  1  0.430504  0.430504  0.430504  1
  Ga  Ga1  1  0.569496  0.569496  0.569496  1
  Ga  Ga2  1  0.833540  0.658169  0.256244  1
  Ga  Ga3  1  0.256244  0.833540  0.658169  1
  Ga  Ga4  1  0.658169  0.256244  0.833540  1
  Ga  Ga5  1  0.341831  0.166460  0.743756  1
  Ga  Ga6  1  0.743756  0.341831  0.166460  1
  Ga  Ga7  1  0.166460  0.743756  0.341831  1
  Ga  Ga8  1  0.113593  0.421625  0.153129  1
  Ga  Ga9  1  0.153129  0.113593  0.421625  1
  Ga  Ga10  1  0.421625  0.153129  0.113593  1
  Ga  Ga11  1  0.578375  0.886407  0.846871  1
  Ga  Ga12  1  0.846871  0.578375  0.886407  1
  Ga  Ga13  1  0.886407  0.846871  0.578375  1
  Te  Te14  1  0.167178  0.167178  0.167178  1
  Te  Te15  1  0.832822  0.832822  0.832822  1
  Te  Te16  1  0.176303  0.000000  0.823697  1
  Te  Te17  1  0.823697  0.176303  0.000000  1
  Te  Te18  1  1.000000  0.823697  0.176303  1
  Te  Te19  1  0.083531  0.500000  0.916469  1
  Te  Te20  1  0.916469  0.083531  0.500000  1
  Te  Te21  1  0.500000  0.916469  0.083531  1
  Te  Te22  1  0.314711  0.560827  0.237411  1
  Te  Te23  1  0.237411  0.314711  0.560827  1
  Te  Te24  1  0.560827  0.237411  0.314711  1
  Te  Te25  1  0.439173  0.685289  0.762589  1
  Te  Te26  1  0.762589  0.439173  0.685289  1
  Te  Te27  1  0.685289  0.762589  0.439173  1
  Te  Te28  1  0.925336  0.426309  0.329383  1
  Te  Te29  1  0.329383  0.925336  0.426309  1
  Te  Te30  1  0.426309  0.329383  0.925336  1
  Te  Te31  1  0.573691  0.074664  0.670617  1
  Te  Te32  1  0.670617  0.573691  0.074664  1
  Te  Te33  1  0.074664  0.670617  0.573691  1
