# generated using pymatgen
data_GeS
_symmetry_space_group_name_H-M   'P 1'
_cell_length_a   5.92320341
_cell_length_b   5.92320341
_cell_length_c   3.88904992
_cell_angle_alpha   90.00000000
_cell_angle_beta   90.00000000
_cell_angle_gamma   141.67814453
_symmetry_Int_Tables_number   1
_chemical_formula_structural   GeS
_chemical_formula_sum   'Ge2 S2'
_cell_volume   84.60643043
_cell_formula_units_Z   2
loop_
 _symmetry_equiv_pos_site_id
 _symmetry_equiv_pos_as_xyz
  1  'x, y, z'
loop_
 _atom_site_type_symbol
 _atom_site_label
 _atom_site_symmetry_multiplicity
 _atom_site_fract_x
 _atom_site_fract_y
 _atom_site_fract_z
 _atom_site_occupancy
  Ge  Ge0  1  0.860407  0.139593  0.250000  1
  Ge  Ge1  1  0.139593  0.860407  0.750000  1
  S  S2  1  0.647528  0.352472  0.250000  1
  S  S3  1  0.352472  0.647528  0.750000  1
