# generated using pymatgen
data_K2NdP2S7
_symmetry_space_group_name_H-M   'P 1'
_cell_length_a   9.22699815
_cell_length_b   6.94957187
_cell_length_c   21.42024359
_cell_angle_alpha   90.00000000
_cell_angle_beta   109.72270676
_cell_angle_gamma   90.00000000
_symmetry_Int_Tables_number   1
_chemical_formula_structural   K2NdP2S7
_chemical_formula_sum   'K8 Nd4 P8 S28'
_cell_volume   1292.96855236
_cell_formula_units_Z   4
loop_
 _symmetry_equiv_pos_site_id
 _symmetry_equiv_pos_as_xyz
  1  'x, y, z'
loop_
 _atom_site_type_symbol
 _atom_site_label
 _atom_site_symmetry_multiplicity
 _atom_site_fract_x
 _atom_site_fract_y
 _atom_site_fract_z
 _atom_site_occupancy
  K  K0  1  0.747330  0.487138  0.990341  1
  K  K1  1  0.252670  0.987138  0.509659  1
  K  K2  1  0.252670  0.512862  0.009659  1
  K  K3  1  0.747330  0.012862  0.490341  1
  K  K4  1  0.337823  0.042501  0.183527  1
  K  K5  1  0.662177  0.542501  0.316473  1
  K  K6  1  0.662177  0.957499  0.816473  1
  K  K7  1  0.337823  0.457499  0.683527  1
  Nd  Nd8  1  0.158614  0.467080  0.348867  1
  Nd  Nd9  1  0.841386  0.967080  0.151133  1
  Nd  Nd10  1  0.841386  0.532920  0.651133  1
  Nd  Nd11  1  0.158614  0.032920  0.848867  1
  P  P12  1  0.537013  0.989265  0.955792  1
  P  P13  1  0.462987  0.010735  0.044208  1
  P  P14  1  0.537013  0.510735  0.455792  1
  P  P15  1  0.462987  0.489265  0.544208  1
  P  P16  1  0.930931  0.487449  0.828842  1
  P  P17  1  0.069069  0.987449  0.671158  1
  P  P18  1  0.069069  0.512551  0.171158  1
  P  P19  1  0.930931  0.012551  0.328842  1
  S  S20  1  0.232038  0.036542  0.005988  1
  S  S21  1  0.767962  0.536542  0.494012  1
  S  S22  1  0.767962  0.963458  0.994012  1
  S  S23  1  0.232038  0.463458  0.505988  1
  S  S24  1  0.576739  0.259105  0.597109  1
  S  S25  1  0.423261  0.759105  0.902891  1
  S  S26  1  0.423261  0.740895  0.402891  1
  S  S27  1  0.576739  0.240895  0.097109  1
  S  S28  1  0.455658  0.232567  0.901599  1
  S  S29  1  0.455658  0.267433  0.401599  1
  S  S30  1  0.544342  0.732567  0.598401  1
  S  S31  1  0.544342  0.767433  0.098401  1
  S  S32  1  0.008801  0.276062  0.110639  1
  S  S33  1  0.991199  0.776062  0.389361  1
  S  S34  1  0.991199  0.723938  0.889361  1
  S  S35  1  0.008801  0.223938  0.610639  1
  S  S36  1  0.936195  0.241701  0.389600  1
  S  S37  1  0.063805  0.741701  0.110400  1
  S  S38  1  0.063805  0.758299  0.610400  1
  S  S39  1  0.936195  0.258299  0.889600  1
  S  S40  1  0.282547  0.025468  0.741428  1
  S  S41  1  0.717453  0.525468  0.758572  1
  S  S42  1  0.717453  0.974532  0.258572  1
  S  S43  1  0.282547  0.474532  0.241428  1
  S  S44  1  0.081910  0.079008  0.279279  1
  S  S45  1  0.918090  0.579008  0.220721  1
  S  S46  1  0.918090  0.920992  0.720721  1
  S  S47  1  0.081910  0.420992  0.779279  1
