# generated using pymatgen
data_NaVPO5
_symmetry_space_group_name_H-M   'P 1'
_cell_length_a   6.63100199
_cell_length_b   8.57939714
_cell_length_c   7.11201639
_cell_angle_alpha   90.00000000
_cell_angle_beta   114.88492564
_cell_angle_gamma   90.00000000
_symmetry_Int_Tables_number   1
_chemical_formula_structural   NaVPO5
_chemical_formula_sum   'Na4 V4 P4 O20'
_cell_volume   367.03718111
_cell_formula_units_Z   4
loop_
 _symmetry_equiv_pos_site_id
 _symmetry_equiv_pos_as_xyz
  1  'x, y, z'
loop_
 _atom_site_type_symbol
 _atom_site_label
 _atom_site_symmetry_multiplicity
 _atom_site_fract_x
 _atom_site_fract_y
 _atom_site_fract_z
 _atom_site_occupancy
  Na  Na0  1  0.253013  0.085989  0.782201  1
  Na  Na1  1  0.746987  0.585989  0.717799  1
  Na  Na2  1  0.746987  0.914011  0.217799  1
  Na  Na3  1  0.253013  0.414011  0.282201  1
  V  V4  1  0.246470  0.759532  0.519025  1
  V  V5  1  0.753530  0.259532  0.980975  1
  V  V6  1  0.753530  0.240468  0.480975  1
  V  V7  1  0.246470  0.740468  0.019025  1
  P  P8  1  0.750002  0.933958  0.749121  1
  P  P9  1  0.249998  0.433958  0.750879  1
  P  P10  1  0.249998  0.066042  0.250879  1
  P  P11  1  0.750002  0.566042  0.249121  1
  O  O12  1  0.251466  0.817414  0.753107  1
  O  O13  1  0.748534  0.317414  0.746893  1
  O  O14  1  0.748534  0.182586  0.246893  1
  O  O15  1  0.251466  0.682586  0.253107  1
  O  O16  1  0.073360  0.320445  0.601327  1
  O  O17  1  0.926640  0.820445  0.898673  1
  O  O18  1  0.926640  0.679555  0.398673  1
  O  O19  1  0.073360  0.179555  0.101327  1
  O  O20  1  0.144138  0.537240  0.866112  1
  O  O21  1  0.855862  0.037240  0.633888  1
  O  O22  1  0.855862  0.462760  0.133888  1
  O  O23  1  0.144138  0.962760  0.366112  1
  O  O24  1  0.563739  0.828774  0.594115  1
  O  O25  1  0.436261  0.328774  0.905885  1
  O  O26  1  0.436261  0.171226  0.405885  1
  O  O27  1  0.563739  0.671226  0.094115  1
  O  O28  1  0.345806  0.539012  0.627875  1
  O  O29  1  0.654194  0.039012  0.872125  1
  O  O30  1  0.654194  0.460988  0.372125  1
  O  O31  1  0.345806  0.960988  0.127875  1
