# generated using pymatgen
data_KLu(WO4)2
_symmetry_space_group_name_H-M   'P 1'
_cell_length_a   7.60414702
_cell_length_b   7.60414702
_cell_length_c   7.41870975
_cell_angle_alpha   61.77139462
_cell_angle_beta   118.22860538
_cell_angle_gamma   92.83651986
_symmetry_Int_Tables_number   1
_chemical_formula_structural   KLu(WO4)2
_chemical_formula_sum   'K2 Lu2 W4 O16'
_cell_volume   324.50649184
_cell_formula_units_Z   2
loop_
 _symmetry_equiv_pos_site_id
 _symmetry_equiv_pos_as_xyz
  1  'x, y, z'
loop_
 _atom_site_type_symbol
 _atom_site_label
 _atom_site_symmetry_multiplicity
 _atom_site_fract_x
 _atom_site_fract_y
 _atom_site_fract_z
 _atom_site_occupancy
  K  K0  1  0.790166  0.790166  0.750000  1
  K  K1  1  0.209834  0.209834  0.250000  1
  Lu  Lu2  1  0.223220  0.223220  0.750000  1
  Lu  Lu3  1  0.776780  0.776780  0.250000  1
  W  W4  1  0.692976  0.298863  0.710415  1
  W  W5  1  0.298863  0.692976  0.789585  1
  W  W6  1  0.307024  0.701137  0.289585  1
  W  W7  1  0.701137  0.307024  0.210415  1
  O  O8  1  0.963466  0.239543  0.802935  1
  O  O9  1  0.239543  0.963467  0.697065  1
  O  O10  1  0.036533  0.760457  0.197065  1
  O  O11  1  0.760457  0.036534  0.302935  1
  O  O12  1  0.754469  0.377369  0.941795  1
  O  O13  1  0.377369  0.754469  0.558205  1
  O  O14  1  0.245531  0.622631  0.058205  1
  O  O15  1  0.622631  0.245531  0.441795  1
  O  O16  1  0.400122  0.374177  0.957737  1
  O  O17  1  0.374177  0.400122  0.542263  1
  O  O18  1  0.599878  0.625823  0.042263  1
  O  O19  1  0.625823  0.599878  0.457737  1
  O  O20  1  0.951324  0.348652  0.386500  1
  O  O21  1  0.348652  0.951324  0.113500  1
  O  O22  1  0.048676  0.651348  0.613500  1
  O  O23  1  0.651348  0.048676  0.886500  1
