# generated using pymatgen
data_Sr2LiReN4
_symmetry_space_group_name_H-M   'P 1'
_cell_length_a   6.20549267
_cell_length_b   5.91009076
_cell_length_c   6.94102097
_cell_angle_alpha   90.00000000
_cell_angle_beta   106.35662985
_cell_angle_gamma   90.00000000
_symmetry_Int_Tables_number   1
_chemical_formula_structural   Sr2LiReN4
_chemical_formula_sum   'Sr4 Li2 Re2 N8'
_cell_volume   244.25933098
_cell_formula_units_Z   2
loop_
 _symmetry_equiv_pos_site_id
 _symmetry_equiv_pos_as_xyz
  1  'x, y, z'
loop_
 _atom_site_type_symbol
 _atom_site_label
 _atom_site_symmetry_multiplicity
 _atom_site_fract_x
 _atom_site_fract_y
 _atom_site_fract_z
 _atom_site_occupancy
  Sr  Sr0  1  0.261790  0.250000  0.944338  1
  Sr  Sr1  1  0.738210  0.750000  0.055662  1
  Sr  Sr2  1  0.780481  0.750000  0.568563  1
  Sr  Sr3  1  0.219519  0.250000  0.431437  1
  Li  Li4  1  0.306502  0.750000  0.690688  1
  Li  Li5  1  0.693498  0.250000  0.309312  1
  Re  Re6  1  0.718062  0.250000  0.798231  1
  Re  Re7  1  0.281938  0.750000  0.201769  1
  N  N8  1  0.469754  0.504790  0.251627  1
  N  N9  1  0.530246  0.004790  0.748373  1
  N  N10  1  0.530246  0.495210  0.748373  1
  N  N11  1  0.469754  0.995210  0.251627  1
  N  N12  1  0.097617  0.750000  0.371681  1
  N  N13  1  0.902383  0.250000  0.628319  1
  N  N14  1  0.117101  0.750000  0.936313  1
  N  N15  1  0.882899  0.250000  0.063687  1
