# generated using pymatgen
data_NdSbO4
_symmetry_space_group_name_H-M   'P 1'
_cell_length_a   7.74260516
_cell_length_b   5.55912301
_cell_length_c   7.77257799
_cell_angle_alpha   90.00000000
_cell_angle_beta   100.16125684
_cell_angle_gamma   90.00000000
_symmetry_Int_Tables_number   1
_chemical_formula_structural   NdSbO4
_chemical_formula_sum   'Nd4 Sb4 O16'
_cell_volume   329.30069323
_cell_formula_units_Z   4
loop_
 _symmetry_equiv_pos_site_id
 _symmetry_equiv_pos_as_xyz
  1  'x, y, z'
loop_
 _atom_site_type_symbol
 _atom_site_label
 _atom_site_symmetry_multiplicity
 _atom_site_fract_x
 _atom_site_fract_y
 _atom_site_fract_z
 _atom_site_occupancy
  Nd  Nd0  1  0.102589  0.274558  0.850904  1
  Nd  Nd1  1  0.397411  0.774558  0.149096  1
  Nd  Nd2  1  0.897411  0.725442  0.149096  1
  Nd  Nd3  1  0.602589  0.225442  0.850904  1
  Sb  Sb4  1  0.302501  0.767745  0.663256  1
  Sb  Sb5  1  0.197499  0.267745  0.336744  1
  Sb  Sb6  1  0.697499  0.232255  0.336744  1
  Sb  Sb7  1  0.802501  0.732255  0.663256  1
  O  O8  1  0.326473  0.976463  0.880246  1
  O  O9  1  0.173527  0.476463  0.119754  1
  O  O10  1  0.673527  0.023537  0.119754  1
  O  O11  1  0.826473  0.523537  0.880246  1
  O  O12  1  0.056344  0.636411  0.669402  1
  O  O13  1  0.443656  0.136411  0.330598  1
  O  O14  1  0.943656  0.363589  0.330598  1
  O  O15  1  0.556344  0.863589  0.669402  1
  O  O16  1  0.871658  0.999598  0.826494  1
  O  O17  1  0.628342  0.499598  0.173506  1
  O  O18  1  0.128342  0.000402  0.173506  1
  O  O19  1  0.371658  0.500402  0.826494  1
  O  O20  1  0.798848  0.909894  0.437776  1
  O  O21  1  0.701152  0.409894  0.562224  1
  O  O22  1  0.201152  0.090106  0.562224  1
  O  O23  1  0.298848  0.590106  0.437776  1
