# generated using pymatgen
data_Zn3(AsO4)2
_symmetry_space_group_name_H-M   'P 1'
_cell_length_a   6.72441456
_cell_length_b   9.01480989
_cell_length_c   11.14281009
_cell_angle_alpha   90.00000000
_cell_angle_beta   93.67390725
_cell_angle_gamma   90.00000000
_symmetry_Int_Tables_number   1
_chemical_formula_structural   Zn3(AsO4)2
_chemical_formula_sum   'Zn12 As8 O32'
_cell_volume   674.08140312
_cell_formula_units_Z   4
loop_
 _symmetry_equiv_pos_site_id
 _symmetry_equiv_pos_as_xyz
  1  'x, y, z'
loop_
 _atom_site_type_symbol
 _atom_site_label
 _atom_site_symmetry_multiplicity
 _atom_site_fract_x
 _atom_site_fract_y
 _atom_site_fract_z
 _atom_site_occupancy
  Zn  Zn0  1  0.752861  0.855993  0.365437  1
  Zn  Zn1  1  0.247139  0.355993  0.134563  1
  Zn  Zn2  1  0.247139  0.144007  0.634563  1
  Zn  Zn3  1  0.752861  0.644007  0.865437  1
  Zn  Zn4  1  0.381528  0.978859  0.116129  1
  Zn  Zn5  1  0.618472  0.478859  0.383871  1
  Zn  Zn6  1  0.618472  0.021141  0.883871  1
  Zn  Zn7  1  0.381528  0.521141  0.616129  1
  Zn  Zn8  1  0.080494  0.716643  0.078419  1
  Zn  Zn9  1  0.919506  0.216643  0.421581  1
  Zn  Zn10  1  0.919506  0.283357  0.921581  1
  Zn  Zn11  1  0.080494  0.783357  0.578419  1
  As  As12  1  0.582629  0.868719  0.635960  1
  As  As13  1  0.417371  0.368719  0.864040  1
  As  As14  1  0.417371  0.131281  0.364040  1
  As  As15  1  0.582629  0.631281  0.135960  1
  As  As16  1  0.106326  0.938739  0.852858  1
  As  As17  1  0.893674  0.438739  0.647142  1
  As  As18  1  0.893674  0.061261  0.147142  1
  As  As19  1  0.106326  0.561261  0.352858  1
  O  O20  1  0.126593  0.547845  0.198287  1
  O  O21  1  0.873407  0.047845  0.301713  1
  O  O22  1  0.873407  0.452155  0.801713  1
  O  O23  1  0.126593  0.952155  0.698287  1
  O  O24  1  0.522961  0.448516  0.143440  1
  O  O25  1  0.477039  0.948516  0.356560  1
  O  O26  1  0.477039  0.551484  0.856560  1
  O  O27  1  0.522961  0.051484  0.643440  1
  O  O28  1  0.326111  0.497332  0.423410  1
  O  O29  1  0.673889  0.997332  0.076590  1
  O  O30  1  0.673889  0.502668  0.576590  1
  O  O31  1  0.326111  0.002668  0.923410  1
  O  O32  1  0.664042  0.668595  0.284807  1
  O  O33  1  0.335958  0.168595  0.215193  1
  O  O34  1  0.335958  0.331405  0.715193  1
  O  O35  1  0.664042  0.831405  0.784807  1
  O  O36  1  0.921589  0.434424  0.380646  1
  O  O37  1  0.078411  0.934424  0.119354  1
  O  O38  1  0.078411  0.565576  0.619354  1
  O  O39  1  0.921589  0.065576  0.880646  1
  O  O40  1  0.391492  0.748594  0.592919  1
  O  O41  1  0.608508  0.248594  0.907081  1
  O  O42  1  0.608508  0.251406  0.407081  1
  O  O43  1  0.391492  0.751406  0.092919  1
  O  O44  1  0.050517  0.760000  0.893423  1
  O  O45  1  0.949483  0.260000  0.606577  1
  O  O46  1  0.949483  0.240000  0.106577  1
  O  O47  1  0.050517  0.740000  0.393423  1
  O  O48  1  0.782134  0.841774  0.546530  1
  O  O49  1  0.217866  0.341774  0.953470  1
  O  O50  1  0.217866  0.158226  0.453470  1
  O  O51  1  0.782134  0.658226  0.046530  1
