# generated using pymatgen
data_Na2GeTeO6
_symmetry_space_group_name_H-M   'P 1'
_cell_length_a   5.18405356
_cell_length_b   5.18405356
_cell_length_c   10.82240993
_cell_angle_alpha   90.00000000
_cell_angle_beta   90.00000000
_cell_angle_gamma   120.00000000
_symmetry_Int_Tables_number   1
_chemical_formula_structural   Na2GeTeO6
_chemical_formula_sum   'Na4 Ge2 Te2 O12'
_cell_volume   251.87993450
_cell_formula_units_Z   2
loop_
 _symmetry_equiv_pos_site_id
 _symmetry_equiv_pos_as_xyz
  1  'x, y, z'
loop_
 _atom_site_type_symbol
 _atom_site_label
 _atom_site_symmetry_multiplicity
 _atom_site_fract_x
 _atom_site_fract_y
 _atom_site_fract_z
 _atom_site_occupancy
  Na  Na0  1  0.666667  0.333333  0.959600  1
  Na  Na1  1  0.666667  0.333333  0.540400  1
  Na  Na2  1  0.333333  0.666667  0.459600  1
  Na  Na3  1  0.333333  0.666667  0.040400  1
  Ge  Ge4  1  0.333333  0.666667  0.750000  1
  Ge  Ge5  1  0.666667  0.333333  0.250000  1
  Te  Te6  1  0.000000  0.000000  0.250000  1
  Te  Te7  1  0.000000  0.000000  0.750000  1
  O  O8  1  0.944736  0.661227  0.147976  1
  O  O9  1  0.338773  0.283510  0.147976  1
  O  O10  1  0.716490  0.055264  0.147976  1
  O  O11  1  0.338773  0.055264  0.352024  1
  O  O12  1  0.716490  0.661227  0.352024  1
  O  O13  1  0.944736  0.283510  0.352024  1
  O  O14  1  0.055264  0.338773  0.852024  1
  O  O15  1  0.661227  0.716490  0.852024  1
  O  O16  1  0.055264  0.716490  0.647976  1
  O  O17  1  0.283510  0.338773  0.647976  1
  O  O18  1  0.661227  0.944736  0.647976  1
  O  O19  1  0.283510  0.944736  0.852024  1
