# generated using pymatgen
data_Nd3GaO6
_symmetry_space_group_name_H-M   'P 1'
_cell_length_a   7.44100002
_cell_length_b   7.44100002
_cell_length_c   5.63602960
_cell_angle_alpha   90.00000000
_cell_angle_beta   90.00000000
_cell_angle_gamma   102.84611237
_symmetry_Int_Tables_number   1
_chemical_formula_structural   Nd3GaO6
_chemical_formula_sum   'Nd6 Ga2 O12'
_cell_volume   304.24780648
_cell_formula_units_Z   2
loop_
 _symmetry_equiv_pos_site_id
 _symmetry_equiv_pos_as_xyz
  1  'x, y, z'
loop_
 _atom_site_type_symbol
 _atom_site_label
 _atom_site_symmetry_multiplicity
 _atom_site_fract_x
 _atom_site_fract_y
 _atom_site_fract_z
 _atom_site_occupancy
  Nd  Nd0  1  0.396516  0.603484  0.924474  1
  Nd  Nd1  1  0.603484  0.396516  0.424474  1
  Nd  Nd2  1  0.299623  0.087146  0.968501  1
  Nd  Nd3  1  0.700377  0.912854  0.468501  1
  Nd  Nd4  1  0.912854  0.700377  0.968501  1
  Nd  Nd5  1  0.087146  0.299623  0.468501  1
  Ga  Ga6  1  0.191944  0.808056  0.502586  1
  Ga  Ga7  1  0.808056  0.191944  0.002586  1
  O  O8  1  0.214664  0.785336  0.175011  1
  O  O9  1  0.785336  0.214664  0.675011  1
  O  O10  1  0.041918  0.958082  0.634359  1
  O  O11  1  0.958082  0.041918  0.134359  1
  O  O12  1  0.353814  0.327515  0.698562  1
  O  O13  1  0.646186  0.672485  0.198562  1
  O  O14  1  0.672485  0.646186  0.698562  1
  O  O15  1  0.327515  0.353814  0.198562  1
  O  O16  1  0.893327  0.415299  0.170642  1
  O  O17  1  0.106673  0.584701  0.670642  1
  O  O18  1  0.584701  0.106673  0.170642  1
  O  O19  1  0.415299  0.893327  0.670642  1
