# generated using pymatgen
data_Ba2SrWO6
_symmetry_space_group_name_H-M   'P 1'
_cell_length_a   6.11553200
_cell_length_b   6.11553200
_cell_length_c   6.21433286
_cell_angle_alpha   60.30952654
_cell_angle_beta   119.69047346
_cell_angle_gamma   119.90539426
_symmetry_Int_Tables_number   1
_chemical_formula_structural   Ba2SrWO6
_chemical_formula_sum   'Ba2 Sr1 W1 O6'
_cell_volume   165.22528336
_cell_formula_units_Z   1
loop_
 _symmetry_equiv_pos_site_id
 _symmetry_equiv_pos_as_xyz
  1  'x, y, z'
loop_
 _atom_site_type_symbol
 _atom_site_label
 _atom_site_symmetry_multiplicity
 _atom_site_fract_x
 _atom_site_fract_y
 _atom_site_fract_z
 _atom_site_occupancy
  Ba  Ba0  1  0.752635  0.247365  0.760925  1
  Ba  Ba1  1  0.247365  0.752635  0.239075  1
  Sr  Sr2  1  0.000000  0.000000  0.500000  1
  W  W3  1  0.500000  0.500000  0.000000  1
  O  O4  1  0.315321  0.232429  0.823167  1
  O  O5  1  0.232429  0.315321  0.176833  1
  O  O6  1  0.684679  0.767571  0.176833  1
  O  O7  1  0.767571  0.684679  0.823167  1
  O  O8  1  0.280858  0.719142  0.706778  1
  O  O9  1  0.719142  0.280858  0.293222  1
