# generated using pymatgen
data_Dy2S3
_symmetry_space_group_name_H-M   'P 1'
_cell_length_a   3.87381763
_cell_length_b   10.47498435
_cell_length_c   10.65308897
_cell_angle_alpha   90.00000000
_cell_angle_beta   90.00000000
_cell_angle_gamma   90.00000000
_symmetry_Int_Tables_number   1
_chemical_formula_structural   Dy2S3
_chemical_formula_sum   'Dy8 S12'
_cell_volume   432.28295165
_cell_formula_units_Z   4
loop_
 _symmetry_equiv_pos_site_id
 _symmetry_equiv_pos_as_xyz
  1  'x, y, z'
loop_
 _atom_site_type_symbol
 _atom_site_label
 _atom_site_symmetry_multiplicity
 _atom_site_fract_x
 _atom_site_fract_y
 _atom_site_fract_z
 _atom_site_occupancy
  Dy  Dy0  1  0.250000  0.996298  0.807954  1
  Dy  Dy1  1  0.750000  0.003702  0.192046  1
  Dy  Dy2  1  0.750000  0.496298  0.692046  1
  Dy  Dy3  1  0.250000  0.503702  0.307954  1
  Dy  Dy4  1  0.250000  0.186722  0.490007  1
  Dy  Dy5  1  0.750000  0.813278  0.509993  1
  Dy  Dy6  1  0.750000  0.686722  0.009993  1
  Dy  Dy7  1  0.250000  0.313278  0.990007  1
  S  S8  1  0.250000  0.304095  0.727739  1
  S  S9  1  0.750000  0.695905  0.272261  1
  S  S10  1  0.750000  0.804095  0.772261  1
  S  S11  1  0.250000  0.195905  0.227739  1
  S  S12  1  0.250000  0.944498  0.380552  1
  S  S13  1  0.750000  0.055502  0.619448  1
  S  S14  1  0.750000  0.444498  0.119448  1
  S  S15  1  0.250000  0.555502  0.880552  1
  S  S16  1  0.250000  0.873307  0.045777  1
  S  S17  1  0.750000  0.126693  0.954223  1
  S  S18  1  0.750000  0.373307  0.454223  1
  S  S19  1  0.250000  0.626693  0.545777  1
