# generated using pymatgen
data_Nd10Se19
_symmetry_space_group_name_H-M   'P 1'
_cell_length_a   9.33813417
_cell_length_b   9.33813417
_cell_length_c   17.07018946
_cell_angle_alpha   90.00000000
_cell_angle_beta   90.00000000
_cell_angle_gamma   90.00000000
_symmetry_Int_Tables_number   1
_chemical_formula_structural   Nd10Se19
_chemical_formula_sum   'Nd20 Se38'
_cell_volume   1488.53331975
_cell_formula_units_Z   2
loop_
 _symmetry_equiv_pos_site_id
 _symmetry_equiv_pos_as_xyz
  1  'x, y, z'
loop_
 _atom_site_type_symbol
 _atom_site_label
 _atom_site_symmetry_multiplicity
 _atom_site_fract_x
 _atom_site_fract_y
 _atom_site_fract_z
 _atom_site_occupancy
  Nd  Nd0  1  0.000000  0.500000  0.866654  1
  Nd  Nd1  1  0.000000  0.500000  0.366654  1
  Nd  Nd2  1  0.500000  0.000000  0.633346  1
  Nd  Nd3  1  0.500000  0.000000  0.133346  1
  Nd  Nd4  1  0.303260  0.397916  0.643896  1
  Nd  Nd5  1  0.102084  0.803260  0.143896  1
  Nd  Nd6  1  0.897916  0.196740  0.143896  1
  Nd  Nd7  1  0.696740  0.602084  0.643896  1
  Nd  Nd8  1  0.196740  0.102084  0.856104  1
  Nd  Nd9  1  0.397916  0.696740  0.356104  1
  Nd  Nd10  1  0.602084  0.303260  0.356104  1
  Nd  Nd11  1  0.803260  0.897916  0.856104  1
  Nd  Nd12  1  0.206457  0.097166  0.369587  1
  Nd  Nd13  1  0.402834  0.706457  0.869587  1
  Nd  Nd14  1  0.597166  0.293543  0.869587  1
  Nd  Nd15  1  0.793543  0.902834  0.369587  1
  Nd  Nd16  1  0.293543  0.402834  0.130413  1
  Nd  Nd17  1  0.097166  0.793543  0.630413  1
  Nd  Nd18  1  0.902834  0.206457  0.630413  1
  Nd  Nd19  1  0.706457  0.597166  0.130413  1
  Se  Se20  1  0.500000  0.000000  0.814347  1
  Se  Se21  1  0.500000  0.000000  0.314347  1
  Se  Se22  1  0.000000  0.500000  0.685653  1
  Se  Se23  1  0.000000  0.500000  0.185653  1
  Se  Se24  1  0.600559  0.302292  0.686822  1
  Se  Se25  1  0.197708  0.100559  0.186822  1
  Se  Se26  1  0.802292  0.899441  0.186822  1
  Se  Se27  1  0.399441  0.697708  0.686822  1
  Se  Se28  1  0.899441  0.197708  0.813178  1
  Se  Se29  1  0.302292  0.399441  0.313178  1
  Se  Se30  1  0.697708  0.600559  0.313178  1
  Se  Se31  1  0.100559  0.802292  0.813178  1
  Se  Se32  1  0.201110  0.097709  0.679153  1
  Se  Se33  1  0.402291  0.701110  0.179153  1
  Se  Se34  1  0.597709  0.298890  0.179153  1
  Se  Se35  1  0.798890  0.902291  0.679153  1
  Se  Se36  1  0.298890  0.402291  0.820847  1
  Se  Se37  1  0.097709  0.798890  0.320847  1
  Se  Se38  1  0.902291  0.201110  0.320847  1
  Se  Se39  1  0.701110  0.597709  0.820847  1
  Se  Se40  1  0.631451  0.815216  0.999331  1
  Se  Se41  1  0.684784  0.131451  0.499331  1
  Se  Se42  1  0.315216  0.868549  0.499331  1
  Se  Se43  1  0.368549  0.184784  0.999331  1
  Se  Se44  1  0.868549  0.684784  0.500669  1
  Se  Se45  1  0.815216  0.368549  0.000669  1
  Se  Se46  1  0.184784  0.631451  0.000669  1
  Se  Se47  1  0.131451  0.315216  0.500669  1
  Se  Se48  1  0.720278  0.077001  0.000191  1
  Se  Se49  1  0.422999  0.220278  0.500191  1
  Se  Se50  1  0.577001  0.779722  0.500191  1
  Se  Se51  1  0.279722  0.922999  0.000191  1
  Se  Se52  1  0.779722  0.422999  0.499809  1
  Se  Se53  1  0.077001  0.279722  0.999809  1
  Se  Se54  1  0.922999  0.720278  0.999809  1
  Se  Se55  1  0.220278  0.577001  0.499809  1
  Se  Se56  1  0.500000  0.500000  0.000000  1
  Se  Se57  1  0.000000  0.000000  0.500000  1
