# generated using pymatgen
data_Ba(As3Pt2)2
_symmetry_space_group_name_H-M   'P 1'
_cell_length_a   6.12437394
_cell_length_b   6.12437394
_cell_length_c   12.18060137
_cell_angle_alpha   89.46255231
_cell_angle_beta   90.53744769
_cell_angle_gamma   92.56364804
_symmetry_Int_Tables_number   1
_chemical_formula_structural   Ba(As3Pt2)2
_chemical_formula_sum   'Ba2 As12 Pt8'
_cell_volume   456.37376381
_cell_formula_units_Z   2
loop_
 _symmetry_equiv_pos_site_id
 _symmetry_equiv_pos_as_xyz
  1  'x, y, z'
loop_
 _atom_site_type_symbol
 _atom_site_label
 _atom_site_symmetry_multiplicity
 _atom_site_fract_x
 _atom_site_fract_y
 _atom_site_fract_z
 _atom_site_occupancy
  Ba  Ba0  1  0.605738  0.605738  0.750000  1
  Ba  Ba1  1  0.394262  0.394262  0.250000  1
  As  As2  1  0.862204  0.092186  0.308657  1
  As  As3  1  0.092186  0.862204  0.191343  1
  As  As4  1  0.137796  0.907814  0.691343  1
  As  As5  1  0.907814  0.137796  0.808657  1
  As  As6  1  0.123537  0.623455  0.944838  1
  As  As7  1  0.623455  0.123537  0.555162  1
  As  As8  1  0.876463  0.376545  0.055162  1
  As  As9  1  0.376545  0.876463  0.444838  1
  As  As10  1  0.614776  0.877081  0.054512  1
  As  As11  1  0.877081  0.614776  0.445488  1
  As  As12  1  0.122919  0.385224  0.554512  1
  As  As13  1  0.385224  0.122919  0.945488  1
  Pt  Pt14  1  0.082856  0.507282  0.749804  1
  Pt  Pt15  1  0.507282  0.082856  0.750196  1
  Pt  Pt16  1  0.500000  0.500000  0.500000  1
  Pt  Pt17  1  0.500000  0.500000  0.000000  1
  Pt  Pt18  1  0.000000  0.000000  0.500000  1
  Pt  Pt19  1  0.000000  0.000000  0.000000  1
  Pt  Pt20  1  0.492718  0.917144  0.249804  1
  Pt  Pt21  1  0.917144  0.492718  0.250196  1
