# generated using pymatgen
data_KPSe6
_symmetry_space_group_name_H-M   'P 1'
_cell_length_a   7.03670991
_cell_length_b   11.74065988
_cell_length_c   12.06590542
_cell_angle_alpha   90.00000000
_cell_angle_beta   90.00000000
_cell_angle_gamma   90.00000000
_symmetry_Int_Tables_number   1
_chemical_formula_structural   KPSe6
_chemical_formula_sum   'K4 P4 Se24'
_cell_volume   996.83222972
_cell_formula_units_Z   4
loop_
 _symmetry_equiv_pos_site_id
 _symmetry_equiv_pos_as_xyz
  1  'x, y, z'
loop_
 _atom_site_type_symbol
 _atom_site_label
 _atom_site_symmetry_multiplicity
 _atom_site_fract_x
 _atom_site_fract_y
 _atom_site_fract_z
 _atom_site_occupancy
  K  K0  1  0.852918  0.334790  0.878505  1
  K  K1  1  0.147082  0.834790  0.121495  1
  K  K2  1  0.147082  0.334790  0.378505  1
  K  K3  1  0.852918  0.834790  0.621495  1
  P  P4  1  0.220744  0.664478  0.833419  1
  P  P5  1  0.779256  0.164478  0.166581  1
  P  P6  1  0.779256  0.664478  0.333419  1
  P  P7  1  0.220744  0.164478  0.666581  1
  Se  Se8  1  0.923525  0.698295  0.873803  1
  Se  Se9  1  0.076475  0.198295  0.126197  1
  Se  Se10  1  0.076475  0.698295  0.373803  1
  Se  Se11  1  0.923525  0.198295  0.626197  1
  Se  Se12  1  0.935929  0.457067  0.132344  1
  Se  Se13  1  0.064071  0.957067  0.867656  1
  Se  Se14  1  0.064071  0.457067  0.632344  1
  Se  Se15  1  0.935929  0.957067  0.367656  1
  Se  Se16  1  0.577543  0.302621  0.139216  1
  Se  Se17  1  0.422457  0.802621  0.860784  1
  Se  Se18  1  0.422457  0.302621  0.639216  1
  Se  Se19  1  0.577543  0.802621  0.360784  1
  Se  Se20  1  0.739717  0.625717  0.149461  1
  Se  Se21  1  0.260283  0.125717  0.850539  1
  Se  Se22  1  0.260283  0.625717  0.649461  1
  Se  Se23  1  0.739717  0.125717  0.350539  1
  Se  Se24  1  0.746060  0.538132  0.603880  1
  Se  Se25  1  0.253940  0.038132  0.396120  1
  Se  Se26  1  0.253940  0.538132  0.103880  1
  Se  Se27  1  0.746060  0.038132  0.896120  1
  Se  Se28  1  0.318434  0.494610  0.915971  1
  Se  Se29  1  0.681566  0.994610  0.084029  1
  Se  Se30  1  0.681566  0.494610  0.415971  1
  Se  Se31  1  0.318434  0.994610  0.584029  1
