# generated using pymatgen
data_ErMnO3
_symmetry_space_group_name_H-M   'P 1'
_cell_length_a   5.29357870
_cell_length_b   5.84403211
_cell_length_c   7.45579320
_cell_angle_alpha   90.00000000
_cell_angle_beta   90.00000000
_cell_angle_gamma   90.00000000
_symmetry_Int_Tables_number   1
_chemical_formula_structural   ErMnO3
_chemical_formula_sum   'Er4 Mn4 O12'
_cell_volume   230.65125458
_cell_formula_units_Z   4
loop_
 _symmetry_equiv_pos_site_id
 _symmetry_equiv_pos_as_xyz
  1  'x, y, z'
loop_
 _atom_site_type_symbol
 _atom_site_label
 _atom_site_symmetry_multiplicity
 _atom_site_fract_x
 _atom_site_fract_y
 _atom_site_fract_z
 _atom_site_occupancy
  Er  Er0  1  0.019309  0.416428  0.250000  1
  Er  Er1  1  0.519309  0.083572  0.750000  1
  Er  Er2  1  0.480691  0.916428  0.250000  1
  Er  Er3  1  0.980691  0.583572  0.750000  1
  Mn  Mn4  1  0.500000  0.500000  0.000000  1
  Mn  Mn5  1  0.000000  0.000000  0.000000  1
  Mn  Mn6  1  0.000000  0.000000  0.500000  1
  Mn  Mn7  1  0.500000  0.500000  0.500000  1
  O  O8  1  0.698473  0.827149  0.941577  1
  O  O9  1  0.198473  0.672851  0.058423  1
  O  O10  1  0.801527  0.327149  0.558423  1
  O  O11  1  0.301527  0.172851  0.441577  1
  O  O12  1  0.301527  0.172851  0.058423  1
  O  O13  1  0.801527  0.327149  0.941577  1
  O  O14  1  0.198473  0.672851  0.441577  1
  O  O15  1  0.698473  0.827149  0.558423  1
  O  O16  1  0.123685  0.954472  0.750000  1
  O  O17  1  0.623685  0.545528  0.250000  1
  O  O18  1  0.376315  0.454472  0.750000  1
  O  O19  1  0.876315  0.045528  0.250000  1
