# generated using pymatgen
data_CrCoO4
_symmetry_space_group_name_H-M   'P 1'
_cell_length_a   5.09035897
_cell_length_b   5.09035897
_cell_length_c   6.25194578
_cell_angle_alpha   90.00000000
_cell_angle_beta   90.00000000
_cell_angle_gamma   113.88799571
_symmetry_Int_Tables_number   1
_chemical_formula_structural   CrCoO4
_chemical_formula_sum   'Cr2 Co2 O8'
_cell_volume   148.12186797
_cell_formula_units_Z   2
loop_
 _symmetry_equiv_pos_site_id
 _symmetry_equiv_pos_as_xyz
  1  'x, y, z'
loop_
 _atom_site_type_symbol
 _atom_site_label
 _atom_site_symmetry_multiplicity
 _atom_site_fract_x
 _atom_site_fract_y
 _atom_site_fract_z
 _atom_site_occupancy
  Cr  Cr0  1  0.644059  0.355941  0.750000  1
  Cr  Cr1  1  0.355941  0.644059  0.250000  1
  Co  Co2  1  0.000000  0.000000  0.500000  1
  Co  Co3  1  0.000000  0.000000  0.000000  1
  O  O4  1  0.756542  0.243458  0.960470  1
  O  O5  1  0.243458  0.756542  0.460470  1
  O  O6  1  0.726451  0.785439  0.250000  1
  O  O7  1  0.214561  0.273549  0.250000  1
  O  O8  1  0.273549  0.214561  0.750000  1
  O  O9  1  0.785439  0.726451  0.750000  1
  O  O10  1  0.756542  0.243458  0.539530  1
  O  O11  1  0.243458  0.756542  0.039530  1
