# generated using pymatgen
data_BaMnCO3F2
_symmetry_space_group_name_H-M   'P 1'
_cell_length_a   4.97843162
_cell_length_b   4.97843162
_cell_length_c   10.15015658
_cell_angle_alpha   90.00000000
_cell_angle_beta   90.00000000
_cell_angle_gamma   120.00000000
_symmetry_Int_Tables_number   1
_chemical_formula_structural   BaMnCO3F2
_chemical_formula_sum   'Ba2 Mn2 C2 O6 F4'
_cell_volume   217.86550140
_cell_formula_units_Z   2
loop_
 _symmetry_equiv_pos_site_id
 _symmetry_equiv_pos_as_xyz
  1  'x, y, z'
loop_
 _atom_site_type_symbol
 _atom_site_label
 _atom_site_symmetry_multiplicity
 _atom_site_fract_x
 _atom_site_fract_y
 _atom_site_fract_z
 _atom_site_occupancy
  Ba  Ba0  1  0.000000  0.000000  0.500000  1
  Ba  Ba1  1  0.000000  0.000000  0.000000  1
  Mn  Mn2  1  0.666667  0.333333  0.750000  1
  Mn  Mn3  1  0.333333  0.666667  0.250000  1
  C  C4  1  0.333333  0.666667  0.750000  1
  C  C5  1  0.666667  0.333333  0.250000  1
  O  O6  1  0.873220  0.625922  0.250000  1
  O  O7  1  0.247298  0.873220  0.750000  1
  O  O8  1  0.752702  0.126780  0.250000  1
  O  O9  1  0.126780  0.374078  0.750000  1
  O  O10  1  0.374078  0.247298  0.250000  1
  O  O11  1  0.625922  0.752702  0.750000  1
  F  F12  1  0.333333  0.666667  0.454903  1
  F  F13  1  0.666667  0.333333  0.954903  1
  F  F14  1  0.333333  0.666667  0.045097  1
  F  F15  1  0.666667  0.333333  0.545097  1
