# generated using pymatgen
data_Na2PO3F
_symmetry_space_group_name_H-M   'P 1'
_cell_length_a   5.50478845
_cell_length_b   7.02512408
_cell_length_c   19.23148395
_cell_angle_alpha   90.00000000
_cell_angle_beta   90.00000000
_cell_angle_gamma   90.00000000
_symmetry_Int_Tables_number   1
_chemical_formula_structural   Na2PO3F
_chemical_formula_sum   'Na16 P8 O24 F8'
_cell_volume   743.71652210
_cell_formula_units_Z   8
loop_
 _symmetry_equiv_pos_site_id
 _symmetry_equiv_pos_as_xyz
  1  'x, y, z'
loop_
 _atom_site_type_symbol
 _atom_site_label
 _atom_site_symmetry_multiplicity
 _atom_site_fract_x
 _atom_site_fract_y
 _atom_site_fract_z
 _atom_site_occupancy
  Na  Na0  1  0.257564  0.420247  0.039330  1
  Na  Na1  1  0.757564  0.079753  0.960670  1
  Na  Na2  1  0.742436  0.920247  0.460670  1
  Na  Na3  1  0.242436  0.579753  0.539330  1
  Na  Na4  1  0.284227  0.061268  0.191358  1
  Na  Na5  1  0.784227  0.438732  0.808642  1
  Na  Na6  1  0.715773  0.561268  0.308642  1
  Na  Na7  1  0.215773  0.938732  0.691358  1
  Na  Na8  1  0.246693  0.711020  0.877954  1
  Na  Na9  1  0.746693  0.788980  0.122046  1
  Na  Na10  1  0.753307  0.211020  0.622046  1
  Na  Na11  1  0.253307  0.288980  0.377954  1
  Na  Na12  1  0.238158  0.220786  0.866034  1
  Na  Na13  1  0.738158  0.279214  0.133966  1
  Na  Na14  1  0.761842  0.720786  0.633966  1
  Na  Na15  1  0.261842  0.779214  0.366034  1
  P  P16  1  0.198482  0.526551  0.211702  1
  P  P17  1  0.698482  0.973449  0.788298  1
  P  P18  1  0.801518  0.026551  0.288298  1
  P  P19  1  0.301518  0.473449  0.711702  1
  P  P20  1  0.240126  0.979736  0.031226  1
  P  P21  1  0.740126  0.520264  0.968774  1
  P  P22  1  0.759874  0.479736  0.468774  1
  P  P23  1  0.259874  0.020264  0.531226  1
  O  O24  1  0.314186  0.381265  0.163160  1
  O  O25  1  0.685814  0.881265  0.336840  1
  O  O26  1  0.814186  0.118735  0.836840  1
  O  O27  1  0.185814  0.618735  0.663160  1
  O  O28  1  0.217323  0.478446  0.787075  1
  O  O29  1  0.717323  0.021554  0.212925  1
  O  O30  1  0.782677  0.978446  0.712925  1
  O  O31  1  0.282677  0.521554  0.287075  1
  O  O32  1  0.015279  0.965743  0.562426  1
  O  O33  1  0.515279  0.534257  0.437574  1
  O  O34  1  0.984721  0.465743  0.937574  1
  O  O35  1  0.484721  0.034257  0.062426  1
  O  O36  1  0.277709  0.004257  0.452538  1
  O  O37  1  0.777709  0.495743  0.547462  1
  O  O38  1  0.722291  0.504257  0.047462  1
  O  O39  1  0.222291  0.995743  0.952538  1
  O  O40  1  0.477117  0.938887  0.570486  1
  O  O41  1  0.977117  0.561113  0.429514  1
  O  O42  1  0.522883  0.438887  0.929514  1
  O  O43  1  0.022883  0.061113  0.070486  1
  O  O44  1  0.574283  0.447885  0.701738  1
  O  O45  1  0.074283  0.052115  0.298262  1
  O  O46  1  0.425717  0.947885  0.798262  1
  O  O47  1  0.925717  0.552115  0.201738  1
  F  F48  1  0.316176  0.730457  0.183959  1
  F  F49  1  0.816176  0.769543  0.816041  1
  F  F50  1  0.683824  0.230457  0.316041  1
  F  F51  1  0.183824  0.269543  0.683959  1
  F  F52  1  0.282380  0.250720  0.544608  1
  F  F53  1  0.717620  0.750720  0.955392  1
  F  F54  1  0.782380  0.249280  0.455392  1
  F  F55  1  0.217620  0.749280  0.044608  1
