# generated using pymatgen
data_Sr4Al6WO16
_symmetry_space_group_name_H-M   'P 1'
_cell_length_a   8.34656284
_cell_length_b   8.34656284
_cell_length_c   8.34656284
_cell_angle_alpha   109.47122063
_cell_angle_beta   109.47122063
_cell_angle_gamma   109.47122063
_symmetry_Int_Tables_number   1
_chemical_formula_structural   Sr4Al6WO16
_chemical_formula_sum   'Sr4 Al6 W1 O16'
_cell_volume   447.61137180
_cell_formula_units_Z   1
loop_
 _symmetry_equiv_pos_site_id
 _symmetry_equiv_pos_as_xyz
  1  'x, y, z'
loop_
 _atom_site_type_symbol
 _atom_site_label
 _atom_site_symmetry_multiplicity
 _atom_site_fract_x
 _atom_site_fract_y
 _atom_site_fract_z
 _atom_site_occupancy
  Sr  Sr0  1  1.000000  0.503779  0.000000  1
  Sr  Sr1  1  0.503779  1.000000  0.000000  1
  Sr  Sr2  1  0.496221  0.496221  0.496221  1
  Sr  Sr3  1  1.000000  1.000000  0.503779  1
  Al  Al4  1  0.750000  0.250000  0.500000  1
  Al  Al5  1  0.500000  0.750000  0.250000  1
  Al  Al6  1  0.750000  0.500000  0.250000  1
  Al  Al7  1  0.250000  0.750000  0.500000  1
  Al  Al8  1  0.500000  0.250000  0.750000  1
  Al  Al9  1  0.250000  0.500000  0.750000  1
  W  W10  1  0.000000  0.000000  0.000000  1
  O  O11  1  0.343808  1.000000  0.660110  1
  O  O12  1  0.339890  0.683698  0.339890  1
  O  O13  1  0.660110  1.000000  0.343808  1
  O  O14  1  0.316302  0.656192  0.656192  1
  O  O15  1  0.656192  0.656192  0.316302  1
  O  O16  1  0.660110  0.343808  0.000000  1
  O  O17  1  0.683698  0.339890  0.339890  1
  O  O18  1  0.343808  0.660110  1.000000  1
  O  O19  1  1.000000  0.660110  0.343808  1
  O  O20  1  0.339890  0.339890  0.683698  1
  O  O21  1  0.000000  0.343808  0.660110  1
  O  O22  1  0.783561  0.783561  0.783561  1
  O  O23  1  1.000000  0.216439  0.000000  1
  O  O24  1  1.000000  1.000000  0.216439  1
  O  O25  1  0.216439  1.000000  0.000000  1
  O  O26  1  0.656192  0.316302  0.656192  1
