# generated using pymatgen
data_BaZn2(AsO4)2
_symmetry_space_group_name_H-M   'P 1'
_cell_length_a   8.96502983
_cell_length_b   10.19962395
_cell_length_c   9.58739280
_cell_angle_alpha   90.00000000
_cell_angle_beta   91.41853363
_cell_angle_gamma   90.00000000
_symmetry_Int_Tables_number   1
_chemical_formula_structural   BaZn2(AsO4)2
_chemical_formula_sum   'Ba4 Zn8 As8 O32'
_cell_volume   876.40188586
_cell_formula_units_Z   4
loop_
 _symmetry_equiv_pos_site_id
 _symmetry_equiv_pos_as_xyz
  1  'x, y, z'
loop_
 _atom_site_type_symbol
 _atom_site_label
 _atom_site_symmetry_multiplicity
 _atom_site_fract_x
 _atom_site_fract_y
 _atom_site_fract_z
 _atom_site_occupancy
  Ba  Ba0  1  0.250676  0.915934  0.391003  1
  Ba  Ba1  1  0.749324  0.415934  0.108997  1
  Ba  Ba2  1  0.749324  0.084066  0.608997  1
  Ba  Ba3  1  0.250676  0.584066  0.891003  1
  Zn  Zn4  1  0.579542  0.685655  0.558274  1
  Zn  Zn5  1  0.420458  0.185655  0.941726  1
  Zn  Zn6  1  0.420458  0.314345  0.441726  1
  Zn  Zn7  1  0.579542  0.814345  0.058274  1
  Zn  Zn8  1  0.071986  0.923401  0.783164  1
  Zn  Zn9  1  0.928014  0.423401  0.716836  1
  Zn  Zn10  1  0.928014  0.076599  0.216836  1
  Zn  Zn11  1  0.071986  0.576599  0.283164  1
  As  As12  1  0.559503  0.413388  0.741839  1
  As  As13  1  0.440497  0.913388  0.758161  1
  As  As14  1  0.440497  0.586612  0.258161  1
  As  As15  1  0.559503  0.086612  0.241839  1
  As  As16  1  0.052563  0.201196  0.931792  1
  As  As17  1  0.947437  0.701196  0.568208  1
  As  As18  1  0.947437  0.798804  0.068208  1
  As  As19  1  0.052563  0.298804  0.431792  1
  O  O20  1  0.736397  0.419885  0.817281  1
  O  O21  1  0.263603  0.919885  0.682719  1
  O  O22  1  0.263603  0.580115  0.182719  1
  O  O23  1  0.736397  0.080115  0.317281  1
  O  O24  1  0.781080  0.642915  0.503203  1
  O  O25  1  0.218920  0.142915  0.996797  1
  O  O26  1  0.218920  0.357085  0.496797  1
  O  O27  1  0.781080  0.857085  0.003203  1
  O  O28  1  0.439126  0.696843  0.393197  1
  O  O29  1  0.560874  0.196843  0.106803  1
  O  O30  1  0.560874  0.303157  0.606803  1
  O  O31  1  0.439126  0.803157  0.893197  1
  O  O32  1  0.079684  0.697630  0.440296  1
  O  O33  1  0.920316  0.197630  0.059704  1
  O  O34  1  0.920316  0.302370  0.559704  1
  O  O35  1  0.079684  0.802370  0.940296  1
  O  O36  1  0.555815  0.869149  0.623832  1
  O  O37  1  0.444185  0.369149  0.876168  1
  O  O38  1  0.444185  0.130851  0.376168  1
  O  O39  1  0.555815  0.630851  0.123832  1
  O  O40  1  0.012074  0.898904  0.202688  1
  O  O41  1  0.987926  0.398904  0.297312  1
  O  O42  1  0.987926  0.101096  0.797312  1
  O  O43  1  0.012074  0.601096  0.702688  1
  O  O44  1  0.488273  0.936618  0.192179  1
  O  O45  1  0.511727  0.436618  0.307821  1
  O  O46  1  0.511727  0.063382  0.807821  1
  O  O47  1  0.488273  0.563382  0.692179  1
  O  O48  1  0.938470  0.637770  0.123587  1
  O  O49  1  0.061530  0.137770  0.376413  1
  O  O50  1  0.061530  0.362230  0.876413  1
  O  O51  1  0.938470  0.862230  0.623587  1
