# generated using pymatgen
data_Ge3Os2
_symmetry_space_group_name_H-M   'P 1'
_cell_length_a   5.81801659
_cell_length_b   9.34671241
_cell_length_c   11.62810349
_cell_angle_alpha   90.00000000
_cell_angle_beta   90.00000000
_cell_angle_gamma   90.00000000
_symmetry_Int_Tables_number   1
_chemical_formula_structural   Ge3Os2
_chemical_formula_sum   'Ge24 Os16'
_cell_volume   632.32845211
_cell_formula_units_Z   8
loop_
 _symmetry_equiv_pos_site_id
 _symmetry_equiv_pos_as_xyz
  1  'x, y, z'
loop_
 _atom_site_type_symbol
 _atom_site_label
 _atom_site_symmetry_multiplicity
 _atom_site_fract_x
 _atom_site_fract_y
 _atom_site_fract_z
 _atom_site_occupancy
  Ge  Ge0  1  0.600110  0.105234  0.368084  1
  Ge  Ge1  1  0.100110  0.394766  0.131916  1
  Ge  Ge2  1  0.899890  0.105234  0.631916  1
  Ge  Ge3  1  0.399890  0.394766  0.868084  1
  Ge  Ge4  1  0.399890  0.894766  0.631916  1
  Ge  Ge5  1  0.899890  0.605234  0.868084  1
  Ge  Ge6  1  0.100110  0.894766  0.368084  1
  Ge  Ge7  1  0.600110  0.605234  0.131916  1
  Ge  Ge8  1  0.908994  0.065702  0.178345  1
  Ge  Ge9  1  0.408994  0.434298  0.321655  1
  Ge  Ge10  1  0.591006  0.065702  0.821655  1
  Ge  Ge11  1  0.091006  0.434298  0.678345  1
  Ge  Ge12  1  0.091006  0.934298  0.821655  1
  Ge  Ge13  1  0.591006  0.565702  0.678345  1
  Ge  Ge14  1  0.408994  0.934298  0.178345  1
  Ge  Ge15  1  0.908994  0.565702  0.321655  1
  Ge  Ge16  1  0.541960  0.713498  0.426764  1
  Ge  Ge17  1  0.041960  0.786502  0.073236  1
  Ge  Ge18  1  0.958040  0.713498  0.573236  1
  Ge  Ge19  1  0.458040  0.786502  0.926764  1
  Ge  Ge20  1  0.458040  0.286502  0.573236  1
  Ge  Ge21  1  0.958040  0.213498  0.926764  1
  Ge  Ge22  1  0.041960  0.286502  0.426764  1
  Ge  Ge23  1  0.541960  0.213498  0.073236  1
  Os  Os24  1  0.750000  0.925412  0.500000  1
  Os  Os25  1  0.250000  0.574588  0.000000  1
  Os  Os26  1  0.250000  0.074588  0.500000  1
  Os  Os27  1  0.750000  0.425412  0.000000  1
  Os  Os28  1  0.750000  0.459951  0.500000  1
  Os  Os29  1  0.250000  0.040049  0.000000  1
  Os  Os30  1  0.250000  0.540049  0.500000  1
  Os  Os31  1  0.750000  0.959951  0.000000  1
  Os  Os32  1  0.758977  0.313487  0.254310  1
  Os  Os33  1  0.258977  0.186513  0.245690  1
  Os  Os34  1  0.741023  0.313487  0.745690  1
  Os  Os35  1  0.241023  0.186513  0.754310  1
  Os  Os36  1  0.241023  0.686513  0.745690  1
  Os  Os37  1  0.741023  0.813487  0.754310  1
  Os  Os38  1  0.258977  0.686513  0.254310  1
  Os  Os39  1  0.758977  0.813487  0.245690  1
