# generated using pymatgen
data_Nd2SiTeO4
_symmetry_space_group_name_H-M   'P 1'
_cell_length_a   8.79548193
_cell_length_b   6.47398108
_cell_length_c   9.97697155
_cell_angle_alpha   90.00000000
_cell_angle_beta   95.29453028
_cell_angle_gamma   90.00000000
_symmetry_Int_Tables_number   1
_chemical_formula_structural   Nd2SiTeO4
_chemical_formula_sum   'Nd8 Si4 Te4 O16'
_cell_volume   565.68273543
_cell_formula_units_Z   4
loop_
 _symmetry_equiv_pos_site_id
 _symmetry_equiv_pos_as_xyz
  1  'x, y, z'
loop_
 _atom_site_type_symbol
 _atom_site_label
 _atom_site_symmetry_multiplicity
 _atom_site_fract_x
 _atom_site_fract_y
 _atom_site_fract_z
 _atom_site_occupancy
  Nd  Nd0  1  0.836761  0.304036  0.346298  1
  Nd  Nd1  1  0.336761  0.195964  0.346298  1
  Nd  Nd2  1  0.163239  0.695964  0.653702  1
  Nd  Nd3  1  0.663239  0.804036  0.653702  1
  Nd  Nd4  1  0.304853  0.152706  0.894246  1
  Nd  Nd5  1  0.195147  0.652706  0.105754  1
  Nd  Nd6  1  0.695147  0.847294  0.105754  1
  Nd  Nd7  1  0.804853  0.347294  0.894246  1
  Si  Si8  1  0.942813  0.809285  0.874554  1
  Si  Si9  1  0.057187  0.190715  0.125446  1
  Si  Si10  1  0.557187  0.309285  0.125446  1
  Si  Si11  1  0.442813  0.690715  0.874554  1
  Te  Te12  1  0.380654  0.713490  0.409082  1
  Te  Te13  1  0.119346  0.213490  0.590918  1
  Te  Te14  1  0.619346  0.286510  0.590918  1
  Te  Te15  1  0.880654  0.786510  0.409082  1
  O  O16  1  0.408102  0.861849  0.752010  1
  O  O17  1  0.091898  0.361849  0.247990  1
  O  O18  1  0.591898  0.138151  0.247990  1
  O  O19  1  0.908102  0.638151  0.752010  1
  O  O20  1  0.316104  0.509418  0.843121  1
  O  O21  1  0.183896  0.009418  0.156879  1
  O  O22  1  0.683896  0.490582  0.156879  1
  O  O23  1  0.816104  0.990582  0.843121  1
  O  O24  1  0.124037  0.866614  0.874451  1
  O  O25  1  0.577694  0.194284  0.980704  1
  O  O26  1  0.875963  0.133386  0.125549  1
  O  O27  1  0.624037  0.633386  0.874451  1
  O  O28  1  0.077694  0.305716  0.980704  1
  O  O29  1  0.422306  0.805716  0.019296  1
  O  O30  1  0.922306  0.694284  0.019296  1
  O  O31  1  0.375963  0.366614  0.125549  1
