# generated using pymatgen
data_Na3Co2SbO6
_symmetry_space_group_name_H-M   'P 1'
_cell_length_a   5.40826495
_cell_length_b   5.40826495
_cell_length_c   5.72264256
_cell_angle_alpha   80.76319927
_cell_angle_beta   99.23680073
_cell_angle_gamma   60.31548872
_symmetry_Int_Tables_number   1
_chemical_formula_structural   Na3Co2SbO6
_chemical_formula_sum   'Na3 Co2 Sb1 O6'
_cell_volume   137.79472599
_cell_formula_units_Z   1
loop_
 _symmetry_equiv_pos_site_id
 _symmetry_equiv_pos_as_xyz
  1  'x, y, z'
loop_
 _atom_site_type_symbol
 _atom_site_label
 _atom_site_symmetry_multiplicity
 _atom_site_fract_x
 _atom_site_fract_y
 _atom_site_fract_z
 _atom_site_occupancy
  Na  Na0  1  0.174250  0.174250  0.500000  1
  Na  Na1  1  0.825750  0.825750  0.500000  1
  Na  Na2  1  0.500000  0.500000  0.500000  1
  Co  Co3  1  0.664806  0.664806  0.000000  1
  Co  Co4  1  0.335194  0.335194  0.000000  1
  Sb  Sb5  1  0.000000  0.000000  0.000000  1
  O  O6  1  0.617914  0.064104  0.794636  1
  O  O7  1  0.064104  0.617914  0.205364  1
  O  O8  1  0.935896  0.382086  0.794636  1
  O  O9  1  0.382086  0.935896  0.205364  1
  O  O10  1  0.754343  0.245657  0.204883  1
  O  O11  1  0.245657  0.754343  0.795117  1
