# generated using pymatgen
data_Sr2TaGaO6
_symmetry_space_group_name_H-M   'P 1'
_cell_length_a   5.64607453
_cell_length_b   5.64607453
_cell_length_c   5.64607453
_cell_angle_alpha   120.30765378
_cell_angle_beta   120.30765378
_cell_angle_gamma   89.46794891
_symmetry_Int_Tables_number   1
_chemical_formula_structural   Sr2TaGaO6
_chemical_formula_sum   'Sr2 Ta1 Ga1 O6'
_cell_volume   126.67189516
_cell_formula_units_Z   1
loop_
 _symmetry_equiv_pos_site_id
 _symmetry_equiv_pos_as_xyz
  1  'x, y, z'
loop_
 _atom_site_type_symbol
 _atom_site_label
 _atom_site_symmetry_multiplicity
 _atom_site_fract_x
 _atom_site_fract_y
 _atom_site_fract_z
 _atom_site_occupancy
  Sr  Sr0  1  0.750000  0.250000  0.500000  1
  Sr  Sr1  1  0.250000  0.750000  0.500000  1
  Ta  Ta2  1  0.500000  0.500000  0.000000  1
  Ga  Ga3  1  0.000000  0.000000  0.000000  1
  O  O4  1  0.781374  0.717401  0.498774  1
  O  O5  1  0.717401  0.218626  0.936027  1
  O  O6  1  0.282599  0.781374  0.063973  1
  O  O7  1  0.218626  0.282599  0.501226  1
  O  O8  1  0.250861  0.250861  0.000000  1
  O  O9  1  0.749139  0.749139  0.000000  1
