# generated using pymatgen
data_BaCa2(SiO3)3
_symmetry_space_group_name_H-M   'P 1'
_cell_length_a   6.76417039
_cell_length_b   6.86518403
_cell_length_c   9.72126122
_cell_angle_alpha   88.35249420
_cell_angle_beta   110.04256547
_cell_angle_gamma   102.26304020
_symmetry_Int_Tables_number   1
_chemical_formula_structural   BaCa2(SiO3)3
_chemical_formula_sum   'Ba2 Ca4 Si6 O18'
_cell_volume   413.93580387
_cell_formula_units_Z   2
loop_
 _symmetry_equiv_pos_site_id
 _symmetry_equiv_pos_as_xyz
  1  'x, y, z'
loop_
 _atom_site_type_symbol
 _atom_site_label
 _atom_site_symmetry_multiplicity
 _atom_site_fract_x
 _atom_site_fract_y
 _atom_site_fract_z
 _atom_site_occupancy
  Ba  Ba0  1  0.167052  0.051782  0.847838  1
  Ba  Ba1  1  0.832948  0.948218  0.152162  1
  Ca  Ca2  1  0.277319  0.283858  0.511481  1
  Ca  Ca3  1  0.722681  0.716142  0.488519  1
  Ca  Ca4  1  0.226171  0.563254  0.171987  1
  Ca  Ca5  1  0.773829  0.436746  0.828013  1
  Si  Si6  1  0.292636  0.559588  0.805510  1
  Si  Si7  1  0.707364  0.440412  0.194490  1
  Si  Si8  1  0.229963  0.763702  0.519792  1
  Si  Si9  1  0.770037  0.236298  0.480208  1
  Si  Si10  1  0.622137  0.902475  0.775724  1
  Si  Si11  1  0.377863  0.097525  0.224276  1
  O  O12  1  0.482192  0.770978  0.876334  1
  O  O13  1  0.517808  0.229022  0.123666  1
  O  O14  1  0.152938  0.492186  0.910643  1
  O  O15  1  0.847062  0.507814  0.089357  1
  O  O16  1  0.401991  0.388366  0.768569  1
  O  O17  1  0.598009  0.611634  0.231431  1
  O  O18  1  0.139127  0.636968  0.646097  1
  O  O19  1  0.860873  0.363032  0.353903  1
  O  O20  1  0.035194  0.854180  0.415069  1
  O  O21  1  0.964806  0.145820  0.584931  1
  O  O22  1  0.336863  0.627563  0.444195  1
  O  O23  1  0.663137  0.372437  0.555805  1
  O  O24  1  0.234904  0.233750  0.264188  1
  O  O25  1  0.765096  0.766250  0.735812  1
  O  O26  1  0.228783  0.900311  0.125903  1
  O  O27  1  0.771217  0.099689  0.874097  1
  O  O28  1  0.576173  0.046743  0.372187  1
  O  O29  1  0.423827  0.953257  0.627813  1
