# generated using pymatgen
data_K3Sb5O14
_symmetry_space_group_name_H-M   'P 1'
_cell_length_a   7.27646141
_cell_length_b   7.45808017
_cell_length_c   24.69179265
_cell_angle_alpha   90.00000000
_cell_angle_beta   90.00000000
_cell_angle_gamma   90.00000000
_symmetry_Int_Tables_number   1
_chemical_formula_structural   K3Sb5O14
_chemical_formula_sum   'K12 Sb20 O56'
_cell_volume   1339.98488396
_cell_formula_units_Z   4
loop_
 _symmetry_equiv_pos_site_id
 _symmetry_equiv_pos_as_xyz
  1  'x, y, z'
loop_
 _atom_site_type_symbol
 _atom_site_label
 _atom_site_symmetry_multiplicity
 _atom_site_fract_x
 _atom_site_fract_y
 _atom_site_fract_z
 _atom_site_occupancy
  K  K0  1  0.222112  0.500000  0.015272  1
  K  K1  1  0.722112  0.500000  0.484728  1
  K  K2  1  0.777888  0.500000  0.984728  1
  K  K3  1  0.277888  0.500000  0.515272  1
  K  K4  1  0.126281  0.000000  0.294038  1
  K  K5  1  0.626281  0.000000  0.205962  1
  K  K6  1  0.873719  0.000000  0.705962  1
  K  K7  1  0.373719  0.000000  0.794038  1
  K  K8  1  0.102766  0.500000  0.383329  1
  K  K9  1  0.602766  0.500000  0.116671  1
  K  K10  1  0.897234  0.500000  0.616671  1
  K  K11  1  0.397234  0.500000  0.883329  1
  Sb  Sb12  1  0.093498  0.000000  0.937788  1
  Sb  Sb13  1  0.593498  0.000000  0.562212  1
  Sb  Sb14  1  0.906502  0.000000  0.062212  1
  Sb  Sb15  1  0.406502  0.000000  0.437788  1
  Sb  Sb16  1  0.082019  0.000000  0.557097  1
  Sb  Sb17  1  0.582019  0.000000  0.942903  1
  Sb  Sb18  1  0.917981  0.000000  0.442903  1
  Sb  Sb19  1  0.417981  0.000000  0.057097  1
  Sb  Sb20  1  0.324960  0.500000  0.256217  1
  Sb  Sb21  1  0.824960  0.500000  0.243783  1
  Sb  Sb22  1  0.675040  0.500000  0.743783  1
  Sb  Sb23  1  0.175040  0.500000  0.756217  1
  Sb  Sb24  1  0.109943  0.735597  0.145332  1
  Sb  Sb25  1  0.609943  0.264403  0.354668  1
  Sb  Sb26  1  0.890057  0.735597  0.854668  1
  Sb  Sb27  1  0.390057  0.264403  0.645332  1
  Sb  Sb28  1  0.890057  0.264403  0.854668  1
  Sb  Sb29  1  0.390057  0.735597  0.645332  1
  Sb  Sb30  1  0.109943  0.264403  0.145332  1
  Sb  Sb31  1  0.609943  0.735597  0.354668  1
  O  O32  1  0.953717  0.743539  0.073870  1
  O  O33  1  0.453717  0.256461  0.426130  1
  O  O34  1  0.046283  0.743539  0.926130  1
  O  O35  1  0.546283  0.256461  0.573870  1
  O  O36  1  0.046283  0.256461  0.926130  1
  O  O37  1  0.546283  0.743539  0.573870  1
  O  O38  1  0.953717  0.256461  0.073870  1
  O  O39  1  0.453717  0.743539  0.426130  1
  O  O40  1  0.878143  0.684540  0.185108  1
  O  O41  1  0.378143  0.315460  0.314892  1
  O  O42  1  0.121857  0.684540  0.814892  1
  O  O43  1  0.621857  0.315460  0.685108  1
  O  O44  1  0.121857  0.315460  0.814892  1
  O  O45  1  0.621857  0.684540  0.685108  1
  O  O46  1  0.878143  0.315460  0.185108  1
  O  O47  1  0.378143  0.684540  0.314892  1
  O  O48  1  0.839237  0.802234  0.396324  1
  O  O49  1  0.339237  0.197766  0.103676  1
  O  O50  1  0.160763  0.802234  0.603676  1
  O  O51  1  0.660763  0.197766  0.896324  1
  O  O52  1  0.160763  0.197766  0.603676  1
  O  O53  1  0.338553  0.000000  0.906040  1
  O  O54  1  0.660763  0.802234  0.896324  1
  O  O55  1  0.339237  0.802234  0.103676  1
  O  O56  1  0.761187  0.725739  0.288430  1
  O  O57  1  0.261187  0.274261  0.211570  1
  O  O58  1  0.238813  0.725739  0.711570  1
  O  O59  1  0.738813  0.274261  0.788430  1
  O  O60  1  0.238813  0.274261  0.711570  1
  O  O61  1  0.738813  0.725739  0.788430  1
  O  O62  1  0.761187  0.274261  0.288430  1
  O  O63  1  0.261187  0.725739  0.211570  1
  O  O64  1  0.500000  0.820767  0.000000  1
  O  O65  1  0.000000  0.179233  0.500000  1
  O  O66  1  0.500000  0.179233  0.000000  1
  O  O67  1  0.000000  0.820767  0.500000  1
  O  O68  1  0.160580  0.000000  0.017629  1
  O  O69  1  0.660580  0.000000  0.482371  1
  O  O70  1  0.839420  0.000000  0.982371  1
  O  O71  1  0.339420  0.000000  0.517629  1
  O  O72  1  0.183174  0.500000  0.119474  1
  O  O73  1  0.683174  0.500000  0.380526  1
  O  O74  1  0.816826  0.500000  0.880526  1
  O  O75  1  0.316826  0.500000  0.619474  1
  O  O76  1  0.027568  0.000000  0.142630  1
  O  O77  1  0.527568  0.000000  0.357370  1
  O  O78  1  0.972432  0.000000  0.857370  1
  O  O79  1  0.472432  0.000000  0.642630  1
  O  O80  1  0.064895  0.500000  0.281546  1
  O  O81  1  0.564895  0.500000  0.218454  1
  O  O82  1  0.935105  0.500000  0.718454  1
  O  O83  1  0.435105  0.500000  0.781546  1
  O  O84  1  0.161447  0.000000  0.406040  1
  O  O85  1  0.661447  0.000000  0.093960  1
  O  O86  1  0.838553  0.000000  0.593960  1
  O  O87  1  0.839237  0.197766  0.396324  1
