# generated using pymatgen
data_SrCu2GeSe4
_symmetry_space_group_name_H-M   'P 1'
_cell_length_a   6.35397496
_cell_length_b   6.35397496
_cell_length_c   10.89029661
_cell_angle_alpha   90.00000000
_cell_angle_beta   90.00000000
_cell_angle_gamma   117.21154305
_symmetry_Int_Tables_number   1
_chemical_formula_structural   SrCu2GeSe4
_chemical_formula_sum   'Sr2 Cu4 Ge2 Se8'
_cell_volume   391.01268717
_cell_formula_units_Z   2
loop_
 _symmetry_equiv_pos_site_id
 _symmetry_equiv_pos_as_xyz
  1  'x, y, z'
loop_
 _atom_site_type_symbol
 _atom_site_label
 _atom_site_symmetry_multiplicity
 _atom_site_fract_x
 _atom_site_fract_y
 _atom_site_fract_z
 _atom_site_occupancy
  Sr  Sr0  1  0.987432  0.987432  0.500000  1
  Sr  Sr1  1  0.987432  0.987432  1.000000  1
  Cu  Cu2  1  0.808709  0.368467  0.370178  1
  Cu  Cu3  1  0.368467  0.808709  0.629822  1
  Cu  Cu4  1  0.368467  0.808709  0.870178  1
  Cu  Cu5  1  0.808709  0.368467  0.129822  1
  Ge  Ge6  1  0.441420  0.736359  0.250000  1
  Ge  Ge7  1  0.736359  0.441420  0.750000  1
  Se  Se8  1  0.802745  0.697593  0.250000  1
  Se  Se9  1  0.697593  0.802745  0.750000  1
  Se  Se10  1  0.479299  0.989264  0.424167  1
  Se  Se11  1  0.989264  0.479299  0.575833  1
  Se  Se12  1  0.479299  0.989264  0.075833  1
  Se  Se13  1  0.989264  0.479299  0.924167  1
  Se  Se14  1  0.335726  0.126411  0.750000  1
  Se  Se15  1  0.126411  0.335726  0.250000  1
