# generated using pymatgen
data_AlAgTe2
_symmetry_space_group_name_H-M   'P 1'
_cell_length_a   7.61976154
_cell_length_b   7.61976154
_cell_length_c   7.61976154
_cell_angle_alpha   130.18212805
_cell_angle_beta   130.18212805
_cell_angle_gamma   73.11577067
_symmetry_Int_Tables_number   1
_chemical_formula_structural   AlAgTe2
_chemical_formula_sum   'Al2 Ag2 Te4'
_cell_volume   252.15506730
_cell_formula_units_Z   2
loop_
 _symmetry_equiv_pos_site_id
 _symmetry_equiv_pos_as_xyz
  1  'x, y, z'
loop_
 _atom_site_type_symbol
 _atom_site_label
 _atom_site_symmetry_multiplicity
 _atom_site_fract_x
 _atom_site_fract_y
 _atom_site_fract_z
 _atom_site_occupancy
  Al  Al0  1  0.500000  0.500000  0.000000  1
  Al  Al1  1  0.250000  0.750000  0.500000  1
  Ag  Ag2  1  0.000000  0.000000  0.000000  1
  Ag  Ag3  1  0.750000  0.250000  0.500000  1
  Te  Te4  1  0.145890  0.125000  0.520890  1
  Te  Te5  1  0.875000  0.395890  0.020890  1
  Te  Te6  1  0.375000  0.854110  0.979110  1
  Te  Te7  1  0.604110  0.625000  0.479110  1
