# generated using pymatgen
data_SnO2
_symmetry_space_group_name_H-M   'P 1'
_cell_length_a   4.79297806
_cell_length_b   5.31340743
_cell_length_c   5.83084992
_cell_angle_alpha   90.00000000
_cell_angle_beta   90.00000000
_cell_angle_gamma   90.00000000
_symmetry_Int_Tables_number   1
_chemical_formula_structural   SnO2
_chemical_formula_sum   'Sn4 O8'
_cell_volume   148.49451868
_cell_formula_units_Z   4
loop_
 _symmetry_equiv_pos_site_id
 _symmetry_equiv_pos_as_xyz
  1  'x, y, z'
loop_
 _atom_site_type_symbol
 _atom_site_label
 _atom_site_symmetry_multiplicity
 _atom_site_fract_x
 _atom_site_fract_y
 _atom_site_fract_z
 _atom_site_occupancy
  Sn  Sn0  1  0.500000  0.750000  0.665096  1
  Sn  Sn1  1  0.000000  0.250000  0.834904  1
  Sn  Sn2  1  0.500000  0.250000  0.334904  1
  Sn  Sn3  1  0.000000  0.750000  0.165096  1
  O  O4  1  0.730165  0.078241  0.607037  1
  O  O5  1  0.230165  0.921759  0.892963  1
  O  O6  1  0.769835  0.578241  0.892963  1
  O  O7  1  0.269835  0.421759  0.607037  1
  O  O8  1  0.730165  0.578241  0.392963  1
  O  O9  1  0.230165  0.421759  0.107037  1
  O  O10  1  0.769835  0.078241  0.107037  1
  O  O11  1  0.269835  0.921759  0.392963  1
