# generated using pymatgen
data_ErAg(PSe3)2
_symmetry_space_group_name_H-M   'P 1'
_cell_length_a   6.65356518
_cell_length_b   6.65356518
_cell_length_c   15.23170827
_cell_angle_alpha   90.00000000
_cell_angle_beta   90.00000000
_cell_angle_gamma   120.00000000
_symmetry_Int_Tables_number   1
_chemical_formula_structural   ErAg(PSe3)2
_chemical_formula_sum   'Er2 Ag2 P4 Se12'
_cell_volume   583.96669120
_cell_formula_units_Z   2
loop_
 _symmetry_equiv_pos_site_id
 _symmetry_equiv_pos_as_xyz
  1  'x, y, z'
loop_
 _atom_site_type_symbol
 _atom_site_label
 _atom_site_symmetry_multiplicity
 _atom_site_fract_x
 _atom_site_fract_y
 _atom_site_fract_z
 _atom_site_occupancy
  Er  Er0  1  0.000000  0.000000  0.750000  1
  Er  Er1  1  0.000000  0.000000  0.250000  1
  Ag  Ag2  1  0.333333  0.666667  0.750000  1
  Ag  Ag3  1  0.666667  0.333333  0.250000  1
  P  P4  1  0.666667  0.333333  0.675328  1
  P  P5  1  0.666667  0.333333  0.824672  1
  P  P6  1  0.333333  0.666667  0.324672  1
  P  P7  1  0.333333  0.666667  0.175328  1
  Se  Se8  1  0.022131  0.343785  0.131565  1
  Se  Se9  1  0.656215  0.678347  0.131565  1
  Se  Se10  1  0.321653  0.977869  0.131565  1
  Se  Se11  1  0.656215  0.977869  0.368435  1
  Se  Se12  1  0.321653  0.343785  0.368435  1
  Se  Se13  1  0.022131  0.678347  0.368435  1
  Se  Se14  1  0.977869  0.656215  0.868435  1
  Se  Se15  1  0.343785  0.321653  0.868435  1
  Se  Se16  1  0.678347  0.022131  0.868435  1
  Se  Se17  1  0.343785  0.022131  0.631565  1
  Se  Se18  1  0.678347  0.656215  0.631565  1
  Se  Se19  1  0.977869  0.321653  0.631565  1
