# generated using pymatgen
data_Sr3DyRhO6
_symmetry_space_group_name_H-M   'P 1'
_cell_length_a   6.86007872
_cell_length_b   6.86007872
_cell_length_c   6.86007872
_cell_angle_alpha   92.14819830
_cell_angle_beta   92.14819830
_cell_angle_gamma   92.14819830
_symmetry_Int_Tables_number   1
_chemical_formula_structural   Sr3DyRhO6
_chemical_formula_sum   'Sr6 Dy2 Rh2 O12'
_cell_volume   322.14178838
_cell_formula_units_Z   2
loop_
 _symmetry_equiv_pos_site_id
 _symmetry_equiv_pos_as_xyz
  1  'x, y, z'
loop_
 _atom_site_type_symbol
 _atom_site_label
 _atom_site_symmetry_multiplicity
 _atom_site_fract_x
 _atom_site_fract_y
 _atom_site_fract_z
 _atom_site_occupancy
  Sr  Sr0  1  0.250000  0.881256  0.618744  1
  Sr  Sr1  1  0.881256  0.618744  0.250000  1
  Sr  Sr2  1  0.618744  0.250000  0.881256  1
  Sr  Sr3  1  0.750000  0.118744  0.381256  1
  Sr  Sr4  1  0.381256  0.750000  0.118744  1
  Sr  Sr5  1  0.118744  0.381256  0.750000  1
  Dy  Dy6  1  0.750000  0.750000  0.750000  1
  Dy  Dy7  1  0.250000  0.250000  0.250000  1
  Rh  Rh8  1  0.500000  0.500000  0.500000  1
  Rh  Rh9  1  0.000000  0.000000  0.000000  1
  O  O10  1  0.456369  0.590462  0.792141  1
  O  O11  1  0.792141  0.456369  0.590462  1
  O  O12  1  0.590462  0.792141  0.456369  1
  O  O13  1  0.707859  0.909538  0.043631  1
  O  O14  1  0.043631  0.707859  0.909538  1
  O  O15  1  0.909538  0.043631  0.707859  1
  O  O16  1  0.543631  0.409538  0.207859  1
  O  O17  1  0.207859  0.543631  0.409538  1
  O  O18  1  0.409538  0.207859  0.543631  1
  O  O19  1  0.292141  0.090462  0.956369  1
  O  O20  1  0.090462  0.956369  0.292141  1
  O  O21  1  0.956369  0.292141  0.090462  1
