# generated using pymatgen
data_Ti(SnO2)2
_symmetry_space_group_name_H-M   'P 1'
_cell_length_a   8.61936848
_cell_length_b   8.61936848
_cell_length_c   6.00547591
_cell_angle_alpha   90.00000000
_cell_angle_beta   90.00000000
_cell_angle_gamma   90.00000000
_symmetry_Int_Tables_number   1
_chemical_formula_structural   Ti(SnO2)2
_chemical_formula_sum   'Ti4 Sn8 O16'
_cell_volume   446.16790255
_cell_formula_units_Z   4
loop_
 _symmetry_equiv_pos_site_id
 _symmetry_equiv_pos_as_xyz
  1  'x, y, z'
loop_
 _atom_site_type_symbol
 _atom_site_label
 _atom_site_symmetry_multiplicity
 _atom_site_fract_x
 _atom_site_fract_y
 _atom_site_fract_z
 _atom_site_occupancy
  Ti  Ti0  1  0.000000  0.500000  0.250000  1
  Ti  Ti1  1  0.500000  0.000000  0.750000  1
  Ti  Ti2  1  0.000000  0.500000  0.750000  1
  Ti  Ti3  1  0.500000  0.000000  0.250000  1
  Sn  Sn4  1  0.352867  0.336789  0.500000  1
  Sn  Sn5  1  0.647133  0.663211  0.500000  1
  Sn  Sn6  1  0.663211  0.352867  0.000000  1
  Sn  Sn7  1  0.336789  0.647133  0.000000  1
  Sn  Sn8  1  0.836789  0.852867  0.000000  1
  Sn  Sn9  1  0.852867  0.163211  0.500000  1
  Sn  Sn10  1  0.147133  0.836789  0.500000  1
  Sn  Sn11  1  0.163211  0.147133  0.000000  1
  O  O12  1  0.402641  0.881039  0.500000  1
  O  O13  1  0.597359  0.118961  0.500000  1
  O  O14  1  0.118961  0.402641  0.000000  1
  O  O15  1  0.881039  0.597359  0.000000  1
  O  O16  1  0.381039  0.902641  0.000000  1
  O  O17  1  0.902641  0.618961  0.500000  1
  O  O18  1  0.097359  0.381039  0.500000  1
  O  O19  1  0.618961  0.097359  0.000000  1
  O  O20  1  0.163046  0.663046  0.750000  1
  O  O21  1  0.663046  0.836954  0.250000  1
  O  O22  1  0.336954  0.163046  0.250000  1
  O  O23  1  0.836954  0.336954  0.750000  1
  O  O24  1  0.163046  0.663046  0.250000  1
  O  O25  1  0.663046  0.836954  0.750000  1
  O  O26  1  0.336954  0.163046  0.750000  1
  O  O27  1  0.836954  0.336954  0.250000  1
