# generated using pymatgen
data_CdMoO4
_symmetry_space_group_name_H-M   'P 1'
_cell_length_a   6.80978991
_cell_length_b   6.80978991
_cell_length_c   6.80978991
_cell_angle_alpha   134.60842370
_cell_angle_beta   134.60842370
_cell_angle_gamma   66.13923326
_symmetry_Int_Tables_number   1
_chemical_formula_structural   CdMoO4
_chemical_formula_sum   'Cd2 Mo2 O8'
_cell_volume   157.58682216
_cell_formula_units_Z   2
loop_
 _symmetry_equiv_pos_site_id
 _symmetry_equiv_pos_as_xyz
  1  'x, y, z'
loop_
 _atom_site_type_symbol
 _atom_site_label
 _atom_site_symmetry_multiplicity
 _atom_site_fract_x
 _atom_site_fract_y
 _atom_site_fract_z
 _atom_site_occupancy
  Cd  Cd0  1  0.750000  0.250000  0.500000  1
  Cd  Cd1  1  0.000000  0.000000  0.000000  1
  Mo  Mo2  1  0.250000  0.750000  0.500000  1
  Mo  Mo3  1  0.500000  0.500000  0.000000  1
  O  O4  1  0.430035  0.830303  0.088616  1
  O  O5  1  0.580303  0.991687  0.900268  1
  O  O6  1  0.091419  0.680035  0.099732  1
  O  O7  1  0.741687  0.341419  0.911384  1
  O  O8  1  0.008313  0.908581  0.588616  1
  O  O9  1  0.658581  0.569965  0.400268  1
  O  O10  1  0.169697  0.258313  0.599732  1
  O  O11  1  0.319965  0.419697  0.411384  1
