# generated using pymatgen
data_Sr2SiO4
_symmetry_space_group_name_H-M   'P 1'
_cell_length_a   5.68272602
_cell_length_b   7.14205467
_cell_length_c   9.94380637
_cell_angle_alpha   90.00000000
_cell_angle_beta   90.00000000
_cell_angle_gamma   90.00000000
_symmetry_Int_Tables_number   1
_chemical_formula_structural   Sr2SiO4
_chemical_formula_sum   'Sr8 Si4 O16'
_cell_volume   403.58270533
_cell_formula_units_Z   4
loop_
 _symmetry_equiv_pos_site_id
 _symmetry_equiv_pos_as_xyz
  1  'x, y, z'
loop_
 _atom_site_type_symbol
 _atom_site_label
 _atom_site_symmetry_multiplicity
 _atom_site_fract_x
 _atom_site_fract_y
 _atom_site_fract_z
 _atom_site_occupancy
  Sr  Sr0  1  0.250000  0.499678  0.802838  1
  Sr  Sr1  1  0.750000  0.500322  0.197162  1
  Sr  Sr2  1  0.250000  0.999678  0.697162  1
  Sr  Sr3  1  0.750000  0.000322  0.302838  1
  Sr  Sr4  1  0.250000  0.157323  0.071123  1
  Sr  Sr5  1  0.750000  0.842677  0.928877  1
  Sr  Sr6  1  0.250000  0.657323  0.428877  1
  Sr  Sr7  1  0.750000  0.342677  0.571123  1
  Si  Si8  1  0.250000  0.720183  0.080519  1
  Si  Si9  1  0.750000  0.279817  0.919481  1
  Si  Si10  1  0.250000  0.220183  0.419481  1
  Si  Si11  1  0.750000  0.779817  0.580519  1
  O  O12  1  0.512222  0.202158  0.843102  1
  O  O13  1  0.012222  0.797842  0.156898  1
  O  O14  1  0.987778  0.702158  0.656898  1
  O  O15  1  0.487778  0.297842  0.343102  1
  O  O16  1  0.487778  0.797842  0.156898  1
  O  O17  1  0.987778  0.202158  0.843102  1
  O  O18  1  0.012222  0.297842  0.343102  1
  O  O19  1  0.512222  0.702158  0.656898  1
  O  O20  1  0.250000  0.819017  0.928484  1
  O  O21  1  0.750000  0.180983  0.071516  1
  O  O22  1  0.250000  0.319017  0.571516  1
  O  O23  1  0.750000  0.680983  0.428484  1
  O  O24  1  0.750000  0.008045  0.570700  1
  O  O25  1  0.250000  0.991955  0.429300  1
  O  O26  1  0.750000  0.508045  0.929300  1
  O  O27  1  0.250000  0.491955  0.070700  1
