# generated using pymatgen
data_Sr5NbN5
_symmetry_space_group_name_H-M   'P 1'
_cell_length_a   6.51228872
_cell_length_b   7.33445600
_cell_length_c   18.03005463
_cell_angle_alpha   90.00000000
_cell_angle_beta   90.00000000
_cell_angle_gamma   90.00000000
_symmetry_Int_Tables_number   1
_chemical_formula_structural   Sr5NbN5
_chemical_formula_sum   'Sr20 Nb4 N20'
_cell_volume   861.18924358
_cell_formula_units_Z   4
loop_
 _symmetry_equiv_pos_site_id
 _symmetry_equiv_pos_as_xyz
  1  'x, y, z'
loop_
 _atom_site_type_symbol
 _atom_site_label
 _atom_site_symmetry_multiplicity
 _atom_site_fract_x
 _atom_site_fract_y
 _atom_site_fract_z
 _atom_site_occupancy
  Sr  Sr0  1  0.035016  0.000000  0.250000  1
  Sr  Sr1  1  0.964984  0.500000  0.750000  1
  Sr  Sr2  1  0.964984  0.000000  0.750000  1
  Sr  Sr3  1  0.035016  0.500000  0.250000  1
  Sr  Sr4  1  0.500038  0.250000  0.735401  1
  Sr  Sr5  1  0.500038  0.750000  0.764599  1
  Sr  Sr6  1  0.820821  0.750000  0.919749  1
  Sr  Sr7  1  0.820821  0.250000  0.580251  1
  Sr  Sr8  1  0.179179  0.250000  0.080251  1
  Sr  Sr9  1  0.179179  0.750000  0.419749  1
  Sr  Sr10  1  0.299301  0.495096  0.576709  1
  Sr  Sr11  1  0.299301  0.504904  0.923291  1
  Sr  Sr12  1  0.700699  0.995096  0.423291  1
  Sr  Sr13  1  0.700699  0.004904  0.076709  1
  Sr  Sr14  1  0.700699  0.504904  0.423291  1
  Sr  Sr15  1  0.700699  0.495096  0.076709  1
  Sr  Sr16  1  0.299301  0.004904  0.576709  1
  Sr  Sr17  1  0.299301  0.995096  0.923291  1
  Sr  Sr18  1  0.499962  0.750000  0.264599  1
  Sr  Sr19  1  0.499962  0.250000  0.235401  1
  Nb  Nb20  1  0.729224  0.750000  0.593380  1
  Nb  Nb21  1  0.729224  0.250000  0.906620  1
  Nb  Nb22  1  0.270776  0.250000  0.406620  1
  Nb  Nb23  1  0.270776  0.750000  0.093380  1
  N  N24  1  0.852003  0.750000  0.323965  1
  N  N25  1  0.852003  0.250000  0.176035  1
  N  N26  1  0.147997  0.250000  0.676035  1
  N  N27  1  0.147997  0.750000  0.823965  1
  N  N28  1  0.468272  0.250000  0.489105  1
  N  N29  1  0.468272  0.750000  0.010895  1
  N  N30  1  0.013707  0.750000  0.554216  1
  N  N31  1  0.013707  0.250000  0.945784  1
  N  N32  1  0.986293  0.250000  0.445784  1
  N  N33  1  0.986293  0.750000  0.054216  1
  N  N34  1  0.346645  0.469382  0.345664  1
  N  N35  1  0.346645  0.530618  0.154336  1
  N  N36  1  0.653355  0.969382  0.654336  1
  N  N37  1  0.653355  0.030618  0.845664  1
  N  N38  1  0.653355  0.530618  0.654336  1
  N  N39  1  0.653355  0.469382  0.845664  1
  N  N40  1  0.346645  0.030618  0.345664  1
  N  N41  1  0.346645  0.969382  0.154336  1
  N  N42  1  0.531728  0.750000  0.510895  1
  N  N43  1  0.531728  0.250000  0.989105  1
