# generated using pymatgen
data_Pr4Si2Se3O7
_symmetry_space_group_name_H-M   'P 1'
_cell_length_a   11.35350962
_cell_length_b   11.35350962
_cell_length_c   11.35350962
_cell_angle_alpha   114.62457929
_cell_angle_beta   114.62457929
_cell_angle_gamma   99.59358709
_symmetry_Int_Tables_number   1
_chemical_formula_structural   Pr4Si2Se3O7
_chemical_formula_sum   'Pr16 Si8 Se12 O28'
_cell_volume   1102.12446004
_cell_formula_units_Z   4
loop_
 _symmetry_equiv_pos_site_id
 _symmetry_equiv_pos_as_xyz
  1  'x, y, z'
loop_
 _atom_site_type_symbol
 _atom_site_label
 _atom_site_symmetry_multiplicity
 _atom_site_fract_x
 _atom_site_fract_y
 _atom_site_fract_z
 _atom_site_occupancy
  Pr  Pr0  1  0.172370  0.827630  0.000000  1
  Pr  Pr1  1  0.577630  0.077630  0.155260  1
  Pr  Pr2  1  0.922370  0.422370  0.844740  1
  Pr  Pr3  1  0.827630  0.172370  0.000000  1
  Pr  Pr4  1  0.577630  0.422370  0.500000  1
  Pr  Pr5  1  0.172370  0.172370  0.344740  1
  Pr  Pr6  1  0.827630  0.827630  0.655260  1
  Pr  Pr7  1  0.922370  0.077630  0.500000  1
  Pr  Pr8  1  0.051014  0.790778  0.260236  1
  Pr  Pr9  1  0.530542  0.790778  0.739764  1
  Pr  Pr10  1  0.209222  0.469458  0.260236  1
  Pr  Pr11  1  0.540778  0.301014  0.760236  1
  Pr  Pr12  1  0.540778  0.780542  0.239764  1
  Pr  Pr13  1  0.219458  0.459222  0.760236  1
  Pr  Pr14  1  0.698986  0.459222  0.239764  1
  Pr  Pr15  1  0.209222  0.948986  0.739764  1
  Si  Si16  1  0.654906  0.031101  0.623805  1
  Si  Si17  1  0.407296  0.031101  0.376195  1
  Si  Si18  1  0.968899  0.592704  0.623805  1
  Si  Si19  1  0.781101  0.904906  0.123805  1
  Si  Si20  1  0.781101  0.657296  0.876195  1
  Si  Si21  1  0.342704  0.218899  0.123805  1
  Si  Si22  1  0.095094  0.218899  0.876195  1
  Si  Si23  1  0.968899  0.345094  0.376195  1
  Se  Se24  1  0.750000  0.250000  0.500000  1
  Se  Se25  1  0.000000  0.000000  0.000000  1
  Se  Se26  1  0.500000  0.500000  0.000000  1
  Se  Se27  1  0.250000  0.750000  0.500000  1
  Se  Se28  1  0.228654  0.125000  0.603654  1
  Se  Se29  1  0.875000  0.771346  0.396346  1
  Se  Se30  1  0.375000  0.478654  0.603654  1
  Se  Se31  1  0.521346  0.625000  0.396346  1
  Se  Se32  1  0.521346  0.125000  0.896346  1
  Se  Se33  1  0.875000  0.478654  0.103654  1
  Se  Se34  1  0.375000  0.771346  0.896346  1
  Se  Se35  1  0.228654  0.625000  0.103654  1
  O  O36  1  0.014609  0.514609  0.500000  1
  O  O37  1  0.264609  0.264609  0.000000  1
  O  O38  1  0.735391  0.735391  0.000000  1
  O  O39  1  0.485391  0.985391  0.500000  1
  O  O40  1  0.230326  0.955363  0.274963  1
  O  O41  1  0.680400  0.955363  0.725037  1
  O  O42  1  0.044637  0.319600  0.274963  1
  O  O43  1  0.705363  0.480326  0.774963  1
  O  O44  1  0.705363  0.930400  0.225037  1
  O  O45  1  0.069600  0.294637  0.774963  1
  O  O46  1  0.519674  0.294637  0.225037  1
  O  O47  1  0.044637  0.769674  0.725037  1
  O  O48  1  0.307138  0.284208  0.258216  1
  O  O49  1  0.025992  0.048921  0.741784  1
  O  O50  1  0.951079  0.974008  0.258216  1
  O  O51  1  0.798921  0.557138  0.522929  1
  O  O52  1  0.034208  0.275992  0.477071  1
  O  O53  1  0.724008  0.965792  0.522929  1
  O  O54  1  0.442862  0.201079  0.477071  1
  O  O55  1  0.715792  0.692862  0.741784  1
  O  O56  1  0.442862  0.965792  0.241784  1
  O  O57  1  0.724008  0.201079  0.758216  1
  O  O58  1  0.798921  0.275992  0.241784  1
  O  O59  1  0.951079  0.692862  0.977071  1
  O  O60  1  0.715792  0.974008  0.022929  1
  O  O61  1  0.025992  0.284208  0.977071  1
  O  O62  1  0.307138  0.048921  0.022929  1
  O  O63  1  0.034208  0.557138  0.758216  1
