# generated using pymatgen
data_Ba3Sc(BO3)3
_symmetry_space_group_name_H-M   'P 1'
_cell_length_a   9.36296543
_cell_length_b   9.36296543
_cell_length_c   17.64879755
_cell_angle_alpha   90.00000000
_cell_angle_beta   90.00000000
_cell_angle_gamma   120.00000000
_symmetry_Int_Tables_number   1
_chemical_formula_structural   Ba3Sc(BO3)3
_chemical_formula_sum   'Ba18 Sc6 B18 O54'
_cell_volume   1339.90063330
_cell_formula_units_Z   6
loop_
 _symmetry_equiv_pos_site_id
 _symmetry_equiv_pos_as_xyz
  1  'x, y, z'
loop_
 _atom_site_type_symbol
 _atom_site_label
 _atom_site_symmetry_multiplicity
 _atom_site_fract_x
 _atom_site_fract_y
 _atom_site_fract_z
 _atom_site_occupancy
  Ba  Ba0  1  0.666667  0.333333  0.058575  1
  Ba  Ba1  1  0.333333  0.666667  0.558575  1
  Ba  Ba2  1  0.666667  0.333333  0.558575  1
  Ba  Ba3  1  0.333333  0.666667  0.058575  1
  Ba  Ba4  1  0.347606  0.000000  0.406996  1
  Ba  Ba5  1  0.347606  0.347606  0.906996  1
  Ba  Ba6  1  0.000000  0.652394  0.906996  1
  Ba  Ba7  1  0.000000  0.347606  0.406996  1
  Ba  Ba8  1  0.652394  0.652394  0.406996  1
  Ba  Ba9  1  0.652394  0.000000  0.906996  1
  Ba  Ba10  1  0.318195  0.000000  0.654320  1
  Ba  Ba11  1  0.318195  0.318195  0.154320  1
  Ba  Ba12  1  0.000000  0.681805  0.154320  1
  Ba  Ba13  1  0.000000  0.318195  0.654320  1
  Ba  Ba14  1  0.681805  0.681805  0.654320  1
  Ba  Ba15  1  0.681805  0.000000  0.154320  1
  Ba  Ba16  1  0.000000  0.000000  0.497032  1
  Ba  Ba17  1  0.000000  0.000000  0.997032  1
  Sc  Sc18  1  0.000000  0.000000  0.784104  1
  Sc  Sc19  1  0.000000  0.000000  0.284104  1
  Sc  Sc20  1  0.333333  0.666667  0.277296  1
  Sc  Sc21  1  0.666667  0.333333  0.777296  1
  Sc  Sc22  1  0.333333  0.666667  0.777296  1
  Sc  Sc23  1  0.666667  0.333333  0.277296  1
  B  B24  1  0.660904  0.000000  0.707623  1
  B  B25  1  0.660904  0.660904  0.207623  1
  B  B26  1  0.000000  0.339096  0.207623  1
  B  B27  1  0.000000  0.660904  0.707623  1
  B  B28  1  0.339096  0.339096  0.707623  1
  B  B29  1  0.339096  0.000000  0.207623  1
  B  B30  1  0.672466  0.000000  0.348215  1
  B  B31  1  0.672466  0.672466  0.848215  1
  B  B32  1  0.000000  0.327534  0.848215  1
  B  B33  1  0.000000  0.672466  0.348215  1
  B  B34  1  0.327534  0.327534  0.348215  1
  B  B35  1  0.327534  0.000000  0.848215  1
  B  B36  1  0.667364  0.000000  0.529426  1
  B  B37  1  0.667364  0.667364  0.029426  1
  B  B38  1  0.000000  0.332636  0.029426  1
  B  B39  1  0.000000  0.667364  0.529426  1
  B  B40  1  0.332636  0.332636  0.529426  1
  B  B41  1  0.332636  0.000000  0.029426  1
  O  O42  1  0.672724  0.523943  0.844065  1
  O  O43  1  0.476057  0.148781  0.844065  1
  O  O44  1  0.851219  0.327276  0.844065  1
  O  O45  1  0.148781  0.672724  0.344065  1
  O  O46  1  0.327276  0.476057  0.344065  1
  O  O47  1  0.523943  0.851219  0.344065  1
  O  O48  1  0.672724  0.148781  0.344065  1
  O  O49  1  0.523943  0.672724  0.844065  1
  O  O50  1  0.148781  0.476057  0.844065  1
  O  O51  1  0.851219  0.523943  0.344065  1
  O  O52  1  0.476057  0.327276  0.344065  1
  O  O53  1  0.327276  0.851219  0.844065  1
  O  O54  1  0.667263  0.815902  0.029845  1
  O  O55  1  0.184098  0.851362  0.029845  1
  O  O56  1  0.148638  0.332737  0.029845  1
  O  O57  1  0.851362  0.667263  0.529845  1
  O  O58  1  0.332737  0.184098  0.529845  1
  O  O59  1  0.815902  0.148638  0.529845  1
  O  O60  1  0.667263  0.851362  0.529845  1
  O  O61  1  0.815902  0.667263  0.029845  1
  O  O62  1  0.851362  0.184098  0.029845  1
  O  O63  1  0.148638  0.815902  0.529845  1
  O  O64  1  0.184098  0.332737  0.529845  1
  O  O65  1  0.332737  0.148638  0.029845  1
  O  O66  1  0.820212  0.000000  0.357978  1
  O  O67  1  0.820212  0.820212  0.857978  1
  O  O68  1  0.000000  0.179788  0.857978  1
  O  O69  1  0.000000  0.820212  0.357978  1
  O  O70  1  0.179788  0.179788  0.357978  1
  O  O71  1  0.179788  0.000000  0.857978  1
  O  O72  1  0.809445  0.000000  0.716500  1
  O  O73  1  0.809445  0.809445  0.216500  1
  O  O74  1  0.000000  0.190555  0.216500  1
  O  O75  1  0.000000  0.809445  0.716500  1
  O  O76  1  0.190555  0.190555  0.716500  1
  O  O77  1  0.190555  0.000000  0.216500  1
  O  O78  1  0.518738  0.000000  0.529319  1
  O  O79  1  0.518738  0.518738  0.029319  1
  O  O80  1  0.000000  0.481262  0.029319  1
  O  O81  1  0.000000  0.518738  0.529319  1
  O  O82  1  0.481262  0.481262  0.529319  1
  O  O83  1  0.481262  0.000000  0.029319  1
  O  O84  1  0.487320  0.149093  0.202106  1
  O  O85  1  0.850907  0.338227  0.202106  1
  O  O86  1  0.661773  0.512680  0.202106  1
  O  O87  1  0.338227  0.487320  0.702106  1
  O  O88  1  0.512680  0.850907  0.702106  1
  O  O89  1  0.149093  0.661773  0.702106  1
  O  O90  1  0.487320  0.338227  0.702106  1
  O  O91  1  0.149093  0.487320  0.202106  1
  O  O92  1  0.338227  0.850907  0.202106  1
  O  O93  1  0.661773  0.149093  0.702106  1
  O  O94  1  0.850907  0.512680  0.702106  1
  O  O95  1  0.512680  0.661773  0.202106  1
