# generated using pymatgen
data_Sm2SiTeO4
_symmetry_space_group_name_H-M   'P 1'
_cell_length_a   8.70397952
_cell_length_b   6.39481177
_cell_length_c   9.89361217
_cell_angle_alpha   90.00000000
_cell_angle_beta   95.49272798
_cell_angle_gamma   90.00000000
_symmetry_Int_Tables_number   1
_chemical_formula_structural   Sm2SiTeO4
_chemical_formula_sum   'Sm8 Si4 Te4 O16'
_cell_volume   548.15299308
_cell_formula_units_Z   4
loop_
 _symmetry_equiv_pos_site_id
 _symmetry_equiv_pos_as_xyz
  1  'x, y, z'
loop_
 _atom_site_type_symbol
 _atom_site_label
 _atom_site_symmetry_multiplicity
 _atom_site_fract_x
 _atom_site_fract_y
 _atom_site_fract_z
 _atom_site_occupancy
  Sm  Sm0  1  0.336190  0.303902  0.345164  1
  Sm  Sm1  1  0.836190  0.196098  0.345164  1
  Sm  Sm2  1  0.663810  0.696098  0.654836  1
  Sm  Sm3  1  0.163810  0.803902  0.654836  1
  Sm  Sm4  1  0.804567  0.153863  0.891969  1
  Sm  Sm5  1  0.695433  0.653863  0.108031  1
  Sm  Sm6  1  0.195433  0.846137  0.108031  1
  Sm  Sm7  1  0.304567  0.346137  0.891969  1
  Si  Si8  1  0.443859  0.808985  0.875092  1
  Si  Si9  1  0.556141  0.191015  0.124908  1
  Si  Si10  1  0.056141  0.308985  0.124908  1
  Si  Si11  1  0.943859  0.691015  0.875092  1
  Te  Te12  1  0.879772  0.713908  0.411317  1
  Te  Te13  1  0.620228  0.213908  0.588683  1
  Te  Te14  1  0.120228  0.286092  0.588683  1
  Te  Te15  1  0.379772  0.786092  0.411317  1
  O  O16  1  0.908964  0.865932  0.752539  1
  O  O17  1  0.591036  0.365932  0.247461  1
  O  O18  1  0.091036  0.134068  0.247461  1
  O  O19  1  0.408964  0.634068  0.752539  1
  O  O20  1  0.817190  0.506958  0.839530  1
  O  O21  1  0.682810  0.006958  0.160470  1
  O  O22  1  0.182810  0.493042  0.160470  1
  O  O23  1  0.317190  0.993042  0.839530  1
  O  O24  1  0.627184  0.865790  0.875149  1
  O  O25  1  0.076838  0.196160  0.977992  1
  O  O26  1  0.372816  0.134210  0.124851  1
  O  O27  1  0.127184  0.634210  0.875149  1
  O  O28  1  0.576838  0.303840  0.977992  1
  O  O29  1  0.923162  0.803840  0.022008  1
  O  O30  1  0.423162  0.696160  0.022008  1
  O  O31  1  0.872816  0.365790  0.124851  1
