# generated using pymatgen
data_Ni3(BO3)2
_symmetry_space_group_name_H-M   'P 1'
_cell_length_a   4.49872150
_cell_length_b   5.44160370
_cell_length_c   8.38576674
_cell_angle_alpha   90.00000000
_cell_angle_beta   90.00000000
_cell_angle_gamma   90.00000000
_symmetry_Int_Tables_number   1
_chemical_formula_structural   Ni3(BO3)2
_chemical_formula_sum   'Ni6 B4 O12'
_cell_volume   205.28574640
_cell_formula_units_Z   2
loop_
 _symmetry_equiv_pos_site_id
 _symmetry_equiv_pos_as_xyz
  1  'x, y, z'
loop_
 _atom_site_type_symbol
 _atom_site_label
 _atom_site_symmetry_multiplicity
 _atom_site_fract_x
 _atom_site_fract_y
 _atom_site_fract_z
 _atom_site_occupancy
  Ni  Ni0  1  0.500000  0.500000  0.500000  1
  Ni  Ni1  1  0.000000  0.000000  0.000000  1
  Ni  Ni2  1  0.000000  0.500000  0.184072  1
  Ni  Ni3  1  0.500000  0.000000  0.315928  1
  Ni  Ni4  1  0.000000  0.500000  0.815928  1
  Ni  Ni5  1  0.500000  0.000000  0.684072  1
  B  B6  1  0.043370  0.244948  0.500000  1
  B  B7  1  0.956630  0.755052  0.500000  1
  B  B8  1  0.456630  0.744948  0.000000  1
  B  B9  1  0.543370  0.255052  0.000000  1
  O  O10  1  0.748370  0.174750  0.500000  1
  O  O11  1  0.251630  0.825250  0.500000  1
  O  O12  1  0.751630  0.674750  0.000000  1
  O  O13  1  0.248370  0.325250  0.000000  1
  O  O14  1  0.201452  0.298070  0.360040  1
  O  O15  1  0.798548  0.701930  0.360040  1
  O  O16  1  0.298548  0.798070  0.139960  1
  O  O17  1  0.701452  0.201930  0.139960  1
  O  O18  1  0.798548  0.701930  0.639960  1
  O  O19  1  0.201452  0.298070  0.639960  1
  O  O20  1  0.701452  0.201930  0.860040  1
  O  O21  1  0.298548  0.798070  0.860040  1
