# generated using pymatgen
data_CoWO4
_symmetry_space_group_name_H-M   'P 1'
_cell_length_a   4.72156080
_cell_length_b   5.76163283
_cell_length_c   5.04918225
_cell_angle_alpha   90.00000000
_cell_angle_beta   90.55476082
_cell_angle_gamma   90.00000000
_symmetry_Int_Tables_number   1
_chemical_formula_structural   CoWO4
_chemical_formula_sum   'Co2 W2 O8'
_cell_volume   137.35100906
_cell_formula_units_Z   2
loop_
 _symmetry_equiv_pos_site_id
 _symmetry_equiv_pos_as_xyz
  1  'x, y, z'
loop_
 _atom_site_type_symbol
 _atom_site_label
 _atom_site_symmetry_multiplicity
 _atom_site_fract_x
 _atom_site_fract_y
 _atom_site_fract_z
 _atom_site_occupancy
  Co  Co0  1  0.000000  0.660495  0.750000  1
  Co  Co1  1  0.000000  0.339505  0.250000  1
  W  W2  1  0.500000  0.825791  0.250000  1
  W  W3  1  0.500000  0.174209  0.750000  1
  O  O4  1  0.757213  0.376738  0.904008  1
  O  O5  1  0.242787  0.376738  0.595992  1
  O  O6  1  0.757213  0.623262  0.404008  1
  O  O7  1  0.717526  0.108121  0.435967  1
  O  O8  1  0.282474  0.891879  0.564033  1
  O  O9  1  0.717526  0.891879  0.935967  1
  O  O10  1  0.282474  0.108121  0.064033  1
  O  O11  1  0.242787  0.623262  0.095992  1
