# generated using pymatgen
data_CsCOF3
_symmetry_space_group_name_H-M   'P 1'
_cell_length_a   6.07783384
_cell_length_b   7.90487241
_cell_length_c   9.63091333
_cell_angle_alpha   90.00000000
_cell_angle_beta   90.79721143
_cell_angle_gamma   90.00000000
_symmetry_Int_Tables_number   1
_chemical_formula_structural   CsCOF3
_chemical_formula_sum   'Cs4 C4 O4 F12'
_cell_volume   462.66763590
_cell_formula_units_Z   4
loop_
 _symmetry_equiv_pos_site_id
 _symmetry_equiv_pos_as_xyz
  1  'x, y, z'
loop_
 _atom_site_type_symbol
 _atom_site_label
 _atom_site_symmetry_multiplicity
 _atom_site_fract_x
 _atom_site_fract_y
 _atom_site_fract_z
 _atom_site_occupancy
  Cs  Cs0  1  0.267724  0.658186  0.820919  1
  Cs  Cs1  1  0.732276  0.158186  0.679081  1
  Cs  Cs2  1  0.732276  0.341814  0.179081  1
  Cs  Cs3  1  0.267724  0.841814  0.320919  1
  C  C4  1  0.266881  0.295259  0.432569  1
  C  C5  1  0.733119  0.795259  0.067431  1
  C  C6  1  0.733119  0.704741  0.567431  1
  C  C7  1  0.266881  0.204741  0.932569  1
  O  O8  1  0.432873  0.291625  0.916787  1
  O  O9  1  0.567127  0.708375  0.083213  1
  O  O10  1  0.432873  0.208375  0.416787  1
  O  O11  1  0.567127  0.791625  0.583213  1
  F  F12  1  0.242020  0.121778  0.063002  1
  F  F13  1  0.242020  0.378222  0.563002  1
  F  F14  1  0.757980  0.621778  0.436998  1
  F  F15  1  0.757980  0.878222  0.936998  1
  F  F16  1  0.056454  0.294646  0.919808  1
  F  F17  1  0.943546  0.794646  0.580192  1
  F  F18  1  0.943546  0.705354  0.080192  1
  F  F19  1  0.056454  0.205354  0.419808  1
  F  F20  1  0.231635  0.068432  0.835034  1
  F  F21  1  0.768365  0.568432  0.664966  1
  F  F22  1  0.768365  0.931568  0.164966  1
  F  F23  1  0.231635  0.431568  0.335034  1
