# generated using pymatgen
data_Pr3SiAgSe7
_symmetry_space_group_name_H-M   'P 1'
_cell_length_a   10.83301283
_cell_length_b   10.83301283
_cell_length_c   6.09608837
_cell_angle_alpha   90.00000000
_cell_angle_beta   90.00000000
_cell_angle_gamma   120.00000000
_symmetry_Int_Tables_number   1
_chemical_formula_structural   Pr3SiAgSe7
_chemical_formula_sum   'Pr6 Si2 Ag2 Se14'
_cell_volume   619.55576239
_cell_formula_units_Z   2
loop_
 _symmetry_equiv_pos_site_id
 _symmetry_equiv_pos_as_xyz
  1  'x, y, z'
loop_
 _atom_site_type_symbol
 _atom_site_label
 _atom_site_symmetry_multiplicity
 _atom_site_fract_x
 _atom_site_fract_y
 _atom_site_fract_z
 _atom_site_occupancy
  Pr  Pr0  1  0.125417  0.357284  0.739926  1
  Pr  Pr1  1  0.768133  0.125417  0.239926  1
  Pr  Pr2  1  0.357284  0.231867  0.239926  1
  Pr  Pr3  1  0.642716  0.768133  0.739926  1
  Pr  Pr4  1  0.231867  0.874583  0.739926  1
  Pr  Pr5  1  0.874583  0.642716  0.239926  1
  Si  Si6  1  0.333333  0.666667  0.329139  1
  Si  Si7  1  0.666667  0.333333  0.829139  1
  Ag  Ag8  1  0.000000  0.000000  0.195650  1
  Ag  Ag9  1  0.000000  0.000000  0.695650  1
  Se  Se10  1  0.522410  0.109964  0.979279  1
  Se  Se11  1  0.477590  0.890036  0.479279  1
  Se  Se12  1  0.109964  0.587554  0.479279  1
  Se  Se13  1  0.587554  0.477590  0.979279  1
  Se  Se14  1  0.094089  0.269778  0.225138  1
  Se  Se15  1  0.824312  0.094089  0.725138  1
  Se  Se16  1  0.412446  0.522410  0.479279  1
  Se  Se17  1  0.890036  0.412446  0.979279  1
  Se  Se18  1  0.333333  0.666667  0.956042  1
  Se  Se19  1  0.666667  0.333333  0.456042  1
  Se  Se20  1  0.905911  0.730222  0.725138  1
  Se  Se21  1  0.175688  0.905911  0.225138  1
  Se  Se22  1  0.730222  0.824312  0.225138  1
  Se  Se23  1  0.269778  0.175688  0.725138  1
