# generated using pymatgen
data_Sr3Sn2O7
_symmetry_space_group_name_H-M   'P 1'
_cell_length_a   10.76449123
_cell_length_b   10.76449123
_cell_length_c   5.80140261
_cell_angle_alpha   90.00000000
_cell_angle_beta   90.00000000
_cell_angle_gamma   148.25739915
_symmetry_Int_Tables_number   1
_chemical_formula_structural   Sr3Sn2O7
_chemical_formula_sum   'Sr6 Sn4 O14'
_cell_volume   353.66469916
_cell_formula_units_Z   2
loop_
 _symmetry_equiv_pos_site_id
 _symmetry_equiv_pos_as_xyz
  1  'x, y, z'
loop_
 _atom_site_type_symbol
 _atom_site_label
 _atom_site_symmetry_multiplicity
 _atom_site_fract_x
 _atom_site_fract_y
 _atom_site_fract_z
 _atom_site_occupancy
  Sr  Sr0  1  0.242941  0.242941  0.250000  1
  Sr  Sr1  1  0.757059  0.757059  0.750000  1
  Sr  Sr2  1  0.050179  0.424664  0.250000  1
  Sr  Sr3  1  0.949821  0.575336  0.750000  1
  Sr  Sr4  1  0.575336  0.949821  0.750000  1
  Sr  Sr5  1  0.424664  0.050179  0.250000  1
  Sn  Sn6  1  0.649490  0.847053  0.250000  1
  Sn  Sn7  1  0.350510  0.152947  0.750000  1
  Sn  Sn8  1  0.847053  0.649490  0.250000  1
  Sn  Sn9  1  0.152947  0.350510  0.750000  1
  O  O10  1  0.917538  0.082462  0.000000  1
  O  O11  1  0.082462  0.917538  0.500000  1
  O  O12  1  0.082462  0.917538  1.000000  1
  O  O13  1  0.917538  0.082462  0.500000  1
  O  O14  1  0.613390  0.386610  0.500000  1
  O  O15  1  0.386610  0.613390  0.000000  1
  O  O16  1  0.386610  0.613390  0.500000  1
  O  O17  1  0.613390  0.386610  0.000000  1
  O  O18  1  0.991880  0.386389  0.750000  1
  O  O19  1  0.008120  0.613611  0.250000  1
  O  O20  1  0.673611  0.673611  0.250000  1
  O  O21  1  0.326389  0.326389  0.750000  1
  O  O22  1  0.613611  0.008120  0.250000  1
  O  O23  1  0.386389  0.991880  0.750000  1
