# generated using pymatgen
data_Li2CaHfF8
_symmetry_space_group_name_H-M   'P 1'
_cell_length_a   6.44552769
_cell_length_b   6.44552769
_cell_length_c   6.44552769
_cell_angle_alpha   132.64765494
_cell_angle_beta   132.64765494
_cell_angle_gamma   69.20802975
_symmetry_Int_Tables_number   1
_chemical_formula_structural   Li2CaHfF8
_chemical_formula_sum   'Li2 Ca1 Hf1 F8'
_cell_volume   142.16809387
_cell_formula_units_Z   1
loop_
 _symmetry_equiv_pos_site_id
 _symmetry_equiv_pos_as_xyz
  1  'x, y, z'
loop_
 _atom_site_type_symbol
 _atom_site_label
 _atom_site_symmetry_multiplicity
 _atom_site_fract_x
 _atom_site_fract_y
 _atom_site_fract_z
 _atom_site_occupancy
  Li  Li0  1  0.250000  0.750000  0.500000  1
  Li  Li1  1  0.500000  0.500000  0.000000  1
  Ca  Ca2  1  0.000000  0.000000  0.000000  1
  Hf  Hf3  1  0.750000  0.250000  0.500000  1
  F  F4  1  0.606907  0.630604  0.597855  1
  F  F5  1  0.119897  0.558352  0.857042  1
  F  F6  1  0.990948  0.393093  0.023698  1
  F  F7  1  0.369396  0.967251  0.976302  1
  F  F8  1  0.032749  0.009052  0.402145  1
  F  F9  1  0.737145  0.880103  0.438455  1
  F  F10  1  0.701310  0.262855  0.142958  1
  F  F11  1  0.441648  0.298690  0.561545  1
