# generated using pymatgen
data_Y2TeO6
_symmetry_space_group_name_H-M   'P 1'
_cell_length_a   5.31934172
_cell_length_b   9.17268634
_cell_length_c   10.05800829
_cell_angle_alpha   90.00000000
_cell_angle_beta   90.00000000
_cell_angle_gamma   90.00000000
_symmetry_Int_Tables_number   1
_chemical_formula_structural   Y2TeO6
_chemical_formula_sum   'Y8 Te4 O24'
_cell_volume   490.75690970
_cell_formula_units_Z   4
loop_
 _symmetry_equiv_pos_site_id
 _symmetry_equiv_pos_as_xyz
  1  'x, y, z'
loop_
 _atom_site_type_symbol
 _atom_site_label
 _atom_site_symmetry_multiplicity
 _atom_site_fract_x
 _atom_site_fract_y
 _atom_site_fract_z
 _atom_site_occupancy
  Y  Y0  1  0.961588  0.783085  0.864539  1
  Y  Y1  1  0.461588  0.716915  0.135461  1
  Y  Y2  1  0.038412  0.283085  0.635461  1
  Y  Y3  1  0.538412  0.216915  0.364539  1
  Y  Y4  1  0.518751  0.103462  0.961590  1
  Y  Y5  1  0.018751  0.396538  0.038410  1
  Y  Y6  1  0.481249  0.603462  0.538410  1
  Y  Y7  1  0.981249  0.896538  0.461590  1
  Te  Te8  1  0.462242  0.995061  0.647821  1
  Te  Te9  1  0.962241  0.504939  0.352179  1
  Te  Te10  1  0.537759  0.495061  0.852179  1
  Te  Te11  1  0.037758  0.004939  0.147821  1
  O  O12  1  0.757709  0.414664  0.494939  1
  O  O13  1  0.257709  0.085336  0.505061  1
  O  O14  1  0.242291  0.914664  0.005061  1
  O  O15  1  0.742291  0.585336  0.994939  1
  O  O16  1  0.733253  0.114435  0.568644  1
  O  O17  1  0.233253  0.385565  0.431356  1
  O  O18  1  0.266747  0.614435  0.931356  1
  O  O19  1  0.766747  0.885565  0.068644  1
  O  O20  1  0.818191  0.359677  0.822057  1
  O  O21  1  0.318191  0.140323  0.177943  1
  O  O22  1  0.181809  0.859677  0.677943  1
  O  O23  1  0.681809  0.640323  0.322057  1
  O  O24  1  0.668740  0.949456  0.799114  1
  O  O25  1  0.168740  0.550544  0.200886  1
  O  O26  1  0.331260  0.449456  0.700886  1
  O  O27  1  0.831260  0.050544  0.299114  1
  O  O28  1  0.687187  0.640811  0.738849  1
  O  O29  1  0.187187  0.859189  0.261151  1
  O  O30  1  0.312813  0.140811  0.761151  1
  O  O31  1  0.812813  0.359189  0.238849  1
  O  O32  1  0.588826  0.844578  0.529495  1
  O  O33  1  0.088826  0.655422  0.470505  1
  O  O34  1  0.411174  0.344578  0.970505  1
  O  O35  1  0.911174  0.155422  0.029495  1
