# generated using pymatgen
data_K2CO3
_symmetry_space_group_name_H-M   'P 1'
_cell_length_a   5.78472107
_cell_length_b   5.78472107
_cell_length_c   7.15109898
_cell_angle_alpha   90.00000000
_cell_angle_beta   90.00000000
_cell_angle_gamma   120.00000000
_symmetry_Int_Tables_number   1
_chemical_formula_structural   K2CO3
_chemical_formula_sum   'K4 C2 O6'
_cell_volume   207.23746286
_cell_formula_units_Z   2
loop_
 _symmetry_equiv_pos_site_id
 _symmetry_equiv_pos_as_xyz
  1  'x, y, z'
loop_
 _atom_site_type_symbol
 _atom_site_label
 _atom_site_symmetry_multiplicity
 _atom_site_fract_x
 _atom_site_fract_y
 _atom_site_fract_z
 _atom_site_occupancy
  K  K0  1  0.666667  0.333333  0.750000  1
  K  K1  1  0.333333  0.666667  0.250000  1
  K  K2  1  0.000000  0.000000  0.500000  1
  K  K3  1  0.000000  0.000000  0.000000  1
  C  C4  1  0.333333  0.666667  0.750000  1
  C  C5  1  0.666667  0.333333  0.250000  1
  O  O6  1  0.593814  0.796907  0.750000  1
  O  O7  1  0.406186  0.203093  0.250000  1
  O  O8  1  0.796907  0.593814  0.250000  1
  O  O9  1  0.203093  0.796907  0.750000  1
  O  O10  1  0.203093  0.406186  0.750000  1
  O  O11  1  0.796907  0.203093  0.250000  1
