# generated using pymatgen
data_Ba2Sb3
_symmetry_space_group_name_H-M   'P 1'
_cell_length_a   7.03669922
_cell_length_b   13.69382774
_cell_length_c   16.02292127
_cell_angle_alpha   90.00000000
_cell_angle_beta   90.15136782
_cell_angle_gamma   90.00000000
_symmetry_Int_Tables_number   1
_chemical_formula_structural   Ba2Sb3
_chemical_formula_sum   'Ba16 Sb24'
_cell_volume   1543.95284219
_cell_formula_units_Z   8
loop_
 _symmetry_equiv_pos_site_id
 _symmetry_equiv_pos_as_xyz
  1  'x, y, z'
loop_
 _atom_site_type_symbol
 _atom_site_label
 _atom_site_symmetry_multiplicity
 _atom_site_fract_x
 _atom_site_fract_y
 _atom_site_fract_z
 _atom_site_occupancy
  Ba  Ba0  1  0.475524  0.523189  0.246125  1
  Ba  Ba1  1  0.524476  0.023189  0.253875  1
  Ba  Ba2  1  0.524476  0.476811  0.753875  1
  Ba  Ba3  1  0.475524  0.976811  0.746125  1
  Ba  Ba4  1  0.978357  0.772223  0.760472  1
  Ba  Ba5  1  0.021643  0.272223  0.739528  1
  Ba  Ba6  1  0.021643  0.227777  0.239528  1
  Ba  Ba7  1  0.978357  0.727777  0.260472  1
  Ba  Ba8  1  0.747001  0.873882  0.007077  1
  Ba  Ba9  1  0.252999  0.373882  0.492923  1
  Ba  Ba10  1  0.252999  0.126118  0.992923  1
  Ba  Ba11  1  0.747001  0.626118  0.507077  1
  Ba  Ba12  1  0.245994  0.622764  0.005912  1
  Ba  Ba13  1  0.754006  0.122764  0.494088  1
  Ba  Ba14  1  0.754006  0.377236  0.994088  1
  Ba  Ba15  1  0.245994  0.877236  0.505912  1
  Sb  Sb16  1  0.755997  0.616802  0.080915  1
  Sb  Sb17  1  0.244003  0.116802  0.419085  1
  Sb  Sb18  1  0.244003  0.383198  0.919085  1
  Sb  Sb19  1  0.755997  0.883198  0.580915  1
  Sb  Sb20  1  0.998503  0.980409  0.330650  1
  Sb  Sb21  1  0.001497  0.480409  0.169350  1
  Sb  Sb22  1  0.001497  0.019591  0.669350  1
  Sb  Sb23  1  0.998503  0.519591  0.830650  1
  Sb  Sb24  1  0.100712  0.548679  0.655796  1
  Sb  Sb25  1  0.899288  0.048679  0.844204  1
  Sb  Sb26  1  0.899288  0.451321  0.344204  1
  Sb  Sb27  1  0.100712  0.951321  0.155796  1
  Sb  Sb28  1  0.410944  0.793211  0.162580  1
  Sb  Sb29  1  0.589056  0.293211  0.337420  1
  Sb  Sb30  1  0.589056  0.206789  0.837420  1
  Sb  Sb31  1  0.410944  0.706789  0.662580  1
  Sb  Sb32  1  0.257167  0.632823  0.429679  1
  Sb  Sb33  1  0.742833  0.132823  0.070321  1
  Sb  Sb34  1  0.742833  0.367177  0.570321  1
  Sb  Sb35  1  0.257167  0.867177  0.929679  1
  Sb  Sb36  1  0.505527  0.769225  0.339430  1
  Sb  Sb37  1  0.494473  0.269225  0.160570  1
  Sb  Sb38  1  0.494473  0.230775  0.660570  1
  Sb  Sb39  1  0.505527  0.730775  0.839430  1
