# generated using pymatgen
data_PbCN2
_symmetry_space_group_name_H-M   'P 1'
_cell_length_a   3.92451970
_cell_length_b   5.59566970
_cell_length_c   12.42091630
_cell_angle_alpha   90.00000000
_cell_angle_beta   90.00000000
_cell_angle_gamma   90.00000000
_symmetry_Int_Tables_number   1
_chemical_formula_structural   PbCN2
_chemical_formula_sum   'Pb4 C4 N8'
_cell_volume   272.76724661
_cell_formula_units_Z   4
loop_
 _symmetry_equiv_pos_site_id
 _symmetry_equiv_pos_as_xyz
  1  'x, y, z'
loop_
 _atom_site_type_symbol
 _atom_site_label
 _atom_site_symmetry_multiplicity
 _atom_site_fract_x
 _atom_site_fract_y
 _atom_site_fract_z
 _atom_site_occupancy
  Pb  Pb0  1  0.250000  0.882829  0.871346  1
  Pb  Pb1  1  0.750000  0.117171  0.128654  1
  Pb  Pb2  1  0.250000  0.382829  0.628654  1
  Pb  Pb3  1  0.750000  0.617171  0.371346  1
  C  C4  1  0.250000  0.619205  0.099869  1
  C  C5  1  0.750000  0.380795  0.900131  1
  C  C6  1  0.250000  0.119205  0.400131  1
  C  C7  1  0.750000  0.880795  0.599869  1
  N  N8  1  0.750000  0.673676  0.561788  1
  N  N9  1  0.250000  0.326324  0.438212  1
  N  N10  1  0.750000  0.173676  0.938212  1
  N  N11  1  0.250000  0.826324  0.061788  1
  N  N12  1  0.750000  0.079723  0.641101  1
  N  N13  1  0.250000  0.920277  0.358899  1
  N  N14  1  0.750000  0.579723  0.858899  1
  N  N15  1  0.250000  0.420277  0.141101  1
