# generated using pymatgen
data_K2TiO3
_symmetry_space_group_name_H-M   'P 1'
_cell_length_a   6.19328177
_cell_length_b   6.19328177
_cell_length_c   5.51337378
_cell_angle_alpha   90.00000000
_cell_angle_beta   90.00000000
_cell_angle_gamma   110.77079559
_symmetry_Int_Tables_number   1
_chemical_formula_structural   K2TiO3
_chemical_formula_sum   'K4 Ti2 O6'
_cell_volume   197.73054871
_cell_formula_units_Z   2
loop_
 _symmetry_equiv_pos_site_id
 _symmetry_equiv_pos_as_xyz
  1  'x, y, z'
loop_
 _atom_site_type_symbol
 _atom_site_label
 _atom_site_symmetry_multiplicity
 _atom_site_fract_x
 _atom_site_fract_y
 _atom_site_fract_z
 _atom_site_occupancy
  K  K0  1  0.811248  0.485049  0.250000  1
  K  K1  1  0.485049  0.811248  0.250000  1
  K  K2  1  0.188752  0.514951  0.750000  1
  K  K3  1  0.514951  0.188752  0.750000  1
  Ti  Ti4  1  0.915211  0.915211  0.750000  1
  Ti  Ti5  1  0.084789  0.084789  0.250000  1
  O  O6  1  0.662938  0.662938  0.750000  1
  O  O7  1  0.337062  0.337062  0.250000  1
  O  O8  1  0.874489  0.125511  0.500000  1
  O  O9  1  0.125511  0.874489  0.000000  1
  O  O10  1  0.874489  0.125511  0.000000  1
  O  O11  1  0.125511  0.874489  0.500000  1
