# generated using pymatgen
data_CaMgV2O7
_symmetry_space_group_name_H-M   'P 1'
_cell_length_a   6.84190192
_cell_length_b   14.68509611
_cell_length_c   11.43823407
_cell_angle_alpha   90.00000000
_cell_angle_beta   99.42379837
_cell_angle_gamma   90.00000000
_symmetry_Int_Tables_number   1
_chemical_formula_structural   CaMgV2O7
_chemical_formula_sum   'Ca8 Mg8 V16 O56'
_cell_volume   1133.73504699
_cell_formula_units_Z   8
loop_
 _symmetry_equiv_pos_site_id
 _symmetry_equiv_pos_as_xyz
  1  'x, y, z'
loop_
 _atom_site_type_symbol
 _atom_site_label
 _atom_site_symmetry_multiplicity
 _atom_site_fract_x
 _atom_site_fract_y
 _atom_site_fract_z
 _atom_site_occupancy
  Ca  Ca0  1  0.674025  0.870625  0.028981  1
  Ca  Ca1  1  0.325975  0.370625  0.471019  1
  Ca  Ca2  1  0.325975  0.129375  0.971019  1
  Ca  Ca3  1  0.674025  0.629375  0.528981  1
  Ca  Ca4  1  0.922314  0.992113  0.771888  1
  Ca  Ca5  1  0.077686  0.492113  0.728112  1
  Ca  Ca6  1  0.077686  0.007887  0.228112  1
  Ca  Ca7  1  0.922314  0.507887  0.271888  1
  Mg  Mg8  1  0.997010  0.745930  0.252840  1
  Mg  Mg9  1  0.002990  0.245930  0.247160  1
  Mg  Mg10  1  0.002990  0.254070  0.747160  1
  Mg  Mg11  1  0.997010  0.754070  0.752840  1
  Mg  Mg12  1  0.362551  0.825876  0.426108  1
  Mg  Mg13  1  0.637449  0.325876  0.073892  1
  Mg  Mg14  1  0.637449  0.174124  0.573892  1
  Mg  Mg15  1  0.362551  0.674124  0.926108  1
  V  V16  1  0.490906  0.795076  0.706819  1
  V  V17  1  0.509094  0.295076  0.793181  1
  V  V18  1  0.509094  0.204924  0.293181  1
  V  V19  1  0.490906  0.704924  0.206819  1
  V  V20  1  0.415894  0.986415  0.687279  1
  V  V21  1  0.584106  0.486415  0.812721  1
  V  V22  1  0.584106  0.013585  0.312721  1
  V  V23  1  0.415894  0.513585  0.187279  1
  V  V24  1  0.131860  0.135581  0.515911  1
  V  V25  1  0.868140  0.635581  0.984089  1
  V  V26  1  0.868140  0.864419  0.484089  1
  V  V27  1  0.131860  0.364419  0.015911  1
  V  V28  1  0.159320  0.628508  0.518815  1
  V  V29  1  0.840680  0.128508  0.981185  1
  V  V30  1  0.840680  0.371492  0.481185  1
  V  V31  1  0.159320  0.871492  0.018815  1
  O  O32  1  0.240460  0.981651  0.038483  1
  O  O33  1  0.759540  0.481651  0.461517  1
  O  O34  1  0.759540  0.018349  0.961517  1
  O  O35  1  0.240460  0.518349  0.538483  1
  O  O36  1  0.010202  0.855650  0.128388  1
  O  O37  1  0.989798  0.355650  0.371612  1
  O  O38  1  0.989798  0.144350  0.871612  1
  O  O39  1  0.010202  0.644350  0.628388  1
  O  O40  1  0.005498  0.859475  0.882616  1
  O  O41  1  0.994502  0.359475  0.617384  1
  O  O42  1  0.994502  0.140525  0.117384  1
  O  O43  1  0.005498  0.640525  0.382616  1
  O  O44  1  0.321909  0.286823  0.044293  1
  O  O45  1  0.678091  0.786823  0.455707  1
  O  O46  1  0.678091  0.713177  0.955707  1
  O  O47  1  0.321909  0.213177  0.544293  1
  O  O48  1  0.041420  0.366196  0.864963  1
  O  O49  1  0.958580  0.866196  0.635037  1
  O  O50  1  0.958580  0.633804  0.135037  1
  O  O51  1  0.041420  0.133804  0.364963  1
  O  O52  1  0.950289  0.340085  0.104066  1
  O  O53  1  0.612712  0.443480  0.178284  1
  O  O54  1  0.049711  0.840085  0.395934  1
  O  O55  1  0.950289  0.159915  0.604066  1
  O  O56  1  0.280163  0.479662  0.291498  1
  O  O57  1  0.719837  0.979662  0.208502  1
  O  O58  1  0.719837  0.520338  0.708502  1
  O  O59  1  0.280163  0.020338  0.791498  1
  O  O60  1  0.237108  0.472333  0.055243  1
  O  O61  1  0.762892  0.972333  0.444757  1
  O  O62  1  0.762892  0.527667  0.944757  1
  O  O63  1  0.237108  0.027667  0.555243  1
  O  O64  1  0.570720  0.893654  0.794911  1
  O  O65  1  0.429280  0.393654  0.705089  1
  O  O66  1  0.429280  0.106346  0.205089  1
  O  O67  1  0.570720  0.606346  0.294911  1
  O  O68  1  0.307338  0.749240  0.775529  1
  O  O69  1  0.692662  0.249240  0.724471  1
  O  O70  1  0.692662  0.250760  0.224471  1
  O  O71  1  0.307338  0.750760  0.275529  1
  O  O72  1  0.362543  0.703869  0.535319  1
  O  O73  1  0.637457  0.203869  0.964681  1
  O  O74  1  0.637457  0.296131  0.464681  1
  O  O75  1  0.362543  0.796131  0.035319  1
  O  O76  1  0.695076  0.728862  0.705524  1
  O  O77  1  0.304924  0.228862  0.794476  1
  O  O78  1  0.304924  0.271138  0.294476  1
  O  O79  1  0.695076  0.771138  0.205524  1
  O  O80  1  0.402174  0.877465  0.591285  1
  O  O81  1  0.597826  0.377465  0.908715  1
  O  O82  1  0.597826  0.122535  0.408715  1
  O  O83  1  0.402174  0.622535  0.091285  1
  O  O84  1  0.612712  0.056520  0.678284  1
  O  O85  1  0.387288  0.556520  0.821716  1
  O  O86  1  0.387288  0.943480  0.321716  1
  O  O87  1  0.049711  0.659915  0.895934  1
