# generated using pymatgen
data_NdVO4
_symmetry_space_group_name_H-M   'P 1'
_cell_length_a   6.18408941
_cell_length_b   6.18408941
_cell_length_c   6.18408941
_cell_angle_alpha   106.05086332
_cell_angle_beta   106.05086332
_cell_angle_gamma   116.55257477
_symmetry_Int_Tables_number   1
_chemical_formula_structural   NdVO4
_chemical_formula_sum   'Nd2 V2 O8'
_cell_volume   179.94576779
_cell_formula_units_Z   2
loop_
 _symmetry_equiv_pos_site_id
 _symmetry_equiv_pos_as_xyz
  1  'x, y, z'
loop_
 _atom_site_type_symbol
 _atom_site_label
 _atom_site_symmetry_multiplicity
 _atom_site_fract_x
 _atom_site_fract_y
 _atom_site_fract_z
 _atom_site_occupancy
  Nd  Nd0  1  0.250000  0.750000  0.500000  1
  Nd  Nd1  1  0.000000  0.000000  0.000000  1
  V  V2  1  0.500000  0.500000  0.000000  1
  V  V3  1  0.750000  0.250000  0.500000  1
  O  O4  1  0.491148  0.671338  0.819810  1
  O  O5  1  0.851528  0.671338  0.180190  1
  O  O6  1  0.328662  0.508852  0.180190  1
  O  O7  1  0.398472  0.078662  0.319810  1
  O  O8  1  0.758852  0.078662  0.680190  1
  O  O9  1  0.328662  0.148472  0.819810  1
  O  O10  1  0.921338  0.601528  0.680190  1
  O  O11  1  0.921338  0.241148  0.319810  1
