# generated using pymatgen
data_Cr2(SO4)3
_symmetry_space_group_name_H-M   'P 1'
_cell_length_a   8.86986469
_cell_length_b   8.86986469
_cell_length_c   8.86986469
_cell_angle_alpha   55.68037489
_cell_angle_beta   55.68037489
_cell_angle_gamma   55.68037489
_symmetry_Int_Tables_number   1
_chemical_formula_structural   Cr2(SO4)3
_chemical_formula_sum   'Cr4 S6 O24'
_cell_volume   443.99137519
_cell_formula_units_Z   2
loop_
 _symmetry_equiv_pos_site_id
 _symmetry_equiv_pos_as_xyz
  1  'x, y, z'
loop_
 _atom_site_type_symbol
 _atom_site_label
 _atom_site_symmetry_multiplicity
 _atom_site_fract_x
 _atom_site_fract_y
 _atom_site_fract_z
 _atom_site_occupancy
  Cr  Cr0  1  0.348396  0.348396  0.348396  1
  Cr  Cr1  1  0.651604  0.651604  0.651604  1
  Cr  Cr2  1  0.144641  0.144641  0.144641  1
  Cr  Cr3  1  0.855359  0.855359  0.855359  1
  S  S4  1  0.961611  0.541343  0.248451  1
  S  S5  1  0.541343  0.248451  0.961611  1
  S  S6  1  0.248451  0.961611  0.541343  1
  S  S7  1  0.038389  0.458657  0.751549  1
  S  S8  1  0.458657  0.751549  0.038389  1
  S  S9  1  0.751549  0.038389  0.458657  1
  O  O10  1  0.545941  0.173082  0.483226  1
  O  O11  1  0.173082  0.483226  0.545941  1
  O  O12  1  0.483226  0.545941  0.173082  1
  O  O13  1  0.454059  0.826918  0.516774  1
  O  O14  1  0.826918  0.516774  0.454059  1
  O  O15  1  0.516774  0.454059  0.826918  1
  O  O16  1  0.883487  0.122709  0.261688  1
  O  O17  1  0.122709  0.261688  0.883487  1
  O  O18  1  0.261688  0.883487  0.122709  1
  O  O19  1  0.116513  0.877291  0.738312  1
  O  O20  1  0.390399  0.203396  0.985236  1
  O  O21  1  0.985236  0.390399  0.203396  1
  O  O22  1  0.203396  0.985236  0.390399  1
  O  O23  1  0.609601  0.796604  0.014764  1
  O  O24  1  0.014764  0.609601  0.796604  1
  O  O25  1  0.796604  0.014764  0.609601  1
  O  O26  1  0.524752  0.215272  0.154270  1
  O  O27  1  0.154270  0.524752  0.215272  1
  O  O28  1  0.215272  0.154270  0.524752  1
  O  O29  1  0.475248  0.784728  0.845730  1
  O  O30  1  0.845730  0.475248  0.784728  1
  O  O31  1  0.784728  0.845730  0.475248  1
  O  O32  1  0.738312  0.116513  0.877291  1
  O  O33  1  0.877291  0.738312  0.116513  1
