# generated using pymatgen
data_Cs3Cu5O4
_symmetry_space_group_name_H-M   'P 1'
_cell_length_a   10.43187585
_cell_length_b   7.65222219
_cell_length_c   14.90737928
_cell_angle_alpha   90.00000000
_cell_angle_beta   106.23952633
_cell_angle_gamma   90.00000000
_symmetry_Int_Tables_number   1
_chemical_formula_structural   Cs3Cu5O4
_chemical_formula_sum   'Cs12 Cu20 O16'
_cell_volume   1142.53154811
_cell_formula_units_Z   4
loop_
 _symmetry_equiv_pos_site_id
 _symmetry_equiv_pos_as_xyz
  1  'x, y, z'
loop_
 _atom_site_type_symbol
 _atom_site_label
 _atom_site_symmetry_multiplicity
 _atom_site_fract_x
 _atom_site_fract_y
 _atom_site_fract_z
 _atom_site_occupancy
  Cs  Cs0  1  0.322131  0.090991  0.891545  1
  Cs  Cs1  1  0.677869  0.590991  0.608455  1
  Cs  Cs2  1  0.677869  0.909009  0.108455  1
  Cs  Cs3  1  0.322131  0.409009  0.391545  1
  Cs  Cs4  1  0.276889  0.701036  0.082756  1
  Cs  Cs5  1  0.723111  0.201036  0.417244  1
  Cs  Cs6  1  0.723111  0.298964  0.917244  1
  Cs  Cs7  1  0.276889  0.798964  0.582756  1
  Cs  Cs8  1  0.103162  0.172385  0.094083  1
  Cs  Cs9  1  0.896838  0.672385  0.405917  1
  Cs  Cs10  1  0.896838  0.827615  0.905917  1
  Cs  Cs11  1  0.103162  0.327615  0.594083  1
  Cu  Cu12  1  0.066200  0.079306  0.371478  1
  Cu  Cu13  1  0.429327  0.043466  0.232069  1
  Cu  Cu14  1  0.570673  0.956534  0.767931  1
  Cu  Cu15  1  0.429327  0.456534  0.732069  1
  Cu  Cu16  1  0.063781  0.674524  0.740028  1
  Cu  Cu17  1  0.936219  0.174524  0.759972  1
  Cu  Cu18  1  0.936219  0.325476  0.259972  1
  Cu  Cu19  1  0.063781  0.825476  0.240028  1
  Cu  Cu20  1  0.529370  0.793545  0.372661  1
  Cu  Cu21  1  0.470630  0.293545  0.127339  1
  Cu  Cu22  1  0.470630  0.206455  0.627339  1
  Cu  Cu23  1  0.529370  0.706455  0.872661  1
  Cu  Cu24  1  0.294347  0.935998  0.356389  1
  Cu  Cu25  1  0.705653  0.435998  0.143611  1
  Cu  Cu26  1  0.705653  0.064002  0.643611  1
  Cu  Cu27  1  0.294347  0.564002  0.856389  1
  Cu  Cu28  1  0.933800  0.920694  0.628522  1
  Cu  Cu29  1  0.066200  0.420694  0.871478  1
  Cu  Cu30  1  0.570673  0.543466  0.267931  1
  Cu  Cu31  1  0.933800  0.579306  0.128522  1
  O  O32  1  0.398346  0.425828  0.605879  1
  O  O33  1  0.601654  0.925828  0.894121  1
  O  O34  1  0.601654  0.574172  0.394121  1
  O  O35  1  0.398346  0.074172  0.105879  1
  O  O36  1  0.004172  0.297471  0.385926  1
  O  O37  1  0.995828  0.797471  0.114074  1
  O  O38  1  0.995828  0.702529  0.614074  1
  O  O39  1  0.004172  0.202529  0.885926  1
  O  O40  1  0.132915  0.853718  0.368648  1
  O  O41  1  0.867085  0.353718  0.131352  1
  O  O42  1  0.867085  0.146282  0.631352  1
  O  O43  1  0.132915  0.646282  0.868648  1
  O  O44  1  0.538495  0.520013  0.140275  1
  O  O45  1  0.461505  0.020013  0.359725  1
  O  O46  1  0.461505  0.479987  0.859725  1
  O  O47  1  0.538495  0.979987  0.640275  1
