# generated using pymatgen
data_P4S3
_symmetry_space_group_name_H-M   'P 1'
_cell_length_a   7.17819095
_cell_length_b   10.97953564
_cell_length_c   11.99968118
_cell_angle_alpha   90.00000000
_cell_angle_beta   90.00000000
_cell_angle_gamma   90.00000000
_symmetry_Int_Tables_number   1
_chemical_formula_structural   P4S3
_chemical_formula_sum   'P16 S12'
_cell_volume   945.73331317
_cell_formula_units_Z   4
loop_
 _symmetry_equiv_pos_site_id
 _symmetry_equiv_pos_as_xyz
  1  'x, y, z'
loop_
 _atom_site_type_symbol
 _atom_site_label
 _atom_site_symmetry_multiplicity
 _atom_site_fract_x
 _atom_site_fract_y
 _atom_site_fract_z
 _atom_site_occupancy
  P  P0  1  0.745824  0.852834  0.928653  1
  P  P1  1  0.245824  0.147166  0.571347  1
  P  P2  1  0.254176  0.352834  0.071347  1
  P  P3  1  0.754176  0.647166  0.428653  1
  P  P4  1  0.842083  0.250000  0.663552  1
  P  P5  1  0.342083  0.750000  0.836448  1
  P  P6  1  0.157917  0.750000  0.336448  1
  P  P7  1  0.657917  0.250000  0.163552  1
  P  P8  1  0.098198  0.250000  0.434778  1
  P  P9  1  0.598198  0.750000  0.065222  1
  P  P10  1  0.901802  0.750000  0.565222  1
  P  P11  1  0.401802  0.250000  0.934778  1
  P  P12  1  0.254176  0.147166  0.071347  1
  P  P13  1  0.754176  0.852834  0.428653  1
  P  P14  1  0.245824  0.352834  0.571347  1
  P  P15  1  0.745824  0.647166  0.928653  1
  S  S16  1  0.969454  0.897165  0.317017  1
  S  S17  1  0.469454  0.397165  0.182983  1
  S  S18  1  0.030546  0.102835  0.682983  1
  S  S19  1  0.530546  0.897165  0.817017  1
  S  S20  1  0.469454  0.102835  0.182983  1
  S  S21  1  0.969454  0.602835  0.317017  1
  S  S22  1  0.530546  0.602835  0.817017  1
  S  S23  1  0.030546  0.397165  0.682983  1
  S  S24  1  0.681170  0.250000  0.987426  1
  S  S25  1  0.181170  0.750000  0.512574  1
  S  S26  1  0.318830  0.750000  0.012574  1
  S  S27  1  0.818830  0.250000  0.487426  1
