# generated using pymatgen
data_K3V3O8
_symmetry_space_group_name_H-M   'P 1'
_cell_length_a   5.75550801
_cell_length_b   5.75550801
_cell_length_c   7.56128312
_cell_angle_alpha   90.00000000
_cell_angle_beta   90.00000000
_cell_angle_gamma   120.00000000
_symmetry_Int_Tables_number   1
_chemical_formula_structural   K3V3O8
_chemical_formula_sum   'K3 V3 O8'
_cell_volume   216.91693374
_cell_formula_units_Z   1
loop_
 _symmetry_equiv_pos_site_id
 _symmetry_equiv_pos_as_xyz
  1  'x, y, z'
loop_
 _atom_site_type_symbol
 _atom_site_label
 _atom_site_symmetry_multiplicity
 _atom_site_fract_x
 _atom_site_fract_y
 _atom_site_fract_z
 _atom_site_occupancy
  K  K0  1  0.000000  0.000000  0.000000  1
  K  K1  1  0.333333  0.666667  0.308606  1
  K  K2  1  0.666667  0.333333  0.691394  1
  V  V3  1  0.000000  0.000000  0.500000  1
  V  V4  1  0.333333  0.666667  0.739506  1
  V  V5  1  0.666667  0.333333  0.260494  1
  O  O6  1  0.833395  0.166605  0.340267  1
  O  O7  1  0.833395  0.666790  0.340267  1
  O  O8  1  0.333210  0.166605  0.340267  1
  O  O9  1  0.666790  0.833395  0.659733  1
  O  O10  1  0.166605  0.333210  0.659733  1
  O  O11  1  0.166605  0.833395  0.659733  1
  O  O12  1  0.333333  0.666667  0.961967  1
  O  O13  1  0.666667  0.333333  0.038033  1
