# generated using pymatgen
data_Al2Pb3F12
_symmetry_space_group_name_H-M   'P 1'
_cell_length_a   9.56430055
_cell_length_b   9.81226977
_cell_length_c   14.00874929
_cell_angle_alpha   90.00000000
_cell_angle_beta   132.04352689
_cell_angle_gamma   90.00000000
_symmetry_Int_Tables_number   1
_chemical_formula_structural   Al2Pb3F12
_chemical_formula_sum   'Al8 Pb12 F48'
_cell_volume   976.33356531
_cell_formula_units_Z   4
loop_
 _symmetry_equiv_pos_site_id
 _symmetry_equiv_pos_as_xyz
  1  'x, y, z'
loop_
 _atom_site_type_symbol
 _atom_site_label
 _atom_site_symmetry_multiplicity
 _atom_site_fract_x
 _atom_site_fract_y
 _atom_site_fract_z
 _atom_site_occupancy
  Al  Al0  1  0.267911  0.362987  0.576940  1
  Al  Al1  1  0.732089  0.862987  0.923060  1
  Al  Al2  1  0.732089  0.637013  0.423060  1
  Al  Al3  1  0.267911  0.137013  0.076940  1
  Al  Al4  1  0.051926  0.650303  0.370172  1
  Al  Al5  1  0.948074  0.150303  0.129828  1
  Al  Al6  1  0.948074  0.349697  0.629828  1
  Al  Al7  1  0.051926  0.849697  0.870172  1
  Pb  Pb8  1  0.719617  0.001986  0.512142  1
  Pb  Pb9  1  0.280383  0.501986  0.987858  1
  Pb  Pb10  1  0.280383  0.998014  0.487858  1
  Pb  Pb11  1  0.719617  0.498014  0.012142  1
  Pb  Pb12  1  0.762167  0.213595  0.791180  1
  Pb  Pb13  1  0.237833  0.713595  0.708820  1
  Pb  Pb14  1  0.237833  0.786405  0.208820  1
  Pb  Pb15  1  0.762167  0.286405  0.291180  1
  Pb  Pb16  1  0.341997  0.104780  0.823590  1
  Pb  Pb17  1  0.658003  0.604780  0.676410  1
  Pb  Pb18  1  0.658003  0.895220  0.176410  1
  Pb  Pb19  1  0.341997  0.395220  0.323590  1
  F  F20  1  0.227587  0.960380  0.655654  1
  F  F21  1  0.772413  0.460380  0.844346  1
  F  F22  1  0.772413  0.039620  0.344346  1
  F  F23  1  0.227587  0.539620  0.155654  1
  F  F24  1  0.558437  0.374517  0.068072  1
  F  F25  1  0.441563  0.874517  0.431928  1
  F  F26  1  0.441563  0.625483  0.931928  1
  F  F27  1  0.558437  0.125483  0.568072  1
  F  F28  1  0.837447  0.766668  0.545809  1
  F  F29  1  0.162553  0.266668  0.954191  1
  F  F30  1  0.162553  0.233332  0.454191  1
  F  F31  1  0.837447  0.733332  0.045809  1
  F  F32  1  0.568980  0.585820  0.442824  1
  F  F33  1  0.431020  0.085820  0.057176  1
  F  F34  1  0.431020  0.414180  0.557176  1
  F  F35  1  0.568980  0.914180  0.942824  1
  F  F36  1  0.643698  0.507594  0.304944  1
  F  F37  1  0.434088  0.261763  0.200343  1
  F  F38  1  0.565912  0.738237  0.799657  1
  F  F39  1  0.434088  0.238237  0.700343  1
  F  F40  1  0.159740  0.086571  0.281782  1
  F  F41  1  0.840260  0.586571  0.218218  1
  F  F42  1  0.840260  0.913429  0.718218  1
  F  F43  1  0.159740  0.413429  0.781782  1
  F  F44  1  0.808323  0.102506  0.168437  1
  F  F45  1  0.191677  0.602506  0.331563  1
  F  F46  1  0.191677  0.897494  0.831563  1
  F  F47  1  0.808323  0.397494  0.668437  1
  F  F48  1  0.256902  0.714986  0.527347  1
  F  F49  1  0.743098  0.214986  0.972653  1
  F  F50  1  0.743098  0.285014  0.472653  1
  F  F51  1  0.256902  0.785014  0.027347  1
  F  F52  1  0.007271  0.823902  0.306816  1
  F  F53  1  0.992729  0.323902  0.193184  1
  F  F54  1  0.992729  0.176098  0.693184  1
  F  F55  1  0.007271  0.676098  0.806816  1
  F  F56  1  0.905948  0.693922  0.410605  1
  F  F57  1  0.094052  0.193922  0.089395  1
  F  F58  1  0.094052  0.306078  0.589395  1
  F  F59  1  0.905948  0.806078  0.910605  1
  F  F60  1  0.913238  0.519466  0.556081  1
  F  F61  1  0.086762  0.019466  0.943919  1
  F  F62  1  0.086762  0.480534  0.443919  1
  F  F63  1  0.913238  0.980534  0.056081  1
  F  F64  1  0.643698  0.992406  0.804944  1
  F  F65  1  0.356302  0.492406  0.695056  1
  F  F66  1  0.356302  0.007594  0.195056  1
  F  F67  1  0.565912  0.761763  0.299657  1
