# generated using pymatgen
data_RbSi
_symmetry_space_group_name_H-M   'P 1'
_cell_length_a   13.18716013
_cell_length_b   13.18716013
_cell_length_c   13.18716013
_cell_angle_alpha   90.00000000
_cell_angle_beta   90.00000000
_cell_angle_gamma   90.00000000
_symmetry_Int_Tables_number   1
_chemical_formula_structural   RbSi
_chemical_formula_sum   'Rb32 Si32'
_cell_volume   2293.26286958
_cell_formula_units_Z   32
loop_
 _symmetry_equiv_pos_site_id
 _symmetry_equiv_pos_as_xyz
  1  'x, y, z'
loop_
 _atom_site_type_symbol
 _atom_site_label
 _atom_site_symmetry_multiplicity
 _atom_site_fract_x
 _atom_site_fract_y
 _atom_site_fract_z
 _atom_site_occupancy
  Rb  Rb0  1  0.066078  0.337306  0.139843  1
  Rb  Rb1  1  0.837306  0.433922  0.360157  1
  Rb  Rb2  1  0.566078  0.639843  0.837306  1
  Rb  Rb3  1  0.433922  0.639843  0.162694  1
  Rb  Rb4  1  0.639843  0.837306  0.566078  1
  Rb  Rb5  1  0.360157  0.162694  0.566078  1
  Rb  Rb6  1  0.662694  0.860157  0.066078  1
  Rb  Rb7  1  0.662694  0.139843  0.933922  1
  Rb  Rb8  1  0.337306  0.860157  0.933922  1
  Rb  Rb9  1  0.139843  0.933922  0.662694  1
  Rb  Rb10  1  0.933922  0.337306  0.860157  1
  Rb  Rb11  1  0.933922  0.662694  0.139843  1
  Rb  Rb12  1  0.860157  0.066078  0.662694  1
  Rb  Rb13  1  0.066078  0.662694  0.860157  1
  Rb  Rb14  1  0.860157  0.933922  0.337306  1
  Rb  Rb15  1  0.139843  0.066078  0.337306  1
  Rb  Rb16  1  0.837306  0.566078  0.639843  1
  Rb  Rb17  1  0.360157  0.837306  0.433922  1
  Rb  Rb18  1  0.639843  0.162694  0.433922  1
  Rb  Rb19  1  0.566078  0.360157  0.162694  1
  Rb  Rb20  1  0.433922  0.360157  0.837306  1
  Rb  Rb21  1  0.162694  0.433922  0.639843  1
  Rb  Rb22  1  0.162694  0.566078  0.360157  1
  Rb  Rb23  1  0.337306  0.139843  0.066078  1
  Rb  Rb24  1  0.833877  0.833877  0.833877  1
  Rb  Rb25  1  0.666123  0.333877  0.666123  1
  Rb  Rb26  1  0.333877  0.666123  0.666123  1
  Rb  Rb27  1  0.666123  0.666123  0.333877  1
  Rb  Rb28  1  0.833877  0.166123  0.166123  1
  Rb  Rb29  1  0.166123  0.166123  0.833877  1
  Rb  Rb30  1  0.166123  0.833877  0.166123  1
  Rb  Rb31  1  0.333877  0.333877  0.333877  1
  Si  Si32  1  0.560200  0.929202  0.814541  1
  Si  Si33  1  0.560200  0.070798  0.185459  1
  Si  Si34  1  0.929202  0.814541  0.560200  1
  Si  Si35  1  0.070798  0.814541  0.439800  1
  Si  Si36  1  0.814541  0.560200  0.929202  1
  Si  Si37  1  0.185459  0.439800  0.929202  1
  Si  Si38  1  0.939800  0.685459  0.429202  1
  Si  Si39  1  0.939800  0.314541  0.570798  1
  Si  Si40  1  0.060200  0.685459  0.570798  1
  Si  Si41  1  0.314541  0.570798  0.939800  1
  Si  Si42  1  0.570798  0.060200  0.685459  1
  Si  Si43  1  0.570798  0.939800  0.314541  1
  Si  Si44  1  0.685459  0.429202  0.939800  1
  Si  Si45  1  0.429202  0.939800  0.685459  1
  Si  Si46  1  0.685459  0.570798  0.060200  1
  Si  Si47  1  0.065325  0.065325  0.065325  1
  Si  Si48  1  0.429202  0.060200  0.314541  1
  Si  Si49  1  0.185459  0.560200  0.070798  1
  Si  Si50  1  0.814541  0.439800  0.070798  1
  Si  Si51  1  0.929202  0.185459  0.439800  1
  Si  Si52  1  0.070798  0.185459  0.560200  1
  Si  Si53  1  0.439800  0.070798  0.814541  1
  Si  Si54  1  0.439800  0.929202  0.185459  1
  Si  Si55  1  0.060200  0.314541  0.429202  1
  Si  Si56  1  0.565325  0.565325  0.565325  1
  Si  Si57  1  0.934675  0.065325  0.934675  1
  Si  Si58  1  0.065325  0.934675  0.934675  1
  Si  Si59  1  0.934675  0.934675  0.065325  1
  Si  Si60  1  0.565325  0.434675  0.434675  1
  Si  Si61  1  0.434675  0.434675  0.565325  1
  Si  Si62  1  0.434675  0.565325  0.434675  1
  Si  Si63  1  0.314541  0.429202  0.060200  1
