# generated using pymatgen
data_K2Ca2(SO4)3
_symmetry_space_group_name_H-M   'P 1'
_cell_length_a   10.64134951
_cell_length_b   10.64134951
_cell_length_c   10.64134951
_cell_angle_alpha   90.00000000
_cell_angle_beta   90.00000000
_cell_angle_gamma   90.00000000
_symmetry_Int_Tables_number   1
_chemical_formula_structural   K2Ca2(SO4)3
_chemical_formula_sum   'K8 Ca8 S12 O48'
_cell_volume   1205.00853460
_cell_formula_units_Z   4
loop_
 _symmetry_equiv_pos_site_id
 _symmetry_equiv_pos_as_xyz
  1  'x, y, z'
loop_
 _atom_site_type_symbol
 _atom_site_label
 _atom_site_symmetry_multiplicity
 _atom_site_fract_x
 _atom_site_fract_y
 _atom_site_fract_z
 _atom_site_occupancy
  K  K0  1  0.685527  0.185527  0.314473  1
  K  K1  1  0.314473  0.685527  0.185527  1
  K  K2  1  0.944507  0.555493  0.444507  1
  K  K3  1  0.185527  0.314473  0.685527  1
  K  K4  1  0.055493  0.055493  0.055493  1
  K  K5  1  0.444507  0.944507  0.555493  1
  K  K6  1  0.555493  0.444507  0.944507  1
  K  K7  1  0.814473  0.814473  0.814473  1
  Ca  Ca8  1  0.329305  0.329305  0.329305  1
  Ca  Ca9  1  0.170695  0.670695  0.829305  1
  Ca  Ca10  1  0.829305  0.170695  0.670695  1
  Ca  Ca11  1  0.670695  0.829305  0.170695  1
  Ca  Ca12  1  0.589051  0.589051  0.589051  1
  Ca  Ca13  1  0.089051  0.910949  0.410949  1
  Ca  Ca14  1  0.410949  0.089051  0.910949  1
  Ca  Ca15  1  0.910949  0.410949  0.089051  1
  S  S16  1  0.271392  0.625532  0.508761  1
  S  S17  1  0.771392  0.874468  0.491239  1
  S  S18  1  0.728608  0.125532  0.991239  1
  S  S19  1  0.874468  0.491239  0.771392  1
  S  S20  1  0.991239  0.728608  0.125532  1
  S  S21  1  0.491239  0.771392  0.874468  1
  S  S22  1  0.625532  0.508761  0.271392  1
  S  S23  1  0.508761  0.271392  0.625532  1
  S  S24  1  0.125532  0.991239  0.728608  1
  S  S25  1  0.228608  0.374468  0.008761  1
  S  S26  1  0.008761  0.228608  0.374468  1
  S  S27  1  0.374468  0.008761  0.228608  1
  O  O28  1  0.232121  0.578519  0.634796  1
  O  O29  1  0.732121  0.921481  0.365204  1
  O  O30  1  0.767879  0.078519  0.865204  1
  O  O31  1  0.921481  0.365204  0.732121  1
  O  O32  1  0.865204  0.767879  0.078519  1
  O  O33  1  0.365204  0.732121  0.921481  1
  O  O34  1  0.578519  0.634796  0.232121  1
  O  O35  1  0.634796  0.232121  0.578519  1
  O  O36  1  0.078519  0.865204  0.767879  1
  O  O37  1  0.421481  0.134796  0.267879  1
  O  O38  1  0.134796  0.267879  0.421481  1
  O  O39  1  0.267879  0.421481  0.134796  1
  O  O40  1  0.273976  0.519949  0.417545  1
  O  O41  1  0.773976  0.980051  0.582455  1
  O  O42  1  0.726024  0.019949  0.082455  1
  O  O43  1  0.980051  0.582455  0.773976  1
  O  O44  1  0.082455  0.726024  0.019949  1
  O  O45  1  0.582455  0.773976  0.980051  1
  O  O46  1  0.983102  0.601272  0.183850  1
  O  O47  1  0.519949  0.417545  0.273976  1
  O  O48  1  0.019949  0.082455  0.726024  1
  O  O49  1  0.480051  0.917545  0.226024  1
  O  O50  1  0.917545  0.226024  0.480051  1
  O  O51  1  0.226024  0.480051  0.917545  1
  O  O52  1  0.398728  0.683850  0.516898  1
  O  O53  1  0.898728  0.816150  0.483102  1
  O  O54  1  0.601272  0.183850  0.983102  1
  O  O55  1  0.816150  0.483102  0.898728  1
  O  O56  1  0.321262  0.280690  0.962521  1
  O  O57  1  0.962521  0.321262  0.280690  1
  O  O58  1  0.280690  0.962521  0.321262  1
  O  O59  1  0.219310  0.037479  0.821262  1
  O  O60  1  0.462521  0.178738  0.719310  1
  O  O61  1  0.719310  0.462521  0.178738  1
  O  O62  1  0.537479  0.678738  0.780690  1
  O  O63  1  0.037479  0.821262  0.219310  1
  O  O64  1  0.780690  0.537479  0.678738  1
  O  O65  1  0.821262  0.219310  0.037479  1
  O  O66  1  0.678738  0.780690  0.537479  1
  O  O67  1  0.178738  0.719310  0.462521  1
  O  O68  1  0.101272  0.316150  0.016898  1
  O  O69  1  0.016898  0.101272  0.316150  1
  O  O70  1  0.316150  0.016898  0.101272  1
  O  O71  1  0.183850  0.983102  0.601272  1
  O  O72  1  0.516898  0.398728  0.683850  1
  O  O73  1  0.683850  0.516898  0.398728  1
  O  O74  1  0.483102  0.898728  0.816150  1
  O  O75  1  0.417545  0.273976  0.519949  1
