# generated using pymatgen
data_Mg3As2
_symmetry_space_group_name_H-M   'P 1'
_cell_length_a   10.80431591
_cell_length_b   10.80431591
_cell_length_c   10.80431591
_cell_angle_alpha   109.47122063
_cell_angle_beta   109.47122063
_cell_angle_gamma   109.47122063
_symmetry_Int_Tables_number   1
_chemical_formula_structural   Mg3As2
_chemical_formula_sum   'Mg24 As16'
_cell_volume   970.88978498
_cell_formula_units_Z   8
loop_
 _symmetry_equiv_pos_site_id
 _symmetry_equiv_pos_as_xyz
  1  'x, y, z'
loop_
 _atom_site_type_symbol
 _atom_site_label
 _atom_site_symmetry_multiplicity
 _atom_site_fract_x
 _atom_site_fract_y
 _atom_site_fract_z
 _atom_site_occupancy
  Mg  Mg0  1  0.023885  0.493270  0.758886  1
  Mg  Mg1  1  0.234383  0.264999  0.741114  1
  Mg  Mg2  1  0.265617  0.006730  0.030615  1
  Mg  Mg3  1  0.235001  0.469385  0.476115  1
  Mg  Mg4  1  0.469385  0.476115  0.235001  1
  Mg  Mg5  1  0.758886  0.023885  0.493270  1
  Mg  Mg6  1  0.264999  0.741114  0.234383  1
  Mg  Mg7  1  0.030615  0.265617  0.006730  1
  Mg  Mg8  1  0.493270  0.758886  0.023885  1
  Mg  Mg9  1  0.741114  0.234383  0.264999  1
  Mg  Mg10  1  0.006730  0.030615  0.265617  1
  Mg  Mg11  1  0.476115  0.235001  0.469385  1
  Mg  Mg12  1  0.976115  0.506730  0.241114  1
  Mg  Mg13  1  0.765617  0.735001  0.258886  1
  Mg  Mg14  1  0.734383  0.993270  0.969385  1
  Mg  Mg15  1  0.764999  0.530615  0.523885  1
  Mg  Mg16  1  0.523885  0.764999  0.530615  1
  Mg  Mg17  1  0.993270  0.969385  0.734383  1
  Mg  Mg18  1  0.258886  0.765617  0.735001  1
  Mg  Mg19  1  0.506730  0.241114  0.976115  1
  Mg  Mg20  1  0.969385  0.734383  0.993270  1
  Mg  Mg21  1  0.735001  0.258886  0.765617  1
  Mg  Mg22  1  0.241114  0.976115  0.506730  1
  Mg  Mg23  1  0.530615  0.523885  0.764999  1
  As  As24  1  0.250000  0.728195  0.478195  1
  As  As25  1  0.021805  0.750000  0.771805  1
  As  As26  1  0.771805  0.021805  0.750000  1
  As  As27  1  0.478195  0.250000  0.728195  1
  As  As28  1  0.728195  0.478195  0.250000  1
  As  As29  1  0.750000  0.771805  0.021805  1
  As  As30  1  0.750000  0.271805  0.521805  1
  As  As31  1  0.978195  0.250000  0.228195  1
  As  As32  1  0.228195  0.978195  0.250000  1
  As  As33  1  0.521805  0.750000  0.271805  1
  As  As34  1  0.271805  0.521805  0.750000  1
  As  As35  1  0.250000  0.228195  0.978195  1
  As  As36  1  1.000000  0.500000  1.000000  1
  As  As37  1  0.500000  1.000000  1.000000  1
  As  As38  1  1.000000  1.000000  0.500000  1
  As  As39  1  0.500000  0.500000  0.500000  1
