# generated using pymatgen
data_Ta2ZnO6
_symmetry_space_group_name_H-M   'P 1'
_cell_length_a   4.76162737
_cell_length_b   5.11557504
_cell_length_c   17.36277094
_cell_angle_alpha   90.00000000
_cell_angle_beta   90.00000000
_cell_angle_gamma   90.00000000
_symmetry_Int_Tables_number   1
_chemical_formula_structural   Ta2ZnO6
_chemical_formula_sum   'Ta8 Zn4 O24'
_cell_volume   422.93039831
_cell_formula_units_Z   4
loop_
 _symmetry_equiv_pos_site_id
 _symmetry_equiv_pos_as_xyz
  1  'x, y, z'
loop_
 _atom_site_type_symbol
 _atom_site_label
 _atom_site_symmetry_multiplicity
 _atom_site_fract_x
 _atom_site_fract_y
 _atom_site_fract_z
 _atom_site_occupancy
  Ta  Ta0  1  0.500000  0.750000  0.944227  1
  Ta  Ta1  1  0.000000  0.250000  0.555773  1
  Ta  Ta2  1  0.500000  0.250000  0.055773  1
  Ta  Ta3  1  0.000000  0.750000  0.444227  1
  Ta  Ta4  1  0.000000  0.250000  0.219243  1
  Ta  Ta5  1  0.500000  0.750000  0.280757  1
  Ta  Ta6  1  0.000000  0.750000  0.780757  1
  Ta  Ta7  1  0.500000  0.250000  0.719243  1
  Zn  Zn8  1  0.000000  0.750000  0.101772  1
  Zn  Zn9  1  0.500000  0.250000  0.398228  1
  Zn  Zn10  1  0.000000  0.250000  0.898228  1
  Zn  Zn11  1  0.500000  0.750000  0.601772  1
  O  O12  1  0.759859  0.427766  0.788185  1
  O  O13  1  0.259859  0.572234  0.711815  1
  O  O14  1  0.740141  0.927766  0.711815  1
  O  O15  1  0.240141  0.072234  0.788185  1
  O  O16  1  0.240141  0.572234  0.211815  1
  O  O17  1  0.740141  0.427766  0.288185  1
  O  O18  1  0.259859  0.072234  0.288185  1
  O  O19  1  0.759859  0.927766  0.211815  1
  O  O20  1  0.770294  0.898932  0.871867  1
  O  O21  1  0.270294  0.101068  0.628133  1
  O  O22  1  0.729706  0.398932  0.628133  1
  O  O23  1  0.229706  0.601068  0.871867  1
  O  O24  1  0.783182  0.428040  0.464631  1
  O  O25  1  0.283182  0.571960  0.035369  1
  O  O26  1  0.716818  0.928040  0.035369  1
  O  O27  1  0.216818  0.071960  0.464631  1
  O  O28  1  0.216818  0.571960  0.535369  1
  O  O29  1  0.716818  0.428040  0.964631  1
  O  O30  1  0.283182  0.071960  0.964631  1
  O  O31  1  0.783182  0.928040  0.535369  1
  O  O32  1  0.770294  0.398932  0.128133  1
  O  O33  1  0.270294  0.601068  0.371867  1
  O  O34  1  0.729706  0.898932  0.371867  1
  O  O35  1  0.229706  0.101068  0.128133  1
