# generated using pymatgen
data_Sm3Si2BO10
_symmetry_space_group_name_H-M   'P 1'
_cell_length_a   7.07935599
_cell_length_b   9.78857811
_cell_length_c   23.10967206
_cell_angle_alpha   90.00000000
_cell_angle_beta   90.00000000
_cell_angle_gamma   90.00000000
_symmetry_Int_Tables_number   1
_chemical_formula_structural   Sm3Si2BO10
_chemical_formula_sum   'Sm24 Si16 B8 O80'
_cell_volume   1601.42699476
_cell_formula_units_Z   8
loop_
 _symmetry_equiv_pos_site_id
 _symmetry_equiv_pos_as_xyz
  1  'x, y, z'
loop_
 _atom_site_type_symbol
 _atom_site_label
 _atom_site_symmetry_multiplicity
 _atom_site_fract_x
 _atom_site_fract_y
 _atom_site_fract_z
 _atom_site_occupancy
  Sm  Sm0  1  0.136029  0.989737  0.928233  1
  Sm  Sm1  1  0.363971  0.989737  0.428233  1
  Sm  Sm2  1  0.636029  0.510263  0.928233  1
  Sm  Sm3  1  0.136029  0.489737  0.571767  1
  Sm  Sm4  1  0.863971  0.010263  0.071767  1
  Sm  Sm5  1  0.636029  0.010263  0.571767  1
  Sm  Sm6  1  0.363971  0.489737  0.071767  1
  Sm  Sm7  1  0.863971  0.510263  0.428233  1
  Sm  Sm8  1  0.092518  0.767819  0.182477  1
  Sm  Sm9  1  0.592518  0.232181  0.317523  1
  Sm  Sm10  1  0.407482  0.267819  0.817523  1
  Sm  Sm11  1  0.907482  0.732181  0.682477  1
  Sm  Sm12  1  0.907482  0.232181  0.817523  1
  Sm  Sm13  1  0.407482  0.767819  0.682477  1
  Sm  Sm14  1  0.592518  0.732181  0.182477  1
  Sm  Sm15  1  0.092518  0.267819  0.317523  1
  Sm  Sm16  1  0.818304  0.366185  0.164176  1
  Sm  Sm17  1  0.318304  0.633815  0.335824  1
  Sm  Sm18  1  0.681696  0.866185  0.835824  1
  Sm  Sm19  1  0.181696  0.133815  0.664176  1
  Sm  Sm20  1  0.181696  0.633815  0.835824  1
  Sm  Sm21  1  0.681696  0.366185  0.664176  1
  Sm  Sm22  1  0.318304  0.133815  0.164176  1
  Sm  Sm23  1  0.818304  0.866185  0.335824  1
  Si  Si24  1  0.812266  0.061600  0.220674  1
  Si  Si25  1  0.312266  0.938400  0.279326  1
  Si  Si26  1  0.687734  0.561600  0.779326  1
  Si  Si27  1  0.187734  0.438400  0.720674  1
  Si  Si28  1  0.187734  0.938400  0.779326  1
  Si  Si29  1  0.687734  0.061600  0.720674  1
  Si  Si30  1  0.312266  0.438400  0.220674  1
  Si  Si31  1  0.812266  0.561600  0.279326  1
  Si  Si32  1  0.856457  0.622990  0.078753  1
  Si  Si33  1  0.356457  0.377010  0.421247  1
  Si  Si34  1  0.643543  0.122990  0.921247  1
  Si  Si35  1  0.143543  0.877010  0.578753  1
  Si  Si36  1  0.143543  0.377010  0.921247  1
  Si  Si37  1  0.643543  0.622990  0.578753  1
  Si  Si38  1  0.356457  0.877010  0.078753  1
  Si  Si39  1  0.856457  0.122990  0.421247  1
  B  B40  1  0.664798  0.758233  0.471843  1
  B  B41  1  0.664798  0.258233  0.028157  1
  B  B42  1  0.164798  0.741767  0.471843  1
  B  B43  1  0.835202  0.758233  0.971843  1
  B  B44  1  0.335202  0.241767  0.528157  1
  B  B45  1  0.335202  0.741767  0.971843  1
  B  B46  1  0.835202  0.258233  0.528157  1
  B  B47  1  0.164798  0.241767  0.028157  1
  O  O48  1  0.793890  0.893875  0.221744  1
  O  O49  1  0.248565  0.759305  0.418925  1
  O  O50  1  0.751435  0.740695  0.918925  1
  O  O51  1  0.251435  0.259305  0.581075  1
  O  O52  1  0.251435  0.759305  0.918925  1
  O  O53  1  0.751435  0.240695  0.581075  1
  O  O54  1  0.248565  0.259305  0.081075  1
  O  O55  1  0.748565  0.740695  0.418925  1
  O  O56  1  0.963548  0.109173  0.171459  1
  O  O57  1  0.463548  0.890827  0.328541  1
  O  O58  1  0.536452  0.609173  0.828541  1
  O  O59  1  0.036452  0.390827  0.671459  1
  O  O60  1  0.036452  0.890827  0.828541  1
  O  O61  1  0.536452  0.109173  0.671459  1
  O  O62  1  0.463548  0.390827  0.171459  1
  O  O63  1  0.963548  0.609173  0.328541  1
  O  O64  1  0.622987  0.156409  0.210849  1
  O  O65  1  0.122987  0.843591  0.289151  1
  O  O66  1  0.877013  0.656409  0.789151  1
  O  O67  1  0.377013  0.343591  0.710849  1
  O  O68  1  0.377013  0.843591  0.789151  1
  O  O69  1  0.877013  0.156409  0.710849  1
  O  O70  1  0.122987  0.343591  0.210849  1
  O  O71  1  0.584324  0.374961  0.008979  1
  O  O72  1  0.671206  0.548088  0.107389  1
  O  O73  1  0.171206  0.451912  0.392611  1
  O  O74  1  0.828794  0.048088  0.892611  1
  O  O75  1  0.328794  0.951912  0.607389  1
  O  O76  1  0.328794  0.451912  0.892611  1
  O  O77  1  0.828794  0.548088  0.607389  1
  O  O78  1  0.171206  0.951912  0.107389  1
  O  O79  1  0.671206  0.048088  0.392611  1
  O  O80  1  0.039110  0.535017  0.099840  1
  O  O81  1  0.039110  0.035017  0.400160  1
  O  O82  1  0.539110  0.964983  0.099840  1
  O  O83  1  0.460890  0.535017  0.599840  1
  O  O84  1  0.960890  0.464983  0.900160  1
  O  O85  1  0.960890  0.964983  0.599840  1
  O  O86  1  0.460890  0.035017  0.900160  1
  O  O87  1  0.539110  0.464983  0.400160  1
  O  O88  1  0.867136  0.598325  0.211420  1
  O  O89  1  0.367136  0.401675  0.288580  1
  O  O90  1  0.632864  0.098325  0.788580  1
  O  O91  1  0.132864  0.901675  0.711420  1
  O  O92  1  0.132864  0.401675  0.788580  1
  O  O93  1  0.632864  0.598325  0.711420  1
  O  O94  1  0.367136  0.901675  0.211420  1
  O  O95  1  0.867136  0.098325  0.288580  1
  O  O96  1  0.853382  0.774934  0.110379  1
  O  O97  1  0.353382  0.225066  0.389621  1
  O  O98  1  0.646618  0.274934  0.889621  1
  O  O99  1  0.146618  0.725066  0.610379  1
  O  O100  1  0.146618  0.225066  0.889621  1
  O  O101  1  0.646618  0.774934  0.610379  1
  O  O102  1  0.353382  0.725066  0.110379  1
  O  O103  1  0.853382  0.274934  0.389621  1
  O  O104  1  0.748565  0.240695  0.081075  1
  O  O105  1  0.293890  0.106125  0.278256  1
  O  O106  1  0.706110  0.393875  0.778256  1
  O  O107  1  0.206110  0.606125  0.721744  1
  O  O108  1  0.206110  0.106125  0.778256  1
  O  O109  1  0.706110  0.893875  0.721744  1
  O  O110  1  0.293890  0.606125  0.221744  1
  O  O111  1  0.793890  0.393875  0.278256  1
  O  O112  1  0.167167  0.861463  0.507441  1
  O  O113  1  0.667167  0.138537  0.992559  1
  O  O114  1  0.332833  0.361463  0.492559  1
  O  O115  1  0.832833  0.638537  0.007441  1
  O  O116  1  0.832833  0.138537  0.492559  1
  O  O117  1  0.332833  0.861463  0.007441  1
  O  O118  1  0.667167  0.638537  0.507441  1
  O  O119  1  0.167167  0.361463  0.992559  1
  O  O120  1  0.584324  0.874961  0.491021  1
  O  O121  1  0.084324  0.125039  0.008979  1
  O  O122  1  0.915676  0.374961  0.508979  1
  O  O123  1  0.415676  0.625039  0.991021  1
  O  O124  1  0.415676  0.125039  0.508979  1
  O  O125  1  0.915676  0.874961  0.991021  1
  O  O126  1  0.084324  0.625039  0.491021  1
  O  O127  1  0.622987  0.656409  0.289151  1
