# generated using pymatgen
data_Na4Hf2(GeO4)3
_symmetry_space_group_name_H-M   'P 1'
_cell_length_a   9.33738098
_cell_length_b   9.33738098
_cell_length_c   9.33738098
_cell_angle_alpha   61.35818456
_cell_angle_beta   61.35818456
_cell_angle_gamma   61.35818456
_symmetry_Int_Tables_number   1
_chemical_formula_structural   Na4Hf2(GeO4)3
_chemical_formula_sum   'Na8 Hf4 Ge6 O24'
_cell_volume   593.22000704
_cell_formula_units_Z   2
loop_
 _symmetry_equiv_pos_site_id
 _symmetry_equiv_pos_as_xyz
  1  'x, y, z'
loop_
 _atom_site_type_symbol
 _atom_site_label
 _atom_site_symmetry_multiplicity
 _atom_site_fract_x
 _atom_site_fract_y
 _atom_site_fract_z
 _atom_site_occupancy
  Na  Na0  1  0.000000  0.000000  0.000000  1
  Na  Na1  1  0.250000  0.870846  0.629154  1
  Na  Na2  1  0.629154  0.250000  0.870846  1
  Na  Na3  1  0.870846  0.629154  0.250000  1
  Na  Na4  1  0.129154  0.370846  0.750000  1
  Na  Na5  1  0.370846  0.750000  0.129154  1
  Na  Na6  1  0.500000  0.500000  0.500000  1
  Na  Na7  1  0.750000  0.129154  0.370846  1
  Hf  Hf8  1  0.643855  0.643855  0.643855  1
  Hf  Hf9  1  0.143855  0.143855  0.143855  1
  Hf  Hf10  1  0.356145  0.356145  0.356145  1
  Hf  Hf11  1  0.856145  0.856145  0.856145  1
  Ge  Ge12  1  0.750000  0.457311  0.042689  1
  Ge  Ge13  1  0.542689  0.957311  0.250000  1
  Ge  Ge14  1  0.457311  0.042689  0.750000  1
  Ge  Ge15  1  0.250000  0.542689  0.957311  1
  Ge  Ge16  1  0.957311  0.250000  0.542689  1
  Ge  Ge17  1  0.042689  0.750000  0.457311  1
  O  O18  1  0.509742  0.136861  0.293401  1
  O  O19  1  0.136861  0.293401  0.509742  1
  O  O20  1  0.293401  0.509742  0.136861  1
  O  O21  1  0.363139  0.990258  0.206599  1
  O  O22  1  0.990258  0.206599  0.363139  1
  O  O23  1  0.206599  0.363139  0.990258  1
  O  O24  1  0.490258  0.863139  0.706599  1
  O  O25  1  0.863139  0.706599  0.490258  1
  O  O26  1  0.706599  0.490258  0.863139  1
  O  O27  1  0.636861  0.009742  0.793401  1
  O  O28  1  0.009742  0.793401  0.636861  1
  O  O29  1  0.793401  0.636861  0.009742  1
  O  O30  1  0.438788  0.238154  0.575929  1
  O  O31  1  0.238154  0.575929  0.438788  1
  O  O32  1  0.575929  0.438788  0.238154  1
  O  O33  1  0.261846  0.061212  0.924071  1
  O  O34  1  0.061212  0.924071  0.261846  1
  O  O35  1  0.924071  0.261846  0.061212  1
  O  O36  1  0.075929  0.738154  0.938788  1
  O  O37  1  0.938788  0.075929  0.738154  1
  O  O38  1  0.738154  0.938788  0.075929  1
  O  O39  1  0.424071  0.561212  0.761846  1
  O  O40  1  0.761846  0.424071  0.561212  1
  O  O41  1  0.561212  0.761846  0.424071  1
