# generated using pymatgen
data_Sr4Al6SO16
_symmetry_space_group_name_H-M   'P 1'
_cell_length_a   8.15914167
_cell_length_b   8.15914167
_cell_length_c   8.15914167
_cell_angle_alpha   109.47122063
_cell_angle_beta   109.47122063
_cell_angle_gamma   109.47122063
_symmetry_Int_Tables_number   1
_chemical_formula_structural   Sr4Al6SO16
_chemical_formula_sum   'Sr4 Al6 S1 O16'
_cell_volume   418.13019557
_cell_formula_units_Z   1
loop_
 _symmetry_equiv_pos_site_id
 _symmetry_equiv_pos_as_xyz
  1  'x, y, z'
loop_
 _atom_site_type_symbol
 _atom_site_label
 _atom_site_symmetry_multiplicity
 _atom_site_fract_x
 _atom_site_fract_y
 _atom_site_fract_z
 _atom_site_occupancy
  Sr  Sr0  1  1.000000  1.000000  0.607327  1
  Sr  Sr1  1  0.607327  1.000000  0.000000  1
  Sr  Sr2  1  1.000000  0.607327  0.000000  1
  Sr  Sr3  1  0.392673  0.392673  0.392673  1
  Al  Al4  1  0.750000  0.250000  0.500000  1
  Al  Al5  1  0.500000  0.750000  0.250000  1
  Al  Al6  1  0.750000  0.500000  0.250000  1
  Al  Al7  1  0.250000  0.750000  0.500000  1
  Al  Al8  1  0.250000  0.500000  0.750000  1
  Al  Al9  1  0.500000  0.250000  0.750000  1
  S  S10  1  0.000000  0.000000  0.000000  1
  O  O11  1  0.395065  1.000000  0.699987  1
  O  O12  1  0.300013  0.695078  0.300013  1
  O  O13  1  0.699987  1.000000  0.395065  1
  O  O14  1  0.304922  0.604935  0.604935  1
  O  O15  1  0.604935  0.604935  0.304922  1
  O  O16  1  0.699987  0.395065  0.000000  1
  O  O17  1  0.695078  0.300013  0.300013  1
  O  O18  1  0.395065  0.699987  0.000000  1
  O  O19  1  1.000000  0.699987  0.395065  1
  O  O20  1  0.300013  0.300013  0.695078  1
  O  O21  1  1.000000  0.395065  0.699987  1
  O  O22  1  0.816666  0.816666  0.816666  1
  O  O23  1  1.000000  0.183334  1.000000  1
  O  O24  1  1.000000  1.000000  0.183334  1
  O  O25  1  0.183334  1.000000  1.000000  1
  O  O26  1  0.604935  0.304922  0.604935  1
