# generated using pymatgen
data_LuVO4
_symmetry_space_group_name_H-M   'P 1'
_cell_length_a   6.56301939
_cell_length_b   6.56301939
_cell_length_c   6.56301939
_cell_angle_alpha   135.05675117
_cell_angle_beta   135.05675117
_cell_angle_gamma   65.44203376
_symmetry_Int_Tables_number   1
_chemical_formula_structural   LuVO4
_chemical_formula_sum   'Lu2 V2 O8'
_cell_volume   138.98518323
_cell_formula_units_Z   2
loop_
 _symmetry_equiv_pos_site_id
 _symmetry_equiv_pos_as_xyz
  1  'x, y, z'
loop_
 _atom_site_type_symbol
 _atom_site_label
 _atom_site_symmetry_multiplicity
 _atom_site_fract_x
 _atom_site_fract_y
 _atom_site_fract_z
 _atom_site_occupancy
  Lu  Lu0  1  0.000000  0.000000  0.000000  1
  Lu  Lu1  1  0.750000  0.250000  0.500000  1
  V  V2  1  0.500000  0.500000  0.000000  1
  V  V3  1  0.250000  0.750000  0.500000  1
  O  O4  1  0.428324  0.323015  0.587737  1
  O  O5  1  0.073015  0.985278  0.394691  1
  O  O6  1  0.590587  0.678324  0.605309  1
  O  O7  1  0.735278  0.840587  0.412263  1
  O  O8  1  0.014722  0.409413  0.087737  1
  O  O9  1  0.159413  0.571676  0.894691  1
  O  O10  1  0.676985  0.264722  0.105309  1
  O  O11  1  0.321676  0.926985  0.912263  1
