# generated using pymatgen
data_MgPbF6
_symmetry_space_group_name_H-M   'P 1'
_cell_length_a   5.69970562
_cell_length_b   5.69970562
_cell_length_c   5.69970562
_cell_angle_alpha   55.39563226
_cell_angle_beta   55.39563226
_cell_angle_gamma   55.39563226
_symmetry_Int_Tables_number   1
_chemical_formula_structural   MgPbF6
_chemical_formula_sum   'Mg1 Pb1 F6'
_cell_volume   116.92749083
_cell_formula_units_Z   1
loop_
 _symmetry_equiv_pos_site_id
 _symmetry_equiv_pos_as_xyz
  1  'x, y, z'
loop_
 _atom_site_type_symbol
 _atom_site_label
 _atom_site_symmetry_multiplicity
 _atom_site_fract_x
 _atom_site_fract_y
 _atom_site_fract_z
 _atom_site_occupancy
  Mg  Mg0  1  0.000000  0.000000  0.000000  1
  Pb  Pb1  1  0.500000  0.500000  0.500000  1
  F  F2  1  0.883746  0.242919  0.628732  1
  F  F3  1  0.242919  0.628732  0.883746  1
  F  F4  1  0.371268  0.116254  0.757081  1
  F  F5  1  0.757081  0.371268  0.116254  1
  F  F6  1  0.116254  0.757081  0.371268  1
  F  F7  1  0.628732  0.883746  0.242919  1
