# generated using pymatgen
data_Na4Ni7(PO4)6
_symmetry_space_group_name_H-M   'P 1'
_cell_length_a   8.86839751
_cell_length_b   8.86839751
_cell_length_c   6.49689028
_cell_angle_alpha   81.10715730
_cell_angle_beta   98.89284270
_cell_angle_gamma   74.34802089
_symmetry_Int_Tables_number   1
_chemical_formula_structural   Na4Ni7(PO4)6
_chemical_formula_sum   'Na4 Ni7 P6 O24'
_cell_volume   475.64812441
_cell_formula_units_Z   1
loop_
 _symmetry_equiv_pos_site_id
 _symmetry_equiv_pos_as_xyz
  1  'x, y, z'
loop_
 _atom_site_type_symbol
 _atom_site_label
 _atom_site_symmetry_multiplicity
 _atom_site_fract_x
 _atom_site_fract_y
 _atom_site_fract_z
 _atom_site_occupancy
  Na  Na0  1  0.929578  0.070422  0.477977  1
  Na  Na1  1  0.277139  0.722861  0.536751  1
  Na  Na2  1  0.736777  0.512541  0.539162  1
  Na  Na3  1  0.487459  0.263223  0.539162  1
  Ni  Ni4  1  0.358135  0.016556  0.817967  1
  Ni  Ni5  1  0.983444  0.641865  0.817967  1
  Ni  Ni6  1  0.023939  0.363050  0.182145  1
  Ni  Ni7  1  0.636950  0.976061  0.182145  1
  Ni  Ni8  1  0.375256  0.372896  0.001311  1
  Ni  Ni9  1  0.627104  0.624744  0.001311  1
  Ni  Ni10  1  0.000816  0.999184  0.999577  1
  P  P11  1  0.691545  0.308455  0.964367  1
  P  P12  1  0.314338  0.685662  0.042215  1
  P  P13  1  0.282938  0.093934  0.280077  1
  P  P14  1  0.906066  0.717062  0.280077  1
  P  P15  1  0.099679  0.284496  0.717125  1
  P  P16  1  0.715504  0.900321  0.717125  1
  O  O17  1  0.556209  0.443791  0.796984  1
  O  O18  1  0.452862  0.547138  0.197153  1
  O  O19  1  0.800593  0.199407  0.854071  1
  O  O20  1  0.204466  0.795534  0.150229  1
  O  O21  1  0.223821  0.599894  0.892230  1
  O  O22  1  0.400106  0.776179  0.892230  1
  O  O23  1  0.601665  0.218860  0.106959  1
  O  O24  1  0.781140  0.398335  0.106959  1
  O  O25  1  0.999469  0.339699  0.489887  1
  O  O26  1  0.660301  0.000531  0.489887  1
  O  O27  1  0.338446  0.999239  0.508884  1
  O  O28  1  0.000761  0.661554  0.508884  1
  O  O29  1  0.017768  0.396168  0.856466  1
  O  O30  1  0.603832  0.982232  0.856466  1
  O  O31  1  0.392520  0.013865  0.138310  1
  O  O32  1  0.986135  0.607480  0.138310  1
  O  O33  1  0.111963  0.102501  0.787306  1
  O  O34  1  0.724820  0.715616  0.251003  1
  O  O35  1  0.284384  0.275180  0.251003  1
  O  O36  1  0.720240  0.718249  0.748391  1
  O  O37  1  0.281751  0.279760  0.748391  1
  O  O38  1  0.886766  0.900483  0.209814  1
  O  O39  1  0.099517  0.113234  0.209814  1
  O  O40  1  0.897499  0.888037  0.787306  1
