# generated using pymatgen
data_Sr6Sb6S17
_symmetry_space_group_name_H-M   'P 1'
_cell_length_a   8.38687035
_cell_length_b   15.73143073
_cell_length_c   23.17871874
_cell_angle_alpha   90.00000000
_cell_angle_beta   90.00000000
_cell_angle_gamma   90.00000000
_symmetry_Int_Tables_number   1
_chemical_formula_structural   Sr6Sb6S17
_chemical_formula_sum   'Sr24 Sb24 S68'
_cell_volume   3058.14150730
_cell_formula_units_Z   4
loop_
 _symmetry_equiv_pos_site_id
 _symmetry_equiv_pos_as_xyz
  1  'x, y, z'
loop_
 _atom_site_type_symbol
 _atom_site_label
 _atom_site_symmetry_multiplicity
 _atom_site_fract_x
 _atom_site_fract_y
 _atom_site_fract_z
 _atom_site_occupancy
  Sr  Sr0  1  0.255333  0.561832  0.956321  1
  Sr  Sr1  1  0.755333  0.938168  0.043679  1
  Sr  Sr2  1  0.744667  0.061832  0.543679  1
  Sr  Sr3  1  0.244667  0.438168  0.456321  1
  Sr  Sr4  1  0.248979  0.936042  0.045345  1
  Sr  Sr5  1  0.748979  0.563958  0.954655  1
  Sr  Sr6  1  0.751021  0.436042  0.454655  1
  Sr  Sr7  1  0.251021  0.063958  0.545345  1
  Sr  Sr8  1  0.253513  0.453198  0.786248  1
  Sr  Sr9  1  0.753513  0.046802  0.213752  1
  Sr  Sr10  1  0.746487  0.953198  0.713752  1
  Sr  Sr11  1  0.246487  0.546802  0.286248  1
  Sr  Sr12  1  0.249786  0.957672  0.714800  1
  Sr  Sr13  1  0.749786  0.542328  0.285200  1
  Sr  Sr14  1  0.750214  0.457672  0.785200  1
  Sr  Sr15  1  0.250214  0.042328  0.214800  1
  Sr  Sr16  1  0.254033  0.336255  0.624495  1
  Sr  Sr17  1  0.754033  0.163745  0.375505  1
  Sr  Sr18  1  0.745967  0.836255  0.875505  1
  Sr  Sr19  1  0.245967  0.663745  0.124495  1
  Sr  Sr20  1  0.253972  0.837336  0.876189  1
  Sr  Sr21  1  0.753972  0.662664  0.123811  1
  Sr  Sr22  1  0.746028  0.337336  0.623811  1
  Sr  Sr23  1  0.246028  0.162664  0.376189  1
  Sb  Sb24  1  0.489783  0.569193  0.604724  1
  Sb  Sb25  1  0.989783  0.930807  0.395276  1
  Sb  Sb26  1  0.510217  0.069193  0.895276  1
  Sb  Sb27  1  0.010217  0.430807  0.104724  1
  Sb  Sb28  1  0.981016  0.575141  0.586984  1
  Sb  Sb29  1  0.481016  0.924859  0.413016  1
  Sb  Sb30  1  0.018984  0.075141  0.913016  1
  Sb  Sb31  1  0.518984  0.424859  0.086984  1
  Sb  Sb32  1  0.494866  0.336619  0.936079  1
  Sb  Sb33  1  0.994866  0.163381  0.063921  1
  Sb  Sb34  1  0.505134  0.836619  0.563921  1
  Sb  Sb35  1  0.005134  0.663381  0.436079  1
  Sb  Sb36  1  0.990292  0.829437  0.588005  1
  Sb  Sb37  1  0.490292  0.670563  0.411995  1
  Sb  Sb38  1  0.009708  0.329437  0.911995  1
  Sb  Sb39  1  0.509708  0.170563  0.088005  1
  Sb  Sb40  1  0.012474  0.720438  0.731248  1
  Sb  Sb41  1  0.512474  0.779562  0.268752  1
  Sb  Sb42  1  0.987526  0.220438  0.768752  1
  Sb  Sb43  1  0.487526  0.279562  0.231248  1
  Sb  Sb44  1  0.495079  0.702123  0.747110  1
  Sb  Sb45  1  0.995079  0.797877  0.252890  1
  Sb  Sb46  1  0.504921  0.202123  0.752890  1
  Sb  Sb47  1  0.004921  0.297877  0.247110  1
  S  S48  1  0.492548  0.708655  0.929971  1
  S  S49  1  0.992548  0.791345  0.070029  1
  S  S50  1  0.507452  0.208655  0.570029  1
  S  S51  1  0.007452  0.291345  0.429971  1
  S  S52  1  0.359854  0.750714  0.001097  1
  S  S53  1  0.859854  0.749286  0.998903  1
  S  S54  1  0.640146  0.250714  0.498903  1
  S  S55  1  0.140146  0.249286  0.501097  1
  S  S56  1  0.995679  0.707201  0.928767  1
  S  S57  1  0.495679  0.792799  0.071233  1
  S  S58  1  0.004321  0.207201  0.571233  1
  S  S59  1  0.504321  0.292799  0.428767  1
  S  S60  1  0.262363  0.525821  0.665396  1
  S  S61  1  0.762363  0.974179  0.334604  1
  S  S62  1  0.737637  0.025821  0.834604  1
  S  S63  1  0.237637  0.474179  0.165396  1
  S  S64  1  0.494776  0.434967  0.549645  1
  S  S65  1  0.994776  0.065033  0.450355  1
  S  S66  1  0.505224  0.934967  0.950355  1
  S  S67  1  0.005224  0.565033  0.049645  1
  S  S68  1  0.236973  0.970930  0.338991  1
  S  S69  1  0.736973  0.529070  0.661009  1
  S  S70  1  0.763027  0.470930  0.161009  1
  S  S71  1  0.263027  0.029070  0.838991  1
  S  S72  1  0.005067  0.929012  0.947755  1
  S  S73  1  0.505067  0.570988  0.052245  1
  S  S74  1  0.994933  0.429012  0.552245  1
  S  S75  1  0.494933  0.070988  0.447755  1
  S  S76  1  0.210092  0.778510  0.656966  1
  S  S77  1  0.782990  0.618852  0.505634  1
  S  S78  1  0.217010  0.118852  0.994366  1
  S  S79  1  0.717010  0.381148  0.005634  1
  S  S80  1  0.497696  0.972558  0.619766  1
  S  S81  1  0.997696  0.527442  0.380234  1
  S  S82  1  0.502304  0.472558  0.880234  1
  S  S83  1  0.002304  0.027442  0.119766  1
  S  S84  1  0.217903  0.620101  0.503573  1
  S  S85  1  0.717903  0.879899  0.496427  1
  S  S86  1  0.782097  0.120101  0.996427  1
  S  S87  1  0.282097  0.379899  0.003573  1
  S  S88  1  0.774840  0.781131  0.651979  1
  S  S89  1  0.274840  0.718869  0.348021  1
  S  S90  1  0.225160  0.281131  0.848021  1
  S  S91  1  0.725160  0.218869  0.151979  1
  S  S92  1  0.997980  0.980161  0.622170  1
  S  S93  1  0.497980  0.519839  0.377830  1
  S  S94  1  0.002020  0.480161  0.877830  1
  S  S95  1  0.502020  0.019839  0.122170  1
  S  S96  1  0.292093  0.154881  0.687268  1
  S  S97  1  0.792093  0.345119  0.312732  1
  S  S98  1  0.707907  0.654881  0.812732  1
  S  S99  1  0.207907  0.845119  0.187268  1
  S  S100  1  0.253562  0.337229  0.303250  1
  S  S101  1  0.753562  0.162771  0.696750  1
  S  S102  1  0.746438  0.837229  0.196750  1
  S  S103  1  0.246438  0.662771  0.803250  1
  S  S104  1  0.003383  0.147529  0.279615  1
  S  S105  1  0.503383  0.352471  0.720385  1
  S  S106  1  0.996617  0.647529  0.220385  1
  S  S107  1  0.496617  0.852471  0.779615  1
  S  S108  1  0.501646  0.142004  0.282457  1
  S  S109  1  0.001646  0.357996  0.717543  1
  S  S110  1  0.498354  0.642004  0.217543  1
  S  S111  1  0.998354  0.857996  0.782457  1
  S  S112  1  0.289908  0.221490  0.156966  1
  S  S113  1  0.789908  0.278510  0.843034  1
  S  S114  1  0.710092  0.721490  0.343034  1
  S  S115  1  0.282990  0.881148  0.494366  1
