# generated using pymatgen
data_AgHg3SbO6
_symmetry_space_group_name_H-M   'P 1'
_cell_length_a   7.13292286
_cell_length_b   7.13292286
_cell_length_c   7.13292286
_cell_angle_alpha   87.87233634
_cell_angle_beta   87.87233634
_cell_angle_gamma   87.87233634
_symmetry_Int_Tables_number   1
_chemical_formula_structural   AgHg3SbO6
_chemical_formula_sum   'Ag2 Hg6 Sb2 O12'
_cell_volume   362.18054447
_cell_formula_units_Z   2
loop_
 _symmetry_equiv_pos_site_id
 _symmetry_equiv_pos_as_xyz
  1  'x, y, z'
loop_
 _atom_site_type_symbol
 _atom_site_label
 _atom_site_symmetry_multiplicity
 _atom_site_fract_x
 _atom_site_fract_y
 _atom_site_fract_z
 _atom_site_occupancy
  Ag  Ag0  1  0.750000  0.750000  0.750000  1
  Ag  Ag1  1  0.250000  0.250000  0.250000  1
  Hg  Hg2  1  0.902690  0.250000  0.597310  1
  Hg  Hg3  1  0.250000  0.597310  0.902690  1
  Hg  Hg4  1  0.097310  0.750000  0.402690  1
  Hg  Hg5  1  0.750000  0.402690  0.097310  1
  Hg  Hg6  1  0.597310  0.902690  0.250000  1
  Hg  Hg7  1  0.402690  0.097310  0.750000  1
  Sb  Sb8  1  0.000000  0.000000  0.000000  1
  Sb  Sb9  1  0.500000  0.500000  0.500000  1
  O  O10  1  0.503658  0.214865  0.499114  1
  O  O11  1  0.214865  0.499114  0.503658  1
  O  O12  1  0.499114  0.503658  0.214865  1
  O  O13  1  0.285135  0.996342  0.000886  1
  O  O14  1  0.996342  0.000886  0.285135  1
  O  O15  1  0.000886  0.285135  0.996342  1
  O  O16  1  0.496342  0.785135  0.500886  1
  O  O17  1  0.785135  0.500886  0.496342  1
  O  O18  1  0.500886  0.496342  0.785135  1
  O  O19  1  0.714865  0.003658  0.999114  1
  O  O20  1  0.999114  0.714865  0.003658  1
  O  O21  1  0.003658  0.999114  0.714865  1
