# generated using pymatgen
data_Ca5(SnAs3)2
_symmetry_space_group_name_H-M   'P 1'
_cell_length_a   4.18465853
_cell_length_b   12.17021980
_cell_length_c   13.44965213
_cell_angle_alpha   90.00000000
_cell_angle_beta   90.00000000
_cell_angle_gamma   90.00000000
_symmetry_Int_Tables_number   1
_chemical_formula_structural   Ca5(SnAs3)2
_chemical_formula_sum   'Ca10 Sn4 As12'
_cell_volume   684.96676322
_cell_formula_units_Z   2
loop_
 _symmetry_equiv_pos_site_id
 _symmetry_equiv_pos_as_xyz
  1  'x, y, z'
loop_
 _atom_site_type_symbol
 _atom_site_label
 _atom_site_symmetry_multiplicity
 _atom_site_fract_x
 _atom_site_fract_y
 _atom_site_fract_z
 _atom_site_occupancy
  Ca  Ca0  1  0.000000  0.623091  0.745556  1
  Ca  Ca1  1  0.000000  0.376909  0.254444  1
  Ca  Ca2  1  0.000000  0.123091  0.754444  1
  Ca  Ca3  1  0.000000  0.876909  0.245556  1
  Ca  Ca4  1  0.000000  0.000000  0.000000  1
  Ca  Ca5  1  0.000000  0.500000  0.500000  1
  Ca  Ca6  1  0.000000  0.864338  0.565533  1
  Ca  Ca7  1  0.000000  0.135662  0.434467  1
  Ca  Ca8  1  0.000000  0.364338  0.934467  1
  Ca  Ca9  1  0.000000  0.635662  0.065533  1
  Sn  Sn10  1  0.500000  0.291161  0.608965  1
  Sn  Sn11  1  0.500000  0.208839  0.108965  1
  Sn  Sn12  1  0.500000  0.791161  0.891035  1
  Sn  Sn13  1  0.500000  0.708839  0.391035  1
  As  As14  1  0.000000  0.377636  0.705375  1
  As  As15  1  0.000000  0.122364  0.205375  1
  As  As16  1  0.000000  0.877636  0.794625  1
  As  As17  1  0.000000  0.622364  0.294625  1
  As  As18  1  0.500000  0.835532  0.083837  1
  As  As19  1  0.500000  0.164468  0.916163  1
  As  As20  1  0.500000  0.335532  0.416163  1
  As  As21  1  0.500000  0.664468  0.583837  1
  As  As22  1  0.500000  0.573733  0.901485  1
  As  As23  1  0.500000  0.426267  0.098515  1
  As  As24  1  0.500000  0.073733  0.598515  1
  As  As25  1  0.500000  0.926267  0.401485  1
