# generated using pymatgen
data_BaSeO4
_symmetry_space_group_name_H-M   'P 1'
_cell_length_a   5.82594158
_cell_length_b   7.51058064
_cell_length_c   9.18405536
_cell_angle_alpha   90.00000000
_cell_angle_beta   90.00000000
_cell_angle_gamma   90.00000000
_symmetry_Int_Tables_number   1
_chemical_formula_structural   BaSeO4
_chemical_formula_sum   'Ba4 Se4 O16'
_cell_volume   401.85940025
_cell_formula_units_Z   4
loop_
 _symmetry_equiv_pos_site_id
 _symmetry_equiv_pos_as_xyz
  1  'x, y, z'
loop_
 _atom_site_type_symbol
 _atom_site_label
 _atom_site_symmetry_multiplicity
 _atom_site_fract_x
 _atom_site_fract_y
 _atom_site_fract_z
 _atom_site_occupancy
  Ba  Ba0  1  0.250000  0.342388  0.682925  1
  Ba  Ba1  1  0.750000  0.657612  0.317075  1
  Ba  Ba2  1  0.750000  0.842388  0.817075  1
  Ba  Ba3  1  0.250000  0.157612  0.182925  1
  Se  Se4  1  0.250000  0.816063  0.562617  1
  Se  Se5  1  0.750000  0.183937  0.437383  1
  Se  Se6  1  0.750000  0.316063  0.937383  1
  Se  Se7  1  0.250000  0.683937  0.062617  1
  O  O8  1  0.516741  0.314799  0.420027  1
  O  O9  1  0.016741  0.685201  0.579973  1
  O  O10  1  0.483259  0.814799  0.079973  1
  O  O11  1  0.983259  0.185201  0.920027  1
  O  O12  1  0.483259  0.685201  0.579973  1
  O  O13  1  0.983259  0.314799  0.420027  1
  O  O14  1  0.516741  0.185201  0.920027  1
  O  O15  1  0.016741  0.814799  0.079973  1
  O  O16  1  0.250000  0.592580  0.897795  1
  O  O17  1  0.750000  0.407420  0.102205  1
  O  O18  1  0.750000  0.092580  0.602205  1
  O  O19  1  0.250000  0.907420  0.397795  1
  O  O20  1  0.250000  0.535530  0.198266  1
  O  O21  1  0.750000  0.464470  0.801734  1
  O  O22  1  0.750000  0.035530  0.301734  1
  O  O23  1  0.250000  0.964470  0.698266  1
