# generated using pymatgen
data_Dy4(SiS4)3
_symmetry_space_group_name_H-M   'P 1'
_cell_length_a   9.93735254
_cell_length_b   11.10975080
_cell_length_c   17.17991976
_cell_angle_alpha   90.00000000
_cell_angle_beta   110.51131856
_cell_angle_gamma   90.00000000
_symmetry_Int_Tables_number   1
_chemical_formula_structural   Dy4(SiS4)3
_chemical_formula_sum   'Dy16 Si12 S48'
_cell_volume   1776.44467048
_cell_formula_units_Z   4
loop_
 _symmetry_equiv_pos_site_id
 _symmetry_equiv_pos_as_xyz
  1  'x, y, z'
loop_
 _atom_site_type_symbol
 _atom_site_label
 _atom_site_symmetry_multiplicity
 _atom_site_fract_x
 _atom_site_fract_y
 _atom_site_fract_z
 _atom_site_occupancy
  Dy  Dy0  1  0.970627  0.737059  0.790799  1
  Dy  Dy1  1  0.029373  0.237059  0.709201  1
  Dy  Dy2  1  0.029373  0.262941  0.209201  1
  Dy  Dy3  1  0.970627  0.762941  0.290799  1
  Dy  Dy4  1  0.608235  0.127782  0.635107  1
  Dy  Dy5  1  0.391765  0.627782  0.864893  1
  Dy  Dy6  1  0.391765  0.872218  0.364893  1
  Dy  Dy7  1  0.608235  0.372218  0.135107  1
  Dy  Dy8  1  0.185961  0.850516  0.559181  1
  Dy  Dy9  1  0.814039  0.350516  0.940819  1
  Dy  Dy10  1  0.814039  0.149484  0.440819  1
  Dy  Dy11  1  0.185961  0.649484  0.059181  1
  Dy  Dy12  1  0.517405  0.518580  0.625574  1
  Dy  Dy13  1  0.482595  0.018580  0.874426  1
  Dy  Dy14  1  0.482595  0.481420  0.374426  1
  Dy  Dy15  1  0.517405  0.981420  0.125574  1
  Si  Si16  1  0.525725  0.785911  0.733067  1
  Si  Si17  1  0.474275  0.285911  0.766933  1
  Si  Si18  1  0.474275  0.214089  0.266933  1
  Si  Si19  1  0.525725  0.714089  0.233067  1
  Si  Si20  1  0.244205  0.620305  0.440869  1
  Si  Si21  1  0.755795  0.120305  0.059131  1
  Si  Si22  1  0.755795  0.379695  0.559131  1
  Si  Si23  1  0.244205  0.879695  0.940869  1
  Si  Si24  1  0.900596  0.951337  0.619212  1
  Si  Si25  1  0.099404  0.451337  0.880788  1
  Si  Si26  1  0.099404  0.048663  0.380788  1
  Si  Si27  1  0.900596  0.548663  0.119212  1
  S  S28  1  0.435764  0.958321  0.686138  1
  S  S29  1  0.564236  0.458321  0.813862  1
  S  S30  1  0.564236  0.041679  0.313862  1
  S  S31  1  0.435764  0.541679  0.186138  1
  S  S32  1  0.317326  0.445249  0.474261  1
  S  S33  1  0.682674  0.945249  0.025739  1
  S  S34  1  0.682674  0.554751  0.525739  1
  S  S35  1  0.317326  0.054751  0.974261  1
  S  S36  1  0.979717  0.774481  0.629052  1
  S  S37  1  0.020283  0.274481  0.870948  1
  S  S38  1  0.020283  0.225519  0.370948  1
  S  S39  1  0.979717  0.725519  0.129052  1
  S  S40  1  0.305409  0.020765  0.473046  1
  S  S41  1  0.694591  0.520765  0.026954  1
  S  S42  1  0.694591  0.979235  0.526954  1
  S  S43  1  0.305409  0.479235  0.973046  1
  S  S44  1  0.883095  0.027785  0.730267  1
  S  S45  1  0.116905  0.527785  0.769733  1
  S  S46  1  0.116905  0.972215  0.269733  1
  S  S47  1  0.883095  0.472215  0.230267  1
  S  S48  1  0.055025  0.065030  0.592948  1
  S  S49  1  0.944975  0.565030  0.907052  1
  S  S50  1  0.944975  0.934970  0.407052  1
  S  S51  1  0.055025  0.434970  0.092948  1
  S  S52  1  0.043322  0.659711  0.448565  1
  S  S53  1  0.956678  0.159711  0.051435  1
  S  S54  1  0.956678  0.340289  0.551435  1
  S  S55  1  0.043322  0.840289  0.948565  1
  S  S56  1  0.405000  0.742064  0.513786  1
  S  S57  1  0.595000  0.242064  0.986214  1
  S  S58  1  0.595000  0.257936  0.486214  1
  S  S59  1  0.405000  0.757936  0.013786  1
  S  S60  1  0.343476  0.666227  0.686330  1
  S  S61  1  0.656524  0.166227  0.813670  1
  S  S62  1  0.656524  0.333773  0.313670  1
  S  S63  1  0.343476  0.833773  0.186330  1
  S  S64  1  0.396841  0.289732  0.635780  1
  S  S65  1  0.603159  0.789732  0.864220  1
  S  S66  1  0.603159  0.710268  0.364220  1
  S  S67  1  0.396841  0.210268  0.135780  1
  S  S68  1  0.765579  0.347800  0.684135  1
  S  S69  1  0.234421  0.847800  0.815865  1
  S  S70  1  0.234421  0.652200  0.315865  1
  S  S71  1  0.765579  0.152200  0.184135  1
  S  S72  1  0.689819  0.720643  0.692041  1
  S  S73  1  0.310181  0.220643  0.807959  1
  S  S74  1  0.310181  0.279357  0.307959  1
  S  S75  1  0.689819  0.779357  0.192041  1
