# generated using pymatgen
data_RbAlF4
_symmetry_space_group_name_H-M   'P 1'
_cell_length_a   10.55471696
_cell_length_b   10.55471696
_cell_length_c   10.55471696
_cell_angle_alpha   111.52294522
_cell_angle_beta   111.52294522
_cell_angle_gamma   105.44138373
_symmetry_Int_Tables_number   1
_chemical_formula_structural   RbAlF4
_chemical_formula_sum   'Rb10 Al10 F40'
_cell_volume   901.81697387
_cell_formula_units_Z   10
loop_
 _symmetry_equiv_pos_site_id
 _symmetry_equiv_pos_as_xyz
  1  'x, y, z'
loop_
 _atom_site_type_symbol
 _atom_site_label
 _atom_site_symmetry_multiplicity
 _atom_site_fract_x
 _atom_site_fract_y
 _atom_site_fract_z
 _atom_site_occupancy
  Rb  Rb0  1  0.846576  0.346576  0.816834  1
  Rb  Rb1  1  0.529742  0.029742  0.183166  1
  Rb  Rb2  1  0.653424  0.470258  0.500000  1
  Rb  Rb3  1  0.970258  0.153424  0.500000  1
  Rb  Rb4  1  0.346576  0.529742  0.500000  1
  Rb  Rb5  1  0.470258  0.970258  0.816834  1
  Rb  Rb6  1  0.153424  0.653424  0.183166  1
  Rb  Rb7  1  0.029742  0.846576  0.500000  1
  Rb  Rb8  1  0.750000  0.750000  0.000000  1
  Rb  Rb9  1  0.250000  0.250000  0.000000  1
  Al  Al10  1  0.707597  0.423436  0.131033  1
  Al  Al11  1  0.292403  0.576564  0.868967  1
  Al  Al12  1  0.576564  0.707597  0.284161  1
  Al  Al13  1  0.423436  0.292403  0.715839  1
  Al  Al14  1  0.207597  0.076564  0.284161  1
  Al  Al15  1  0.923436  0.207597  0.131033  1
  Al  Al16  1  0.076564  0.792403  0.868967  1
  Al  Al17  1  0.792403  0.923436  0.715839  1
  Al  Al18  1  1.000000  0.500000  0.500000  1
  Al  Al19  1  0.500000  1.000000  0.500000  1
  F  F20  1  0.638453  0.138453  0.500000  1
  F  F21  1  0.861547  0.361547  0.500000  1
  F  F22  1  0.361547  0.861547  0.500000  1
  F  F23  1  0.138453  0.638453  0.500000  1
  F  F24  1  0.281444  0.218556  0.500000  1
  F  F25  1  0.781444  0.281444  0.062887  1
  F  F26  1  0.218556  0.718556  0.937113  1
  F  F27  1  0.718556  0.781444  0.500000  1
  F  F28  1  0.440374  0.569597  0.288162  1
  F  F29  1  0.281435  0.152212  0.711838  1
  F  F30  1  0.430403  0.718565  0.870777  1
  F  F31  1  0.847788  0.559626  0.129223  1
  F  F32  1  0.940374  0.652212  0.870777  1
  F  F33  1  0.347788  0.218565  0.288162  1
  F  F34  1  0.059626  0.347788  0.129223  1
  F  F35  1  0.930403  0.059626  0.711838  1
  F  F36  1  0.559626  0.430403  0.711838  1
  F  F37  1  0.718565  0.847788  0.288162  1
  F  F38  1  0.569597  0.281435  0.129223  1
  F  F39  1  0.152212  0.440374  0.870777  1
  F  F40  1  0.344341  0.998736  0.343078  1
  F  F41  1  0.001264  0.344341  0.345605  1
  F  F42  1  0.998736  0.655659  0.654395  1
  F  F43  1  0.655659  0.001264  0.656922  1
  F  F44  1  0.498736  0.844341  0.343078  1
  F  F45  1  0.501264  0.155659  0.656922  1
  F  F46  1  0.844341  0.501264  0.345605  1
  F  F47  1  0.155659  0.498736  0.654395  1
  F  F48  1  0.142368  0.933269  0.075636  1
  F  F49  1  0.066731  0.142368  0.209099  1
  F  F50  1  0.933269  0.857632  0.790901  1
  F  F51  1  0.857632  0.066731  0.924364  1
  F  F52  1  0.433269  0.642368  0.075636  1
  F  F53  1  0.566731  0.357632  0.924364  1
  F  F54  1  0.642368  0.566731  0.209099  1
  F  F55  1  0.357632  0.433269  0.790901  1
  F  F56  1  0.218565  0.930403  0.870777  1
  F  F57  1  0.069597  0.940374  0.288162  1
  F  F58  1  0.652212  0.781435  0.711838  1
  F  F59  1  0.781435  0.069597  0.129223  1
