# generated using pymatgen
data_Tm2Ge2O7
_symmetry_space_group_name_H-M   'P 1'
_cell_length_a   6.79945060
_cell_length_b   6.79945060
_cell_length_c   12.37775204
_cell_angle_alpha   90.00000000
_cell_angle_beta   90.00000000
_cell_angle_gamma   90.00000000
_symmetry_Int_Tables_number   1
_chemical_formula_structural   Tm2Ge2O7
_chemical_formula_sum   'Tm8 Ge8 O28'
_cell_volume   572.25477348
_cell_formula_units_Z   4
loop_
 _symmetry_equiv_pos_site_id
 _symmetry_equiv_pos_as_xyz
  1  'x, y, z'
loop_
 _atom_site_type_symbol
 _atom_site_label
 _atom_site_symmetry_multiplicity
 _atom_site_fract_x
 _atom_site_fract_y
 _atom_site_fract_z
 _atom_site_occupancy
  Tm  Tm0  1  0.645101  0.126445  0.364803  1
  Tm  Tm1  1  0.354899  0.873555  0.864803  1
  Tm  Tm2  1  0.126445  0.645101  0.635197  1
  Tm  Tm3  1  0.626445  0.854899  0.114803  1
  Tm  Tm4  1  0.373555  0.145101  0.614803  1
  Tm  Tm5  1  0.854899  0.626445  0.885197  1
  Tm  Tm6  1  0.145101  0.373555  0.385197  1
  Tm  Tm7  1  0.873555  0.354899  0.135197  1
  Ge  Ge8  1  0.849776  0.100050  0.882033  1
  Ge  Ge9  1  0.150224  0.899950  0.382033  1
  Ge  Ge10  1  0.100050  0.849776  0.117967  1
  Ge  Ge11  1  0.600050  0.650224  0.632033  1
  Ge  Ge12  1  0.399950  0.349776  0.132033  1
  Ge  Ge13  1  0.650224  0.600050  0.367967  1
  Ge  Ge14  1  0.349776  0.399950  0.867967  1
  Ge  Ge15  1  0.899950  0.150224  0.617967  1
  O  O16  1  0.856831  0.320811  0.955946  1
  O  O17  1  0.143169  0.679189  0.455946  1
  O  O18  1  0.320811  0.856831  0.044054  1
  O  O19  1  0.820811  0.643169  0.705946  1
  O  O20  1  0.179189  0.356831  0.205946  1
  O  O21  1  0.643169  0.820811  0.294054  1
  O  O22  1  0.356831  0.179189  0.794054  1
  O  O23  1  0.679189  0.143169  0.544054  1
  O  O24  1  0.661754  0.933814  0.929461  1
  O  O25  1  0.338246  0.066186  0.429461  1
  O  O26  1  0.933814  0.661754  0.070539  1
  O  O27  1  0.433814  0.838246  0.679461  1
  O  O28  1  0.566186  0.161754  0.179461  1
  O  O29  1  0.838246  0.433814  0.320539  1
  O  O30  1  0.161754  0.566186  0.820539  1
  O  O31  1  0.066186  0.338246  0.570539  1
  O  O32  1  0.803661  0.196339  0.750000  1
  O  O33  1  0.303661  0.303661  0.000000  1
  O  O34  1  0.696339  0.696339  0.500000  1
  O  O35  1  0.196339  0.803661  0.250000  1
  O  O36  1  0.079836  0.965072  0.621504  1
  O  O37  1  0.534928  0.579836  0.871504  1
  O  O38  1  0.465072  0.420164  0.371504  1
  O  O39  1  0.579836  0.534928  0.128496  1
  O  O40  1  0.420164  0.465072  0.628496  1
  O  O41  1  0.920164  0.034928  0.121504  1
  O  O42  1  0.965072  0.079836  0.378496  1
  O  O43  1  0.034928  0.920164  0.878496  1
