# generated using pymatgen
data_Li2FeSiO4
_symmetry_space_group_name_H-M   'P 1'
_cell_length_a   5.00424976
_cell_length_b   5.39332769
_cell_length_c   6.32791848
_cell_angle_alpha   90.00000000
_cell_angle_beta   90.00000000
_cell_angle_gamma   90.00000000
_symmetry_Int_Tables_number   1
_chemical_formula_structural   Li2FeSiO4
_chemical_formula_sum   'Li4 Fe2 Si2 O8'
_cell_volume   170.78772789
_cell_formula_units_Z   2
loop_
 _symmetry_equiv_pos_site_id
 _symmetry_equiv_pos_as_xyz
  1  'x, y, z'
loop_
 _atom_site_type_symbol
 _atom_site_label
 _atom_site_symmetry_multiplicity
 _atom_site_fract_x
 _atom_site_fract_y
 _atom_site_fract_z
 _atom_site_occupancy
  Li  Li0  1  0.057605  0.668257  0.249937  1
  Li  Li1  1  0.557605  0.331743  0.250063  1
  Li  Li2  1  0.557605  0.331743  0.749937  1
  Li  Li3  1  0.057605  0.668257  0.750063  1
  Fe  Fe4  1  0.062211  0.171042  0.500000  1
  Fe  Fe5  1  0.562211  0.828958  0.000000  1
  Si  Si6  1  0.049774  0.170738  0.000000  1
  Si  Si7  1  0.549774  0.829262  0.500000  1
  O  O8  1  0.720022  0.180444  0.000000  1
  O  O9  1  0.160159  0.315115  0.214095  1
  O  O10  1  0.220022  0.819556  0.500000  1
  O  O11  1  0.647465  0.123622  0.500000  1
  O  O12  1  0.660159  0.684885  0.714095  1
  O  O13  1  0.660159  0.684885  0.285905  1
  O  O14  1  0.160159  0.315115  0.785905  1
  O  O15  1  0.147465  0.876378  0.000000  1
