# generated using pymatgen
data_Ba(NiO2)4
_symmetry_space_group_name_H-M   'P 1'
_cell_length_a   7.19883484
_cell_length_b   7.19883484
_cell_length_c   7.19883484
_cell_angle_alpha   46.88092204
_cell_angle_beta   46.88092204
_cell_angle_gamma   46.88092204
_symmetry_Int_Tables_number   1
_chemical_formula_structural   Ba(NiO2)4
_chemical_formula_sum   'Ba1 Ni4 O8'
_cell_volume   181.65168496
_cell_formula_units_Z   1
loop_
 _symmetry_equiv_pos_site_id
 _symmetry_equiv_pos_as_xyz
  1  'x, y, z'
loop_
 _atom_site_type_symbol
 _atom_site_label
 _atom_site_symmetry_multiplicity
 _atom_site_fract_x
 _atom_site_fract_y
 _atom_site_fract_z
 _atom_site_occupancy
  Ba  Ba0  1  0.500000  0.500000  0.500000  1
  Ni  Ni1  1  0.000000  0.000000  0.000000  1
  Ni  Ni2  1  0.000000  0.500000  0.500000  1
  Ni  Ni3  1  0.500000  0.000000  0.500000  1
  Ni  Ni4  1  0.500000  0.500000  0.000000  1
  O  O5  1  0.697987  0.228795  0.228795  1
  O  O6  1  0.771205  0.302013  0.771205  1
  O  O7  1  0.302013  0.771205  0.771205  1
  O  O8  1  0.771205  0.771205  0.302013  1
  O  O9  1  0.716885  0.716885  0.716885  1
  O  O10  1  0.283115  0.283115  0.283115  1
  O  O11  1  0.228795  0.697987  0.228795  1
  O  O12  1  0.228795  0.228795  0.697987  1
