# generated using pymatgen
data_Y2TiO5
_symmetry_space_group_name_H-M   'P 1'
_cell_length_a   3.71858010
_cell_length_b   10.44709696
_cell_length_c   11.35145834
_cell_angle_alpha   90.00000000
_cell_angle_beta   90.00000000
_cell_angle_gamma   90.00000000
_symmetry_Int_Tables_number   1
_chemical_formula_structural   Y2TiO5
_chemical_formula_sum   'Y8 Ti4 O20'
_cell_volume   440.98561797
_cell_formula_units_Z   4
loop_
 _symmetry_equiv_pos_site_id
 _symmetry_equiv_pos_as_xyz
  1  'x, y, z'
loop_
 _atom_site_type_symbol
 _atom_site_label
 _atom_site_symmetry_multiplicity
 _atom_site_fract_x
 _atom_site_fract_y
 _atom_site_fract_z
 _atom_site_occupancy
  Y  Y0  1  0.250000  0.636270  0.055733  1
  Y  Y1  1  0.750000  0.363730  0.944267  1
  Y  Y2  1  0.250000  0.136270  0.444267  1
  Y  Y3  1  0.750000  0.863730  0.555733  1
  Y  Y4  1  0.250000  0.615420  0.723341  1
  Y  Y5  1  0.750000  0.384580  0.276659  1
  Y  Y6  1  0.250000  0.115420  0.776659  1
  Y  Y7  1  0.750000  0.884580  0.223341  1
  Ti  Ti8  1  0.250000  0.674170  0.380353  1
  Ti  Ti9  1  0.750000  0.325830  0.619647  1
  Ti  Ti10  1  0.250000  0.174170  0.119647  1
  Ti  Ti11  1  0.750000  0.825830  0.880353  1
  O  O12  1  0.250000  0.764041  0.883072  1
  O  O13  1  0.750000  0.235959  0.116928  1
  O  O14  1  0.250000  0.264041  0.616928  1
  O  O15  1  0.750000  0.735959  0.383072  1
  O  O16  1  0.250000  0.007373  0.154511  1
  O  O17  1  0.750000  0.992627  0.845489  1
  O  O18  1  0.250000  0.507373  0.345489  1
  O  O19  1  0.750000  0.492627  0.654511  1
  O  O20  1  0.250000  0.756798  0.229313  1
  O  O21  1  0.750000  0.243202  0.770687  1
  O  O22  1  0.250000  0.256798  0.270687  1
  O  O23  1  0.750000  0.743202  0.729313  1
  O  O24  1  0.750000  0.506114  0.105068  1
  O  O25  1  0.250000  0.493886  0.894932  1
  O  O26  1  0.750000  0.006114  0.394932  1
  O  O27  1  0.250000  0.993886  0.605068  1
  O  O28  1  0.750000  0.775803  0.042401  1
  O  O29  1  0.250000  0.224197  0.957599  1
  O  O30  1  0.750000  0.275803  0.457599  1
  O  O31  1  0.250000  0.724197  0.542401  1
