# generated using pymatgen
data_SnP2O7
_symmetry_space_group_name_H-M   'P 1'
_cell_length_a   8.35033241
_cell_length_b   8.35033241
_cell_length_c   8.35033241
_cell_angle_alpha   90.00000000
_cell_angle_beta   90.00000000
_cell_angle_gamma   90.00000000
_symmetry_Int_Tables_number   1
_chemical_formula_structural   SnP2O7
_chemical_formula_sum   'Sn4 P8 O28'
_cell_volume   582.25240714
_cell_formula_units_Z   4
loop_
 _symmetry_equiv_pos_site_id
 _symmetry_equiv_pos_as_xyz
  1  'x, y, z'
loop_
 _atom_site_type_symbol
 _atom_site_label
 _atom_site_symmetry_multiplicity
 _atom_site_fract_x
 _atom_site_fract_y
 _atom_site_fract_z
 _atom_site_occupancy
  Sn  Sn0  1  0.000000  0.500000  0.500000  1
  Sn  Sn1  1  0.500000  0.500000  0.000000  1
  Sn  Sn2  1  0.500000  0.000000  0.500000  1
  Sn  Sn3  1  0.000000  0.000000  0.000000  1
  P  P4  1  0.389966  0.110034  0.889966  1
  P  P5  1  0.110034  0.889966  0.389966  1
  P  P6  1  0.889966  0.389966  0.110034  1
  P  P7  1  0.610034  0.610034  0.610034  1
  P  P8  1  0.610034  0.889966  0.110034  1
  P  P9  1  0.889966  0.110034  0.610034  1
  P  P10  1  0.110034  0.610034  0.889966  1
  P  P11  1  0.389966  0.389966  0.389966  1
  O  O12  1  0.500000  0.000000  0.000000  1
  O  O13  1  0.000000  0.000000  0.500000  1
  O  O14  1  0.000000  0.500000  0.000000  1
  O  O15  1  0.500000  0.500000  0.500000  1
  O  O16  1  0.948126  0.218663  0.093992  1
  O  O17  1  0.448126  0.281337  0.906008  1
  O  O18  1  0.051874  0.718663  0.406008  1
  O  O19  1  0.281337  0.906008  0.448126  1
  O  O20  1  0.406008  0.051874  0.718663  1
  O  O21  1  0.906008  0.448126  0.281337  1
  O  O22  1  0.218663  0.093992  0.948126  1
  O  O23  1  0.093992  0.948126  0.218663  1
  O  O24  1  0.448126  0.218663  0.406008  1
  O  O25  1  0.406008  0.448126  0.218663  1
  O  O26  1  0.218663  0.406008  0.448126  1
  O  O27  1  0.281337  0.593992  0.948126  1
  O  O28  1  0.906008  0.051874  0.781337  1
  O  O29  1  0.781337  0.906008  0.051874  1
  O  O30  1  0.093992  0.551874  0.718663  1
  O  O31  1  0.593992  0.948126  0.281337  1
  O  O32  1  0.718663  0.093992  0.551874  1
  O  O33  1  0.948126  0.281337  0.593992  1
  O  O34  1  0.551874  0.718663  0.093992  1
  O  O35  1  0.051874  0.781337  0.906008  1
  O  O36  1  0.551874  0.781337  0.593992  1
  O  O37  1  0.593992  0.551874  0.781337  1
  O  O38  1  0.781337  0.593992  0.551874  1
  O  O39  1  0.718663  0.406008  0.051874  1
