# generated using pymatgen
data_Ga2Se3
_symmetry_space_group_name_H-M   'P 1'
_cell_length_a   6.89657799
_cell_length_b   6.89657799
_cell_length_c   6.76989541
_cell_angle_alpha   80.95245428
_cell_angle_beta   99.04754572
_cell_angle_gamma   59.18597130
_symmetry_Int_Tables_number   1
_chemical_formula_structural   Ga2Se3
_chemical_formula_sum   'Ga4 Se6'
_cell_volume   262.14518696
_cell_formula_units_Z   2
loop_
 _symmetry_equiv_pos_site_id
 _symmetry_equiv_pos_as_xyz
  1  'x, y, z'
loop_
 _atom_site_type_symbol
 _atom_site_label
 _atom_site_symmetry_multiplicity
 _atom_site_fract_x
 _atom_site_fract_y
 _atom_site_fract_z
 _atom_site_occupancy
  Ga  Ga0  1  0.719274  0.782978  0.494858  1
  Ga  Ga1  1  0.217022  0.280726  0.994858  1
  Ga  Ga2  1  0.416057  0.413829  0.499011  1
  Ga  Ga3  1  0.586171  0.583943  0.999011  1
  Se  Se4  1  0.259621  0.584435  0.113381  1
  Se  Se5  1  0.415565  0.740379  0.613381  1
  Se  Se6  1  0.781329  0.046898  0.637637  1
  Se  Se7  1  0.953102  0.218671  0.137637  1
  Se  Se8  1  0.098503  0.387043  0.607514  1
  Se  Se9  1  0.612957  0.901497  0.107514  1
