# generated using pymatgen
data_Sr3As4
_symmetry_space_group_name_H-M   'P 1'
_cell_length_a   11.74422799
_cell_length_b   9.52536740
_cell_length_c   8.09023116
_cell_angle_alpha   83.19678793
_cell_angle_beta   53.64476181
_cell_angle_gamma   43.15845027
_symmetry_Int_Tables_number   1
_chemical_formula_structural   Sr3As4
_chemical_formula_sum   'Sr6 As8'
_cell_volume   409.67070729
_cell_formula_units_Z   2
loop_
 _symmetry_equiv_pos_site_id
 _symmetry_equiv_pos_as_xyz
  1  'x, y, z'
loop_
 _atom_site_type_symbol
 _atom_site_label
 _atom_site_symmetry_multiplicity
 _atom_site_fract_x
 _atom_site_fract_y
 _atom_site_fract_z
 _atom_site_occupancy
  Sr  Sr0  1  0.107359  0.558661  0.887066  1
  Sr  Sr1  1  0.446914  0.887066  0.558661  1
  Sr  Sr2  1  0.362934  0.803086  0.142641  1
  Sr  Sr3  1  0.691339  0.142641  0.803086  1
  Sr  Sr4  1  0.996161  0.503839  0.503839  1
  Sr  Sr5  1  0.746161  0.253839  0.253839  1
  As  As6  1  0.408344  0.086543  0.919359  1
  As  As7  1  0.585754  0.919359  0.086543  1
  As  As8  1  0.330641  0.664246  0.841656  1
  As  As9  1  0.163457  0.841656  0.664246  1
  As  As10  1  0.853235  0.487383  0.976349  1
  As  As11  1  0.683033  0.976349  0.487383  1
  As  As12  1  0.762617  0.396765  0.566967  1
  As  As13  1  0.273651  0.566967  0.396765  1
