# generated using pymatgen
data_Sr3SmRhO6
_symmetry_space_group_name_H-M   'P 1'
_cell_length_a   6.90137948
_cell_length_b   6.90137948
_cell_length_c   6.90137948
_cell_angle_alpha   91.85553570
_cell_angle_beta   91.85553570
_cell_angle_gamma   91.85553570
_symmetry_Int_Tables_number   1
_chemical_formula_structural   Sr3SmRhO6
_chemical_formula_sum   'Sr6 Sm2 Rh2 O12'
_cell_volume   328.17754692
_cell_formula_units_Z   2
loop_
 _symmetry_equiv_pos_site_id
 _symmetry_equiv_pos_as_xyz
  1  'x, y, z'
loop_
 _atom_site_type_symbol
 _atom_site_label
 _atom_site_symmetry_multiplicity
 _atom_site_fract_x
 _atom_site_fract_y
 _atom_site_fract_z
 _atom_site_occupancy
  Sr  Sr0  1  0.250000  0.880884  0.619116  1
  Sr  Sr1  1  0.880884  0.619116  0.250000  1
  Sr  Sr2  1  0.619116  0.250000  0.880884  1
  Sr  Sr3  1  0.750000  0.119116  0.380884  1
  Sr  Sr4  1  0.380884  0.750000  0.119116  1
  Sr  Sr5  1  0.119116  0.380884  0.750000  1
  Sm  Sm6  1  0.750000  0.750000  0.750000  1
  Sm  Sm7  1  0.250000  0.250000  0.250000  1
  Rh  Rh8  1  0.500000  0.500000  0.500000  1
  Rh  Rh9  1  0.000000  0.000000  0.000000  1
  O  O10  1  0.451763  0.586372  0.791622  1
  O  O11  1  0.791622  0.451763  0.586372  1
  O  O12  1  0.586372  0.791622  0.451763  1
  O  O13  1  0.708378  0.913628  0.048237  1
  O  O14  1  0.048237  0.708378  0.913628  1
  O  O15  1  0.913628  0.048237  0.708378  1
  O  O16  1  0.548237  0.413628  0.208378  1
  O  O17  1  0.208378  0.548237  0.413628  1
  O  O18  1  0.413628  0.208378  0.548237  1
  O  O19  1  0.291622  0.086372  0.951763  1
  O  O20  1  0.086372  0.951763  0.291622  1
  O  O21  1  0.951763  0.291622  0.086372  1
