# generated using pymatgen
data_V2Zn2O7
_symmetry_space_group_name_H-M   'P 1'
_cell_length_a   5.70219228
_cell_length_b   5.70219228
_cell_length_c   10.28343418
_cell_angle_alpha   75.62167769
_cell_angle_beta   104.37832231
_cell_angle_gamma   85.08296743
_symmetry_Int_Tables_number   1
_chemical_formula_structural   V2Zn2O7
_chemical_formula_sum   'V4 Zn4 O14'
_cell_volume   309.85328366
_cell_formula_units_Z   2
loop_
 _symmetry_equiv_pos_site_id
 _symmetry_equiv_pos_as_xyz
  1  'x, y, z'
loop_
 _atom_site_type_symbol
 _atom_site_label
 _atom_site_symmetry_multiplicity
 _atom_site_fract_x
 _atom_site_fract_y
 _atom_site_fract_z
 _atom_site_occupancy
  V  V0  1  0.504133  0.981710  0.207274  1
  V  V1  1  0.981710  0.504133  0.292726  1
  V  V2  1  0.495867  0.018290  0.792726  1
  V  V3  1  0.018290  0.495867  0.707274  1
  Zn  Zn4  1  0.752311  0.095031  0.522658  1
  Zn  Zn5  1  0.095031  0.752311  0.977342  1
  Zn  Zn6  1  0.247689  0.904969  0.477342  1
  Zn  Zn7  1  0.904969  0.247689  0.022658  1
  O  O8  1  0.645453  0.187596  0.118234  1
  O  O9  1  0.187596  0.645453  0.381766  1
  O  O10  1  0.354547  0.812404  0.881766  1
  O  O11  1  0.812404  0.354547  0.618234  1
  O  O12  1  0.209506  0.986456  0.103155  1
  O  O13  1  0.986456  0.209506  0.396845  1
  O  O14  1  0.790494  0.013544  0.896845  1
  O  O15  1  0.013544  0.790494  0.603155  1
  O  O16  1  0.318721  0.318721  0.750000  1
  O  O17  1  0.681279  0.681279  0.250000  1
  O  O18  1  0.951962  0.510259  0.863257  1
  O  O19  1  0.510259  0.951962  0.636743  1
  O  O20  1  0.048038  0.489741  0.136743  1
  O  O21  1  0.489741  0.048038  0.363257  1
