# generated using pymatgen
data_Y2Be2Fe(SiO5)2
_symmetry_space_group_name_H-M   'P 1'
_cell_length_a   4.79307320
_cell_length_b   7.57055000
_cell_length_c   10.04142353
_cell_angle_alpha   90.00000000
_cell_angle_beta   90.54850303
_cell_angle_gamma   90.00000000
_symmetry_Int_Tables_number   1
_chemical_formula_structural   Y2Be2Fe(SiO5)2
_chemical_formula_sum   'Y4 Be4 Fe2 Si4 O20'
_cell_volume   364.34840931
_cell_formula_units_Z   2
loop_
 _symmetry_equiv_pos_site_id
 _symmetry_equiv_pos_as_xyz
  1  'x, y, z'
loop_
 _atom_site_type_symbol
 _atom_site_label
 _atom_site_symmetry_multiplicity
 _atom_site_fract_x
 _atom_site_fract_y
 _atom_site_fract_z
 _atom_site_occupancy
  Y  Y0  1  0.001370  0.606257  0.171205  1
  Y  Y1  1  0.998630  0.106257  0.328795  1
  Y  Y2  1  0.998630  0.393743  0.828795  1
  Y  Y3  1  0.001370  0.893743  0.671205  1
  Be  Be4  1  0.534170  0.913025  0.165483  1
  Be  Be5  1  0.465830  0.413025  0.334517  1
  Be  Be6  1  0.465830  0.086975  0.834517  1
  Be  Be7  1  0.534170  0.586975  0.665483  1
  Fe  Fe8  1  0.000000  0.000000  0.000000  1
  Fe  Fe9  1  0.000000  0.500000  0.500000  1
  Si  Si10  1  0.480601  0.779530  0.422307  1
  Si  Si11  1  0.519399  0.279530  0.077693  1
  Si  Si12  1  0.519399  0.220470  0.577693  1
  Si  Si13  1  0.480601  0.720470  0.922307  1
  O  O14  1  0.313636  0.606524  0.358314  1
  O  O15  1  0.686364  0.106524  0.141686  1
  O  O16  1  0.686364  0.393476  0.641686  1
  O  O17  1  0.313636  0.893476  0.858314  1
  O  O18  1  0.798285  0.412505  0.331536  1
  O  O19  1  0.201715  0.912505  0.168464  1
  O  O20  1  0.201715  0.587495  0.668464  1
  O  O21  1  0.324112  0.213339  0.950531  1
  O  O22  1  0.237906  0.585551  0.971008  1
  O  O23  1  0.762094  0.085551  0.528992  1
  O  O24  1  0.690595  0.848210  0.304494  1
  O  O25  1  0.237906  0.914449  0.471008  1
  O  O26  1  0.675888  0.713339  0.549469  1
  O  O27  1  0.762094  0.414449  0.028992  1
  O  O28  1  0.324112  0.286661  0.450531  1
  O  O29  1  0.675888  0.786661  0.049469  1
  O  O30  1  0.690595  0.651790  0.804494  1
  O  O31  1  0.309405  0.151790  0.695506  1
  O  O32  1  0.309405  0.348210  0.195506  1
  O  O33  1  0.798285  0.087495  0.831536  1
