# generated using pymatgen
data_Ca(BO2)2
_symmetry_space_group_name_H-M   'P 1'
_cell_length_a   9.08843869
_cell_length_b   9.08843869
_cell_length_c   9.08843869
_cell_angle_alpha   90.00000000
_cell_angle_beta   90.00000000
_cell_angle_gamma   90.00000000
_symmetry_Int_Tables_number   1
_chemical_formula_structural   Ca(BO2)2
_chemical_formula_sum   'Ca12 B24 O48'
_cell_volume   750.70247124
_cell_formula_units_Z   12
loop_
 _symmetry_equiv_pos_site_id
 _symmetry_equiv_pos_as_xyz
  1  'x, y, z'
loop_
 _atom_site_type_symbol
 _atom_site_label
 _atom_site_symmetry_multiplicity
 _atom_site_fract_x
 _atom_site_fract_y
 _atom_site_fract_z
 _atom_site_occupancy
  Ca  Ca0  1  0.372994  0.127006  0.872994  1
  Ca  Ca1  1  0.127006  0.872994  0.372994  1
  Ca  Ca2  1  0.872994  0.372994  0.127006  1
  Ca  Ca3  1  0.627006  0.627006  0.627006  1
  Ca  Ca4  1  0.627006  0.872994  0.127006  1
  Ca  Ca5  1  0.872994  0.127006  0.627006  1
  Ca  Ca6  1  0.127006  0.627006  0.872994  1
  Ca  Ca7  1  0.372994  0.372994  0.372994  1
  Ca  Ca8  1  0.000000  0.500000  0.500000  1
  Ca  Ca9  1  0.500000  0.500000  0.000000  1
  Ca  Ca10  1  0.500000  0.000000  0.500000  1
  Ca  Ca11  1  0.000000  0.000000  0.000000  1
  B  B12  1  0.810021  0.845181  0.381141  1
  B  B13  1  0.618859  0.189979  0.154819  1
  B  B14  1  0.118859  0.310021  0.845181  1
  B  B15  1  0.381141  0.689979  0.345181  1
  B  B16  1  0.310021  0.845181  0.118859  1
  B  B17  1  0.345181  0.381141  0.689979  1
  B  B18  1  0.845181  0.118859  0.310021  1
  B  B19  1  0.189979  0.154819  0.618859  1
  B  B20  1  0.154819  0.618859  0.189979  1
  B  B21  1  0.689979  0.345181  0.381141  1
  B  B22  1  0.810021  0.654819  0.881141  1
  B  B23  1  0.654819  0.881141  0.810021  1
  B  B24  1  0.118859  0.189979  0.345181  1
  B  B25  1  0.345181  0.118859  0.189979  1
  B  B26  1  0.189979  0.345181  0.118859  1
  B  B27  1  0.310021  0.654819  0.618859  1
  B  B28  1  0.845181  0.381141  0.810021  1
  B  B29  1  0.881141  0.810021  0.654819  1
  B  B30  1  0.154819  0.881141  0.689979  1
  B  B31  1  0.654819  0.618859  0.310021  1
  B  B32  1  0.689979  0.154819  0.881141  1
  B  B33  1  0.618859  0.310021  0.654819  1
  B  B34  1  0.881141  0.689979  0.154819  1
  B  B35  1  0.381141  0.810021  0.845181  1
  O  O36  1  0.590664  0.282309  0.494385  1
  O  O37  1  0.909336  0.717691  0.994385  1
  O  O38  1  0.994385  0.909336  0.717691  1
  O  O39  1  0.717691  0.994385  0.909336  1
  O  O40  1  0.782309  0.005615  0.409336  1
  O  O41  1  0.494385  0.590664  0.282309  1
  O  O42  1  0.282309  0.494385  0.590664  1
  O  O43  1  0.505615  0.090664  0.217691  1
  O  O44  1  0.005615  0.409336  0.782309  1
  O  O45  1  0.217691  0.505615  0.090664  1
  O  O46  1  0.409336  0.782309  0.005615  1
  O  O47  1  0.090664  0.217691  0.505615  1
  O  O48  1  0.332486  0.267980  0.120491  1
  O  O49  1  0.120491  0.332486  0.267980  1
  O  O50  1  0.267980  0.120491  0.332486  1
  O  O51  1  0.232020  0.879509  0.832486  1
  O  O52  1  0.620491  0.167514  0.732020  1
  O  O53  1  0.732020  0.620491  0.167514  1
  O  O54  1  0.379509  0.667514  0.767980  1
  O  O55  1  0.879509  0.832486  0.232020  1
  O  O56  1  0.767980  0.379509  0.667514  1
  O  O57  1  0.832486  0.232020  0.879509  1
  O  O58  1  0.667514  0.767980  0.379509  1
  O  O59  1  0.167514  0.732020  0.620491  1
  O  O60  1  0.667514  0.732020  0.879509  1
  O  O61  1  0.879509  0.667514  0.732020  1
  O  O62  1  0.732020  0.879509  0.667514  1
  O  O63  1  0.767980  0.120491  0.167514  1
  O  O64  1  0.379509  0.832486  0.267980  1
  O  O65  1  0.267980  0.379509  0.832486  1
  O  O66  1  0.620491  0.332486  0.232020  1
  O  O67  1  0.120491  0.167514  0.767980  1
  O  O68  1  0.232020  0.620491  0.332486  1
  O  O69  1  0.167514  0.767980  0.120491  1
  O  O70  1  0.332486  0.232020  0.620491  1
  O  O71  1  0.832486  0.267980  0.379509  1
  O  O72  1  0.090664  0.282309  0.005615  1
  O  O73  1  0.005615  0.090664  0.282309  1
  O  O74  1  0.282309  0.005615  0.090664  1
  O  O75  1  0.409336  0.717691  0.505615  1
  O  O76  1  0.505615  0.409336  0.717691  1
  O  O77  1  0.717691  0.505615  0.409336  1
  O  O78  1  0.494385  0.909336  0.782309  1
  O  O79  1  0.994385  0.590664  0.217691  1
  O  O80  1  0.782309  0.494385  0.909336  1
  O  O81  1  0.590664  0.217691  0.994385  1
  O  O82  1  0.909336  0.782309  0.494385  1
  O  O83  1  0.217691  0.994385  0.590664  1
