# generated using pymatgen
data_Ga(PO3)3
_symmetry_space_group_name_H-M   'P 1'
_cell_length_a   11.66679797
_cell_length_b   11.66679797
_cell_length_c   9.47358106
_cell_angle_alpha   70.20275387
_cell_angle_beta   109.79724613
_cell_angle_gamma   69.00470324
_symmetry_Int_Tables_number   1
_chemical_formula_structural   Ga(PO3)3
_chemical_formula_sum   'Ga6 P18 O54'
_cell_volume   964.96555428
_cell_formula_units_Z   6
loop_
 _symmetry_equiv_pos_site_id
 _symmetry_equiv_pos_as_xyz
  1  'x, y, z'
loop_
 _atom_site_type_symbol
 _atom_site_label
 _atom_site_symmetry_multiplicity
 _atom_site_fract_x
 _atom_site_fract_y
 _atom_site_fract_z
 _atom_site_occupancy
  Ga  Ga0  1  0.182737  0.640674  0.034691  1
  Ga  Ga1  1  0.359326  0.817263  0.534691  1
  Ga  Ga2  1  0.848433  0.310791  0.031262  1
  Ga  Ga3  1  0.689209  0.151567  0.531262  1
  Ga  Ga4  1  0.996561  0.492828  0.501650  1
  Ga  Ga5  1  0.507172  0.003439  0.001650  1
  P  P6  1  0.665717  0.396014  0.211051  1
  P  P7  1  0.603986  0.334283  0.711051  1
  P  P8  1  0.440157  0.615908  0.368605  1
  P  P9  1  0.384092  0.559843  0.868605  1
  P  P10  1  0.051652  0.984979  0.803888  1
  P  P11  1  0.015021  0.948348  0.303888  1
  P  P12  1  0.334959  0.295771  0.284393  1
  P  P13  1  0.704229  0.665041  0.784393  1
  P  P14  1  0.982431  0.742919  0.189025  1
  P  P15  1  0.257081  0.017569  0.689025  1
  P  P16  1  0.924139  0.678155  0.686348  1
  P  P17  1  0.321845  0.075861  0.186348  1
  P  P18  1  0.349755  0.356668  0.745704  1
  P  P19  1  0.643332  0.650245  0.245704  1
  P  P20  1  0.034156  0.238073  0.843531  1
  P  P21  1  0.761927  0.965844  0.343531  1
  P  P22  1  0.092069  0.298733  0.336851  1
  P  P23  1  0.701267  0.907931  0.836851  1
  O  O24  1  0.318843  0.058050  0.816823  1
  O  O25  1  0.941950  0.681157  0.316823  1
  O  O26  1  0.903058  0.060581  0.649754  1
  O  O27  1  0.939419  0.096942  0.149754  1
  O  O28  1  0.686745  0.093083  0.357035  1
  O  O29  1  0.906917  0.313255  0.857035  1
  O  O30  1  0.630234  0.556311  0.156682  1
  O  O31  1  0.443689  0.369766  0.656682  1
  O  O32  1  0.593770  0.793036  0.099042  1
  O  O33  1  0.206964  0.406230  0.599042  1
  O  O34  1  0.372871  0.171432  0.241576  1
  O  O35  1  0.828568  0.627129  0.741576  1
  O  O36  1  0.176731  0.200992  0.001113  1
  O  O37  1  0.799008  0.823269  0.501113  1
  O  O38  1  0.026331  0.313215  0.674070  1
  O  O39  1  0.686785  0.973669  0.174070  1
  O  O40  1  0.998596  0.426733  0.336789  1
  O  O41  1  0.573267  0.001404  0.836789  1
  O  O42  1  0.241068  0.438736  0.112832  1
  O  O43  1  0.561264  0.758932  0.612832  1
  O  O44  1  0.161243  0.961474  0.735632  1
  O  O45  1  0.038526  0.838757  0.235632  1
  O  O46  1  0.290599  0.997312  0.314901  1
  O  O47  1  0.002688  0.709401  0.814901  1
  O  O48  1  0.323333  0.474716  0.800306  1
  O  O49  1  0.525284  0.676667  0.300306  1
  O  O50  1  0.572259  0.473632  0.553972  1
  O  O51  1  0.526368  0.427741  0.053972  1
  O  O52  1  0.796056  0.309423  0.209363  1
  O  O53  1  0.690577  0.203944  0.709363  1
  O  O54  1  0.670539  0.330269  0.381071  1
  O  O55  1  0.669731  0.329461  0.881071  1
  O  O56  1  0.432651  0.211433  0.909795  1
  O  O57  1  0.788567  0.567349  0.409795  1
  O  O58  1  0.723756  0.752944  0.880929  1
  O  O59  1  0.247056  0.276244  0.380929  1
  O  O60  1  0.433864  0.986404  0.161226  1
  O  O61  1  0.013596  0.566136  0.661226  1
  O  O62  1  0.422079  0.636218  0.747704  1
  O  O63  1  0.363782  0.577921  0.247704  1
  O  O64  1  0.157548  0.888475  0.460400  1
  O  O65  1  0.111525  0.842452  0.960400  1
  O  O66  1  0.739625  0.524628  0.919206  1
  O  O67  1  0.475372  0.260375  0.419206  1
  O  O68  1  0.089610  0.637224  0.173250  1
  O  O69  1  0.362776  0.910390  0.673250  1
  O  O70  1  0.919937  0.931349  0.388489  1
  O  O71  1  0.068651  0.080063  0.888489  1
  O  O72  1  0.703833  0.972129  0.671747  1
  O  O73  1  0.027871  0.296167  0.171747  1
  O  O74  1  0.278244  0.649625  0.900384  1
  O  O75  1  0.350375  0.721756  0.400384  1
  O  O76  1  0.842435  0.866364  0.999443  1
  O  O77  1  0.133636  0.157565  0.499443  1
