# generated using pymatgen
data_CsBeF3
_symmetry_space_group_name_H-M   'P 1'
_cell_length_a   4.88914324
_cell_length_b   6.13017746
_cell_length_c   12.97686155
_cell_angle_alpha   90.00000000
_cell_angle_beta   90.00000000
_cell_angle_gamma   90.00000000
_symmetry_Int_Tables_number   1
_chemical_formula_structural   CsBeF3
_chemical_formula_sum   'Cs4 Be4 F12'
_cell_volume   388.93361416
_cell_formula_units_Z   4
loop_
 _symmetry_equiv_pos_site_id
 _symmetry_equiv_pos_as_xyz
  1  'x, y, z'
loop_
 _atom_site_type_symbol
 _atom_site_label
 _atom_site_symmetry_multiplicity
 _atom_site_fract_x
 _atom_site_fract_y
 _atom_site_fract_z
 _atom_site_occupancy
  Cs  Cs0  1  0.238302  0.750000  0.100734  1
  Cs  Cs1  1  0.738302  0.750000  0.399266  1
  Cs  Cs2  1  0.761698  0.250000  0.899266  1
  Cs  Cs3  1  0.261698  0.250000  0.600734  1
  Be  Be4  1  0.807453  0.750000  0.679549  1
  Be  Be5  1  0.307453  0.750000  0.820451  1
  Be  Be6  1  0.192547  0.250000  0.320451  1
  Be  Be7  1  0.692547  0.250000  0.179549  1
  F  F8  1  0.876356  0.250000  0.282160  1
  F  F9  1  0.376356  0.250000  0.217840  1
  F  F10  1  0.123644  0.750000  0.717840  1
  F  F11  1  0.623644  0.750000  0.782160  1
  F  F12  1  0.241746  0.040474  0.382090  1
  F  F13  1  0.741746  0.459526  0.117910  1
  F  F14  1  0.758254  0.540474  0.617910  1
  F  F15  1  0.258254  0.959526  0.882090  1
  F  F16  1  0.758254  0.959526  0.617910  1
  F  F17  1  0.258254  0.540474  0.882090  1
  F  F18  1  0.241746  0.459526  0.382090  1
  F  F19  1  0.741746  0.040474  0.117910  1
