# generated using pymatgen
data_Ga8(Pb3O7)3
_symmetry_space_group_name_H-M   'P 1'
_cell_length_a   13.67694457
_cell_length_b   13.67694457
_cell_length_c   13.67694457
_cell_angle_alpha   90.00000000
_cell_angle_beta   90.00000000
_cell_angle_gamma   90.00000000
_symmetry_Int_Tables_number   1
_chemical_formula_structural   Ga8(Pb3O7)3
_chemical_formula_sum   'Ga32 Pb36 O84'
_cell_volume   2558.39301360
_cell_formula_units_Z   4
loop_
 _symmetry_equiv_pos_site_id
 _symmetry_equiv_pos_as_xyz
  1  'x, y, z'
loop_
 _atom_site_type_symbol
 _atom_site_label
 _atom_site_symmetry_multiplicity
 _atom_site_fract_x
 _atom_site_fract_y
 _atom_site_fract_z
 _atom_site_occupancy
  Ga  Ga0  1  0.218632  0.452912  0.106135  1
  Ga  Ga1  1  0.106135  0.218632  0.452912  1
  Ga  Ga2  1  0.452912  0.106135  0.218632  1
  Ga  Ga3  1  0.047088  0.893865  0.718632  1
  Ga  Ga4  1  0.606135  0.281368  0.547088  1
  Ga  Ga5  1  0.547088  0.606135  0.281368  1
  Ga  Ga6  1  0.393865  0.781368  0.952912  1
  Ga  Ga7  1  0.893865  0.718632  0.047088  1
  Ga  Ga8  1  0.952912  0.393865  0.781368  1
  Ga  Ga9  1  0.718632  0.047088  0.893865  1
  Ga  Ga10  1  0.781368  0.952912  0.393865  1
  Ga  Ga11  1  0.281368  0.547088  0.606135  1
  Ga  Ga12  1  0.781368  0.547088  0.893865  1
  Ga  Ga13  1  0.893865  0.781368  0.547088  1
  Ga  Ga14  1  0.547088  0.893865  0.781368  1
  Ga  Ga15  1  0.952912  0.106135  0.281368  1
  Ga  Ga16  1  0.393865  0.718632  0.452912  1
  Ga  Ga17  1  0.452912  0.393865  0.718632  1
  Ga  Ga18  1  0.606135  0.218632  0.047088  1
  Ga  Ga19  1  0.106135  0.281368  0.952912  1
  Ga  Ga20  1  0.047088  0.606135  0.218632  1
  Ga  Ga21  1  0.281368  0.952912  0.106135  1
  Ga  Ga22  1  0.218632  0.047088  0.606135  1
  Ga  Ga23  1  0.718632  0.452912  0.393865  1
  Ga  Ga24  1  0.076815  0.076815  0.076815  1
  Ga  Ga25  1  0.423185  0.923185  0.576815  1
  Ga  Ga26  1  0.576815  0.423185  0.923185  1
  Ga  Ga27  1  0.923185  0.576815  0.423185  1
  Ga  Ga28  1  0.923185  0.923185  0.923185  1
  Ga  Ga29  1  0.576815  0.076815  0.423185  1
  Ga  Ga30  1  0.423185  0.576815  0.076815  1
  Ga  Ga31  1  0.076815  0.423185  0.576815  1
  Pb  Pb32  1  0.261304  0.959240  0.377384  1
  Pb  Pb33  1  0.377384  0.261304  0.959240  1
  Pb  Pb34  1  0.959240  0.377384  0.261304  1
  Pb  Pb35  1  0.540760  0.622616  0.761304  1
  Pb  Pb36  1  0.877384  0.238696  0.040760  1
  Pb  Pb37  1  0.040760  0.877384  0.238696  1
  Pb  Pb38  1  0.122616  0.738696  0.459240  1
  Pb  Pb39  1  0.622616  0.761304  0.540760  1
  Pb  Pb40  1  0.459240  0.122616  0.738696  1
  Pb  Pb41  1  0.761304  0.540760  0.622616  1
  Pb  Pb42  1  0.738696  0.459240  0.122616  1
  Pb  Pb43  1  0.238696  0.040760  0.877384  1
  Pb  Pb44  1  0.738696  0.040760  0.622616  1
  Pb  Pb45  1  0.622616  0.738696  0.040760  1
  Pb  Pb46  1  0.040760  0.622616  0.738696  1
  Pb  Pb47  1  0.459240  0.377384  0.238696  1
  Pb  Pb48  1  0.122616  0.761304  0.959240  1
  Pb  Pb49  1  0.959240  0.122616  0.761304  1
  Pb  Pb50  1  0.877384  0.261304  0.540760  1
  Pb  Pb51  1  0.377384  0.238696  0.459240  1
  Pb  Pb52  1  0.540760  0.877384  0.261304  1
  Pb  Pb53  1  0.238696  0.459240  0.377384  1
  Pb  Pb54  1  0.261304  0.540760  0.877384  1
  Pb  Pb55  1  0.761304  0.959240  0.122616  1
  Pb  Pb56  1  0.500000  0.500000  0.500000  1
  Pb  Pb57  1  0.000000  0.500000  0.000000  1
  Pb  Pb58  1  0.000000  0.000000  0.500000  1
  Pb  Pb59  1  0.500000  0.000000  0.000000  1
  Pb  Pb60  1  0.225720  0.225720  0.225720  1
  Pb  Pb61  1  0.274280  0.774280  0.725720  1
  Pb  Pb62  1  0.725720  0.274280  0.774280  1
  Pb  Pb63  1  0.774280  0.725720  0.274280  1
  Pb  Pb64  1  0.774280  0.774280  0.774280  1
  Pb  Pb65  1  0.725720  0.225720  0.274280  1
  Pb  Pb66  1  0.274280  0.725720  0.225720  1
  Pb  Pb67  1  0.225720  0.274280  0.725720  1
  O  O68  1  0.056959  0.050889  0.210430  1
  O  O69  1  0.210430  0.056959  0.050889  1
  O  O70  1  0.050889  0.210430  0.056959  1
  O  O71  1  0.449111  0.789570  0.556959  1
  O  O72  1  0.710430  0.443041  0.949111  1
  O  O73  1  0.949111  0.710430  0.443041  1
  O  O74  1  0.289570  0.943041  0.550889  1
  O  O75  1  0.789570  0.556959  0.449111  1
  O  O76  1  0.550889  0.289570  0.943041  1
  O  O77  1  0.556959  0.449111  0.789570  1
  O  O78  1  0.943041  0.550889  0.289570  1
  O  O79  1  0.443041  0.949111  0.710430  1
  O  O80  1  0.943041  0.949111  0.789570  1
  O  O81  1  0.789570  0.943041  0.949111  1
  O  O82  1  0.949111  0.789570  0.943041  1
  O  O83  1  0.550889  0.210430  0.443041  1
  O  O84  1  0.289570  0.556959  0.050889  1
  O  O85  1  0.050889  0.289570  0.556959  1
  O  O86  1  0.710430  0.056959  0.449111  1
  O  O87  1  0.210430  0.443041  0.550889  1
  O  O88  1  0.449111  0.710430  0.056959  1
  O  O89  1  0.443041  0.550889  0.210430  1
  O  O90  1  0.056959  0.449111  0.710430  1
  O  O91  1  0.556959  0.050889  0.289570  1
  O  O92  1  0.707383  0.625821  0.812293  1
  O  O93  1  0.812293  0.707383  0.625821  1
  O  O94  1  0.625821  0.812293  0.707383  1
  O  O95  1  0.874179  0.187707  0.207383  1
  O  O96  1  0.312293  0.792617  0.374179  1
  O  O97  1  0.374179  0.312293  0.792617  1
  O  O98  1  0.687707  0.292617  0.125821  1
  O  O99  1  0.187707  0.207383  0.874179  1
  O  O100  1  0.125821  0.687707  0.292617  1
  O  O101  1  0.207383  0.874179  0.187707  1
  O  O102  1  0.292617  0.125821  0.687707  1
  O  O103  1  0.792617  0.374179  0.312293  1
  O  O104  1  0.292617  0.374179  0.187707  1
  O  O105  1  0.187707  0.292617  0.374179  1
  O  O106  1  0.374179  0.187707  0.292617  1
  O  O107  1  0.125821  0.812293  0.792617  1
  O  O108  1  0.687707  0.207383  0.625821  1
  O  O109  1  0.625821  0.687707  0.207383  1
  O  O110  1  0.312293  0.707383  0.874179  1
  O  O111  1  0.812293  0.792617  0.125821  1
  O  O112  1  0.874179  0.312293  0.707383  1
  O  O113  1  0.792617  0.125821  0.812293  1
  O  O114  1  0.707383  0.874179  0.312293  1
  O  O115  1  0.207383  0.625821  0.687707  1
  O  O116  1  0.000000  0.000000  0.000000  1
  O  O117  1  0.500000  0.000000  0.500000  1
  O  O118  1  0.500000  0.500000  0.000000  1
  O  O119  1  0.000000  0.500000  0.500000  1
  O  O120  1  0.394608  0.508657  0.671794  1
  O  O121  1  0.671794  0.394608  0.508657  1
  O  O122  1  0.508657  0.671794  0.394608  1
  O  O123  1  0.991343  0.328206  0.894608  1
  O  O124  1  0.171794  0.105392  0.491343  1
  O  O125  1  0.491343  0.171794  0.105392  1
  O  O126  1  0.828206  0.605392  0.008657  1
  O  O127  1  0.328206  0.894608  0.991343  1
  O  O128  1  0.008657  0.828206  0.605392  1
  O  O129  1  0.894608  0.991343  0.328206  1
  O  O130  1  0.605392  0.008657  0.828206  1
  O  O131  1  0.105392  0.491343  0.171794  1
  O  O132  1  0.605392  0.491343  0.328206  1
  O  O133  1  0.328206  0.605392  0.491343  1
  O  O134  1  0.491343  0.328206  0.605392  1
  O  O135  1  0.008657  0.671794  0.105392  1
  O  O136  1  0.828206  0.894608  0.508657  1
  O  O137  1  0.508657  0.828206  0.894608  1
  O  O138  1  0.171794  0.394608  0.991343  1
  O  O139  1  0.671794  0.105392  0.008657  1
  O  O140  1  0.991343  0.171794  0.394608  1
  O  O141  1  0.105392  0.008657  0.671794  1
  O  O142  1  0.394608  0.991343  0.171794  1
  O  O143  1  0.894608  0.508657  0.828206  1
  O  O144  1  0.391689  0.391689  0.391689  1
  O  O145  1  0.108311  0.608311  0.891689  1
  O  O146  1  0.891689  0.108311  0.608311  1
  O  O147  1  0.608311  0.891689  0.108311  1
  O  O148  1  0.608311  0.608311  0.608311  1
  O  O149  1  0.891689  0.391689  0.108311  1
  O  O150  1  0.108311  0.891689  0.391689  1
  O  O151  1  0.391689  0.108311  0.891689  1
