# generated using pymatgen
data_Sm4Si2Se3O7
_symmetry_space_group_name_H-M   'P 1'
_cell_length_a   11.15777363
_cell_length_b   11.15777363
_cell_length_c   11.15777363
_cell_angle_alpha   114.41701874
_cell_angle_beta   114.41701874
_cell_angle_gamma   99.97684491
_symmetry_Int_Tables_number   1
_chemical_formula_structural   Sm4Si2Se3O7
_chemical_formula_sum   'Sm16 Si8 Se12 O28'
_cell_volume   1047.84084626
_cell_formula_units_Z   4
loop_
 _symmetry_equiv_pos_site_id
 _symmetry_equiv_pos_as_xyz
  1  'x, y, z'
loop_
 _atom_site_type_symbol
 _atom_site_label
 _atom_site_symmetry_multiplicity
 _atom_site_fract_x
 _atom_site_fract_y
 _atom_site_fract_z
 _atom_site_occupancy
  Sm  Sm0  1  0.172545  0.827455  0.000000  1
  Sm  Sm1  1  0.577455  0.077455  0.154911  1
  Sm  Sm2  1  0.922545  0.422545  0.845089  1
  Sm  Sm3  1  0.827455  0.172545  0.000000  1
  Sm  Sm4  1  0.577455  0.422545  0.500000  1
  Sm  Sm5  1  0.172545  0.172545  0.345089  1
  Sm  Sm6  1  0.827455  0.827455  0.654911  1
  Sm  Sm7  1  0.922545  0.077455  0.500000  1
  Sm  Sm8  1  0.052296  0.791627  0.260669  1
  Sm  Sm9  1  0.530958  0.791627  0.739331  1
  Sm  Sm10  1  0.208373  0.469042  0.260669  1
  Sm  Sm11  1  0.541627  0.302296  0.760669  1
  Sm  Sm12  1  0.541627  0.780958  0.239331  1
  Sm  Sm13  1  0.219042  0.458373  0.760669  1
  Sm  Sm14  1  0.697704  0.458373  0.239331  1
  Sm  Sm15  1  0.208373  0.947704  0.739331  1
  Si  Si16  1  0.655965  0.031718  0.624247  1
  Si  Si17  1  0.407470  0.031718  0.375753  1
  Si  Si18  1  0.968282  0.592530  0.624247  1
  Si  Si19  1  0.781718  0.905965  0.124247  1
  Si  Si20  1  0.781718  0.657470  0.875753  1
  Si  Si21  1  0.342530  0.218282  0.124247  1
  Si  Si22  1  0.094035  0.218282  0.875753  1
  Si  Si23  1  0.968282  0.344035  0.375753  1
  Se  Se24  1  0.750000  0.250000  0.500000  1
  Se  Se25  1  0.000000  0.000000  0.000000  1
  Se  Se26  1  0.500000  0.500000  0.000000  1
  Se  Se27  1  0.250000  0.750000  0.500000  1
  Se  Se28  1  0.229385  0.125000  0.604385  1
  Se  Se29  1  0.875000  0.770615  0.395615  1
  Se  Se30  1  0.375000  0.479385  0.604385  1
  Se  Se31  1  0.520615  0.625000  0.395615  1
  Se  Se32  1  0.520615  0.125000  0.895615  1
  Se  Se33  1  0.875000  0.479385  0.104385  1
  Se  Se34  1  0.375000  0.770615  0.895615  1
  Se  Se35  1  0.229385  0.625000  0.104385  1
  O  O36  1  0.016560  0.516560  0.500000  1
  O  O37  1  0.266560  0.266560  0.000000  1
  O  O38  1  0.733440  0.733440  0.000000  1
  O  O39  1  0.483440  0.983440  0.500000  1
  O  O40  1  0.227428  0.955665  0.271763  1
  O  O41  1  0.683902  0.955665  0.728237  1
  O  O42  1  0.044335  0.316098  0.271763  1
  O  O43  1  0.705665  0.477428  0.771763  1
  O  O44  1  0.705665  0.933902  0.228237  1
  O  O45  1  0.066098  0.294335  0.771763  1
  O  O46  1  0.522572  0.294335  0.228237  1
  O  O47  1  0.044335  0.772572  0.728237  1
  O  O48  1  0.306236  0.285376  0.260482  1
  O  O49  1  0.024894  0.045755  0.739518  1
  O  O50  1  0.954245  0.975106  0.260482  1
  O  O51  1  0.795755  0.556236  0.520861  1
  O  O52  1  0.035376  0.274894  0.479139  1
  O  O53  1  0.725106  0.964624  0.520861  1
  O  O54  1  0.443764  0.204245  0.479139  1
  O  O55  1  0.714624  0.693764  0.739518  1
  O  O56  1  0.443764  0.964624  0.239518  1
  O  O57  1  0.725106  0.204245  0.760482  1
  O  O58  1  0.795755  0.274894  0.239518  1
  O  O59  1  0.954245  0.693764  0.979139  1
  O  O60  1  0.714624  0.975106  0.020861  1
  O  O61  1  0.024894  0.285376  0.979139  1
  O  O62  1  0.306236  0.045755  0.020861  1
  O  O63  1  0.035376  0.556236  0.760482  1
