# generated using pymatgen
data_As2O5
_symmetry_space_group_name_H-M   'P 1'
_cell_length_a   4.71591622
_cell_length_b   8.69093263
_cell_length_c   8.81563443
_cell_angle_alpha   90.00000000
_cell_angle_beta   90.00000000
_cell_angle_gamma   90.00000000
_symmetry_Int_Tables_number   1
_chemical_formula_structural   As2O5
_chemical_formula_sum   'As8 O20'
_cell_volume   361.31503760
_cell_formula_units_Z   4
loop_
 _symmetry_equiv_pos_site_id
 _symmetry_equiv_pos_as_xyz
  1  'x, y, z'
loop_
 _atom_site_type_symbol
 _atom_site_label
 _atom_site_symmetry_multiplicity
 _atom_site_fract_x
 _atom_site_fract_y
 _atom_site_fract_z
 _atom_site_occupancy
  As  As0  1  0.880964  0.032899  0.715751  1
  As  As1  1  0.380964  0.467101  0.284249  1
  As  As2  1  0.119036  0.532899  0.784249  1
  As  As3  1  0.619036  0.967101  0.215751  1
  As  As4  1  0.876305  0.653205  0.097641  1
  As  As5  1  0.376305  0.846795  0.902359  1
  As  As6  1  0.123695  0.153205  0.402359  1
  As  As7  1  0.623695  0.346795  0.597641  1
  O  O8  1  0.050910  0.504487  0.976336  1
  O  O9  1  0.550910  0.995513  0.023664  1
  O  O10  1  0.949090  0.004487  0.523664  1
  O  O11  1  0.449090  0.495513  0.476336  1
  O  O12  1  0.206148  0.724699  0.752226  1
  O  O13  1  0.706148  0.775301  0.247774  1
  O  O14  1  0.793852  0.224699  0.747774  1
  O  O15  1  0.293852  0.275301  0.252226  1
  O  O16  1  0.897571  0.315210  0.453751  1
  O  O17  1  0.397571  0.184790  0.546249  1
  O  O18  1  0.102429  0.815210  0.046249  1
  O  O19  1  0.602429  0.684790  0.953751  1
  O  O20  1  0.128626  0.606530  0.259035  1
  O  O21  1  0.628626  0.893470  0.740965  1
  O  O22  1  0.871374  0.106530  0.240965  1
  O  O23  1  0.371374  0.393470  0.759035  1
  O  O24  1  0.668044  0.480200  0.164910  1
  O  O25  1  0.168044  0.019800  0.835090  1
  O  O26  1  0.331956  0.980200  0.335090  1
  O  O27  1  0.831956  0.519800  0.664910  1
