# generated using pymatgen
data_Er3CrS6
_symmetry_space_group_name_H-M   'P 1'
_cell_length_a   3.74337198
_cell_length_b   13.21718107
_cell_length_c   15.85788943
_cell_angle_alpha   90.00000000
_cell_angle_beta   90.00000000
_cell_angle_gamma   90.00000000
_symmetry_Int_Tables_number   1
_chemical_formula_structural   Er3CrS6
_chemical_formula_sum   'Er12 Cr4 S24'
_cell_volume   784.59802451
_cell_formula_units_Z   4
loop_
 _symmetry_equiv_pos_site_id
 _symmetry_equiv_pos_as_xyz
  1  'x, y, z'
loop_
 _atom_site_type_symbol
 _atom_site_label
 _atom_site_symmetry_multiplicity
 _atom_site_fract_x
 _atom_site_fract_y
 _atom_site_fract_z
 _atom_site_occupancy
  Er  Er0  1  0.000000  0.242669  0.598690  1
  Er  Er1  1  0.000000  0.757331  0.401310  1
  Er  Er2  1  0.500000  0.742669  0.901310  1
  Er  Er3  1  0.500000  0.257331  0.098690  1
  Er  Er4  1  0.500000  0.181346  0.852760  1
  Er  Er5  1  0.500000  0.818654  0.147240  1
  Er  Er6  1  0.000000  0.681346  0.647240  1
  Er  Er7  1  0.000000  0.318654  0.352760  1
  Er  Er8  1  0.500000  0.950347  0.721540  1
  Er  Er9  1  0.500000  0.049653  0.278460  1
  Er  Er10  1  0.000000  0.450347  0.778460  1
  Er  Er11  1  0.000000  0.549653  0.221540  1
  Cr  Cr12  1  0.000000  0.000000  0.500000  1
  Cr  Cr13  1  0.500000  0.500000  0.000000  1
  Cr  Cr14  1  0.000000  0.000000  0.000000  1
  Cr  Cr15  1  0.500000  0.500000  0.500000  1
  S  S16  1  0.000000  0.181277  0.980138  1
  S  S17  1  0.000000  0.818723  0.019862  1
  S  S18  1  0.500000  0.681277  0.519862  1
  S  S19  1  0.500000  0.318723  0.480138  1
  S  S20  1  0.500000  0.978268  0.902232  1
  S  S21  1  0.500000  0.021732  0.097768  1
  S  S22  1  0.000000  0.478268  0.597768  1
  S  S23  1  0.000000  0.521732  0.402232  1
  S  S24  1  0.000000  0.103969  0.746738  1
  S  S25  1  0.000000  0.896031  0.253262  1
  S  S26  1  0.500000  0.603969  0.753262  1
  S  S27  1  0.500000  0.396031  0.246738  1
  S  S28  1  0.000000  0.811180  0.789697  1
  S  S29  1  0.000000  0.188820  0.210303  1
  S  S30  1  0.500000  0.311180  0.710303  1
  S  S31  1  0.500000  0.688820  0.289697  1
  S  S32  1  0.000000  0.417901  0.075998  1
  S  S33  1  0.000000  0.582099  0.924002  1
  S  S34  1  0.500000  0.917901  0.424002  1
  S  S35  1  0.500000  0.082099  0.575998  1
  S  S36  1  0.500000  0.619841  0.109270  1
  S  S37  1  0.500000  0.380159  0.890730  1
  S  S38  1  0.000000  0.119841  0.390730  1
  S  S39  1  0.000000  0.880159  0.609270  1
