# generated using pymatgen
data_Rb5SiAs3
_symmetry_space_group_name_H-M   'P 1'
_cell_length_a   5.72284846
_cell_length_b   14.42962189
_cell_length_c   15.87823483
_cell_angle_alpha   90.00000000
_cell_angle_beta   90.00000000
_cell_angle_gamma   90.00000000
_symmetry_Int_Tables_number   1
_chemical_formula_structural   Rb5SiAs3
_chemical_formula_sum   'Rb20 Si4 As12'
_cell_volume   1311.20144070
_cell_formula_units_Z   4
loop_
 _symmetry_equiv_pos_site_id
 _symmetry_equiv_pos_as_xyz
  1  'x, y, z'
loop_
 _atom_site_type_symbol
 _atom_site_label
 _atom_site_symmetry_multiplicity
 _atom_site_fract_x
 _atom_site_fract_y
 _atom_site_fract_z
 _atom_site_occupancy
  Rb  Rb0  1  0.750000  0.947646  0.352603  1
  Rb  Rb1  1  0.250000  0.052354  0.647397  1
  Rb  Rb2  1  0.750000  0.447646  0.147397  1
  Rb  Rb3  1  0.250000  0.552354  0.852603  1
  Rb  Rb4  1  0.250000  0.776707  0.714669  1
  Rb  Rb5  1  0.750000  0.223293  0.285331  1
  Rb  Rb6  1  0.250000  0.276707  0.785331  1
  Rb  Rb7  1  0.750000  0.723293  0.214669  1
  Rb  Rb8  1  0.250000  0.350340  0.038575  1
  Rb  Rb9  1  0.750000  0.649660  0.961425  1
  Rb  Rb10  1  0.250000  0.850340  0.461425  1
  Rb  Rb11  1  0.750000  0.149660  0.538575  1
  Rb  Rb12  1  0.250000  0.112763  0.181099  1
  Rb  Rb13  1  0.750000  0.887237  0.818901  1
  Rb  Rb14  1  0.250000  0.612763  0.318901  1
  Rb  Rb15  1  0.750000  0.387237  0.681099  1
  Rb  Rb16  1  0.250000  0.067108  0.941946  1
  Rb  Rb17  1  0.750000  0.932892  0.058054  1
  Rb  Rb18  1  0.250000  0.567108  0.558054  1
  Rb  Rb19  1  0.750000  0.432892  0.441946  1
  Si  Si20  1  0.750000  0.738813  0.575474  1
  Si  Si21  1  0.250000  0.261187  0.424526  1
  Si  Si22  1  0.750000  0.238813  0.924526  1
  Si  Si23  1  0.250000  0.761187  0.075474  1
  As  As24  1  0.250000  0.812628  0.936865  1
  As  As25  1  0.750000  0.187372  0.063135  1
  As  As26  1  0.250000  0.312628  0.563135  1
  As  As27  1  0.750000  0.687372  0.436865  1
  As  As28  1  0.250000  0.601857  0.096909  1
  As  As29  1  0.750000  0.398143  0.903091  1
  As  As30  1  0.250000  0.101857  0.403091  1
  As  As31  1  0.750000  0.898143  0.596909  1
  As  As32  1  0.750000  0.634996  0.688162  1
  As  As33  1  0.250000  0.365004  0.311838  1
  As  As34  1  0.750000  0.134996  0.811838  1
  As  As35  1  0.250000  0.865004  0.188162  1
