# generated using pymatgen
data_KGaS2
_symmetry_space_group_name_H-M   'P 1'
_cell_length_a   7.47782745
_cell_length_b   7.47782745
_cell_length_c   15.02263590
_cell_angle_alpha   82.83977798
_cell_angle_beta   97.16022202
_cell_angle_gamma   90.02214081
_symmetry_Int_Tables_number   1
_chemical_formula_structural   KGaS2
_chemical_formula_sum   'K8 Ga8 S16'
_cell_volume   826.88540700
_cell_formula_units_Z   8
loop_
 _symmetry_equiv_pos_site_id
 _symmetry_equiv_pos_as_xyz
  1  'x, y, z'
loop_
 _atom_site_type_symbol
 _atom_site_label
 _atom_site_symmetry_multiplicity
 _atom_site_fract_x
 _atom_site_fract_y
 _atom_site_fract_z
 _atom_site_occupancy
  K  K0  1  0.154147  0.722350  0.111012  1
  K  K1  1  0.722350  0.154147  0.388988  1
  K  K2  1  0.652324  0.724917  0.108864  1
  K  K3  1  0.275083  0.347676  0.608864  1
  K  K4  1  0.724917  0.652324  0.391136  1
  K  K5  1  0.347676  0.275083  0.891136  1
  K  K6  1  0.277650  0.845853  0.611012  1
  K  K7  1  0.845853  0.277650  0.888988  1
  Ga  Ga8  1  0.412732  0.210175  0.163673  1
  Ga  Ga9  1  0.789825  0.587268  0.663673  1
  Ga  Ga10  1  0.790941  0.081840  0.663276  1
  Ga  Ga11  1  0.918160  0.209059  0.163276  1
  Ga  Ga12  1  0.209059  0.918160  0.336724  1
  Ga  Ga13  1  0.081840  0.790941  0.836724  1
  Ga  Ga14  1  0.587268  0.789825  0.836327  1
  Ga  Ga15  1  0.210175  0.412732  0.336327  1
  S  S16  1  0.932666  0.443876  0.249446  1
  S  S17  1  0.556124  0.067334  0.749446  1
  S  S18  1  0.142659  0.234351  0.068696  1
  S  S19  1  0.765649  0.857341  0.568696  1
  S  S20  1  0.443876  0.932666  0.250554  1
  S  S21  1  0.067334  0.556124  0.750554  1
  S  S22  1  0.768489  0.358289  0.572284  1
  S  S23  1  0.641711  0.231511  0.072284  1
  S  S24  1  0.068034  0.068034  0.750000  1
  S  S25  1  0.931966  0.931966  0.250000  1
  S  S26  1  0.234351  0.142659  0.431304  1
  S  S27  1  0.443214  0.443214  0.250000  1
  S  S28  1  0.358289  0.768489  0.927716  1
  S  S29  1  0.231511  0.641711  0.427716  1
  S  S30  1  0.556786  0.556786  0.750000  1
  S  S31  1  0.857341  0.765649  0.931304  1
