# generated using pymatgen
data_PrCuS2
_symmetry_space_group_name_H-M   'P 1'
_cell_length_a   6.54688669
_cell_length_b   7.25073705
_cell_length_c   6.92018926
_cell_angle_alpha   90.00000000
_cell_angle_beta   97.59680999
_cell_angle_gamma   90.00000000
_symmetry_Int_Tables_number   1
_chemical_formula_structural   PrCuS2
_chemical_formula_sum   'Pr4 Cu4 S8'
_cell_volume   325.61640719
_cell_formula_units_Z   4
loop_
 _symmetry_equiv_pos_site_id
 _symmetry_equiv_pos_as_xyz
  1  'x, y, z'
loop_
 _atom_site_type_symbol
 _atom_site_label
 _atom_site_symmetry_multiplicity
 _atom_site_fract_x
 _atom_site_fract_y
 _atom_site_fract_z
 _atom_site_occupancy
  Pr  Pr0  1  0.809508  0.949318  0.700223  1
  Pr  Pr1  1  0.190492  0.449318  0.799777  1
  Pr  Pr2  1  0.190492  0.050682  0.299777  1
  Pr  Pr3  1  0.809508  0.550682  0.200223  1
  Cu  Cu4  1  0.426886  0.664728  0.451941  1
  Cu  Cu5  1  0.573114  0.335272  0.548059  1
  Cu  Cu6  1  0.573114  0.164728  0.048059  1
  Cu  Cu7  1  0.426886  0.835272  0.951941  1
  S  S8  1  0.087001  0.725797  0.498807  1
  S  S9  1  0.912999  0.225797  0.001193  1
  S  S10  1  0.912999  0.274203  0.501193  1
  S  S11  1  0.087001  0.774203  0.998807  1
  S  S12  1  0.410789  0.114678  0.723088  1
  S  S13  1  0.410789  0.385322  0.223088  1
  S  S14  1  0.589211  0.885322  0.276912  1
  S  S15  1  0.589211  0.614678  0.776912  1
