# generated using pymatgen
data_Sc2(MoO4)3
_symmetry_space_group_name_H-M   'P 1'
_cell_length_a   9.72376064
_cell_length_b   9.82123480
_cell_length_c   13.59425035
_cell_angle_alpha   90.00000000
_cell_angle_beta   90.00000000
_cell_angle_gamma   90.00000000
_symmetry_Int_Tables_number   1
_chemical_formula_structural   Sc2(MoO4)3
_chemical_formula_sum   'Sc8 Mo12 O48'
_cell_volume   1298.24188707
_cell_formula_units_Z   4
loop_
 _symmetry_equiv_pos_site_id
 _symmetry_equiv_pos_as_xyz
  1  'x, y, z'
loop_
 _atom_site_type_symbol
 _atom_site_label
 _atom_site_symmetry_multiplicity
 _atom_site_fract_x
 _atom_site_fract_y
 _atom_site_fract_z
 _atom_site_occupancy
  Sc  Sc0  1  0.250518  0.466909  0.117893  1
  Sc  Sc1  1  0.250518  0.033091  0.882107  1
  Sc  Sc2  1  0.249482  0.966909  0.382107  1
  Sc  Sc3  1  0.249482  0.533091  0.617893  1
  Sc  Sc4  1  0.749482  0.533091  0.882107  1
  Sc  Sc5  1  0.749482  0.966909  0.117893  1
  Sc  Sc6  1  0.750518  0.033091  0.617893  1
  Sc  Sc7  1  0.750518  0.466909  0.382107  1
  Mo  Mo8  1  0.392645  0.885178  0.644208  1
  Mo  Mo9  1  0.392645  0.614822  0.355792  1
  Mo  Mo10  1  0.107355  0.385178  0.855792  1
  Mo  Mo11  1  0.107355  0.114822  0.144208  1
  Mo  Mo12  1  0.892645  0.885178  0.855792  1
  Mo  Mo13  1  0.892645  0.614822  0.144208  1
  Mo  Mo14  1  0.607355  0.385178  0.644208  1
  Mo  Mo15  1  0.607355  0.114822  0.355792  1
  Mo  Mo16  1  0.026893  0.250000  0.500000  1
  Mo  Mo17  1  0.473107  0.750000  0.000000  1
  Mo  Mo18  1  0.973107  0.750000  0.500000  1
  Mo  Mo19  1  0.526893  0.250000  0.000000  1
  O  O20  1  0.133161  0.130798  0.435557  1
  O  O21  1  0.133161  0.369202  0.564443  1
  O  O22  1  0.366839  0.630798  0.064443  1
  O  O23  1  0.366839  0.869202  0.935557  1
  O  O24  1  0.866839  0.869202  0.564443  1
  O  O25  1  0.866839  0.630798  0.435557  1
  O  O26  1  0.633161  0.369202  0.935557  1
  O  O27  1  0.633161  0.130798  0.064443  1
  O  O28  1  0.919738  0.337324  0.413194  1
  O  O29  1  0.919738  0.162676  0.586806  1
  O  O30  1  0.580262  0.837324  0.086806  1
  O  O31  1  0.580262  0.662676  0.913194  1
  O  O32  1  0.080262  0.662676  0.586806  1
  O  O33  1  0.080262  0.837324  0.413194  1
  O  O34  1  0.419738  0.162676  0.913194  1
  O  O35  1  0.419738  0.337324  0.086806  1
  O  O36  1  0.180834  0.066437  0.028870  1
  O  O37  1  0.180834  0.433563  0.971130  1
  O  O38  1  0.319166  0.566437  0.471130  1
  O  O39  1  0.319166  0.933563  0.528870  1
  O  O40  1  0.819166  0.933563  0.971130  1
  O  O41  1  0.819166  0.566437  0.028870  1
  O  O42  1  0.680834  0.433563  0.528870  1
  O  O43  1  0.680834  0.066437  0.471130  1
  O  O44  1  0.925134  0.087621  0.140624  1
  O  O45  1  0.925134  0.412379  0.859376  1
  O  O46  1  0.574866  0.587621  0.359376  1
  O  O47  1  0.574866  0.912379  0.640624  1
  O  O48  1  0.074866  0.912379  0.859376  1
  O  O49  1  0.074866  0.587621  0.140624  1
  O  O50  1  0.425134  0.412379  0.640624  1
  O  O51  1  0.425134  0.087621  0.359376  1
  O  O52  1  0.182037  0.013797  0.240451  1
  O  O53  1  0.182037  0.486203  0.759549  1
  O  O54  1  0.317963  0.513797  0.259549  1
  O  O55  1  0.317963  0.986203  0.740451  1
  O  O56  1  0.817963  0.986203  0.759549  1
  O  O57  1  0.817963  0.513797  0.240451  1
  O  O58  1  0.682037  0.486203  0.740451  1
  O  O59  1  0.682037  0.013797  0.259549  1
  O  O60  1  0.140969  0.292213  0.164435  1
  O  O61  1  0.140969  0.207787  0.835565  1
  O  O62  1  0.359031  0.792213  0.335565  1
  O  O63  1  0.359031  0.707787  0.664435  1
  O  O64  1  0.859031  0.707787  0.835565  1
  O  O65  1  0.859031  0.792213  0.164435  1
  O  O66  1  0.640969  0.207787  0.664435  1
  O  O67  1  0.640969  0.292213  0.335565  1
