# generated using pymatgen
data_LiAlGeO4
_symmetry_space_group_name_H-M   'P 1'
_cell_length_a   8.63487427
_cell_length_b   8.63487427
_cell_length_c   8.63487427
_cell_angle_alpha   107.82906752
_cell_angle_beta   107.82906752
_cell_angle_gamma   107.82906752
_symmetry_Int_Tables_number   1
_chemical_formula_structural   LiAlGeO4
_chemical_formula_sum   'Li6 Al6 Ge6 O24'
_cell_volume   523.58441862
_cell_formula_units_Z   6
loop_
 _symmetry_equiv_pos_site_id
 _symmetry_equiv_pos_as_xyz
  1  'x, y, z'
loop_
 _atom_site_type_symbol
 _atom_site_label
 _atom_site_symmetry_multiplicity
 _atom_site_fract_x
 _atom_site_fract_y
 _atom_site_fract_z
 _atom_site_occupancy
  Li  Li0  1  0.071280  0.239583  0.468488  1
  Li  Li1  1  0.239583  0.468488  0.071280  1
  Li  Li2  1  0.468488  0.071280  0.239583  1
  Li  Li3  1  0.928720  0.760417  0.531512  1
  Li  Li4  1  0.760417  0.531512  0.928720  1
  Li  Li5  1  0.531512  0.928720  0.760417  1
  Al  Al6  1  0.384404  0.568110  0.789093  1
  Al  Al7  1  0.789093  0.384404  0.568110  1
  Al  Al8  1  0.615596  0.431890  0.210907  1
  Al  Al9  1  0.431890  0.210907  0.615596  1
  Al  Al10  1  0.210907  0.615596  0.431890  1
  Al  Al11  1  0.568110  0.789093  0.384404  1
  Ge  Ge12  1  0.893525  0.133221  0.720456  1
  Ge  Ge13  1  0.133221  0.720456  0.893525  1
  Ge  Ge14  1  0.279544  0.106475  0.866779  1
  Ge  Ge15  1  0.106475  0.866779  0.279544  1
  Ge  Ge16  1  0.866779  0.279544  0.106475  1
  Ge  Ge17  1  0.720456  0.893525  0.133221  1
  O  O18  1  0.659679  0.344840  0.684911  1
  O  O19  1  0.048145  0.379287  0.322780  1
  O  O20  1  0.322780  0.048145  0.379287  1
  O  O21  1  0.379287  0.322780  0.048145  1
  O  O22  1  0.951855  0.620713  0.677220  1
  O  O23  1  0.677220  0.951855  0.620713  1
  O  O24  1  0.620713  0.677220  0.951855  1
  O  O25  1  0.344840  0.684911  0.659679  1
  O  O26  1  0.079106  0.739792  0.401081  1
  O  O27  1  0.684911  0.659679  0.344840  1
  O  O28  1  0.655160  0.315089  0.340321  1
  O  O29  1  0.340321  0.655160  0.315089  1
  O  O30  1  0.920894  0.260208  0.598919  1
  O  O31  1  0.260208  0.598919  0.920894  1
  O  O32  1  0.598919  0.920894  0.260208  1
  O  O33  1  0.955049  0.973124  0.279729  1
  O  O34  1  0.739792  0.401081  0.079106  1
  O  O35  1  0.401081  0.079106  0.739792  1
  O  O36  1  0.720271  0.044951  0.026876  1
  O  O37  1  0.973124  0.279729  0.955049  1
  O  O38  1  0.279729  0.955049  0.973124  1
  O  O39  1  0.044951  0.026876  0.720271  1
  O  O40  1  0.026876  0.720271  0.044951  1
  O  O41  1  0.315089  0.340321  0.655160  1
