# generated using pymatgen
data_Rb2CdSi5O12
_symmetry_space_group_name_H-M   'P 1'
_cell_length_a   13.62208369
_cell_length_b   13.89255924
_cell_length_c   14.12549552
_cell_angle_alpha   90.00000000
_cell_angle_beta   90.00000000
_cell_angle_gamma   90.00000000
_symmetry_Int_Tables_number   1
_chemical_formula_structural   Rb2CdSi5O12
_chemical_formula_sum   'Rb16 Cd8 Si40 O96'
_cell_volume   2673.18794046
_cell_formula_units_Z   8
loop_
 _symmetry_equiv_pos_site_id
 _symmetry_equiv_pos_as_xyz
  1  'x, y, z'
loop_
 _atom_site_type_symbol
 _atom_site_label
 _atom_site_symmetry_multiplicity
 _atom_site_fract_x
 _atom_site_fract_y
 _atom_site_fract_z
 _atom_site_occupancy
  Rb  Rb0  1  0.124940  0.127878  0.145191  1
  Rb  Rb1  1  0.624940  0.372122  0.854809  1
  Rb  Rb2  1  0.875060  0.627878  0.354809  1
  Rb  Rb3  1  0.375060  0.872122  0.645191  1
  Rb  Rb4  1  0.875060  0.872122  0.854809  1
  Rb  Rb5  1  0.375060  0.627878  0.145191  1
  Rb  Rb6  1  0.124940  0.372122  0.645191  1
  Rb  Rb7  1  0.624940  0.127878  0.354809  1
  Rb  Rb8  1  0.866201  0.377479  0.121430  1
  Rb  Rb9  1  0.366201  0.122521  0.878570  1
  Rb  Rb10  1  0.133799  0.877479  0.378570  1
  Rb  Rb11  1  0.633799  0.622521  0.621430  1
  Rb  Rb12  1  0.133799  0.622521  0.878570  1
  Rb  Rb13  1  0.633799  0.877479  0.121430  1
  Rb  Rb14  1  0.866201  0.122521  0.621430  1
  Rb  Rb15  1  0.366201  0.377479  0.378570  1
  Cd  Cd16  1  0.387067  0.837948  0.939297  1
  Cd  Cd17  1  0.887067  0.662052  0.060703  1
  Cd  Cd18  1  0.612933  0.337948  0.560703  1
  Cd  Cd19  1  0.112933  0.162052  0.439297  1
  Cd  Cd20  1  0.612933  0.162052  0.060703  1
  Cd  Cd21  1  0.112933  0.337948  0.939297  1
  Cd  Cd22  1  0.387067  0.662052  0.439297  1
  Cd  Cd23  1  0.887067  0.837948  0.560703  1
  Si  Si24  1  0.342525  0.913100  0.160385  1
  Si  Si25  1  0.842525  0.586900  0.839615  1
  Si  Si26  1  0.657475  0.413100  0.339615  1
  Si  Si27  1  0.157475  0.086900  0.660385  1
  Si  Si28  1  0.657475  0.086900  0.839615  1
  Si  Si29  1  0.157475  0.413100  0.160385  1
  Si  Si30  1  0.342525  0.586900  0.660385  1
  Si  Si31  1  0.842525  0.913100  0.339615  1
  Si  Si32  1  0.402108  0.371866  0.689947  1
  Si  Si33  1  0.902108  0.128134  0.310053  1
  Si  Si34  1  0.597892  0.871866  0.810053  1
  Si  Si35  1  0.097892  0.628134  0.189947  1
  Si  Si36  1  0.597892  0.628134  0.310053  1
  Si  Si37  1  0.097892  0.871866  0.689947  1
  Si  Si38  1  0.402108  0.128134  0.189947  1
  Si  Si39  1  0.902108  0.371866  0.810053  1
  Si  Si40  1  0.157989  0.594167  0.393945  1
  Si  Si41  1  0.657989  0.905833  0.606055  1
  Si  Si42  1  0.842011  0.094167  0.106055  1
  Si  Si43  1  0.342011  0.405833  0.893945  1
  Si  Si44  1  0.842011  0.405833  0.606055  1
  Si  Si45  1  0.342011  0.094167  0.393945  1
  Si  Si46  1  0.157989  0.905833  0.893945  1
  Si  Si47  1  0.657989  0.594167  0.106055  1
  Si  Si48  1  0.080414  0.112748  0.869637  1
  Si  Si49  1  0.580414  0.387252  0.130363  1
  Si  Si50  1  0.919586  0.612748  0.630363  1
  Si  Si51  1  0.419586  0.887252  0.369637  1
  Si  Si52  1  0.919586  0.887252  0.130363  1
  Si  Si53  1  0.419586  0.612748  0.869637  1
  Si  Si54  1  0.080414  0.387252  0.369637  1
  Si  Si55  1  0.580414  0.112748  0.630363  1
  Si  Si56  1  0.635000  0.675790  0.902996  1
  Si  Si57  1  0.135000  0.824210  0.097004  1
  Si  Si58  1  0.365000  0.175790  0.597004  1
  Si  Si59  1  0.865000  0.324210  0.402996  1
  Si  Si60  1  0.365000  0.324210  0.097004  1
  Si  Si61  1  0.865000  0.175790  0.902996  1
  Si  Si62  1  0.635000  0.824210  0.402996  1
  Si  Si63  1  0.135000  0.675790  0.597004  1
  O  O64  1  0.372955  0.159327  0.299971  1
  O  O65  1  0.872955  0.340673  0.700029  1
  O  O66  1  0.627045  0.659327  0.200029  1
  O  O67  1  0.127045  0.840673  0.799971  1
  O  O68  1  0.627045  0.840673  0.700029  1
  O  O69  1  0.127045  0.659327  0.299971  1
  O  O70  1  0.372955  0.340673  0.799971  1
  O  O71  1  0.872955  0.159327  0.200029  1
  O  O72  1  0.628486  0.180134  0.551060  1
  O  O73  1  0.128486  0.319866  0.448940  1
  O  O74  1  0.371514  0.680134  0.948940  1
  O  O75  1  0.871514  0.819866  0.051060  1
  O  O76  1  0.371514  0.819866  0.448940  1
  O  O77  1  0.871514  0.680134  0.551060  1
  O  O78  1  0.628486  0.319866  0.051060  1
  O  O79  1  0.128486  0.180134  0.948940  1
  O  O80  1  0.726636  0.885489  0.361751  1
  O  O81  1  0.226636  0.614511  0.638249  1
  O  O82  1  0.273364  0.385489  0.138249  1
  O  O83  1  0.773364  0.114511  0.861751  1
  O  O84  1  0.273364  0.114511  0.638249  1
  O  O85  1  0.773364  0.385489  0.361751  1
  O  O86  1  0.726636  0.614511  0.861751  1
  O  O87  1  0.226636  0.885489  0.138249  1
  O  O88  1  0.420322  0.632621  0.588607  1
  O  O89  1  0.920322  0.867379  0.411393  1
  O  O90  1  0.579678  0.132621  0.911393  1
  O  O91  1  0.079678  0.367379  0.088607  1
  O  O92  1  0.579678  0.367379  0.411393  1
  O  O93  1  0.079678  0.132621  0.588607  1
  O  O94  1  0.420322  0.867379  0.088607  1
  O  O95  1  0.920322  0.632621  0.911393  1
  O  O96  1  0.161783  0.968465  0.662786  1
  O  O97  1  0.661783  0.531535  0.337214  1
  O  O98  1  0.838217  0.468465  0.837214  1
  O  O99  1  0.338217  0.031535  0.162786  1
  O  O100  1  0.838217  0.031535  0.337214  1
  O  O101  1  0.338217  0.468465  0.662786  1
  O  O102  1  0.161783  0.531535  0.162786  1
  O  O103  1  0.229707  0.437921  0.896408  1
  O  O104  1  0.661783  0.968465  0.837214  1
  O  O105  1  0.982211  0.617638  0.177406  1
  O  O106  1  0.517789  0.382362  0.677406  1
  O  O107  1  0.017789  0.117638  0.322594  1
  O  O108  1  0.517789  0.117638  0.177406  1
  O  O109  1  0.017789  0.382362  0.822594  1
  O  O110  1  0.482211  0.617638  0.322594  1
  O  O111  1  0.982211  0.882362  0.677406  1
  O  O112  1  0.861407  0.626610  0.731343  1
  O  O113  1  0.361407  0.873390  0.268657  1
  O  O114  1  0.138593  0.126610  0.768657  1
  O  O115  1  0.638593  0.373390  0.231343  1
  O  O116  1  0.138593  0.373390  0.268657  1
  O  O117  1  0.638593  0.126610  0.731343  1
  O  O118  1  0.861407  0.873390  0.231343  1
  O  O119  1  0.361407  0.626610  0.768657  1
  O  O120  1  0.149874  0.709947  0.120293  1
  O  O121  1  0.649874  0.790053  0.879707  1
  O  O122  1  0.850126  0.209947  0.379707  1
  O  O123  1  0.350126  0.290053  0.620293  1
  O  O124  1  0.850126  0.290053  0.879707  1
  O  O125  1  0.350126  0.209947  0.120293  1
  O  O126  1  0.149874  0.790053  0.620293  1
  O  O127  1  0.649874  0.709947  0.379707  1
  O  O128  1  0.462354  0.365128  0.151074  1
  O  O129  1  0.962354  0.134872  0.848926  1
  O  O130  1  0.537646  0.865128  0.348926  1
  O  O131  1  0.037646  0.634872  0.651074  1
  O  O132  1  0.537646  0.634872  0.848926  1
  O  O133  1  0.037646  0.865128  0.151074  1
  O  O134  1  0.462354  0.134872  0.651074  1
  O  O135  1  0.962354  0.365128  0.348926  1
  O  O136  1  0.081084  0.502513  0.398766  1
  O  O137  1  0.581084  0.997487  0.601234  1
  O  O138  1  0.918916  0.002513  0.101234  1
  O  O139  1  0.418916  0.497487  0.898766  1
  O  O140  1  0.918916  0.497487  0.601234  1
  O  O141  1  0.418916  0.002513  0.398766  1
  O  O142  1  0.081084  0.997487  0.898766  1
  O  O143  1  0.581084  0.502513  0.101234  1
  O  O144  1  0.373360  0.167310  0.482083  1
  O  O145  1  0.873360  0.332690  0.517917  1
  O  O146  1  0.626640  0.667310  0.017917  1
  O  O147  1  0.126640  0.832690  0.982083  1
  O  O148  1  0.626640  0.832690  0.517917  1
  O  O149  1  0.126640  0.667310  0.482083  1
  O  O150  1  0.373360  0.332690  0.982083  1
  O  O151  1  0.873360  0.167310  0.017917  1
  O  O152  1  0.729707  0.437921  0.603592  1
  O  O153  1  0.229707  0.062079  0.396408  1
  O  O154  1  0.270293  0.937921  0.896408  1
  O  O155  1  0.770293  0.562079  0.103592  1
  O  O156  1  0.270293  0.562079  0.396408  1
  O  O157  1  0.770293  0.937921  0.603592  1
  O  O158  1  0.729707  0.062079  0.103592  1
  O  O159  1  0.482211  0.882362  0.822594  1
