# generated using pymatgen
data_Sr3ErRhO6
_symmetry_space_group_name_H-M   'P 1'
_cell_length_a   6.84441030
_cell_length_b   6.84441030
_cell_length_c   6.84441030
_cell_angle_alpha   92.22870313
_cell_angle_beta   92.22870313
_cell_angle_gamma   92.22870313
_symmetry_Int_Tables_number   1
_chemical_formula_structural   Sr3ErRhO6
_chemical_formula_sum   'Sr6 Er2 Rh2 O12'
_cell_volume   319.88584843
_cell_formula_units_Z   2
loop_
 _symmetry_equiv_pos_site_id
 _symmetry_equiv_pos_as_xyz
  1  'x, y, z'
loop_
 _atom_site_type_symbol
 _atom_site_label
 _atom_site_symmetry_multiplicity
 _atom_site_fract_x
 _atom_site_fract_y
 _atom_site_fract_z
 _atom_site_occupancy
  Sr  Sr0  1  0.250000  0.881293  0.618707  1
  Sr  Sr1  1  0.881293  0.618707  0.250000  1
  Sr  Sr2  1  0.618707  0.250000  0.881293  1
  Sr  Sr3  1  0.750000  0.118707  0.381293  1
  Sr  Sr4  1  0.381293  0.750000  0.118707  1
  Sr  Sr5  1  0.118707  0.381293  0.750000  1
  Er  Er6  1  0.750000  0.750000  0.750000  1
  Er  Er7  1  0.250000  0.250000  0.250000  1
  Rh  Rh8  1  0.500000  0.500000  0.500000  1
  Rh  Rh9  1  0.000000  0.000000  0.000000  1
  O  O10  1  0.457977  0.592498  0.792130  1
  O  O11  1  0.792130  0.457977  0.592498  1
  O  O12  1  0.592498  0.792130  0.457977  1
  O  O13  1  0.707870  0.907502  0.042023  1
  O  O14  1  0.042023  0.707870  0.907502  1
  O  O15  1  0.907502  0.042023  0.707870  1
  O  O16  1  0.542023  0.407502  0.207870  1
  O  O17  1  0.207870  0.542023  0.407502  1
  O  O18  1  0.407502  0.207870  0.542023  1
  O  O19  1  0.292130  0.092498  0.957977  1
  O  O20  1  0.092498  0.957977  0.292130  1
  O  O21  1  0.957977  0.292130  0.092498  1
