# generated using pymatgen
data_Tm2Cu(B2O5)2
_symmetry_space_group_name_H-M   'P 1'
_cell_length_a   4.57939662
_cell_length_b   7.24172052
_cell_length_c   9.32540570
_cell_angle_alpha   90.00000000
_cell_angle_beta   90.26139146
_cell_angle_gamma   90.00000000
_symmetry_Int_Tables_number   1
_chemical_formula_structural   Tm2Cu(B2O5)2
_chemical_formula_sum   'Tm4 Cu2 B8 O20'
_cell_volume   309.25251081
_cell_formula_units_Z   2
loop_
 _symmetry_equiv_pos_site_id
 _symmetry_equiv_pos_as_xyz
  1  'x, y, z'
loop_
 _atom_site_type_symbol
 _atom_site_label
 _atom_site_symmetry_multiplicity
 _atom_site_fract_x
 _atom_site_fract_y
 _atom_site_fract_z
 _atom_site_occupancy
  Tm  Tm0  1  0.002857  0.396690  0.164750  1
  Tm  Tm1  1  0.997143  0.896690  0.335250  1
  Tm  Tm2  1  0.002857  0.103310  0.664750  1
  Tm  Tm3  1  0.997143  0.603310  0.835250  1
  Cu  Cu4  1  0.000000  0.000000  0.000000  1
  Cu  Cu5  1  0.000000  0.500000  0.500000  1
  B  B6  1  0.539053  0.269284  0.920409  1
  B  B7  1  0.460947  0.769284  0.579591  1
  B  B8  1  0.460947  0.730716  0.079591  1
  B  B9  1  0.539053  0.230716  0.420409  1
  B  B10  1  0.528497  0.598079  0.336712  1
  B  B11  1  0.471503  0.098079  0.163288  1
  B  B12  1  0.528497  0.901921  0.836712  1
  B  B13  1  0.471503  0.401921  0.663288  1
  O  O14  1  0.340485  0.163544  0.301981  1
  O  O15  1  0.659515  0.663544  0.198019  1
  O  O16  1  0.771995  0.109934  0.459045  1
  O  O17  1  0.228005  0.609934  0.040955  1
  O  O18  1  0.228005  0.890066  0.540955  1
  O  O19  1  0.771995  0.390066  0.959045  1
  O  O20  1  0.213466  0.910384  0.832645  1
  O  O21  1  0.786534  0.410384  0.667355  1
  O  O22  1  0.786534  0.089616  0.167355  1
  O  O23  1  0.213466  0.589616  0.332645  1
  O  O24  1  0.677538  0.088709  0.861508  1
  O  O25  1  0.322462  0.588709  0.638492  1
  O  O26  1  0.322462  0.911291  0.138492  1
  O  O27  1  0.677538  0.411291  0.361508  1
  O  O28  1  0.642073  0.776677  0.950965  1
  O  O29  1  0.357927  0.276677  0.549035  1
  O  O30  1  0.357927  0.223323  0.049035  1
  O  O31  1  0.642073  0.723323  0.450965  1
  O  O32  1  0.659515  0.836456  0.698019  1
  O  O33  1  0.340485  0.336456  0.801981  1
