# generated using pymatgen
data_KV2SbO8
_symmetry_space_group_name_H-M   'P 1'
_cell_length_a   5.64322819
_cell_length_b   8.65679134
_cell_length_c   14.89038186
_cell_angle_alpha   90.00000000
_cell_angle_beta   90.00000000
_cell_angle_gamma   90.00000000
_symmetry_Int_Tables_number   1
_chemical_formula_structural   KV2SbO8
_chemical_formula_sum   'K4 V8 Sb4 O32'
_cell_volume   727.42864121
_cell_formula_units_Z   4
loop_
 _symmetry_equiv_pos_site_id
 _symmetry_equiv_pos_as_xyz
  1  'x, y, z'
loop_
 _atom_site_type_symbol
 _atom_site_label
 _atom_site_symmetry_multiplicity
 _atom_site_fract_x
 _atom_site_fract_y
 _atom_site_fract_z
 _atom_site_occupancy
  K  K0  1  0.750000  0.949817  0.618912  1
  K  K1  1  0.250000  0.050183  0.381088  1
  K  K2  1  0.750000  0.550183  0.118912  1
  K  K3  1  0.250000  0.449817  0.881088  1
  V  V4  1  0.250000  0.008549  0.784048  1
  V  V5  1  0.750000  0.207086  0.972654  1
  V  V6  1  0.750000  0.292914  0.472654  1
  V  V7  1  0.250000  0.792914  0.027346  1
  V  V8  1  0.250000  0.707086  0.527346  1
  V  V9  1  0.250000  0.491451  0.284048  1
  V  V10  1  0.750000  0.991451  0.215952  1
  V  V11  1  0.750000  0.508549  0.715952  1
  Sb  Sb12  1  0.250000  0.186812  0.117744  1
  Sb  Sb13  1  0.750000  0.813188  0.882256  1
  Sb  Sb14  1  0.750000  0.686812  0.382256  1
  Sb  Sb15  1  0.250000  0.313188  0.617744  1
  O  O16  1  0.003145  0.224741  0.535951  1
  O  O17  1  0.750000  0.891706  0.321258  1
  O  O18  1  0.750000  0.864928  0.135043  1
  O  O19  1  0.750000  0.492665  0.454572  1
  O  O20  1  0.750000  0.197770  0.377789  1
  O  O21  1  0.250000  0.135072  0.864957  1
  O  O22  1  0.250000  0.697770  0.122211  1
  O  O23  1  0.503145  0.775259  0.464049  1
  O  O24  1  0.009586  0.108737  0.204983  1
  O  O25  1  0.250000  0.992665  0.045428  1
  O  O26  1  0.496855  0.275259  0.035951  1
  O  O27  1  0.996855  0.775259  0.464049  1
  O  O28  1  0.003145  0.275259  0.035951  1
  O  O29  1  0.250000  0.108294  0.678742  1
  O  O30  1  0.490414  0.391263  0.704983  1
  O  O31  1  0.990414  0.608737  0.295017  1
  O  O32  1  0.509586  0.891263  0.795017  1
  O  O33  1  0.750000  0.007335  0.954572  1
  O  O34  1  0.990414  0.891263  0.795017  1
  O  O35  1  0.750000  0.635072  0.635043  1
  O  O36  1  0.509586  0.608737  0.295017  1
  O  O37  1  0.250000  0.507335  0.545428  1
  O  O38  1  0.503145  0.724741  0.964049  1
  O  O39  1  0.009586  0.391263  0.704983  1
  O  O40  1  0.996855  0.724741  0.964049  1
  O  O41  1  0.750000  0.608294  0.821258  1
  O  O42  1  0.250000  0.364928  0.364957  1
  O  O43  1  0.750000  0.302230  0.877789  1
  O  O44  1  0.490414  0.108737  0.204983  1
  O  O45  1  0.250000  0.802230  0.622211  1
  O  O46  1  0.496855  0.224741  0.535951  1
  O  O47  1  0.250000  0.391706  0.178742  1
