# generated using pymatgen
data_Cs3Sb
_symmetry_space_group_name_H-M   'P 1'
_cell_length_a   6.61198736
_cell_length_b   6.61198736
_cell_length_c   6.61198736
_cell_angle_alpha   60.00000000
_cell_angle_beta   60.00000000
_cell_angle_gamma   60.00000000
_symmetry_Int_Tables_number   1
_chemical_formula_structural   Cs3Sb
_chemical_formula_sum   'Cs3 Sb1'
_cell_volume   204.40007260
_cell_formula_units_Z   1
loop_
 _symmetry_equiv_pos_site_id
 _symmetry_equiv_pos_as_xyz
  1  'x, y, z'
loop_
 _atom_site_type_symbol
 _atom_site_label
 _atom_site_symmetry_multiplicity
 _atom_site_fract_x
 _atom_site_fract_y
 _atom_site_fract_z
 _atom_site_occupancy
  Cs  Cs0  1  0.750000  0.750000  0.750000  1
  Cs  Cs1  1  0.250000  0.250000  0.250000  1
  Cs  Cs2  1  0.500000  0.500000  0.500000  1
  Sb  Sb3  1  0.000000  0.000000  0.000000  1
