# generated using pymatgen
data_KGe2(PO4)3
_symmetry_space_group_name_H-M   'P 1'
_cell_length_a   8.95146318
_cell_length_b   8.95146318
_cell_length_c   8.95146318
_cell_angle_alpha   54.02689246
_cell_angle_beta   54.02689246
_cell_angle_gamma   54.02689246
_symmetry_Int_Tables_number   1
_chemical_formula_structural   KGe2(PO4)3
_chemical_formula_sum   'K2 Ge4 P6 O24'
_cell_volume   436.43172503
_cell_formula_units_Z   2
loop_
 _symmetry_equiv_pos_site_id
 _symmetry_equiv_pos_as_xyz
  1  'x, y, z'
loop_
 _atom_site_type_symbol
 _atom_site_label
 _atom_site_symmetry_multiplicity
 _atom_site_fract_x
 _atom_site_fract_y
 _atom_site_fract_z
 _atom_site_occupancy
  K  K0  1  0.000000  0.000000  0.000000  1
  K  K1  1  0.500000  0.500000  0.500000  1
  Ge  Ge2  1  0.147978  0.147978  0.147978  1
  Ge  Ge3  1  0.852022  0.852022  0.852022  1
  Ge  Ge4  1  0.347187  0.347187  0.347187  1
  Ge  Ge5  1  0.652813  0.652813  0.652813  1
  P  P6  1  0.251650  0.533907  0.966161  1
  P  P7  1  0.533907  0.966161  0.251650  1
  P  P8  1  0.966161  0.251650  0.533907  1
  P  P9  1  0.748350  0.466093  0.033839  1
  P  P10  1  0.466093  0.033839  0.748350  1
  P  P11  1  0.033839  0.748350  0.466093  1
  O  O12  1  0.813029  0.463594  0.528109  1
  O  O13  1  0.463594  0.528109  0.813029  1
  O  O14  1  0.528109  0.813029  0.463594  1
  O  O15  1  0.186971  0.536406  0.471891  1
  O  O16  1  0.536406  0.471891  0.186971  1
  O  O17  1  0.471891  0.186971  0.536406  1
  O  O18  1  0.904848  0.267893  0.112081  1
  O  O19  1  0.267893  0.112081  0.904848  1
  O  O20  1  0.112081  0.904848  0.267893  1
  O  O21  1  0.095152  0.732107  0.887919  1
  O  O22  1  0.732107  0.887919  0.095152  1
  O  O23  1  0.887919  0.095152  0.732107  1
  O  O24  1  0.016334  0.768060  0.636143  1
  O  O25  1  0.636144  0.016334  0.768060  1
  O  O26  1  0.768060  0.636143  0.016334  1
  O  O27  1  0.983666  0.231940  0.363856  1
  O  O28  1  0.363857  0.983666  0.231940  1
  O  O29  1  0.231940  0.363856  0.983666  1
  O  O30  1  0.521861  0.164790  0.214988  1
  O  O31  1  0.214988  0.521861  0.164790  1
  O  O32  1  0.164790  0.214988  0.521861  1
  O  O33  1  0.478139  0.835210  0.785012  1
  O  O34  1  0.785012  0.478139  0.835210  1
  O  O35  1  0.835210  0.785012  0.478139  1
