# generated using pymatgen
data_Sr2V2O7
_symmetry_space_group_name_H-M   'P 1'
_cell_length_a   7.19087890
_cell_length_b   7.19087890
_cell_length_c   26.06831878
_cell_angle_alpha   90.00000000
_cell_angle_beta   90.00000000
_cell_angle_gamma   90.00000000
_symmetry_Int_Tables_number   1
_chemical_formula_structural   Sr2V2O7
_chemical_formula_sum   'Sr16 V16 O56'
_cell_volume   1347.95990120
_cell_formula_units_Z   8
loop_
 _symmetry_equiv_pos_site_id
 _symmetry_equiv_pos_as_xyz
  1  'x, y, z'
loop_
 _atom_site_type_symbol
 _atom_site_label
 _atom_site_symmetry_multiplicity
 _atom_site_fract_x
 _atom_site_fract_y
 _atom_site_fract_z
 _atom_site_occupancy
  Sr  Sr0  1  0.216735  0.086570  0.392106  1
  Sr  Sr1  1  0.086570  0.783265  0.142106  1
  Sr  Sr2  1  0.836313  0.491493  0.402168  1
  Sr  Sr3  1  0.314813  0.936856  0.003977  1
  Sr  Sr4  1  0.724736  0.305800  0.000757  1
  Sr  Sr5  1  0.913430  0.216735  0.642106  1
  Sr  Sr6  1  0.936856  0.685187  0.753977  1
  Sr  Sr7  1  0.163687  0.508507  0.902168  1
  Sr  Sr8  1  0.491493  0.163687  0.152168  1
  Sr  Sr9  1  0.063144  0.314813  0.253977  1
  Sr  Sr10  1  0.275264  0.694200  0.500757  1
  Sr  Sr11  1  0.305800  0.275264  0.750757  1
  Sr  Sr12  1  0.508507  0.836313  0.652168  1
  Sr  Sr13  1  0.685187  0.063144  0.503977  1
  Sr  Sr14  1  0.783265  0.913430  0.892106  1
  Sr  Sr15  1  0.694200  0.724736  0.250757  1
  V  V16  1  0.433557  0.297790  0.616326  1
  V  V17  1  0.826694  0.774091  0.016445  1
  V  V18  1  0.173306  0.225909  0.516445  1
  V  V19  1  0.231722  0.395094  0.029075  1
  V  V20  1  0.297790  0.566443  0.366326  1
  V  V21  1  0.225909  0.826694  0.266445  1
  V  V22  1  0.695397  0.967528  0.377883  1
  V  V23  1  0.768278  0.604906  0.529075  1
  V  V24  1  0.967528  0.304603  0.127883  1
  V  V25  1  0.774091  0.173306  0.766445  1
  V  V26  1  0.032472  0.695397  0.627883  1
  V  V27  1  0.304603  0.032472  0.877883  1
  V  V28  1  0.702210  0.433557  0.866326  1
  V  V29  1  0.566443  0.702210  0.116326  1
  V  V30  1  0.604906  0.231722  0.279075  1
  V  V31  1  0.395094  0.768278  0.779075  1
  O  O32  1  0.695587  0.952962  0.990666  1
  O  O33  1  0.795354  0.785575  0.346187  1
  O  O34  1  0.047038  0.695587  0.240666  1
  O  O35  1  0.311376  0.579948  0.994132  1
  O  O36  1  0.249137  0.587681  0.796538  1
  O  O37  1  0.399471  0.866078  0.098937  1
  O  O38  1  0.133922  0.399471  0.348937  1
  O  O39  1  0.378069  0.687521  0.307763  1
  O  O40  1  0.886075  0.441001  0.176301  1
  O  O41  1  0.275604  0.186451  0.655399  1
  O  O42  1  0.204646  0.214425  0.846187  1
  O  O43  1  0.587681  0.750863  0.546538  1
  O  O44  1  0.113925  0.558999  0.676301  1
  O  O45  1  0.525681  0.541475  0.896864  1
  O  O46  1  0.116786  0.144065  0.156118  1
  O  O47  1  0.533953  0.095380  0.335760  1
  O  O48  1  0.636032  0.110521  0.715967  1
  O  O49  1  0.907698  0.736106  0.490154  1
  O  O50  1  0.558999  0.886075  0.426301  1
  O  O51  1  0.363968  0.889479  0.215967  1
  O  O52  1  0.441001  0.113925  0.926301  1
  O  O53  1  0.688624  0.420052  0.494132  1
  O  O54  1  0.474319  0.458525  0.396864  1
  O  O55  1  0.621931  0.312479  0.807763  1
  O  O56  1  0.984498  0.139119  0.548277  1
  O  O57  1  0.736106  0.092302  0.240154  1
  O  O58  1  0.855935  0.116786  0.406118  1
  O  O59  1  0.866078  0.600529  0.848937  1
  O  O60  1  0.785575  0.204646  0.096187  1
  O  O61  1  0.214425  0.795354  0.596187  1
  O  O62  1  0.092302  0.263894  0.990154  1
  O  O63  1  0.541475  0.474319  0.646864  1
  O  O64  1  0.304413  0.047038  0.490666  1
  O  O65  1  0.186451  0.724396  0.405399  1
  O  O66  1  0.883214  0.855935  0.656118  1
  O  O67  1  0.144065  0.883214  0.906118  1
  O  O68  1  0.889479  0.636032  0.965967  1
  O  O69  1  0.724396  0.813549  0.155399  1
  O  O70  1  0.139119  0.015502  0.298277  1
  O  O71  1  0.312479  0.378069  0.557763  1
  O  O72  1  0.600529  0.133922  0.598937  1
  O  O73  1  0.750863  0.412319  0.296538  1
  O  O74  1  0.458525  0.525681  0.146864  1
  O  O75  1  0.420052  0.311376  0.244132  1
  O  O76  1  0.412319  0.249137  0.046538  1
  O  O77  1  0.813549  0.275604  0.905399  1
  O  O78  1  0.904620  0.533953  0.585760  1
  O  O79  1  0.579948  0.688624  0.744132  1
  O  O80  1  0.110521  0.363968  0.465967  1
  O  O81  1  0.015502  0.860881  0.048277  1
  O  O82  1  0.860881  0.984498  0.798277  1
  O  O83  1  0.466047  0.904620  0.835760  1
  O  O84  1  0.687521  0.621931  0.057763  1
  O  O85  1  0.952962  0.304413  0.740666  1
  O  O86  1  0.095380  0.466047  0.085760  1
  O  O87  1  0.263894  0.907698  0.740154  1
