# generated using pymatgen
data_SrAl2B2O7
_symmetry_space_group_name_H-M   'P 1'
_cell_length_a   8.61226865
_cell_length_b   8.61226865
_cell_length_c   8.61226865
_cell_angle_alpha   33.35354974
_cell_angle_beta   33.35354974
_cell_angle_gamma   33.35354974
_symmetry_Int_Tables_number   1
_chemical_formula_structural   SrAl2B2O7
_chemical_formula_sum   'Sr1 Al2 B2 O7'
_cell_volume   171.93563468
_cell_formula_units_Z   1
loop_
 _symmetry_equiv_pos_site_id
 _symmetry_equiv_pos_as_xyz
  1  'x, y, z'
loop_
 _atom_site_type_symbol
 _atom_site_label
 _atom_site_symmetry_multiplicity
 _atom_site_fract_x
 _atom_site_fract_y
 _atom_site_fract_z
 _atom_site_occupancy
  Sr  Sr0  1  0.000000  0.000000  0.000000  1
  Al  Al1  1  0.569345  0.569345  0.569345  1
  Al  Al2  1  0.430655  0.430655  0.430655  1
  B  B3  1  0.735317  0.735317  0.735317  1
  B  B4  1  0.264683  0.264683  0.264683  1
  O  O5  1  0.324738  0.513171  0.963616  1
  O  O6  1  0.963616  0.324738  0.513171  1
  O  O7  1  0.513171  0.963616  0.324738  1
  O  O8  1  0.500000  0.500000  0.500000  1
  O  O9  1  0.036384  0.486829  0.675262  1
  O  O10  1  0.675262  0.036384  0.486829  1
  O  O11  1  0.486829  0.675262  0.036384  1
