# generated using pymatgen
data_NaTa3O8
_symmetry_space_group_name_H-M   'P 1'
_cell_length_a   7.31989559
_cell_length_b   7.31989559
_cell_length_c   7.31989559
_cell_angle_alpha   122.10677984
_cell_angle_beta   120.06989754
_cell_angle_gamma   88.13440943
_symmetry_Int_Tables_number   1
_chemical_formula_structural   NaTa3O8
_chemical_formula_sum   'Na2 Ta6 O16'
_cell_volume   272.50058214
_cell_formula_units_Z   2
loop_
 _symmetry_equiv_pos_site_id
 _symmetry_equiv_pos_as_xyz
  1  'x, y, z'
loop_
 _atom_site_type_symbol
 _atom_site_label
 _atom_site_symmetry_multiplicity
 _atom_site_fract_x
 _atom_site_fract_y
 _atom_site_fract_z
 _atom_site_occupancy
  Na  Na0  1  0.000000  0.750000  0.750000  1
  Na  Na1  1  0.000000  0.250000  0.250000  1
  Ta  Ta2  1  0.023878  0.762837  0.261041  1
  Ta  Ta3  1  0.976122  0.237163  0.738959  1
  Ta  Ta4  1  0.498203  0.737163  0.761041  1
  Ta  Ta5  1  0.501797  0.262837  0.238959  1
  Ta  Ta6  1  0.500000  0.750000  0.250000  1
  Ta  Ta7  1  0.500000  0.250000  0.750000  1
  O  O8  1  0.836588  0.438627  0.990535  1
  O  O9  1  0.163412  0.153948  0.602039  1
  O  O10  1  0.551909  0.061373  0.897961  1
  O  O11  1  0.448091  0.346052  0.509465  1
  O  O12  1  0.163412  0.561373  0.009465  1
  O  O13  1  0.836588  0.846052  0.397961  1
  O  O14  1  0.448091  0.938627  0.102039  1
  O  O15  1  0.551909  0.653948  0.490535  1
  O  O16  1  0.162831  0.173684  0.989148  1
  O  O17  1  0.837169  0.826316  0.010852  1
  O  O18  1  0.815464  0.326316  0.489148  1
  O  O19  1  0.184536  0.673684  0.510852  1
  O  O20  1  0.546442  0.430520  0.115922  1
  O  O21  1  0.453558  0.569480  0.884078  1
  O  O22  1  0.685402  0.069480  0.615922  1
  O  O23  1  0.314598  0.930520  0.384078  1
