# generated using pymatgen
data_NaPN2
_symmetry_space_group_name_H-M   'P 1'
_cell_length_a   4.99877356
_cell_length_b   4.99877356
_cell_length_c   4.99877356
_cell_angle_alpha   120.05256532
_cell_angle_beta   120.05256532
_cell_angle_gamma   89.90897828
_symmetry_Int_Tables_number   1
_chemical_formula_structural   NaPN2
_chemical_formula_sum   'Na2 P2 N4'
_cell_volume   88.25302619
_cell_formula_units_Z   2
loop_
 _symmetry_equiv_pos_site_id
 _symmetry_equiv_pos_as_xyz
  1  'x, y, z'
loop_
 _atom_site_type_symbol
 _atom_site_label
 _atom_site_symmetry_multiplicity
 _atom_site_fract_x
 _atom_site_fract_y
 _atom_site_fract_z
 _atom_site_occupancy
  Na  Na0  1  0.250000  0.750000  0.500000  1
  Na  Na1  1  0.500000  0.500000  0.000000  1
  P  P2  1  0.000000  0.000000  0.000000  1
  P  P3  1  0.750000  0.250000  0.500000  1
  N  N4  1  0.750947  0.625000  0.625947  1
  N  N5  1  0.375000  0.000947  0.125947  1
  N  N6  1  0.999053  0.125000  0.374053  1
  N  N7  1  0.875000  0.249053  0.874053  1
