# generated using pymatgen
data_Si3Os2
_symmetry_space_group_name_H-M   'P 1'
_cell_length_a   5.62463424
_cell_length_b   9.02389789
_cell_length_c   11.24109064
_cell_angle_alpha   90.00000000
_cell_angle_beta   90.00000000
_cell_angle_gamma   90.00000000
_symmetry_Int_Tables_number   1
_chemical_formula_structural   Si3Os2
_chemical_formula_sum   'Si24 Os16'
_cell_volume   570.55420223
_cell_formula_units_Z   8
loop_
 _symmetry_equiv_pos_site_id
 _symmetry_equiv_pos_as_xyz
  1  'x, y, z'
loop_
 _atom_site_type_symbol
 _atom_site_label
 _atom_site_symmetry_multiplicity
 _atom_site_fract_x
 _atom_site_fract_y
 _atom_site_fract_z
 _atom_site_occupancy
  Si  Si0  1  0.604190  0.107128  0.369735  1
  Si  Si1  1  0.104190  0.392872  0.130265  1
  Si  Si2  1  0.895810  0.107128  0.630265  1
  Si  Si3  1  0.395810  0.392872  0.869735  1
  Si  Si4  1  0.395810  0.892872  0.630265  1
  Si  Si5  1  0.895810  0.607128  0.869735  1
  Si  Si6  1  0.104190  0.892872  0.369735  1
  Si  Si7  1  0.604190  0.607128  0.130265  1
  Si  Si8  1  0.909369  0.063448  0.181501  1
  Si  Si9  1  0.409369  0.436552  0.318499  1
  Si  Si10  1  0.590631  0.063448  0.818499  1
  Si  Si11  1  0.090631  0.436552  0.681501  1
  Si  Si12  1  0.090631  0.936552  0.818499  1
  Si  Si13  1  0.590631  0.563448  0.681501  1
  Si  Si14  1  0.409369  0.936552  0.181501  1
  Si  Si15  1  0.909369  0.563448  0.318499  1
  Si  Si16  1  0.556314  0.705466  0.426198  1
  Si  Si17  1  0.056314  0.794534  0.073802  1
  Si  Si18  1  0.943686  0.705466  0.573802  1
  Si  Si19  1  0.443686  0.794534  0.926198  1
  Si  Si20  1  0.443686  0.294534  0.573802  1
  Si  Si21  1  0.943686  0.205466  0.926198  1
  Si  Si22  1  0.056314  0.294534  0.426198  1
  Si  Si23  1  0.556314  0.205466  0.073802  1
  Os  Os24  1  0.750000  0.923961  0.500000  1
  Os  Os25  1  0.250000  0.576039  0.000000  1
  Os  Os26  1  0.250000  0.076039  0.500000  1
  Os  Os27  1  0.750000  0.423961  0.000000  1
  Os  Os28  1  0.750000  0.462245  0.500000  1
  Os  Os29  1  0.250000  0.037755  0.000000  1
  Os  Os30  1  0.250000  0.537755  0.500000  1
  Os  Os31  1  0.750000  0.962245  0.000000  1
  Os  Os32  1  0.762461  0.313214  0.254889  1
  Os  Os33  1  0.262461  0.186786  0.245111  1
  Os  Os34  1  0.737539  0.313214  0.745111  1
  Os  Os35  1  0.237539  0.186786  0.754889  1
  Os  Os36  1  0.237539  0.686786  0.745111  1
  Os  Os37  1  0.737539  0.813214  0.754889  1
  Os  Os38  1  0.262461  0.686786  0.254889  1
  Os  Os39  1  0.762461  0.813214  0.245111  1
