# generated using pymatgen
data_CoMoO4
_symmetry_space_group_name_H-M   'P 1'
_cell_length_a   6.63341433
_cell_length_b   6.63341433
_cell_length_c   7.81613078
_cell_angle_alpha   72.65047333
_cell_angle_beta   107.34952667
_cell_angle_gamma   94.73153888
_symmetry_Int_Tables_number   1
_chemical_formula_structural   CoMoO4
_chemical_formula_sum   'Co4 Mo4 O16'
_cell_volume   313.33591801
_cell_formula_units_Z   4
loop_
 _symmetry_equiv_pos_site_id
 _symmetry_equiv_pos_as_xyz
  1  'x, y, z'
loop_
 _atom_site_type_symbol
 _atom_site_label
 _atom_site_symmetry_multiplicity
 _atom_site_fract_x
 _atom_site_fract_y
 _atom_site_fract_z
 _atom_site_occupancy
  Co  Co0  1  0.309533  0.690467  0.158876  1
  Co  Co1  1  0.690467  0.309533  0.841124  1
  Co  Co2  1  0.688507  0.688507  0.500000  1
  Co  Co3  1  0.311493  0.311493  0.500000  1
  Mo  Mo4  1  0.715687  0.284313  0.358411  1
  Mo  Mo5  1  0.284313  0.715687  0.641589  1
  Mo  Mo6  1  0.284626  0.284626  0.000000  1
  Mo  Mo7  1  0.715374  0.715374  0.000000  1
  O  O8  1  0.683701  0.008381  0.418561  1
  O  O9  1  0.647800  0.653439  0.762032  1
  O  O10  1  0.991246  0.680418  0.076375  1
  O  O11  1  0.651533  0.348467  0.085204  1
  O  O12  1  0.346561  0.352200  0.762032  1
  O  O13  1  0.350381  0.649619  0.440556  1
  O  O14  1  0.991619  0.316299  0.418561  1
  O  O15  1  0.352200  0.346561  0.237968  1
  O  O16  1  0.319582  0.008754  0.076375  1
  O  O17  1  0.649619  0.350381  0.559444  1
  O  O18  1  0.653439  0.647800  0.237968  1
  O  O19  1  0.348467  0.651533  0.914796  1
  O  O20  1  0.316299  0.991619  0.581439  1
  O  O21  1  0.680418  0.991246  0.923625  1
  O  O22  1  0.008381  0.683701  0.581439  1
  O  O23  1  0.008754  0.319582  0.923625  1
