# generated using pymatgen
data_Ca2P2O7
_symmetry_space_group_name_H-M   'P 1'
_cell_length_a   5.44217919
_cell_length_b   8.53109679
_cell_length_c   13.84893817
_cell_angle_alpha   90.00000000
_cell_angle_beta   111.09375232
_cell_angle_gamma   90.00000000
_symmetry_Int_Tables_number   1
_chemical_formula_structural   Ca2P2O7
_chemical_formula_sum   'Ca8 P8 O28'
_cell_volume   599.89116825
_cell_formula_units_Z   4
loop_
 _symmetry_equiv_pos_site_id
 _symmetry_equiv_pos_as_xyz
  1  'x, y, z'
loop_
 _atom_site_type_symbol
 _atom_site_label
 _atom_site_symmetry_multiplicity
 _atom_site_fract_x
 _atom_site_fract_y
 _atom_site_fract_z
 _atom_site_occupancy
  Ca  Ca0  1  0.163362  0.887280  0.909973  1
  Ca  Ca1  1  0.836638  0.387280  0.590027  1
  Ca  Ca2  1  0.836638  0.112720  0.090027  1
  Ca  Ca3  1  0.163362  0.612720  0.409973  1
  Ca  Ca4  1  0.498233  0.682570  0.742821  1
  Ca  Ca5  1  0.501767  0.182570  0.757179  1
  Ca  Ca6  1  0.501767  0.317430  0.257179  1
  Ca  Ca7  1  0.498233  0.817430  0.242821  1
  P  P8  1  0.037874  0.013675  0.318314  1
  P  P9  1  0.962126  0.513675  0.181686  1
  P  P10  1  0.962126  0.986325  0.681686  1
  P  P11  1  0.037874  0.486325  0.818314  1
  P  P12  1  0.265281  0.263738  0.472923  1
  P  P13  1  0.734719  0.763738  0.027077  1
  P  P14  1  0.734719  0.736262  0.527077  1
  P  P15  1  0.265281  0.236262  0.972923  1
  O  O16  1  0.972091  0.846098  0.338214  1
  O  O17  1  0.027909  0.346098  0.161786  1
  O  O18  1  0.027909  0.153902  0.661786  1
  O  O19  1  0.972091  0.653902  0.838214  1
  O  O20  1  0.780605  0.104751  0.266642  1
  O  O21  1  0.219395  0.604751  0.233358  1
  O  O22  1  0.219395  0.895249  0.733358  1
  O  O23  1  0.780605  0.395249  0.766642  1
  O  O24  1  0.213160  0.027164  0.252347  1
  O  O25  1  0.786840  0.527164  0.247653  1
  O  O26  1  0.786840  0.972836  0.747653  1
  O  O27  1  0.213160  0.472836  0.752347  1
  O  O28  1  0.448347  0.248438  0.585526  1
  O  O29  1  0.551653  0.748438  0.914474  1
  O  O30  1  0.551653  0.751562  0.414474  1
  O  O31  1  0.448347  0.251562  0.085526  1
  O  O32  1  0.203487  0.413837  0.931012  1
  O  O33  1  0.796513  0.913837  0.568988  1
  O  O34  1  0.796513  0.586163  0.068988  1
  O  O35  1  0.203487  0.086163  0.431012  1
  O  O36  1  0.004971  0.152467  0.956853  1
  O  O37  1  0.995029  0.652467  0.543147  1
  O  O38  1  0.995029  0.847533  0.043147  1
  O  O39  1  0.004971  0.347533  0.456853  1
  O  O40  1  0.413460  0.147104  0.912660  1
  O  O41  1  0.586540  0.647104  0.587340  1
  O  O42  1  0.586540  0.852896  0.087340  1
  O  O43  1  0.413460  0.352896  0.412660  1
