# generated using pymatgen
data_Na5SnP3
_symmetry_space_group_name_H-M   'P 1'
_cell_length_a   8.35073636
_cell_length_b   7.49300049
_cell_length_c   15.74370953
_cell_angle_alpha   90.00000000
_cell_angle_beta   121.67018645
_cell_angle_gamma   90.00000000
_symmetry_Int_Tables_number   1
_chemical_formula_structural   Na5SnP3
_chemical_formula_sum   'Na20 Sn4 P12'
_cell_volume   838.41732312
_cell_formula_units_Z   4
loop_
 _symmetry_equiv_pos_site_id
 _symmetry_equiv_pos_as_xyz
  1  'x, y, z'
loop_
 _atom_site_type_symbol
 _atom_site_label
 _atom_site_symmetry_multiplicity
 _atom_site_fract_x
 _atom_site_fract_y
 _atom_site_fract_z
 _atom_site_occupancy
  Na  Na0  1  0.092834  0.496252  0.759955  1
  Na  Na1  1  0.907166  0.996252  0.740045  1
  Na  Na2  1  0.907166  0.503748  0.240045  1
  Na  Na3  1  0.092834  0.003748  0.259955  1
  Na  Na4  1  0.411729  0.040083  0.588928  1
  Na  Na5  1  0.588271  0.540083  0.911072  1
  Na  Na6  1  0.588271  0.959917  0.411072  1
  Na  Na7  1  0.411729  0.459917  0.088928  1
  Na  Na8  1  0.252564  0.521970  0.587977  1
  Na  Na9  1  0.747436  0.021970  0.912023  1
  Na  Na10  1  0.747436  0.478030  0.412023  1
  Na  Na11  1  0.252564  0.978030  0.087977  1
  Na  Na12  1  0.995334  0.660457  0.917846  1
  Na  Na13  1  0.004666  0.160457  0.582154  1
  Na  Na14  1  0.004666  0.339543  0.082154  1
  Na  Na15  1  0.995334  0.839543  0.417846  1
  Na  Na16  1  0.315090  0.857729  0.742415  1
  Na  Na17  1  0.684910  0.357729  0.757585  1
  Na  Na18  1  0.684910  0.142271  0.257585  1
  Na  Na19  1  0.315090  0.642271  0.242415  1
  Sn  Sn20  1  0.661182  0.647164  0.589048  1
  Sn  Sn21  1  0.338818  0.147164  0.910952  1
  Sn  Sn22  1  0.338818  0.352836  0.410952  1
  Sn  Sn23  1  0.661182  0.852836  0.089048  1
  P  P24  1  0.334687  0.701975  0.428949  1
  P  P25  1  0.665313  0.201975  0.071051  1
  P  P26  1  0.665313  0.298025  0.571051  1
  P  P27  1  0.334687  0.798025  0.928949  1
  P  P28  1  0.938308  0.767516  0.582160  1
  P  P29  1  0.061692  0.267516  0.917840  1
  P  P30  1  0.061692  0.232484  0.417840  1
  P  P31  1  0.938308  0.732484  0.082160  1
  P  P32  1  0.638609  0.745158  0.736274  1
  P  P33  1  0.361391  0.245158  0.763726  1
  P  P34  1  0.361391  0.254842  0.263726  1
  P  P35  1  0.638609  0.754842  0.236274  1
