# generated using pymatgen
data_LiTb(PO3)4
_symmetry_space_group_name_H-M   'P 1'
_cell_length_a   8.98003738
_cell_length_b   8.98003738
_cell_length_c   9.73161931
_cell_angle_alpha   57.27133555
_cell_angle_beta   122.72866445
_cell_angle_gamma   133.18208305
_symmetry_Int_Tables_number   1
_chemical_formula_structural   LiTb(PO3)4
_chemical_formula_sum   'Li2 Tb2 P8 O24'
_cell_volume   462.38173257
_cell_formula_units_Z   2
loop_
 _symmetry_equiv_pos_site_id
 _symmetry_equiv_pos_as_xyz
  1  'x, y, z'
loop_
 _atom_site_type_symbol
 _atom_site_label
 _atom_site_symmetry_multiplicity
 _atom_site_fract_x
 _atom_site_fract_y
 _atom_site_fract_z
 _atom_site_occupancy
  Li  Li0  1  0.293715  0.293715  0.750000  1
  Li  Li1  1  0.706285  0.706285  0.250000  1
  Tb  Tb2  1  0.796314  0.796314  0.750000  1
  Tb  Tb3  1  0.203686  0.203686  0.250000  1
  P  P4  1  0.414423  0.688796  0.884148  1
  P  P5  1  0.004986  0.296325  0.805822  1
  P  P6  1  0.296325  0.004986  0.694178  1
  P  P7  1  0.995014  0.703675  0.194178  1
  P  P8  1  0.703675  0.995014  0.305822  1
  P  P9  1  0.585577  0.311204  0.115852  1
  P  P10  1  0.688796  0.414423  0.615852  1
  P  P11  1  0.311204  0.585577  0.384148  1
  O  O12  1  0.176180  0.399421  0.316604  1
  O  O13  1  0.437634  0.571159  0.071068  1
  O  O14  1  0.571159  0.437634  0.428932  1
  O  O15  1  0.562366  0.428841  0.928932  1
  O  O16  1  0.428841  0.562366  0.571068  1
  O  O17  1  0.825128  0.334739  0.652014  1
  O  O18  1  0.334739  0.825128  0.847986  1
  O  O19  1  0.174872  0.665261  0.347986  1
  O  O20  1  0.665261  0.174872  0.152014  1
  O  O21  1  0.217747  0.529504  0.767784  1
  O  O22  1  0.156272  0.011572  0.727723  1
  O  O23  1  0.399421  0.176180  0.183396  1
  O  O24  1  0.823820  0.600579  0.683396  1
  O  O25  1  0.600579  0.823820  0.816604  1
  O  O26  1  0.843728  0.988428  0.272277  1
  O  O27  1  0.988428  0.843728  0.227723  1
  O  O28  1  0.011572  0.156272  0.772277  1
  O  O29  1  0.782253  0.470496  0.232216  1
  O  O30  1  0.758707  0.009105  0.475413  1
  O  O31  1  0.009105  0.758707  0.024587  1
  O  O32  1  0.241293  0.990895  0.524587  1
  O  O33  1  0.990895  0.241293  0.975413  1
  O  O34  1  0.470496  0.782253  0.267784  1
  O  O35  1  0.529504  0.217747  0.732216  1
