# generated using pymatgen
data_Nb9PO25
_symmetry_space_group_name_H-M   'P 1'
_cell_length_a   11.42724172
_cell_length_b   11.42724172
_cell_length_c   11.42724172
_cell_angle_alpha   91.64959963
_cell_angle_beta   91.64959963
_cell_angle_gamma   160.46305712
_symmetry_Int_Tables_number   1
_chemical_formula_structural   Nb9PO25
_chemical_formula_sum   'Nb9 P1 O25'
_cell_volume   491.77528413
_cell_formula_units_Z   1
loop_
 _symmetry_equiv_pos_site_id
 _symmetry_equiv_pos_as_xyz
  1  'x, y, z'
loop_
 _atom_site_type_symbol
 _atom_site_label
 _atom_site_symmetry_multiplicity
 _atom_site_fract_x
 _atom_site_fract_y
 _atom_site_fract_z
 _atom_site_occupancy
  Nb  Nb0  1  0.891765  0.675422  0.558075  1
  Nb  Nb1  1  0.117348  0.333691  0.441925  1
  Nb  Nb2  1  0.666309  0.108235  0.783657  1
  Nb  Nb3  1  0.116987  0.789634  0.891951  1
  Nb  Nb4  1  0.774964  0.883013  0.672647  1
  Nb  Nb5  1  0.210366  0.102317  0.327353  1
  Nb  Nb6  1  0.897683  0.225036  0.108049  1
  Nb  Nb7  1  0.000000  0.000000  0.000000  1
  Nb  Nb8  1  0.324578  0.882652  0.216343  1
  P  P9  1  0.750000  0.250000  0.500000  1
  O  O10  1  0.345175  0.145333  0.510614  1
  O  O11  1  0.165439  0.654825  0.800158  1
  O  O12  1  0.854667  0.365282  0.199842  1
  O  O13  1  0.634718  0.834561  0.489386  1
  O  O14  1  0.480303  0.969532  0.385073  1
  O  O15  1  0.904770  0.519697  0.489229  1
  O  O16  1  0.030468  0.415541  0.510771  1
  O  O17  1  0.584459  0.095230  0.614927  1
  O  O18  1  0.266757  0.976733  0.267844  1
  O  O19  1  0.001087  0.733243  0.709976  1
  O  O20  1  0.500000  0.500000  0.000000  1
  O  O21  1  0.622712  0.257932  0.860925  1
  O  O22  1  0.238213  0.377288  0.635220  1
  O  O23  1  0.742068  0.602993  0.364780  1
  O  O24  1  0.397007  0.761787  0.139075  1
  O  O25  1  0.948602  0.117737  0.061897  1
  O  O26  1  0.113295  0.051398  0.169135  1
  O  O27  1  0.882263  0.944159  0.830865  1
  O  O28  1  0.055841  0.886705  0.938103  1
  O  O29  1  0.798989  0.193563  0.954899  1
  O  O30  1  0.155910  0.201011  0.394574  1
  O  O31  1  0.806437  0.761336  0.605426  1
  O  O32  1  0.238664  0.844090  0.045101  1
  O  O33  1  0.708889  0.998913  0.732156  1
  O  O34  1  0.023267  0.291111  0.290024  1
