# generated using pymatgen
data_V2Co(PO5)2
_symmetry_space_group_name_H-M   'P 1'
_cell_length_a   6.43574566
_cell_length_b   7.41528299
_cell_length_c   7.44588200
_cell_angle_alpha   90.00000000
_cell_angle_beta   90.19745559
_cell_angle_gamma   90.00000000
_symmetry_Int_Tables_number   1
_chemical_formula_structural   V2Co(PO5)2
_chemical_formula_sum   'V4 Co2 P4 O20'
_cell_volume   355.33678820
_cell_formula_units_Z   2
loop_
 _symmetry_equiv_pos_site_id
 _symmetry_equiv_pos_as_xyz
  1  'x, y, z'
loop_
 _atom_site_type_symbol
 _atom_site_label
 _atom_site_symmetry_multiplicity
 _atom_site_fract_x
 _atom_site_fract_y
 _atom_site_fract_z
 _atom_site_occupancy
  V  V0  1  0.257139  0.720613  0.833307  1
  V  V1  1  0.742861  0.279387  0.166693  1
  V  V2  1  0.257139  0.779387  0.333307  1
  V  V3  1  0.742861  0.220613  0.666693  1
  Co  Co4  1  0.000000  0.000000  0.000000  1
  Co  Co5  1  0.000000  0.500000  0.500000  1
  P  P6  1  0.251432  0.121092  0.627167  1
  P  P7  1  0.748568  0.621092  0.872833  1
  P  P8  1  0.251432  0.378908  0.127167  1
  P  P9  1  0.748568  0.878908  0.372833  1
  O  O10  1  0.939653  0.751045  0.878173  1
  O  O11  1  0.555964  0.757952  0.352792  1
  O  O12  1  0.740089  0.509101  0.045640  1
  O  O13  1  0.223384  0.506304  0.292447  1
  O  O14  1  0.259911  0.490899  0.954360  1
  O  O15  1  0.444036  0.242048  0.647208  1
  O  O16  1  0.740089  0.990899  0.545640  1
  O  O17  1  0.229666  0.662389  0.611110  1
  O  O18  1  0.555964  0.742048  0.852792  1
  O  O19  1  0.060347  0.248955  0.121827  1
  O  O20  1  0.770334  0.337611  0.388890  1
  O  O21  1  0.776616  0.006304  0.207553  1
  O  O22  1  0.229666  0.837611  0.111110  1
  O  O23  1  0.259911  0.009101  0.454360  1
  O  O24  1  0.444036  0.257952  0.147208  1
  O  O25  1  0.223384  0.993696  0.792447  1
  O  O26  1  0.776616  0.493696  0.707553  1
  O  O27  1  0.060347  0.251045  0.621827  1
  O  O28  1  0.770334  0.162389  0.888890  1
  O  O29  1  0.939653  0.748955  0.378173  1
