# generated using pymatgen
data_K3Cu5O4
_symmetry_space_group_name_H-M   'P 1'
_cell_length_a   9.54726250
_cell_length_b   7.32420790
_cell_length_c   14.07141246
_cell_angle_alpha   90.00000000
_cell_angle_beta   106.90567999
_cell_angle_gamma   90.00000000
_symmetry_Int_Tables_number   1
_chemical_formula_structural   K3Cu5O4
_chemical_formula_sum   'K12 Cu20 O16'
_cell_volume   941.43744862
_cell_formula_units_Z   4
loop_
 _symmetry_equiv_pos_site_id
 _symmetry_equiv_pos_as_xyz
  1  'x, y, z'
loop_
 _atom_site_type_symbol
 _atom_site_label
 _atom_site_symmetry_multiplicity
 _atom_site_fract_x
 _atom_site_fract_y
 _atom_site_fract_z
 _atom_site_occupancy
  K  K0  1  0.673105  0.418154  0.604237  1
  K  K1  1  0.326895  0.918154  0.895763  1
  K  K2  1  0.326895  0.581846  0.395763  1
  K  K3  1  0.673105  0.081846  0.104237  1
  K  K4  1  0.732366  0.725811  0.918084  1
  K  K5  1  0.267634  0.225811  0.581916  1
  K  K6  1  0.267634  0.274189  0.081916  1
  K  K7  1  0.732366  0.774189  0.418084  1
  K  K8  1  0.099082  0.837931  0.091541  1
  K  K9  1  0.900918  0.162069  0.908459  1
  K  K10  1  0.900918  0.337931  0.408459  1
  K  K11  1  0.099082  0.662069  0.591541  1
  Cu  Cu12  1  0.304685  0.050093  0.371844  1
  Cu  Cu13  1  0.695315  0.550093  0.128156  1
  Cu  Cu14  1  0.695315  0.949907  0.628156  1
  Cu  Cu15  1  0.304685  0.449907  0.871844  1
  Cu  Cu16  1  0.550971  0.305871  0.885349  1
  Cu  Cu17  1  0.449029  0.805871  0.614651  1
  Cu  Cu18  1  0.449029  0.694129  0.114651  1
  Cu  Cu19  1  0.062705  0.334443  0.744162  1
  Cu  Cu20  1  0.937295  0.834443  0.755838  1
  Cu  Cu21  1  0.937295  0.665557  0.255838  1
  Cu  Cu22  1  0.062705  0.165557  0.244162  1
  Cu  Cu23  1  0.434778  0.551779  0.734021  1
  Cu  Cu24  1  0.565222  0.051779  0.765979  1
  Cu  Cu25  1  0.565222  0.448221  0.265979  1
  Cu  Cu26  1  0.434778  0.948221  0.234021  1
  Cu  Cu27  1  0.063118  0.586595  0.883812  1
  Cu  Cu28  1  0.936882  0.086595  0.616188  1
  Cu  Cu29  1  0.936882  0.413405  0.116188  1
  Cu  Cu30  1  0.063118  0.913405  0.383812  1
  Cu  Cu31  1  0.550971  0.194129  0.385349  1
  O  O32  1  0.387141  0.567396  0.597808  1
  O  O33  1  0.516363  0.453563  0.128861  1
  O  O34  1  0.516363  0.046437  0.628861  1
  O  O35  1  0.483637  0.953563  0.371139  1
  O  O36  1  0.483637  0.546437  0.871139  1
  O  O37  1  0.130904  0.152362  0.382742  1
  O  O38  1  0.869096  0.652362  0.117258  1
  O  O39  1  0.869096  0.847638  0.617258  1
  O  O40  1  0.130904  0.347638  0.882742  1
  O  O41  1  0.003079  0.678770  0.391569  1
  O  O42  1  0.996921  0.178770  0.108431  1
  O  O43  1  0.996921  0.321230  0.608431  1
  O  O44  1  0.612859  0.067396  0.902192  1
  O  O45  1  0.612859  0.432604  0.402192  1
  O  O46  1  0.387141  0.932604  0.097808  1
  O  O47  1  0.003079  0.821230  0.891569  1
