# generated using pymatgen
data_K3P6N11
_symmetry_space_group_name_H-M   'P 1'
_cell_length_a   10.49469726
_cell_length_b   10.49469726
_cell_length_c   10.49469726
_cell_angle_alpha   90.00000000
_cell_angle_beta   90.00000000
_cell_angle_gamma   90.00000000
_symmetry_Int_Tables_number   1
_chemical_formula_structural   K3P6N11
_chemical_formula_sum   'K12 P24 N44'
_cell_volume   1155.87200435
_cell_formula_units_Z   4
loop_
 _symmetry_equiv_pos_site_id
 _symmetry_equiv_pos_as_xyz
  1  'x, y, z'
loop_
 _atom_site_type_symbol
 _atom_site_label
 _atom_site_symmetry_multiplicity
 _atom_site_fract_x
 _atom_site_fract_y
 _atom_site_fract_z
 _atom_site_occupancy
  K  K0  1  0.999438  0.999438  0.999438  1
  K  K1  1  0.249438  0.250562  0.749438  1
  K  K2  1  0.250562  0.749438  0.249438  1
  K  K3  1  0.749438  0.249438  0.250562  1
  K  K4  1  0.499438  0.500562  0.000562  1
  K  K5  1  0.500562  0.000562  0.499438  1
  K  K6  1  0.000562  0.499438  0.500562  1
  K  K7  1  0.750562  0.750562  0.750562  1
  K  K8  1  0.875000  0.125000  0.625000  1
  K  K9  1  0.125000  0.625000  0.875000  1
  K  K10  1  0.625000  0.875000  0.125000  1
  K  K11  1  0.375000  0.375000  0.375000  1
  P  P12  1  0.678102  0.448884  0.534886  1
  P  P13  1  0.178102  0.051116  0.465114  1
  P  P14  1  0.448884  0.534886  0.678102  1
  P  P15  1  0.551116  0.034886  0.821898  1
  P  P16  1  0.534886  0.678102  0.448884  1
  P  P17  1  0.965114  0.321898  0.948884  1
  P  P18  1  0.428102  0.784886  0.801116  1
  P  P19  1  0.928102  0.715114  0.198884  1
  P  P20  1  0.571898  0.284886  0.698884  1
  P  P21  1  0.715114  0.198884  0.928102  1
  P  P22  1  0.698884  0.571898  0.284886  1
  P  P23  1  0.198884  0.928102  0.715114  1
  P  P24  1  0.784886  0.801116  0.428102  1
  P  P25  1  0.801116  0.428102  0.784886  1
  P  P26  1  0.284886  0.698884  0.571898  1
  P  P27  1  0.215114  0.301116  0.071898  1
  P  P28  1  0.301116  0.071898  0.215114  1
  P  P29  1  0.465114  0.178102  0.051116  1
  P  P30  1  0.034886  0.821898  0.551116  1
  P  P31  1  0.948884  0.965114  0.321898  1
  P  P32  1  0.051116  0.465114  0.178102  1
  P  P33  1  0.821898  0.551116  0.034886  1
  P  P34  1  0.321898  0.948884  0.965114  1
  P  P35  1  0.071898  0.215114  0.301116  1
  N  N36  1  0.547450  0.547450  0.547450  1
  N  N37  1  0.797450  0.702550  0.297450  1
  N  N38  1  0.702550  0.297450  0.797450  1
  N  N39  1  0.297450  0.797450  0.702550  1
  N  N40  1  0.047450  0.952550  0.452550  1
  N  N41  1  0.952550  0.452550  0.047450  1
  N  N42  1  0.452550  0.047450  0.952550  1
  N  N43  1  0.202550  0.202550  0.202550  1
  N  N44  1  0.625000  0.303218  0.553218  1
  N  N45  1  0.696782  0.053218  0.875000  1
  N  N46  1  0.553218  0.625000  0.303218  1
  N  N47  1  0.946782  0.375000  0.803218  1
  N  N48  1  0.303218  0.553218  0.625000  1
  N  N49  1  0.446782  0.125000  0.196782  1
  N  N50  1  0.053218  0.875000  0.696782  1
  N  N51  1  0.803218  0.946782  0.375000  1
  N  N52  1  0.196782  0.446782  0.125000  1
  N  N53  1  0.875000  0.696782  0.053218  1
  N  N54  1  0.375000  0.803218  0.946782  1
  N  N55  1  0.279419  0.013756  0.354201  1
  N  N56  1  0.125000  0.196782  0.446782  1
  N  N57  1  0.236244  0.029419  0.604201  1
  N  N58  1  0.470581  0.395799  0.736244  1
  N  N59  1  0.529419  0.895799  0.763756  1
  N  N60  1  0.395799  0.736244  0.470581  1
  N  N61  1  0.104201  0.263756  0.970581  1
  N  N62  1  0.486244  0.645799  0.779419  1
  N  N63  1  0.986244  0.854201  0.220581  1
  N  N64  1  0.513756  0.145799  0.720581  1
  N  N65  1  0.854201  0.220581  0.986244  1
  N  N66  1  0.720581  0.513756  0.145799  1
  N  N67  1  0.220581  0.986244  0.854201  1
  N  N68  1  0.645799  0.779419  0.486244  1
  N  N69  1  0.779419  0.486244  0.645799  1
  N  N70  1  0.145799  0.720581  0.513756  1
  N  N71  1  0.354201  0.279419  0.013756  1
  N  N72  1  0.013756  0.354201  0.279419  1
  N  N73  1  0.263756  0.970581  0.104201  1
  N  N74  1  0.763756  0.529419  0.895799  1
  N  N75  1  0.029419  0.604201  0.236244  1
  N  N76  1  0.970581  0.104201  0.263756  1
  N  N77  1  0.895799  0.763756  0.529419  1
  N  N78  1  0.604201  0.236244  0.029419  1
  N  N79  1  0.736244  0.470581  0.395799  1
