# generated using pymatgen
data_Ba2SiTe4
_symmetry_space_group_name_H-M   'P 1'
_cell_length_a   7.65290558
_cell_length_b   7.68620986
_cell_length_c   9.73722563
_cell_angle_alpha   90.00000000
_cell_angle_beta   108.53741243
_cell_angle_gamma   90.00000000
_symmetry_Int_Tables_number   1
_chemical_formula_structural   Ba2SiTe4
_chemical_formula_sum   'Ba4 Si2 Te8'
_cell_volume   543.04450406
_cell_formula_units_Z   2
loop_
 _symmetry_equiv_pos_site_id
 _symmetry_equiv_pos_as_xyz
  1  'x, y, z'
loop_
 _atom_site_type_symbol
 _atom_site_label
 _atom_site_symmetry_multiplicity
 _atom_site_fract_x
 _atom_site_fract_y
 _atom_site_fract_z
 _atom_site_occupancy
  Ba  Ba0  1  0.229304  0.750000  0.928861  1
  Ba  Ba1  1  0.770696  0.250000  0.071139  1
  Ba  Ba2  1  0.276322  0.750000  0.448225  1
  Ba  Ba3  1  0.723678  0.250000  0.551775  1
  Si  Si4  1  0.710938  0.750000  0.294438  1
  Si  Si5  1  0.289062  0.250000  0.705562  1
  Te  Te6  1  0.494496  0.006620  0.233147  1
  Te  Te7  1  0.505504  0.506620  0.766853  1
  Te  Te8  1  0.124452  0.250000  0.435302  1
  Te  Te9  1  0.875548  0.750000  0.564698  1
  Te  Te10  1  0.095148  0.250000  0.874238  1
  Te  Te11  1  0.904852  0.750000  0.125762  1
  Te  Te12  1  0.494496  0.493380  0.233147  1
  Te  Te13  1  0.505504  0.993380  0.766853  1
