# generated using pymatgen
data_Y6WO12
_symmetry_space_group_name_H-M   'P 1'
_cell_length_a   6.50970908
_cell_length_b   6.50970908
_cell_length_c   6.50970908
_cell_angle_alpha   98.68717523
_cell_angle_beta   98.68717523
_cell_angle_gamma   98.68717523
_symmetry_Int_Tables_number   1
_chemical_formula_structural   Y6WO12
_chemical_formula_sum   'Y6 W1 O12'
_cell_volume   265.26386207
_cell_formula_units_Z   1
loop_
 _symmetry_equiv_pos_site_id
 _symmetry_equiv_pos_as_xyz
  1  'x, y, z'
loop_
 _atom_site_type_symbol
 _atom_site_label
 _atom_site_symmetry_multiplicity
 _atom_site_fract_x
 _atom_site_fract_y
 _atom_site_fract_z
 _atom_site_occupancy
  Y  Y0  1  0.610488  0.316024  0.143871  1
  Y  Y1  1  0.856129  0.389512  0.683976  1
  Y  Y2  1  0.683976  0.856129  0.389512  1
  Y  Y3  1  0.389512  0.683976  0.856129  1
  Y  Y4  1  0.143871  0.610488  0.316024  1
  Y  Y5  1  0.316024  0.143871  0.610488  1
  W  W6  1  0.000000  0.000000  0.000000  1
  O  O7  1  0.591547  0.177099  0.431287  1
  O  O8  1  0.431287  0.591547  0.177099  1
  O  O9  1  0.177099  0.431287  0.591547  1
  O  O10  1  0.408453  0.822901  0.568713  1
  O  O11  1  0.568713  0.408453  0.822901  1
  O  O12  1  0.822901  0.568713  0.408453  1
  O  O13  1  0.704122  0.922757  0.034295  1
  O  O14  1  0.077243  0.965705  0.295878  1
  O  O15  1  0.965705  0.295878  0.077243  1
  O  O16  1  0.295878  0.077243  0.965705  1
  O  O17  1  0.922757  0.034295  0.704122  1
  O  O18  1  0.034295  0.704122  0.922757  1
