# generated using pymatgen
data_K2Se5
_symmetry_space_group_name_H-M   'P 1'
_cell_length_a   6.67338810
_cell_length_b   6.94830925
_cell_length_c   19.81257091
_cell_angle_alpha   90.00000000
_cell_angle_beta   90.00000000
_cell_angle_gamma   90.00000000
_symmetry_Int_Tables_number   1
_chemical_formula_structural   K2Se5
_chemical_formula_sum   'K8 Se20'
_cell_volume   918.68442999
_cell_formula_units_Z   4
loop_
 _symmetry_equiv_pos_site_id
 _symmetry_equiv_pos_as_xyz
  1  'x, y, z'
loop_
 _atom_site_type_symbol
 _atom_site_label
 _atom_site_symmetry_multiplicity
 _atom_site_fract_x
 _atom_site_fract_y
 _atom_site_fract_z
 _atom_site_occupancy
  K  K0  1  0.851772  0.067860  0.506994  1
  K  K1  1  0.351772  0.432140  0.493006  1
  K  K2  1  0.148228  0.567860  0.993006  1
  K  K3  1  0.648228  0.932140  0.006994  1
  K  K4  1  0.087157  0.824293  0.318659  1
  K  K5  1  0.587157  0.675707  0.681341  1
  K  K6  1  0.912843  0.324293  0.181341  1
  K  K7  1  0.412843  0.175707  0.818659  1
  Se  Se8  1  0.465210  0.727591  0.191597  1
  Se  Se9  1  0.965210  0.772409  0.808403  1
  Se  Se10  1  0.534790  0.227591  0.308403  1
  Se  Se11  1  0.034790  0.272409  0.691597  1
  Se  Se12  1  0.241443  0.932052  0.129300  1
  Se  Se13  1  0.741443  0.567948  0.870700  1
  Se  Se14  1  0.758557  0.432052  0.370700  1
  Se  Se15  1  0.258557  0.067948  0.629300  1
  Se  Se16  1  0.903407  0.834138  0.156409  1
  Se  Se17  1  0.403407  0.665862  0.843591  1
  Se  Se18  1  0.096593  0.334138  0.343591  1
  Se  Se19  1  0.596593  0.165862  0.656409  1
  Se  Se20  1  0.065988  0.583649  0.637354  1
  Se  Se21  1  0.565988  0.916351  0.362646  1
  Se  Se22  1  0.934012  0.083649  0.862646  1
  Se  Se23  1  0.434012  0.416351  0.137354  1
  Se  Se24  1  0.879055  0.573395  0.536151  1
  Se  Se25  1  0.379055  0.926605  0.463849  1
  Se  Se26  1  0.120945  0.073395  0.963849  1
  Se  Se27  1  0.620945  0.426605  0.036151  1
