# generated using pymatgen
data_Sn2S3
_symmetry_space_group_name_H-M   'P 1'
_cell_length_a   3.80154931
_cell_length_b   9.27176787
_cell_length_c   14.43049431
_cell_angle_alpha   90.00000000
_cell_angle_beta   90.00000000
_cell_angle_gamma   90.00000000
_symmetry_Int_Tables_number   1
_chemical_formula_structural   Sn2S3
_chemical_formula_sum   'Sn8 S12'
_cell_volume   508.63282705
_cell_formula_units_Z   4
loop_
 _symmetry_equiv_pos_site_id
 _symmetry_equiv_pos_as_xyz
  1  'x, y, z'
loop_
 _atom_site_type_symbol
 _atom_site_label
 _atom_site_symmetry_multiplicity
 _atom_site_fract_x
 _atom_site_fract_y
 _atom_site_fract_z
 _atom_site_occupancy
  Sn  Sn0  1  0.750000  0.840264  0.950096  1
  Sn  Sn1  1  0.250000  0.159736  0.049904  1
  Sn  Sn2  1  0.750000  0.340264  0.549904  1
  Sn  Sn3  1  0.250000  0.659736  0.450096  1
  Sn  Sn4  1  0.750000  0.468516  0.162940  1
  Sn  Sn5  1  0.250000  0.531484  0.837060  1
  Sn  Sn6  1  0.750000  0.968516  0.337060  1
  Sn  Sn7  1  0.250000  0.031484  0.662940  1
  S  S8  1  0.750000  0.982129  0.105090  1
  S  S9  1  0.250000  0.017871  0.894910  1
  S  S10  1  0.750000  0.482129  0.394910  1
  S  S11  1  0.250000  0.517871  0.605090  1
  S  S12  1  0.750000  0.331478  0.995013  1
  S  S13  1  0.250000  0.668522  0.004987  1
  S  S14  1  0.750000  0.831478  0.504987  1
  S  S15  1  0.250000  0.168522  0.495013  1
  S  S16  1  0.750000  0.719698  0.792432  1
  S  S17  1  0.250000  0.280302  0.207568  1
  S  S18  1  0.750000  0.219698  0.707568  1
  S  S19  1  0.250000  0.780302  0.292432  1
