# generated using pymatgen
data_K2V(PO4)2
_symmetry_space_group_name_H-M   'P 1'
_cell_length_a   8.42097021
_cell_length_b   8.42097021
_cell_length_c   5.53662208
_cell_angle_alpha   90.00000000
_cell_angle_beta   90.00000000
_cell_angle_gamma   90.00000000
_symmetry_Int_Tables_number   1
_chemical_formula_structural   K2V(PO4)2
_chemical_formula_sum   'K4 V2 P4 O16'
_cell_volume   392.61703804
_cell_formula_units_Z   2
loop_
 _symmetry_equiv_pos_site_id
 _symmetry_equiv_pos_as_xyz
  1  'x, y, z'
loop_
 _atom_site_type_symbol
 _atom_site_label
 _atom_site_symmetry_multiplicity
 _atom_site_fract_x
 _atom_site_fract_y
 _atom_site_fract_z
 _atom_site_occupancy
  K  K0  1  0.671679  0.828321  0.627963  1
  K  K1  1  0.828321  0.328321  0.627963  1
  K  K2  1  0.171679  0.671679  0.627963  1
  K  K3  1  0.328321  0.171679  0.627963  1
  V  V4  1  0.500000  0.500000  0.102190  1
  V  V5  1  0.000000  0.000000  0.102190  1
  P  P6  1  0.871843  0.628157  0.114441  1
  P  P7  1  0.628157  0.128157  0.114441  1
  P  P8  1  0.371843  0.871843  0.114441  1
  P  P9  1  0.128157  0.371843  0.114441  1
  O  O10  1  0.500000  0.000000  0.005036  1
  O  O11  1  0.000000  0.500000  0.005036  1
  O  O12  1  0.214840  0.924435  0.993909  1
  O  O13  1  0.785160  0.075565  0.993909  1
  O  O14  1  0.075565  0.214840  0.993909  1
  O  O15  1  0.924435  0.785160  0.993909  1
  O  O16  1  0.575565  0.285160  0.993909  1
  O  O17  1  0.285160  0.424435  0.993909  1
  O  O18  1  0.714840  0.575565  0.993909  1
  O  O19  1  0.424435  0.714840  0.993909  1
  O  O20  1  0.500000  0.500000  0.397156  1
  O  O21  1  0.000000  0.000000  0.397156  1
  O  O22  1  0.126677  0.373323  0.385437  1
  O  O23  1  0.373323  0.873323  0.385437  1
  O  O24  1  0.626677  0.126677  0.385437  1
  O  O25  1  0.873323  0.626677  0.385437  1
