# generated using pymatgen
data_BaTeMo2O9
_symmetry_space_group_name_H-M   'P 1'
_cell_length_a   5.70228442
_cell_length_b   7.58706967
_cell_length_c   9.00990658
_cell_angle_alpha   90.00000000
_cell_angle_beta   90.44591010
_cell_angle_gamma   90.00000000
_symmetry_Int_Tables_number   1
_chemical_formula_structural   BaTeMo2O9
_chemical_formula_sum   'Ba2 Te2 Mo4 O18'
_cell_volume   389.78945207
_cell_formula_units_Z   2
loop_
 _symmetry_equiv_pos_site_id
 _symmetry_equiv_pos_as_xyz
  1  'x, y, z'
loop_
 _atom_site_type_symbol
 _atom_site_label
 _atom_site_symmetry_multiplicity
 _atom_site_fract_x
 _atom_site_fract_y
 _atom_site_fract_z
 _atom_site_occupancy
  Ba  Ba0  1  0.279143  0.753033  0.065511  1
  Ba  Ba1  1  0.720857  0.253033  0.934489  1
  Te  Te2  1  0.609607  0.985731  0.417350  1
  Te  Te3  1  0.390393  0.485731  0.582650  1
  Mo  Mo4  1  0.783546  0.548968  0.325122  1
  Mo  Mo5  1  0.216454  0.048968  0.674878  1
  Mo  Mo6  1  0.222943  0.229565  0.232521  1
  Mo  Mo7  1  0.777057  0.729565  0.767479  1
  O  O8  1  0.711170  0.524496  0.134086  1
  O  O9  1  0.288830  0.024496  0.865914  1
  O  O10  1  0.006420  0.708909  0.323990  1
  O  O11  1  0.993580  0.208909  0.676010  1
  O  O12  1  0.975663  0.349696  0.356849  1
  O  O13  1  0.024337  0.849696  0.643151  1
  O  O14  1  0.237068  0.384419  0.085993  1
  O  O15  1  0.762932  0.884419  0.914007  1
  O  O16  1  0.712722  0.568608  0.558899  1
  O  O17  1  0.287278  0.068608  0.441101  1
  O  O18  1  0.465946  0.264911  0.670869  1
  O  O19  1  0.534054  0.764911  0.329131  1
  O  O20  1  0.458359  0.404522  0.375729  1
  O  O21  1  0.541641  0.904522  0.624271  1
  O  O22  1  0.498901  0.602501  0.802650  1
  O  O23  1  0.501099  0.102501  0.197350  1
  O  O24  1  0.979589  0.574599  0.839946  1
  O  O25  1  0.020411  0.074599  0.160054  1
