# generated using pymatgen
data_K2B4O7
_symmetry_space_group_name_H-M   'P 1'
_cell_length_a   6.56693983
_cell_length_b   9.79715390
_cell_length_c   10.54912211
_cell_angle_alpha   89.18969345
_cell_angle_beta   102.62829309
_cell_angle_gamma   100.99382473
_symmetry_Int_Tables_number   1
_chemical_formula_structural   K2B4O7
_chemical_formula_sum   'K8 B16 O28'
_cell_volume   649.86035345
_cell_formula_units_Z   4
loop_
 _symmetry_equiv_pos_site_id
 _symmetry_equiv_pos_as_xyz
  1  'x, y, z'
loop_
 _atom_site_type_symbol
 _atom_site_label
 _atom_site_symmetry_multiplicity
 _atom_site_fract_x
 _atom_site_fract_y
 _atom_site_fract_z
 _atom_site_occupancy
  K  K0  1  0.758210  0.003531  0.591612  1
  K  K1  1  0.241790  0.996469  0.408388  1
  K  K2  1  0.213350  0.625336  0.501206  1
  K  K3  1  0.786650  0.374664  0.498794  1
  K  K4  1  0.664324  0.481378  0.875630  1
  K  K5  1  0.335676  0.518622  0.124370  1
  K  K6  1  0.641063  0.876996  0.960832  1
  K  K7  1  0.358937  0.123004  0.039168  1
  B  B8  1  0.674652  0.704589  0.455984  1
  B  B9  1  0.325348  0.295411  0.544016  1
  B  B10  1  0.134607  0.805316  0.158053  1
  B  B11  1  0.865393  0.194684  0.841947  1
  B  B12  1  0.127955  0.555302  0.809099  1
  B  B13  1  0.872045  0.444698  0.190901  1
  B  B14  1  0.195282  0.909977  0.732451  1
  B  B15  1  0.804718  0.090023  0.267549  1
  B  B16  1  0.549799  0.846097  0.269315  1
  B  B17  1  0.450201  0.153903  0.730685  1
  B  B18  1  0.890939  0.703981  0.685928  1
  B  B19  1  0.109061  0.296019  0.314072  1
  B  B20  1  0.063810  0.772858  0.905870  1
  B  B21  1  0.936190  0.227142  0.094130  1
  B  B22  1  0.812645  0.687333  0.252877  1
  B  B23  1  0.187355  0.312667  0.747123  1
  O  O24  1  0.859108  0.743109  0.811163  1
  O  O25  1  0.051255  0.816555  0.642025  1
  O  O26  1  0.311210  0.314414  0.412011  1
  O  O27  1  0.688790  0.685586  0.587989  1
  O  O28  1  0.021970  0.429570  0.302838  1
  O  O29  1  0.948745  0.183445  0.357975  1
  O  O30  1  0.322194  0.013322  0.680368  1
  O  O31  1  0.677806  0.986678  0.319632  1
  O  O32  1  0.652874  0.131125  0.814251  1
  O  O33  1  0.347126  0.868875  0.185749  1
  O  O34  1  0.348096  0.233375  0.803699  1
  O  O35  1  0.651904  0.766625  0.196301  1
  O  O36  1  0.232697  0.445332  0.826060  1
  O  O37  1  0.767303  0.554668  0.173940  1
  O  O38  1  0.482171  0.225361  0.606614  1
  O  O39  1  0.517829  0.774639  0.393386  1
  O  O40  1  0.195277  0.347005  0.608425  1
  O  O41  1  0.804723  0.652995  0.391575  1
  O  O42  1  0.963087  0.237715  0.740815  1
  O  O43  1  0.036913  0.762285  0.259185  1
  O  O44  1  0.177123  0.651577  0.911211  1
  O  O45  1  0.822877  0.348423  0.088789  1
  O  O46  1  0.206928  0.897123  0.864110  1
  O  O47  1  0.793072  0.102877  0.135890  1
  O  O48  1  0.018742  0.795166  0.032288  1
  O  O49  1  0.981258  0.204834  0.967712  1
  O  O50  1  0.978030  0.570430  0.697162  1
  O  O51  1  0.140892  0.256891  0.188837  1
