# generated using pymatgen
data_KNb(PO4)2
_symmetry_space_group_name_H-M   'P 1'
_cell_length_a   5.25871328
_cell_length_b   12.00639720
_cell_length_c   13.05666583
_cell_angle_alpha   90.00000000
_cell_angle_beta   112.51752122
_cell_angle_gamma   90.00000000
_symmetry_Int_Tables_number   1
_chemical_formula_structural   KNb(PO4)2
_chemical_formula_sum   'K4 Nb4 P8 O32'
_cell_volume   761.52611221
_cell_formula_units_Z   4
loop_
 _symmetry_equiv_pos_site_id
 _symmetry_equiv_pos_as_xyz
  1  'x, y, z'
loop_
 _atom_site_type_symbol
 _atom_site_label
 _atom_site_symmetry_multiplicity
 _atom_site_fract_x
 _atom_site_fract_y
 _atom_site_fract_z
 _atom_site_occupancy
  K  K0  1  0.184710  0.365928  0.947473  1
  K  K1  1  0.815290  0.634072  0.052527  1
  K  K2  1  0.184710  0.134072  0.447473  1
  K  K3  1  0.815290  0.865928  0.552527  1
  Nb  Nb4  1  0.411610  0.377349  0.668999  1
  Nb  Nb5  1  0.588390  0.877349  0.831001  1
  Nb  Nb6  1  0.588390  0.622651  0.331001  1
  Nb  Nb7  1  0.411610  0.122651  0.168999  1
  P  P8  1  0.884572  0.563842  0.634520  1
  P  P9  1  0.884572  0.936158  0.134520  1
  P  P10  1  0.115428  0.436158  0.365480  1
  P  P11  1  0.115428  0.063842  0.865480  1
  P  P12  1  0.895114  0.189054  0.651980  1
  P  P13  1  0.895114  0.310946  0.151980  1
  P  P14  1  0.104886  0.810946  0.348020  1
  P  P15  1  0.104886  0.689054  0.848020  1
  O  O16  1  0.167070  0.513479  0.652413  1
  O  O17  1  0.832930  0.013479  0.847587  1
  O  O18  1  0.832930  0.486521  0.347587  1
  O  O19  1  0.167070  0.986521  0.152413  1
  O  O20  1  0.944644  0.671823  0.714487  1
  O  O21  1  0.055356  0.171823  0.785513  1
  O  O22  1  0.055356  0.328177  0.285513  1
  O  O23  1  0.944644  0.828177  0.214487  1
  O  O24  1  0.074649  0.277022  0.624092  1
  O  O25  1  0.925351  0.777022  0.875908  1
  O  O26  1  0.925351  0.722978  0.375908  1
  O  O27  1  0.074649  0.222978  0.124092  1
  O  O28  1  0.864445  0.083259  0.588743  1
  O  O29  1  0.135555  0.583259  0.911257  1
  O  O30  1  0.135555  0.916741  0.411257  1
  O  O31  1  0.864445  0.416741  0.088743  1
  O  O32  1  0.728767  0.890584  0.020690  1
  O  O33  1  0.271233  0.390584  0.479310  1
  O  O34  1  0.271233  0.109416  0.979310  1
  O  O35  1  0.728767  0.609416  0.520690  1
  O  O36  1  0.724192  0.019398  0.176851  1
  O  O37  1  0.275808  0.519398  0.323149  1
  O  O38  1  0.275808  0.980602  0.823149  1
  O  O39  1  0.724192  0.480602  0.676851  1
  O  O40  1  0.482224  0.640785  0.187118  1
  O  O41  1  0.517776  0.140785  0.312882  1
  O  O42  1  0.517776  0.359215  0.812882  1
  O  O43  1  0.482224  0.859215  0.687118  1
  O  O44  1  0.618941  0.255959  0.138944  1
  O  O45  1  0.381059  0.755959  0.361056  1
  O  O46  1  0.381059  0.744041  0.861056  1
  O  O47  1  0.618941  0.244041  0.638944  1
