# generated using pymatgen
data_Ba4Zr3S10
_symmetry_space_group_name_H-M   'P 1'
_cell_length_a   18.31442634
_cell_length_b   18.31442634
_cell_length_c   18.31442634
_cell_angle_alpha   164.15441027
_cell_angle_beta   164.15441027
_cell_angle_gamma   22.48164555
_symmetry_Int_Tables_number   1
_chemical_formula_structural   Ba4Zr3S10
_chemical_formula_sum   'Ba4 Zr3 S10'
_cell_volume   457.89875072
_cell_formula_units_Z   1
loop_
 _symmetry_equiv_pos_site_id
 _symmetry_equiv_pos_as_xyz
  1  'x, y, z'
loop_
 _atom_site_type_symbol
 _atom_site_label
 _atom_site_symmetry_multiplicity
 _atom_site_fract_x
 _atom_site_fract_y
 _atom_site_fract_z
 _atom_site_occupancy
  Ba  Ba0  1  0.432636  0.432636  0.000000  1
  Ba  Ba1  1  0.567364  0.567364  0.000000  1
  Ba  Ba2  1  0.300281  0.300281  0.000000  1
  Ba  Ba3  1  0.699719  0.699719  0.000000  1
  Zr  Zr4  1  0.000000  0.000000  0.000000  1
  Zr  Zr5  1  0.856829  0.856829  0.000000  1
  Zr  Zr6  1  0.143171  0.143171  0.000000  1
  S  S7  1  0.360596  0.860596  0.500000  1
  S  S8  1  0.139404  0.639404  0.500000  1
  S  S9  1  0.639404  0.139404  0.500000  1
  S  S10  1  0.860596  0.360596  0.500000  1
  S  S11  1  0.500000  1.000000  0.500000  1
  S  S12  1  0.000000  0.500000  0.500000  1
  S  S13  1  0.213109  0.213109  0.000000  1
  S  S14  1  0.929503  0.929503  0.000000  1
  S  S15  1  0.070497  0.070497  0.000000  1
  S  S16  1  0.786891  0.786891  0.000000  1
