# generated using pymatgen
data_PrTl(MoO4)2
_symmetry_space_group_name_H-M   'P 1'
_cell_length_a   5.25958442
_cell_length_b   8.41995989
_cell_length_c   19.30954536
_cell_angle_alpha   90.00000000
_cell_angle_beta   90.00000000
_cell_angle_gamma   90.00000000
_symmetry_Int_Tables_number   1
_chemical_formula_structural   PrTl(MoO4)2
_chemical_formula_sum   'Pr4 Tl4 Mo8 O32'
_cell_volume   855.13267513
_cell_formula_units_Z   4
loop_
 _symmetry_equiv_pos_site_id
 _symmetry_equiv_pos_as_xyz
  1  'x, y, z'
loop_
 _atom_site_type_symbol
 _atom_site_label
 _atom_site_symmetry_multiplicity
 _atom_site_fract_x
 _atom_site_fract_y
 _atom_site_fract_z
 _atom_site_occupancy
  Pr  Pr0  1  0.500000  0.750000  0.505629  1
  Pr  Pr1  1  0.000000  0.250000  0.994371  1
  Pr  Pr2  1  0.500000  0.250000  0.494371  1
  Pr  Pr3  1  0.000000  0.750000  0.005629  1
  Tl  Tl4  1  0.000000  0.750000  0.771567  1
  Tl  Tl5  1  0.500000  0.250000  0.728433  1
  Tl  Tl6  1  0.000000  0.250000  0.228433  1
  Tl  Tl7  1  0.500000  0.750000  0.271567  1
  Mo  Mo8  1  0.480780  0.513177  0.898419  1
  Mo  Mo9  1  0.980780  0.486823  0.601581  1
  Mo  Mo10  1  0.019220  0.013177  0.601581  1
  Mo  Mo11  1  0.519220  0.986823  0.898419  1
  Mo  Mo12  1  0.519220  0.486823  0.101581  1
  Mo  Mo13  1  0.019220  0.513177  0.398419  1
  Mo  Mo14  1  0.980780  0.986823  0.398419  1
  Mo  Mo15  1  0.480780  0.013177  0.101581  1
  O  O16  1  0.602064  0.519864  0.813495  1
  O  O17  1  0.102064  0.480136  0.686505  1
  O  O18  1  0.897936  0.019864  0.686505  1
  O  O19  1  0.397936  0.980136  0.813495  1
  O  O20  1  0.397936  0.480136  0.186505  1
  O  O21  1  0.897936  0.519864  0.313495  1
  O  O22  1  0.102064  0.980136  0.313495  1
  O  O23  1  0.602064  0.019864  0.186505  1
  O  O24  1  0.747611  0.498861  0.961456  1
  O  O25  1  0.247611  0.501139  0.538544  1
  O  O26  1  0.752389  0.998861  0.538544  1
  O  O27  1  0.252389  0.001139  0.961456  1
  O  O28  1  0.252389  0.501139  0.038544  1
  O  O29  1  0.752389  0.498861  0.461456  1
  O  O30  1  0.247611  0.001139  0.461456  1
  O  O31  1  0.747611  0.998861  0.038544  1
  O  O32  1  0.279103  0.841663  0.097349  1
  O  O33  1  0.779103  0.158337  0.402651  1
  O  O34  1  0.220897  0.341663  0.402651  1
  O  O35  1  0.720897  0.658337  0.097349  1
  O  O36  1  0.720897  0.158337  0.902651  1
  O  O37  1  0.220897  0.841663  0.597349  1
  O  O38  1  0.779103  0.658337  0.597349  1
  O  O39  1  0.279103  0.341663  0.902651  1
  O  O40  1  0.265218  0.180344  0.091657  1
  O  O41  1  0.765218  0.819656  0.408343  1
  O  O42  1  0.234782  0.680344  0.408343  1
  O  O43  1  0.734782  0.319656  0.091657  1
  O  O44  1  0.734782  0.819656  0.908343  1
  O  O45  1  0.234782  0.180344  0.591657  1
  O  O46  1  0.765218  0.319656  0.591657  1
  O  O47  1  0.265218  0.680344  0.908343  1
