# generated using pymatgen
data_Sr3(AlN2)2
_symmetry_space_group_name_H-M   'P 1'
_cell_length_a   5.94601852
_cell_length_b   9.63888553
_cell_length_c   10.07321544
_cell_angle_alpha   90.00000000
_cell_angle_beta   90.00000000
_cell_angle_gamma   90.00000000
_symmetry_Int_Tables_number   1
_chemical_formula_structural   Sr3(AlN2)2
_chemical_formula_sum   'Sr12 Al8 N16'
_cell_volume   577.32611465
_cell_formula_units_Z   4
loop_
 _symmetry_equiv_pos_site_id
 _symmetry_equiv_pos_as_xyz
  1  'x, y, z'
loop_
 _atom_site_type_symbol
 _atom_site_label
 _atom_site_symmetry_multiplicity
 _atom_site_fract_x
 _atom_site_fract_y
 _atom_site_fract_z
 _atom_site_occupancy
  Sr  Sr0  1  0.250000  0.593779  0.500000  1
  Sr  Sr1  1  0.250000  0.906221  0.000000  1
  Sr  Sr2  1  0.750000  0.406221  0.500000  1
  Sr  Sr3  1  0.750000  0.093779  0.000000  1
  Sr  Sr4  1  0.384862  0.585883  0.154641  1
  Sr  Sr5  1  0.384862  0.914117  0.345359  1
  Sr  Sr6  1  0.115138  0.585883  0.845359  1
  Sr  Sr7  1  0.115138  0.914117  0.654641  1
  Sr  Sr8  1  0.615138  0.414117  0.845359  1
  Sr  Sr9  1  0.615138  0.085883  0.654641  1
  Sr  Sr10  1  0.884862  0.414117  0.154641  1
  Sr  Sr11  1  0.884862  0.085883  0.345359  1
  Al  Al12  1  0.830014  0.750000  0.250000  1
  Al  Al13  1  0.669986  0.750000  0.750000  1
  Al  Al14  1  0.169986  0.250000  0.750000  1
  Al  Al15  1  0.330014  0.250000  0.250000  1
  Al  Al16  1  0.250000  0.230977  0.000000  1
  Al  Al17  1  0.750000  0.730977  0.500000  1
  Al  Al18  1  0.750000  0.769023  0.000000  1
  Al  Al19  1  0.250000  0.269023  0.500000  1
  N  N20  1  0.479576  0.169514  0.402073  1
  N  N21  1  0.479576  0.330486  0.097927  1
  N  N22  1  0.020424  0.169514  0.597927  1
  N  N23  1  0.020424  0.330486  0.902073  1
  N  N24  1  0.520424  0.830486  0.597927  1
  N  N25  1  0.520424  0.669514  0.902073  1
  N  N26  1  0.979576  0.830486  0.402073  1
  N  N27  1  0.979576  0.669514  0.097927  1
  N  N28  1  0.129756  0.370670  0.354616  1
  N  N29  1  0.129756  0.129330  0.145384  1
  N  N30  1  0.370244  0.370670  0.645384  1
  N  N31  1  0.370244  0.129330  0.854616  1
  N  N32  1  0.870244  0.870670  0.854616  1
  N  N33  1  0.629756  0.629330  0.354616  1
  N  N34  1  0.629756  0.870670  0.145384  1
  N  N35  1  0.870244  0.629330  0.645384  1
