# generated using pymatgen
data_Sm3Si6N11
_symmetry_space_group_name_H-M   'P 1'
_cell_length_a   10.07025773
_cell_length_b   10.07025773
_cell_length_c   4.89353902
_cell_angle_alpha   90.00000000
_cell_angle_beta   90.00000000
_cell_angle_gamma   90.00000000
_symmetry_Int_Tables_number   1
_chemical_formula_structural   Sm3Si6N11
_chemical_formula_sum   'Sm6 Si12 N22'
_cell_volume   496.25423610
_cell_formula_units_Z   2
loop_
 _symmetry_equiv_pos_site_id
 _symmetry_equiv_pos_as_xyz
  1  'x, y, z'
loop_
 _atom_site_type_symbol
 _atom_site_label
 _atom_site_symmetry_multiplicity
 _atom_site_fract_x
 _atom_site_fract_y
 _atom_site_fract_z
 _atom_site_occupancy
  Sm  Sm0  1  0.500000  0.500000  0.981645  1
  Sm  Sm1  1  0.000000  0.000000  0.981645  1
  Sm  Sm2  1  0.817569  0.317569  0.995007  1
  Sm  Sm3  1  0.317569  0.182431  0.995007  1
  Sm  Sm4  1  0.682431  0.817569  0.995007  1
  Sm  Sm5  1  0.182431  0.682431  0.995007  1
  Si  Si6  1  0.381809  0.881809  0.044148  1
  Si  Si7  1  0.881809  0.618191  0.044148  1
  Si  Si8  1  0.118191  0.381809  0.044148  1
  Si  Si9  1  0.618191  0.118191  0.044148  1
  Si  Si10  1  0.708327  0.579838  0.532388  1
  Si  Si11  1  0.291673  0.420162  0.532388  1
  Si  Si12  1  0.420162  0.708327  0.532388  1
  Si  Si13  1  0.579838  0.291673  0.532388  1
  Si  Si14  1  0.920162  0.791673  0.532388  1
  Si  Si15  1  0.791673  0.079838  0.532388  1
  Si  Si16  1  0.208327  0.920162  0.532388  1
  Si  Si17  1  0.079838  0.208327  0.532388  1
  N  N18  1  0.500000  0.000000  0.071956  1
  N  N19  1  0.000000  0.500000  0.071956  1
  N  N20  1  0.346205  0.846205  0.697647  1
  N  N21  1  0.846205  0.653795  0.697647  1
  N  N22  1  0.153795  0.346205  0.697647  1
  N  N23  1  0.653795  0.153795  0.697647  1
  N  N24  1  0.726615  0.577800  0.178977  1
  N  N25  1  0.273385  0.422200  0.178977  1
  N  N26  1  0.422200  0.726615  0.178977  1
  N  N27  1  0.577800  0.273385  0.178977  1
  N  N28  1  0.922200  0.773385  0.178977  1
  N  N29  1  0.773385  0.077800  0.178977  1
  N  N30  1  0.226615  0.922200  0.178977  1
  N  N31  1  0.077800  0.226615  0.178977  1
  N  N32  1  0.579014  0.680343  0.648969  1
  N  N33  1  0.420986  0.319657  0.648969  1
  N  N34  1  0.319657  0.579014  0.648969  1
  N  N35  1  0.680343  0.420986  0.648969  1
  N  N36  1  0.180343  0.079014  0.648969  1
  N  N37  1  0.079014  0.819657  0.648969  1
  N  N38  1  0.920986  0.180343  0.648969  1
  N  N39  1  0.819657  0.920986  0.648969  1
