# generated using pymatgen
data_Y3Sb4Au3
_symmetry_space_group_name_H-M   'P 1'
_cell_length_a   8.62886985
_cell_length_b   8.62886985
_cell_length_c   8.62886985
_cell_angle_alpha   109.47122063
_cell_angle_beta   109.47122063
_cell_angle_gamma   109.47122063
_symmetry_Int_Tables_number   1
_chemical_formula_structural   Y3Sb4Au3
_chemical_formula_sum   'Y6 Sb8 Au6'
_cell_volume   494.58377458
_cell_formula_units_Z   2
loop_
 _symmetry_equiv_pos_site_id
 _symmetry_equiv_pos_as_xyz
  1  'x, y, z'
loop_
 _atom_site_type_symbol
 _atom_site_label
 _atom_site_symmetry_multiplicity
 _atom_site_fract_x
 _atom_site_fract_y
 _atom_site_fract_z
 _atom_site_occupancy
  Y  Y0  1  0.250000  0.625000  0.375000  1
  Y  Y1  1  0.375000  0.250000  0.625000  1
  Y  Y2  1  0.125000  0.750000  0.875000  1
  Y  Y3  1  0.875000  0.125000  0.750000  1
  Y  Y4  1  0.625000  0.375000  0.250000  1
  Y  Y5  1  0.750000  0.875000  0.125000  1
  Sb  Sb6  1  0.322422  0.500000  1.000000  1
  Sb  Sb7  1  0.500000  1.000000  0.322422  1
  Sb  Sb8  1  1.000000  0.322422  0.500000  1
  Sb  Sb9  1  0.500000  1.000000  0.822422  1
  Sb  Sb10  1  0.677578  0.677578  0.677578  1
  Sb  Sb11  1  1.000000  0.822422  0.500000  1
  Sb  Sb12  1  0.177578  0.177578  0.177578  1
  Sb  Sb13  1  0.822422  0.500000  0.000000  1
  Au  Au14  1  0.750000  0.375000  0.625000  1
  Au  Au15  1  0.375000  0.625000  0.750000  1
  Au  Au16  1  0.625000  0.750000  0.375000  1
  Au  Au17  1  0.875000  0.250000  0.125000  1
  Au  Au18  1  0.250000  0.125000  0.875000  1
  Au  Au19  1  0.125000  0.875000  0.250000  1
