# generated using pymatgen
data_NaLiZr(Si2O5)3
_symmetry_space_group_name_H-M   'P 1'
_cell_length_a   11.40345308
_cell_length_b   11.40345308
_cell_length_c   10.30604400
_cell_angle_alpha   90.00000000
_cell_angle_beta   90.00000000
_cell_angle_gamma   100.61971222
_symmetry_Int_Tables_number   1
_chemical_formula_structural   NaLiZr(Si2O5)3
_chemical_formula_sum   'Na4 Li4 Zr4 Si24 O60'
_cell_volume   1317.23031505
_cell_formula_units_Z   4
loop_
 _symmetry_equiv_pos_site_id
 _symmetry_equiv_pos_as_xyz
  1  'x, y, z'
loop_
 _atom_site_type_symbol
 _atom_site_label
 _atom_site_symmetry_multiplicity
 _atom_site_fract_x
 _atom_site_fract_y
 _atom_site_fract_z
 _atom_site_occupancy
  Na  Na0  1  0.034379  0.465621  0.250000  1
  Na  Na1  1  0.465621  0.034379  0.750000  1
  Na  Na2  1  0.965621  0.534379  0.750000  1
  Na  Na3  1  0.534379  0.965621  0.250000  1
  Li  Li4  1  0.246780  0.246780  1.000000  1
  Li  Li5  1  0.746780  0.746780  0.500000  1
  Li  Li6  1  0.753220  0.753220  1.000000  1
  Li  Li7  1  0.253220  0.253220  0.500000  1
  Zr  Zr8  1  0.338435  0.161565  0.250000  1
  Zr  Zr9  1  0.161565  0.338435  0.750000  1
  Zr  Zr10  1  0.661565  0.838435  0.750000  1
  Zr  Zr11  1  0.838435  0.661565  0.250000  1
  Si  Si12  1  0.020372  0.763822  0.518175  1
  Si  Si13  1  0.584595  0.199343  0.458993  1
  Si  Si14  1  0.300657  0.915405  0.041007  1
  Si  Si15  1  0.199343  0.584595  0.541007  1
  Si  Si16  1  0.963822  0.816823  0.810982  1
  Si  Si17  1  0.536178  0.683177  0.310982  1
  Si  Si18  1  0.816823  0.963822  0.189018  1
  Si  Si19  1  0.683177  0.536178  0.689018  1
  Si  Si20  1  0.036178  0.183177  0.189018  1
  Si  Si21  1  0.463822  0.316823  0.689018  1
  Si  Si22  1  0.183177  0.036178  0.810982  1
  Si  Si23  1  0.316823  0.463822  0.310982  1
  Si  Si24  1  0.915405  0.300657  0.958993  1
  Si  Si25  1  0.479628  0.736178  0.018175  1
  Si  Si26  1  0.800657  0.415405  0.458993  1
  Si  Si27  1  0.736178  0.479628  0.981825  1
  Si  Si28  1  0.979628  0.236178  0.481825  1
  Si  Si29  1  0.520372  0.263822  0.981825  1
  Si  Si30  1  0.236178  0.979628  0.518175  1
  Si  Si31  1  0.263822  0.520372  0.018175  1
  Si  Si32  1  0.084595  0.699343  0.041007  1
  Si  Si33  1  0.415405  0.800657  0.541007  1
  Si  Si34  1  0.699343  0.084595  0.958993  1
  Si  Si35  1  0.763822  0.020372  0.481825  1
  O  O36  1  0.406630  0.248218  0.077161  1
  O  O37  1  0.321174  0.678826  0.574128  1
  O  O38  1  0.178826  0.821174  0.074128  1
  O  O39  1  0.678826  0.321174  0.425872  1
  O  O40  1  0.943514  0.056486  0.182941  1
  O  O41  1  0.556486  0.443514  0.682941  1
  O  O42  1  0.056486  0.943514  0.817059  1
  O  O43  1  0.443514  0.556486  0.317059  1
  O  O44  1  0.892899  0.107101  0.501578  1
  O  O45  1  0.607101  0.392899  0.001578  1
  O  O46  1  0.107101  0.892899  0.498422  1
  O  O47  1  0.392899  0.607101  0.998422  1
  O  O48  1  0.003914  0.653943  0.166110  1
  O  O49  1  0.496086  0.846057  0.666110  1
  O  O50  1  0.653943  0.003914  0.833890  1
  O  O51  1  0.846057  0.496086  0.333890  1
  O  O52  1  0.996086  0.346057  0.833890  1
  O  O53  1  0.503914  0.153943  0.333890  1
  O  O54  1  0.346057  0.996086  0.166110  1
  O  O55  1  0.153943  0.503914  0.666110  1
  O  O56  1  0.002599  0.721010  0.915068  1
  O  O57  1  0.497401  0.778990  0.415068  1
  O  O58  1  0.721010  0.002599  0.084932  1
  O  O59  1  0.171466  0.168634  0.159977  1
  O  O60  1  0.997401  0.278990  0.084932  1
  O  O61  1  0.502599  0.221010  0.584932  1
  O  O62  1  0.278990  0.997401  0.915068  1
  O  O63  1  0.221010  0.502599  0.415068  1
  O  O64  1  0.828534  0.831366  0.840023  1
  O  O65  1  0.671466  0.668634  0.340023  1
  O  O66  1  0.831366  0.828534  0.159977  1
  O  O67  1  0.668634  0.671466  0.659977  1
  O  O68  1  0.155562  0.594232  0.993292  1
  O  O69  1  0.344438  0.905768  0.493292  1
  O  O70  1  0.594232  0.155562  0.006708  1
  O  O71  1  0.905768  0.344438  0.506708  1
  O  O72  1  0.844438  0.405768  0.006708  1
  O  O73  1  0.655562  0.094232  0.506708  1
  O  O74  1  0.405768  0.844438  0.993292  1
  O  O75  1  0.094232  0.655562  0.493292  1
  O  O76  1  0.248218  0.406630  0.922839  1
  O  O77  1  0.251782  0.093370  0.422839  1
  O  O78  1  0.821174  0.178826  0.925872  1
  O  O79  1  0.093370  0.251782  0.577161  1
  O  O80  1  0.751782  0.593370  0.077161  1
  O  O81  1  0.748218  0.906630  0.577161  1
  O  O82  1  0.593370  0.751782  0.922839  1
  O  O83  1  0.906630  0.748218  0.422839  1
  O  O84  1  0.250135  0.475146  0.170675  1
  O  O85  1  0.249865  0.024854  0.670675  1
  O  O86  1  0.475146  0.250135  0.829325  1
  O  O87  1  0.024854  0.249865  0.329325  1
  O  O88  1  0.749865  0.524854  0.829325  1
  O  O89  1  0.750135  0.975146  0.329325  1
  O  O90  1  0.524854  0.749865  0.170675  1
  O  O91  1  0.975146  0.750135  0.670675  1
  O  O92  1  0.331366  0.328534  0.340023  1
  O  O93  1  0.168634  0.171466  0.840023  1
  O  O94  1  0.328534  0.331366  0.659977  1
  O  O95  1  0.778990  0.497401  0.584932  1
