# generated using pymatgen
data_NaYSiO4
_symmetry_space_group_name_H-M   'P 1'
_cell_length_a   5.19102900
_cell_length_b   6.48984100
_cell_length_c   11.27346200
_cell_angle_alpha   90.00000000
_cell_angle_beta   90.00000000
_cell_angle_gamma   90.00000000
_symmetry_Int_Tables_number   1
_chemical_formula_structural   NaYSiO4
_chemical_formula_sum   'Na4 Y4 Si4 O16'
_cell_volume   379.79112962
_cell_formula_units_Z   4
loop_
 _symmetry_equiv_pos_site_id
 _symmetry_equiv_pos_as_xyz
  1  'x, y, z'
loop_
 _atom_site_type_symbol
 _atom_site_label
 _atom_site_symmetry_multiplicity
 _atom_site_fract_x
 _atom_site_fract_y
 _atom_site_fract_z
 _atom_site_occupancy
  Na  Na0  1  0.500000  0.500000  0.000000  1
  Na  Na1  1  0.500000  0.000000  0.000000  1
  Na  Na2  1  0.000000  0.000000  0.500000  1
  Na  Na3  1  0.000000  0.500000  0.500000  1
  Y  Y4  1  0.499001  0.250000  0.280438  1
  Y  Y5  1  0.500999  0.750000  0.719562  1
  Y  Y6  1  0.000999  0.250000  0.780438  1
  Y  Y7  1  0.999001  0.750000  0.219562  1
  Si  Si8  1  0.561158  0.750000  0.399936  1
  Si  Si9  1  0.938842  0.750000  0.899936  1
  Si  Si10  1  0.438842  0.250000  0.600064  1
  Si  Si11  1  0.061158  0.250000  0.100064  1
  O  O12  1  0.749026  0.250000  0.113433  1
  O  O13  1  0.250974  0.750000  0.886567  1
  O  O14  1  0.750974  0.250000  0.613433  1
  O  O15  1  0.249026  0.750000  0.386567  1
  O  O16  1  0.833764  0.750000  0.037071  1
  O  O17  1  0.166236  0.250000  0.962929  1
  O  O18  1  0.666236  0.750000  0.537071  1
  O  O19  1  0.333764  0.250000  0.462929  1
  O  O20  1  0.700875  0.552465  0.328536  1
  O  O21  1  0.299125  0.052465  0.671464  1
  O  O22  1  0.799125  0.552465  0.828536  1
  O  O23  1  0.200875  0.052465  0.171464  1
  O  O24  1  0.200875  0.447535  0.171464  1
  O  O25  1  0.799125  0.947535  0.828536  1
  O  O26  1  0.299125  0.447535  0.671464  1
  O  O27  1  0.700875  0.947535  0.328536  1
