# generated using pymatgen
data_HgWO4
_symmetry_space_group_name_H-M   'P 1'
_cell_length_a   6.58503197
_cell_length_b   6.58503197
_cell_length_c   5.27409950
_cell_angle_alpha   69.22287209
_cell_angle_beta   110.77712791
_cell_angle_gamma   123.66482063
_symmetry_Int_Tables_number   1
_chemical_formula_structural   HgWO4
_chemical_formula_sum   'Hg2 W2 O8'
_cell_volume   174.25484554
_cell_formula_units_Z   2
loop_
 _symmetry_equiv_pos_site_id
 _symmetry_equiv_pos_as_xyz
  1  'x, y, z'
loop_
 _atom_site_type_symbol
 _atom_site_label
 _atom_site_symmetry_multiplicity
 _atom_site_fract_x
 _atom_site_fract_y
 _atom_site_fract_z
 _atom_site_occupancy
  Hg  Hg0  1  0.000000  0.500000  0.000000  1
  Hg  Hg1  1  0.500000  0.000000  0.500000  1
  W  W2  1  0.819301  0.819301  0.250000  1
  W  W3  1  0.180699  0.180699  0.750000  1
  O  O4  1  0.476048  0.242379  0.975744  1
  O  O5  1  0.242379  0.476048  0.524256  1
  O  O6  1  0.523952  0.757621  0.024256  1
  O  O7  1  0.757621  0.523952  0.475744  1
  O  O8  1  0.003079  0.812455  0.027111  1
  O  O9  1  0.812455  0.003079  0.472889  1
  O  O10  1  0.996922  0.187545  0.972889  1
  O  O11  1  0.187545  0.996921  0.527111  1
