# generated using pymatgen
data_K4SnSe4
_symmetry_space_group_name_H-M   'P 1'
_cell_length_a   8.38856258
_cell_length_b   10.45552577
_cell_length_c   15.00481446
_cell_angle_alpha   90.00000000
_cell_angle_beta   90.00000000
_cell_angle_gamma   90.00000000
_symmetry_Int_Tables_number   1
_chemical_formula_structural   K4SnSe4
_chemical_formula_sum   'K16 Sn4 Se16'
_cell_volume   1316.02474446
_cell_formula_units_Z   4
loop_
 _symmetry_equiv_pos_site_id
 _symmetry_equiv_pos_as_xyz
  1  'x, y, z'
loop_
 _atom_site_type_symbol
 _atom_site_label
 _atom_site_symmetry_multiplicity
 _atom_site_fract_x
 _atom_site_fract_y
 _atom_site_fract_z
 _atom_site_occupancy
  K  K0  1  0.000000  0.000000  0.000000  1
  K  K1  1  0.500000  0.000000  0.500000  1
  K  K2  1  0.000000  0.500000  0.000000  1
  K  K3  1  0.500000  0.500000  0.500000  1
  K  K4  1  0.984240  0.750000  0.423904  1
  K  K5  1  0.484240  0.250000  0.076096  1
  K  K6  1  0.015760  0.250000  0.576096  1
  K  K7  1  0.515760  0.750000  0.923904  1
  K  K8  1  0.843206  0.049655  0.271629  1
  K  K9  1  0.343206  0.950345  0.228371  1
  K  K10  1  0.156794  0.549655  0.728371  1
  K  K11  1  0.656794  0.450345  0.771629  1
  K  K12  1  0.156794  0.950345  0.728371  1
  K  K13  1  0.656794  0.049655  0.771629  1
  K  K14  1  0.843206  0.450345  0.271629  1
  K  K15  1  0.343206  0.549655  0.228371  1
  Sn  Sn16  1  0.759956  0.750000  0.665818  1
  Sn  Sn17  1  0.240044  0.250000  0.334182  1
  Sn  Sn18  1  0.740044  0.750000  0.165818  1
  Sn  Sn19  1  0.259956  0.250000  0.834182  1
  Se  Se20  1  0.953493  0.250000  0.826910  1
  Se  Se21  1  0.546507  0.250000  0.326910  1
  Se  Se22  1  0.453493  0.750000  0.673090  1
  Se  Se23  1  0.046507  0.750000  0.173090  1
  Se  Se24  1  0.644203  0.550169  0.084725  1
  Se  Se25  1  0.144203  0.449831  0.415275  1
  Se  Se26  1  0.355797  0.050169  0.915275  1
  Se  Se27  1  0.855797  0.949831  0.584725  1
  Se  Se28  1  0.355797  0.449831  0.915275  1
  Se  Se29  1  0.855797  0.550169  0.584725  1
  Se  Se30  1  0.644203  0.949831  0.084725  1
  Se  Se31  1  0.144203  0.050169  0.415275  1
  Se  Se32  1  0.622403  0.750000  0.325191  1
  Se  Se33  1  0.122403  0.250000  0.174809  1
  Se  Se34  1  0.377597  0.250000  0.674809  1
  Se  Se35  1  0.877597  0.750000  0.825191  1
