# generated using pymatgen
data_Na2LiY(Si2O5)3
_symmetry_space_group_name_H-M   'P 1'
_cell_length_a   11.54710188
_cell_length_b   11.54710188
_cell_length_c   10.48056900
_cell_angle_alpha   90.00000000
_cell_angle_beta   90.00000000
_cell_angle_gamma   100.26441940
_symmetry_Int_Tables_number   1
_chemical_formula_structural   Na2LiY(Si2O5)3
_chemical_formula_sum   'Na8 Li4 Y4 Si24 O60'
_cell_volume   1375.06788270
_cell_formula_units_Z   4
loop_
 _symmetry_equiv_pos_site_id
 _symmetry_equiv_pos_as_xyz
  1  'x, y, z'
loop_
 _atom_site_type_symbol
 _atom_site_label
 _atom_site_symmetry_multiplicity
 _atom_site_fract_x
 _atom_site_fract_y
 _atom_site_fract_z
 _atom_site_occupancy
  Na  Na0  1  0.078495  0.921505  0.256427  1
  Na  Na1  1  0.421505  0.578495  0.756427  1
  Na  Na2  1  0.921505  0.078495  0.743573  1
  Na  Na3  1  0.578495  0.421505  0.243573  1
  Na  Na4  1  0.532353  0.967647  0.250000  1
  Na  Na5  1  0.967647  0.532353  0.750000  1
  Na  Na6  1  0.467647  0.032353  0.750000  1
  Na  Na7  1  0.032353  0.467647  0.250000  1
  Li  Li8  1  0.744778  0.744778  0.000000  1
  Li  Li9  1  0.244778  0.244778  0.500000  1
  Li  Li10  1  0.255222  0.255222  1.000000  1
  Li  Li11  1  0.755222  0.755222  0.500000  1
  Y  Y12  1  0.838892  0.661108  0.250000  1
  Y  Y13  1  0.661108  0.838892  0.750000  1
  Y  Y14  1  0.161108  0.338892  0.750000  1
  Y  Y15  1  0.338892  0.161108  0.250000  1
  Si  Si16  1  0.268268  0.519876  0.477053  1
  Si  Si17  1  0.030856  0.187427  0.314350  1
  Si  Si18  1  0.312573  0.469144  0.185650  1
  Si  Si19  1  0.187427  0.030856  0.685650  1
  Si  Si20  1  0.530856  0.687427  0.185650  1
  Si  Si21  1  0.969144  0.812573  0.685650  1
  Si  Si22  1  0.687427  0.530856  0.814350  1
  Si  Si23  1  0.812573  0.969144  0.314350  1
  Si  Si24  1  0.519876  0.268268  0.522947  1
  Si  Si25  1  0.980124  0.231732  0.022947  1
  Si  Si26  1  0.469144  0.312573  0.814350  1
  Si  Si27  1  0.231732  0.980124  0.977053  1
  Si  Si28  1  0.480124  0.731732  0.477053  1
  Si  Si29  1  0.019876  0.768268  0.977053  1
  Si  Si30  1  0.409739  0.801950  0.960127  1
  Si  Si31  1  0.768268  0.019876  0.022947  1
  Si  Si32  1  0.590261  0.198050  0.039873  1
  Si  Si33  1  0.909739  0.301950  0.539873  1
  Si  Si34  1  0.198050  0.590261  0.960127  1
  Si  Si35  1  0.301950  0.909739  0.460127  1
  Si  Si36  1  0.698050  0.090261  0.539873  1
  Si  Si37  1  0.801950  0.409739  0.039873  1
  Si  Si38  1  0.090261  0.698050  0.460127  1
  Si  Si39  1  0.731732  0.480124  0.522947  1
  O  O40  1  0.896216  0.328923  0.991537  1
  O  O41  1  0.059421  0.940579  0.683048  1
  O  O42  1  0.559421  0.440579  0.816952  1
  O  O43  1  0.940579  0.059421  0.316952  1
  O  O44  1  0.327078  0.672922  0.926743  1
  O  O45  1  0.827078  0.172922  0.573257  1
  O  O46  1  0.672922  0.327078  0.073257  1
  O  O47  1  0.172922  0.827078  0.426743  1
  O  O48  1  0.400067  0.599933  0.501164  1
  O  O49  1  0.099933  0.900067  0.001164  1
  O  O50  1  0.599933  0.400067  0.498836  1
  O  O51  1  0.900067  0.099933  0.998836  1
  O  O52  1  0.515019  0.154055  0.164080  1
  O  O53  1  0.984981  0.345945  0.664080  1
  O  O54  1  0.154055  0.515019  0.835920  1
  O  O55  1  0.345945  0.984981  0.335920  1
  O  O56  1  0.484981  0.845945  0.835920  1
  O  O57  1  0.015019  0.654055  0.335920  1
  O  O58  1  0.845945  0.484981  0.164080  1
  O  O59  1  0.654055  0.015019  0.664080  1
  O  O60  1  0.509836  0.217265  0.913919  1
  O  O61  1  0.990164  0.282735  0.413919  1
  O  O62  1  0.217265  0.509836  0.086081  1
  O  O63  1  0.282735  0.990164  0.586081  1
  O  O64  1  0.482154  0.249973  0.674580  1
  O  O65  1  0.009836  0.717265  0.586081  1
  O  O66  1  0.782735  0.490164  0.913919  1
  O  O67  1  0.717265  0.009836  0.413919  1
  O  O68  1  0.339155  0.335683  0.843675  1
  O  O69  1  0.160845  0.164317  0.343675  1
  O  O70  1  0.335683  0.339155  0.156325  1
  O  O71  1  0.164317  0.160845  0.656325  1
  O  O72  1  0.660845  0.664317  0.156325  1
  O  O73  1  0.839155  0.835683  0.656325  1
  O  O74  1  0.664317  0.660845  0.843675  1
  O  O75  1  0.835683  0.839155  0.343675  1
  O  O76  1  0.671077  0.103784  0.991537  1
  O  O77  1  0.828923  0.396216  0.491537  1
  O  O78  1  0.103784  0.671077  0.008463  1
  O  O79  1  0.396216  0.828923  0.508463  1
  O  O80  1  0.328923  0.896216  0.008463  1
  O  O81  1  0.171077  0.603784  0.508463  1
  O  O82  1  0.440579  0.559421  0.183048  1
  O  O83  1  0.603784  0.171077  0.491537  1
  O  O84  1  0.752892  0.908085  0.930747  1
  O  O85  1  0.747108  0.591915  0.430747  1
  O  O86  1  0.908085  0.752892  0.069253  1
  O  O87  1  0.591915  0.747108  0.569253  1
  O  O88  1  0.247108  0.091915  0.069253  1
  O  O89  1  0.252892  0.408085  0.569253  1
  O  O90  1  0.091915  0.247108  0.930747  1
  O  O91  1  0.408085  0.252892  0.430747  1
  O  O92  1  0.749973  0.982154  0.174580  1
  O  O93  1  0.750027  0.517846  0.674580  1
  O  O94  1  0.982154  0.749973  0.825420  1
  O  O95  1  0.517846  0.750027  0.325420  1
  O  O96  1  0.250027  0.017846  0.825420  1
  O  O97  1  0.249973  0.482154  0.325420  1
  O  O98  1  0.017846  0.250027  0.174580  1
  O  O99  1  0.490164  0.782735  0.086081  1
