# generated using pymatgen
data_Na3GaS3
_symmetry_space_group_name_H-M   'P 1'
_cell_length_a   7.24542792
_cell_length_b   7.00358773
_cell_length_c   14.66071480
_cell_angle_alpha   90.00000000
_cell_angle_beta   119.15500144
_cell_angle_gamma   90.00000000
_symmetry_Int_Tables_number   1
_chemical_formula_structural   Na3GaS3
_chemical_formula_sum   'Na12 Ga4 S12'
_cell_volume   649.68925725
_cell_formula_units_Z   4
loop_
 _symmetry_equiv_pos_site_id
 _symmetry_equiv_pos_as_xyz
  1  'x, y, z'
loop_
 _atom_site_type_symbol
 _atom_site_label
 _atom_site_symmetry_multiplicity
 _atom_site_fract_x
 _atom_site_fract_y
 _atom_site_fract_z
 _atom_site_occupancy
  Na  Na0  1  0.067294  0.536736  0.792569  1
  Na  Na1  1  0.932706  0.036736  0.707431  1
  Na  Na2  1  0.932706  0.463264  0.207431  1
  Na  Na3  1  0.067294  0.963264  0.292569  1
  Na  Na4  1  0.269164  0.497911  0.610538  1
  Na  Na5  1  0.730836  0.997911  0.889462  1
  Na  Na6  1  0.730836  0.502089  0.389462  1
  Na  Na7  1  0.269164  0.002089  0.110538  1
  Na  Na8  1  0.691626  0.498749  0.896102  1
  Na  Na9  1  0.308374  0.998749  0.603898  1
  Na  Na10  1  0.308374  0.501251  0.103898  1
  Na  Na11  1  0.691626  0.001251  0.396102  1
  Ga  Ga12  1  0.333020  0.357336  0.417787  1
  Ga  Ga13  1  0.666980  0.642664  0.582213  1
  Ga  Ga14  1  0.333020  0.142664  0.917787  1
  Ga  Ga15  1  0.666980  0.857336  0.082213  1
  S  S16  1  0.947317  0.742493  0.071717  1
  S  S17  1  0.947317  0.757507  0.571717  1
  S  S18  1  0.052683  0.242493  0.428283  1
  S  S19  1  0.052683  0.257507  0.928283  1
  S  S20  1  0.648343  0.306591  0.570700  1
  S  S21  1  0.351657  0.806591  0.929300  1
  S  S22  1  0.351657  0.693409  0.429300  1
  S  S23  1  0.648343  0.193409  0.070700  1
  S  S24  1  0.656321  0.744629  0.726071  1
  S  S25  1  0.343679  0.244629  0.773929  1
  S  S26  1  0.343679  0.255371  0.273929  1
  S  S27  1  0.656321  0.755371  0.226071  1
