# generated using pymatgen
data_BaPr2ZnS5
_symmetry_space_group_name_H-M   'P 1'
_cell_length_a   8.88369356
_cell_length_b   8.88369356
_cell_length_c   8.88369356
_cell_angle_alpha   126.76300039
_cell_angle_beta   126.76300039
_cell_angle_gamma   78.63767144
_symmetry_Int_Tables_number   1
_chemical_formula_structural   BaPr2ZnS5
_chemical_formula_sum   'Ba2 Pr4 Zn2 S10'
_cell_volume   435.53567768
_cell_formula_units_Z   2
loop_
 _symmetry_equiv_pos_site_id
 _symmetry_equiv_pos_as_xyz
  1  'x, y, z'
loop_
 _atom_site_type_symbol
 _atom_site_label
 _atom_site_symmetry_multiplicity
 _atom_site_fract_x
 _atom_site_fract_y
 _atom_site_fract_z
 _atom_site_occupancy
  Ba  Ba0  1  0.750000  0.750000  0.000000  1
  Ba  Ba1  1  0.250000  0.250000  0.000000  1
  Pr  Pr2  1  0.837767  0.662233  0.500000  1
  Pr  Pr3  1  0.662233  0.162233  0.824466  1
  Pr  Pr4  1  0.337767  0.837767  0.175534  1
  Pr  Pr5  1  0.162233  0.337767  0.500000  1
  Zn  Zn6  1  0.250000  0.750000  0.500000  1
  Zn  Zn7  1  0.750000  0.250000  0.500000  1
  S  S8  1  0.985504  0.485504  0.202647  1
  S  S9  1  0.717143  0.217143  0.202647  1
  S  S10  1  0.014496  0.514496  0.797353  1
  S  S11  1  0.514496  0.717143  0.500000  1
  S  S12  1  0.217143  0.014496  0.500000  1
  S  S13  1  0.485504  0.282857  0.500000  1
  S  S14  1  0.782857  0.985504  0.500000  1
  S  S15  1  0.282857  0.782857  0.797353  1
  S  S16  1  0.000000  0.000000  0.000000  1
  S  S17  1  0.500000  0.500000  0.000000  1
