# generated using pymatgen
data_SmAsO4
_symmetry_space_group_name_H-M   'P 1'
_cell_length_a   6.08529356
_cell_length_b   6.08529356
_cell_length_c   6.08529356
_cell_angle_alpha   106.35913195
_cell_angle_beta   106.35913195
_cell_angle_gamma   115.89260955
_symmetry_Int_Tables_number   1
_chemical_formula_structural   SmAsO4
_chemical_formula_sum   'Sm2 As2 O8'
_cell_volume   171.81724730
_cell_formula_units_Z   2
loop_
 _symmetry_equiv_pos_site_id
 _symmetry_equiv_pos_as_xyz
  1  'x, y, z'
loop_
 _atom_site_type_symbol
 _atom_site_label
 _atom_site_symmetry_multiplicity
 _atom_site_fract_x
 _atom_site_fract_y
 _atom_site_fract_z
 _atom_site_occupancy
  Sm  Sm0  1  1.000000  1.000000  0.000000  1
  Sm  Sm1  1  0.250000  0.750000  0.500000  1
  As  As2  1  0.750000  0.250000  0.500000  1
  As  As3  1  0.500000  0.500000  0.000000  1
  O  O4  1  0.852535  0.673045  0.179490  1
  O  O5  1  0.923045  0.243555  0.320510  1
  O  O6  1  0.923045  0.602535  0.679490  1
  O  O7  1  0.493555  0.673045  0.820510  1
  O  O8  1  0.326955  0.506445  0.179490  1
  O  O9  1  0.397465  0.076955  0.320510  1
  O  O10  1  0.756445  0.076955  0.679490  1
  O  O11  1  0.326955  0.147465  0.820510  1
