# generated using pymatgen
data_K2Si3SnO9
_symmetry_space_group_name_H-M   'P 1'
_cell_length_a   6.96851205
_cell_length_b   6.96851205
_cell_length_c   10.17068260
_cell_angle_alpha   90.00000000
_cell_angle_beta   90.00000000
_cell_angle_gamma   120.00000000
_symmetry_Int_Tables_number   1
_chemical_formula_structural   K2Si3SnO9
_chemical_formula_sum   'K4 Si6 Sn2 O18'
_cell_volume   427.72126589
_cell_formula_units_Z   2
loop_
 _symmetry_equiv_pos_site_id
 _symmetry_equiv_pos_as_xyz
  1  'x, y, z'
loop_
 _atom_site_type_symbol
 _atom_site_label
 _atom_site_symmetry_multiplicity
 _atom_site_fract_x
 _atom_site_fract_y
 _atom_site_fract_z
 _atom_site_occupancy
  K  K0  1  0.333333  0.666667  0.056753  1
  K  K1  1  0.666667  0.333333  0.556753  1
  K  K2  1  0.333333  0.666667  0.443247  1
  K  K3  1  0.666667  0.333333  0.943247  1
  Si  Si4  1  0.617153  0.745883  0.750000  1
  Si  Si5  1  0.871270  0.617153  0.250000  1
  Si  Si6  1  0.745883  0.128730  0.250000  1
  Si  Si7  1  0.254117  0.871270  0.750000  1
  Si  Si8  1  0.128730  0.382847  0.750000  1
  Si  Si9  1  0.382847  0.254117  0.250000  1
  Sn  Sn10  1  0.000000  0.000000  0.000000  1
  Sn  Sn11  1  0.000000  0.000000  0.500000  1
  O  O12  1  0.255537  0.236692  0.386437  1
  O  O13  1  0.018845  0.255537  0.886437  1
  O  O14  1  0.236692  0.981155  0.886437  1
  O  O15  1  0.763308  0.018845  0.386437  1
  O  O16  1  0.981155  0.744463  0.386437  1
  O  O17  1  0.744463  0.763308  0.886437  1
  O  O18  1  0.744463  0.763308  0.613563  1
  O  O19  1  0.981155  0.744463  0.113563  1
  O  O20  1  0.763308  0.018845  0.113563  1
  O  O21  1  0.236692  0.981155  0.613563  1
  O  O22  1  0.018845  0.255537  0.613563  1
  O  O23  1  0.255537  0.236692  0.113563  1
  O  O24  1  0.487450  0.086145  0.250000  1
  O  O25  1  0.401305  0.487450  0.750000  1
  O  O26  1  0.086145  0.598695  0.750000  1
  O  O27  1  0.913855  0.401305  0.250000  1
  O  O28  1  0.598695  0.512550  0.250000  1
  O  O29  1  0.512550  0.913855  0.750000  1
