# generated using pymatgen
data_Ba2Ge2Se5
_symmetry_space_group_name_H-M   'P 1'
_cell_length_a   9.24914434
_cell_length_b   9.40397984
_cell_length_c   12.84994087
_cell_angle_alpha   90.00000000
_cell_angle_beta   90.00000000
_cell_angle_gamma   90.00000000
_symmetry_Int_Tables_number   1
_chemical_formula_structural   Ba2Ge2Se5
_chemical_formula_sum   'Ba8 Ge8 Se20'
_cell_volume   1117.67201175
_cell_formula_units_Z   4
loop_
 _symmetry_equiv_pos_site_id
 _symmetry_equiv_pos_as_xyz
  1  'x, y, z'
loop_
 _atom_site_type_symbol
 _atom_site_label
 _atom_site_symmetry_multiplicity
 _atom_site_fract_x
 _atom_site_fract_y
 _atom_site_fract_z
 _atom_site_occupancy
  Ba  Ba0  1  0.495973  0.876538  0.178193  1
  Ba  Ba1  1  0.504027  0.376538  0.321807  1
  Ba  Ba2  1  0.995973  0.123462  0.821807  1
  Ba  Ba3  1  0.004027  0.623462  0.678193  1
  Ba  Ba4  1  0.504027  0.123462  0.821807  1
  Ba  Ba5  1  0.495973  0.623462  0.678193  1
  Ba  Ba6  1  0.004027  0.876538  0.178193  1
  Ba  Ba7  1  0.995973  0.376538  0.321807  1
  Ge  Ge8  1  0.750000  0.974281  0.536219  1
  Ge  Ge9  1  0.250000  0.025719  0.463781  1
  Ge  Ge10  1  0.750000  0.525719  0.036219  1
  Ge  Ge11  1  0.250000  0.474281  0.963781  1
  Ge  Ge12  1  0.250000  0.816627  0.903810  1
  Ge  Ge13  1  0.750000  0.316627  0.596190  1
  Ge  Ge14  1  0.750000  0.183373  0.096190  1
  Ge  Ge15  1  0.250000  0.683373  0.403810  1
  Se  Se16  1  0.250000  0.117850  0.282814  1
  Se  Se17  1  0.750000  0.617850  0.217186  1
  Se  Se18  1  0.750000  0.882150  0.717186  1
  Se  Se19  1  0.250000  0.382150  0.782814  1
  Se  Se20  1  0.750000  0.524540  0.493743  1
  Se  Se21  1  0.750000  0.975460  0.993743  1
  Se  Se22  1  0.250000  0.024540  0.006257  1
  Se  Se23  1  0.250000  0.475460  0.506257  1
  Se  Se24  1  0.250000  0.615743  0.224586  1
  Se  Se25  1  0.750000  0.115743  0.275414  1
  Se  Se26  1  0.750000  0.384257  0.775414  1
  Se  Se27  1  0.250000  0.884257  0.724586  1
  Se  Se28  1  0.042913  0.827462  0.441755  1
  Se  Se29  1  0.957087  0.327462  0.058245  1
  Se  Se30  1  0.542913  0.172538  0.558245  1
  Se  Se31  1  0.457087  0.672538  0.941755  1
  Se  Se32  1  0.957087  0.172538  0.558245  1
  Se  Se33  1  0.042913  0.672538  0.941755  1
  Se  Se34  1  0.457087  0.827462  0.441755  1
  Se  Se35  1  0.542913  0.327462  0.058245  1
