# generated using pymatgen
data_Li2WO4
_symmetry_space_group_name_H-M   'P 1'
_cell_length_a   5.82723900
_cell_length_b   5.82723900
_cell_length_c   5.17026874
_cell_angle_alpha   88.67057640
_cell_angle_beta   91.32942360
_cell_angle_gamma   118.32011436
_symmetry_Int_Tables_number   1
_chemical_formula_structural   Li2WO4
_chemical_formula_sum   'Li4 W2 O8'
_cell_volume   154.49564062
_cell_formula_units_Z   2
loop_
 _symmetry_equiv_pos_site_id
 _symmetry_equiv_pos_as_xyz
  1  'x, y, z'
loop_
 _atom_site_type_symbol
 _atom_site_label
 _atom_site_symmetry_multiplicity
 _atom_site_fract_x
 _atom_site_fract_y
 _atom_site_fract_z
 _atom_site_occupancy
  Li  Li0  1  0.157337  0.542532  0.728583  1
  Li  Li1  1  0.542532  0.157337  0.771417  1
  Li  Li2  1  0.842663  0.457468  0.271417  1
  Li  Li3  1  0.457468  0.842663  0.228583  1
  W  W4  1  0.837272  0.837272  0.750000  1
  W  W5  1  0.162728  0.162728  0.250000  1
  O  O6  1  0.482838  0.222927  0.136143  1
  O  O7  1  0.777073  0.517162  0.636143  1
  O  O8  1  0.207171  0.001558  0.571578  1
  O  O9  1  0.001558  0.207171  0.928422  1
  O  O10  1  0.792829  0.998442  0.428422  1
  O  O11  1  0.998442  0.792829  0.071578  1
  O  O12  1  0.517162  0.777073  0.863857  1
  O  O13  1  0.222927  0.482838  0.363857  1
