# generated using pymatgen
data_Ba2V2O7
_symmetry_space_group_name_H-M   'P 1'
_cell_length_a   7.49826833
_cell_length_b   7.51992228
_cell_length_c   13.77056370
_cell_angle_alpha   81.34343650
_cell_angle_beta   88.05789950
_cell_angle_gamma   89.46243526
_symmetry_Int_Tables_number   1
_chemical_formula_structural   Ba2V2O7
_chemical_formula_sum   'Ba8 V8 O28'
_cell_volume   767.17894499
_cell_formula_units_Z   4
loop_
 _symmetry_equiv_pos_site_id
 _symmetry_equiv_pos_as_xyz
  1  'x, y, z'
loop_
 _atom_site_type_symbol
 _atom_site_label
 _atom_site_symmetry_multiplicity
 _atom_site_fract_x
 _atom_site_fract_y
 _atom_site_fract_z
 _atom_site_occupancy
  Ba  Ba0  1  0.584289  0.333733  0.156955  1
  Ba  Ba1  1  0.415711  0.666267  0.843045  1
  Ba  Ba2  1  0.168012  0.717482  0.139860  1
  Ba  Ba3  1  0.831988  0.282518  0.860140  1
  Ba  Ba4  1  0.268221  0.268185  0.652339  1
  Ba  Ba5  1  0.731779  0.731815  0.347661  1
  Ba  Ba6  1  0.862237  0.871744  0.639744  1
  Ba  Ba7  1  0.137763  0.128256  0.360256  1
  V  V8  1  0.341972  0.191307  0.914501  1
  V  V9  1  0.658028  0.808693  0.085499  1
  V  V10  1  0.071314  0.199105  0.107050  1
  V  V11  1  0.928686  0.800895  0.892950  1
  V  V12  1  0.329877  0.806048  0.586984  1
  V  V13  1  0.670123  0.193952  0.413016  1
  V  V14  1  0.271782  0.602747  0.394089  1
  V  V15  1  0.728218  0.397253  0.605911  1
  O  O16  1  0.798802  0.662373  0.834206  1
  O  O17  1  0.201198  0.337627  0.165794  1
  O  O18  1  0.793842  0.916879  0.978408  1
  O  O19  1  0.206158  0.083121  0.021592  1
  O  O20  1  0.564227  0.957334  0.153644  1
  O  O21  1  0.435773  0.042666  0.846356  1
  O  O22  1  0.187302  0.986874  0.555210  1
  O  O23  1  0.812698  0.013126  0.444790  1
  O  O24  1  0.409908  0.569040  0.296037  1
  O  O25  1  0.590092  0.430960  0.703963  1
  O  O26  1  0.804491  0.596150  0.542865  1
  O  O27  1  0.195509  0.403850  0.457135  1
  O  O28  1  0.207416  0.649497  0.663179  1
  O  O29  1  0.792584  0.350503  0.336821  1
  O  O30  1  0.792749  0.663299  0.160160  1
  O  O31  1  0.207251  0.336701  0.839840  1
  O  O32  1  0.994955  0.031348  0.196453  1
  O  O33  1  0.005045  0.968652  0.803547  1
  O  O34  1  0.502072  0.125490  0.346565  1
  O  O35  1  0.497928  0.874510  0.653435  1
  O  O36  1  0.900459  0.262264  0.654527  1
  O  O37  1  0.099541  0.737736  0.345473  1
  O  O38  1  0.592884  0.279626  0.526190  1
  O  O39  1  0.407116  0.720374  0.473810  1
  O  O40  1  0.507337  0.323295  0.951427  1
  O  O41  1  0.492663  0.676705  0.048573  1
  O  O42  1  0.895278  0.311966  0.050583  1
  O  O43  1  0.104722  0.688034  0.949417  1
