# generated using pymatgen
data_KSi
_symmetry_space_group_name_H-M   'P 1'
_cell_length_a   12.69958236
_cell_length_b   12.69958236
_cell_length_c   12.69958236
_cell_angle_alpha   90.00000000
_cell_angle_beta   90.00000000
_cell_angle_gamma   90.00000000
_symmetry_Int_Tables_number   1
_chemical_formula_structural   KSi
_chemical_formula_sum   'K32 Si32'
_cell_volume   2048.18092318
_cell_formula_units_Z   32
loop_
 _symmetry_equiv_pos_site_id
 _symmetry_equiv_pos_as_xyz
  1  'x, y, z'
loop_
 _atom_site_type_symbol
 _atom_site_label
 _atom_site_symmetry_multiplicity
 _atom_site_fract_x
 _atom_site_fract_y
 _atom_site_fract_z
 _atom_site_occupancy
  K  K0  1  0.066380  0.337255  0.140065  1
  K  K1  1  0.837255  0.433620  0.359935  1
  K  K2  1  0.566380  0.640065  0.837255  1
  K  K3  1  0.433620  0.640065  0.162745  1
  K  K4  1  0.640065  0.837255  0.566380  1
  K  K5  1  0.359935  0.162745  0.566380  1
  K  K6  1  0.662745  0.859935  0.066380  1
  K  K7  1  0.662745  0.140065  0.933620  1
  K  K8  1  0.337255  0.859935  0.933620  1
  K  K9  1  0.140065  0.933620  0.662745  1
  K  K10  1  0.933620  0.337255  0.859935  1
  K  K11  1  0.933620  0.662745  0.140065  1
  K  K12  1  0.859935  0.066380  0.662745  1
  K  K13  1  0.066380  0.662745  0.859935  1
  K  K14  1  0.859935  0.933620  0.337255  1
  K  K15  1  0.140065  0.066380  0.337255  1
  K  K16  1  0.837255  0.566380  0.640065  1
  K  K17  1  0.359935  0.837255  0.433620  1
  K  K18  1  0.640065  0.162745  0.433620  1
  K  K19  1  0.566380  0.359935  0.162745  1
  K  K20  1  0.433620  0.359935  0.837255  1
  K  K21  1  0.162745  0.433620  0.640065  1
  K  K22  1  0.162745  0.566380  0.359935  1
  K  K23  1  0.337255  0.140065  0.066380  1
  K  K24  1  0.833730  0.833730  0.833730  1
  K  K25  1  0.666270  0.333730  0.666270  1
  K  K26  1  0.333730  0.666270  0.666270  1
  K  K27  1  0.666270  0.666270  0.333730  1
  K  K28  1  0.833730  0.166270  0.166270  1
  K  K29  1  0.166270  0.166270  0.833730  1
  K  K30  1  0.166270  0.833730  0.166270  1
  K  K31  1  0.333730  0.333730  0.333730  1
  Si  Si32  1  0.562280  0.926503  0.816959  1
  Si  Si33  1  0.562280  0.073497  0.183041  1
  Si  Si34  1  0.926503  0.816959  0.562280  1
  Si  Si35  1  0.073497  0.816959  0.437720  1
  Si  Si36  1  0.816959  0.562280  0.926503  1
  Si  Si37  1  0.183041  0.437720  0.926503  1
  Si  Si38  1  0.937720  0.683041  0.426503  1
  Si  Si39  1  0.937720  0.316959  0.573497  1
  Si  Si40  1  0.062280  0.683041  0.573497  1
  Si  Si41  1  0.316959  0.573497  0.937720  1
  Si  Si42  1  0.573497  0.062280  0.683041  1
  Si  Si43  1  0.573497  0.937720  0.316959  1
  Si  Si44  1  0.683041  0.426503  0.937720  1
  Si  Si45  1  0.426503  0.937720  0.683041  1
  Si  Si46  1  0.683041  0.573497  0.062280  1
  Si  Si47  1  0.067755  0.067755  0.067755  1
  Si  Si48  1  0.426503  0.062280  0.316959  1
  Si  Si49  1  0.183041  0.562280  0.073497  1
  Si  Si50  1  0.816959  0.437720  0.073497  1
  Si  Si51  1  0.926503  0.183041  0.437720  1
  Si  Si52  1  0.073497  0.183041  0.562280  1
  Si  Si53  1  0.437720  0.073497  0.816959  1
  Si  Si54  1  0.437720  0.926503  0.183041  1
  Si  Si55  1  0.062280  0.316959  0.426503  1
  Si  Si56  1  0.567755  0.567755  0.567755  1
  Si  Si57  1  0.932245  0.067755  0.932245  1
  Si  Si58  1  0.067755  0.932245  0.932245  1
  Si  Si59  1  0.932245  0.932245  0.067755  1
  Si  Si60  1  0.567755  0.432245  0.432245  1
  Si  Si61  1  0.432245  0.432245  0.567755  1
  Si  Si62  1  0.432245  0.567755  0.432245  1
  Si  Si63  1  0.316959  0.426503  0.062280  1
