# generated using pymatgen
data_Tm2SiO5
_symmetry_space_group_name_H-M   'P 1'
_cell_length_a   6.70129736
_cell_length_b   6.69300700
_cell_length_c   9.15750790
_cell_angle_alpha   90.00000000
_cell_angle_beta   101.51110684
_cell_angle_gamma   90.00000000
_symmetry_Int_Tables_number   1
_chemical_formula_structural   Tm2SiO5
_chemical_formula_sum   'Tm8 Si4 O20'
_cell_volume   402.46956164
_cell_formula_units_Z   4
loop_
 _symmetry_equiv_pos_site_id
 _symmetry_equiv_pos_as_xyz
  1  'x, y, z'
loop_
 _atom_site_type_symbol
 _atom_site_label
 _atom_site_symmetry_multiplicity
 _atom_site_fract_x
 _atom_site_fract_y
 _atom_site_fract_z
 _atom_site_occupancy
  Tm  Tm0  1  0.271597  0.118270  0.466069  1
  Tm  Tm1  1  0.228403  0.618270  0.533931  1
  Tm  Tm2  1  0.728403  0.881730  0.533931  1
  Tm  Tm3  1  0.771597  0.381730  0.466069  1
  Tm  Tm4  1  0.005362  0.641547  0.854188  1
  Tm  Tm5  1  0.494638  0.141547  0.145812  1
  Tm  Tm6  1  0.994638  0.358453  0.145812  1
  Tm  Tm7  1  0.505362  0.858453  0.854188  1
  Si  Si8  1  0.997322  0.096556  0.797423  1
  Si  Si9  1  0.502678  0.596556  0.202577  1
  Si  Si10  1  0.002678  0.903444  0.202577  1
  Si  Si11  1  0.497322  0.403444  0.797423  1
  O  O12  1  0.425921  0.877816  0.607249  1
  O  O13  1  0.074079  0.377816  0.392751  1
  O  O14  1  0.574079  0.122184  0.392751  1
  O  O15  1  0.925921  0.622184  0.607249  1
  O  O16  1  0.002363  0.295459  0.899923  1
  O  O17  1  0.497637  0.795459  0.100077  1
  O  O18  1  0.997637  0.704541  0.100077  1
  O  O19  1  0.502363  0.204541  0.899923  1
  O  O20  1  0.969449  0.145833  0.614962  1
  O  O21  1  0.530551  0.645833  0.385038  1
  O  O22  1  0.030551  0.854167  0.385038  1
  O  O23  1  0.469449  0.354167  0.614962  1
  O  O24  1  0.301430  0.561959  0.789502  1
  O  O25  1  0.198570  0.061959  0.210498  1
  O  O26  1  0.698570  0.438041  0.210498  1
  O  O27  1  0.801430  0.938041  0.789502  1
  O  O28  1  0.681886  0.563452  0.852378  1
  O  O29  1  0.818114  0.063452  0.147622  1
  O  O30  1  0.318114  0.436548  0.147622  1
  O  O31  1  0.181886  0.936548  0.852378  1
