# generated using pymatgen
data_SrAlF5
_symmetry_space_group_name_H-M   'P 1'
_cell_length_a   9.07104364
_cell_length_b   7.54791717
_cell_length_c   13.64055682
_cell_angle_alpha   90.00000000
_cell_angle_beta   127.23746252
_cell_angle_gamma   90.00000000
_symmetry_Int_Tables_number   1
_chemical_formula_structural   SrAlF5
_chemical_formula_sum   'Sr8 Al8 F40'
_cell_volume   743.53752092
_cell_formula_units_Z   8
loop_
 _symmetry_equiv_pos_site_id
 _symmetry_equiv_pos_as_xyz
  1  'x, y, z'
loop_
 _atom_site_type_symbol
 _atom_site_label
 _atom_site_symmetry_multiplicity
 _atom_site_fract_x
 _atom_site_fract_y
 _atom_site_fract_z
 _atom_site_occupancy
  Sr  Sr0  1  0.179722  0.220740  0.361825  1
  Sr  Sr1  1  0.820278  0.720740  0.138175  1
  Sr  Sr2  1  0.820278  0.779260  0.638175  1
  Sr  Sr3  1  0.179722  0.279260  0.861825  1
  Sr  Sr4  1  0.740579  0.277565  0.461874  1
  Sr  Sr5  1  0.259421  0.777565  0.038126  1
  Sr  Sr6  1  0.259421  0.722435  0.538126  1
  Sr  Sr7  1  0.740579  0.222435  0.961874  1
  Al  Al8  1  0.297576  0.293996  0.164887  1
  Al  Al9  1  0.702424  0.793996  0.335113  1
  Al  Al10  1  0.702424  0.706004  0.835113  1
  Al  Al11  1  0.297576  0.206004  0.664887  1
  Al  Al12  1  0.696161  0.199902  0.186998  1
  Al  Al13  1  0.303839  0.699902  0.313002  1
  Al  Al14  1  0.303839  0.800098  0.813002  1
  Al  Al15  1  0.696161  0.300098  0.686998  1
  F  F16  1  0.151693  0.935179  0.831804  1
  F  F17  1  0.848307  0.435179  0.668196  1
  F  F18  1  0.848307  0.064821  0.168196  1
  F  F19  1  0.151693  0.564821  0.331804  1
  F  F20  1  0.363336  0.492299  0.271141  1
  F  F21  1  0.636664  0.992299  0.228859  1
  F  F22  1  0.636664  0.507701  0.728859  1
  F  F23  1  0.363336  0.007701  0.771141  1
  F  F24  1  0.229114  0.446005  0.042362  1
  F  F25  1  0.770886  0.946005  0.457638  1
  F  F26  1  0.770886  0.553995  0.957638  1
  F  F27  1  0.229114  0.053995  0.542362  1
  F  F28  1  0.774340  0.392871  0.148448  1
  F  F29  1  0.225660  0.892871  0.351552  1
  F  F30  1  0.225660  0.607129  0.851552  1
  F  F31  1  0.774340  0.107129  0.648448  1
  F  F32  1  0.542872  0.187896  0.714055  1
  F  F33  1  0.457128  0.687896  0.785945  1
  F  F34  1  0.457128  0.812104  0.285945  1
  F  F35  1  0.542872  0.312104  0.214055  1
  F  F36  1  0.883284  0.261684  0.847627  1
  F  F37  1  0.116716  0.761684  0.652373  1
  F  F38  1  0.116716  0.738316  0.152373  1
  F  F39  1  0.883284  0.238316  0.347627  1
  F  F40  1  0.401040  0.330744  0.804718  1
  F  F41  1  0.598960  0.830744  0.695282  1
  F  F42  1  0.598960  0.669256  0.195282  1
  F  F43  1  0.401040  0.169256  0.304718  1
  F  F44  1  0.243704  0.390924  0.563717  1
  F  F45  1  0.756296  0.890924  0.936283  1
  F  F46  1  0.756296  0.609076  0.436283  1
  F  F47  1  0.243704  0.109076  0.063717  1
  F  F48  1  0.077001  0.218132  0.637489  1
  F  F49  1  0.922999  0.718132  0.862511  1
  F  F50  1  0.922999  0.781868  0.362511  1
  F  F51  1  0.077001  0.281868  0.137489  1
  F  F52  1  0.488092  0.682053  0.474591  1
  F  F53  1  0.511908  0.182053  0.025409  1
  F  F54  1  0.511908  0.317947  0.525409  1
  F  F55  1  0.488092  0.817947  0.974591  1
