# generated using pymatgen
data_RbAgSe4
_symmetry_space_group_name_H-M   'P 1'
_cell_length_a   5.90332462
_cell_length_b   9.23537586
_cell_length_c   13.80695148
_cell_angle_alpha   90.00000000
_cell_angle_beta   90.00000000
_cell_angle_gamma   90.00000000
_symmetry_Int_Tables_number   1
_chemical_formula_structural   RbAgSe4
_chemical_formula_sum   'Rb4 Ag4 Se16'
_cell_volume   752.74700998
_cell_formula_units_Z   4
loop_
 _symmetry_equiv_pos_site_id
 _symmetry_equiv_pos_as_xyz
  1  'x, y, z'
loop_
 _atom_site_type_symbol
 _atom_site_label
 _atom_site_symmetry_multiplicity
 _atom_site_fract_x
 _atom_site_fract_y
 _atom_site_fract_z
 _atom_site_occupancy
  Rb  Rb0  1  0.181963  0.440467  0.160284  1
  Rb  Rb1  1  0.681963  0.059533  0.839716  1
  Rb  Rb2  1  0.818037  0.940467  0.339716  1
  Rb  Rb3  1  0.318037  0.559533  0.660284  1
  Ag  Ag4  1  0.964305  0.868625  0.065645  1
  Ag  Ag5  1  0.464305  0.631375  0.934355  1
  Ag  Ag6  1  0.035695  0.368625  0.434355  1
  Ag  Ag7  1  0.535695  0.131375  0.565645  1
  Se  Se8  1  0.874389  0.307891  0.609889  1
  Se  Se9  1  0.374389  0.192109  0.390111  1
  Se  Se10  1  0.125611  0.807891  0.890111  1
  Se  Se11  1  0.625611  0.692109  0.109889  1
  Se  Se12  1  0.135827  0.132829  0.673828  1
  Se  Se13  1  0.635827  0.367171  0.326172  1
  Se  Se14  1  0.864173  0.632829  0.826172  1
  Se  Se15  1  0.364173  0.867171  0.173828  1
  Se  Se16  1  0.813200  0.132963  0.104494  1
  Se  Se17  1  0.313200  0.367037  0.895506  1
  Se  Se18  1  0.186800  0.632963  0.395506  1
  Se  Se19  1  0.686800  0.867037  0.604494  1
  Se  Se20  1  0.423572  0.081052  0.075190  1
  Se  Se21  1  0.923572  0.418948  0.924810  1
  Se  Se22  1  0.576428  0.581052  0.424810  1
  Se  Se23  1  0.076428  0.918948  0.575190  1
