# generated using pymatgen
data_Ti2Ni(PO5)2
_symmetry_space_group_name_H-M   'P 1'
_cell_length_a   7.41667541
_cell_length_b   7.42977076
_cell_length_c   7.43819976
_cell_angle_alpha   90.00000000
_cell_angle_beta   119.76360136
_cell_angle_gamma   90.00000000
_symmetry_Int_Tables_number   1
_chemical_formula_structural   Ti2Ni(PO5)2
_chemical_formula_sum   'Ti4 Ni2 P4 O20'
_cell_volume   355.80559432
_cell_formula_units_Z   2
loop_
 _symmetry_equiv_pos_site_id
 _symmetry_equiv_pos_as_xyz
  1  'x, y, z'
loop_
 _atom_site_type_symbol
 _atom_site_label
 _atom_site_symmetry_multiplicity
 _atom_site_fract_x
 _atom_site_fract_y
 _atom_site_fract_z
 _atom_site_occupancy
  Ti  Ti0  1  0.766337  0.221430  0.295481  1
  Ti  Ti1  1  0.233663  0.721430  0.204519  1
  Ti  Ti2  1  0.233663  0.778570  0.704519  1
  Ti  Ti3  1  0.766337  0.278570  0.795481  1
  Ni  Ni4  1  0.500000  0.500000  0.000000  1
  Ni  Ni5  1  0.500000  0.000000  0.500000  1
  P  P6  1  0.255826  0.378298  0.505068  1
  P  P7  1  0.744174  0.878298  0.994932  1
  P  P8  1  0.744174  0.621702  0.494932  1
  P  P9  1  0.255826  0.121702  0.005068  1
  O  O10  1  0.731899  0.155105  0.501801  1
  O  O11  1  0.268101  0.655105  0.998199  1
  O  O12  1  0.268101  0.844895  0.498199  1
  O  O13  1  0.731899  0.344895  0.001801  1
  O  O14  1  0.285081  0.504864  0.684522  1
  O  O15  1  0.714919  0.004864  0.815478  1
  O  O16  1  0.714919  0.495136  0.315478  1
  O  O17  1  0.285081  0.995136  0.184522  1
  O  O18  1  0.444064  0.249941  0.588401  1
  O  O19  1  0.555936  0.749941  0.911599  1
  O  O20  1  0.555936  0.750059  0.411599  1
  O  O21  1  0.444064  0.250059  0.088401  1
  O  O22  1  0.238711  0.492141  0.323564  1
  O  O23  1  0.761289  0.992141  0.176436  1
  O  O24  1  0.761289  0.507859  0.676436  1
  O  O25  1  0.238711  0.007859  0.823564  1
  O  O26  1  0.059010  0.264001  0.428485  1
  O  O27  1  0.940990  0.764001  0.071515  1
  O  O28  1  0.940990  0.735999  0.571515  1
  O  O29  1  0.059010  0.235999  0.928485  1
