# generated using pymatgen
data_Li3AuS2
_symmetry_space_group_name_H-M   'P 1'
_cell_length_a   7.11514368
_cell_length_b   7.11514368
_cell_length_c   7.11514368
_cell_angle_alpha   131.82140284
_cell_angle_beta   126.90603104
_cell_angle_gamma   74.49542652
_symmetry_Int_Tables_number   1
_chemical_formula_structural   Li3AuS2
_chemical_formula_sum   'Li6 Au2 S4'
_cell_volume   209.22315914
_cell_formula_units_Z   2
loop_
 _symmetry_equiv_pos_site_id
 _symmetry_equiv_pos_as_xyz
  1  'x, y, z'
loop_
 _atom_site_type_symbol
 _atom_site_label
 _atom_site_symmetry_multiplicity
 _atom_site_fract_x
 _atom_site_fract_y
 _atom_site_fract_z
 _atom_site_occupancy
  Li  Li0  1  0.023631  0.773631  0.250000  1
  Li  Li1  1  0.476369  0.226369  0.250000  1
  Li  Li2  1  0.976369  0.226369  0.750000  1
  Li  Li3  1  0.523631  0.773631  0.750000  1
  Li  Li4  1  0.250000  0.500000  0.750000  1
  Li  Li5  1  0.750000  0.500000  0.250000  1
  Au  Au6  1  0.500000  1.000000  0.500000  1
  Au  Au7  1  0.000000  0.000000  0.000000  1
  S  S8  1  0.358471  0.153238  0.794767  1
  S  S9  1  0.141529  0.436295  0.294767  1
  S  S10  1  0.858471  0.563705  0.705233  1
  S  S11  1  0.641529  0.846762  0.205233  1
