# generated using pymatgen
data_Li3GaF6
_symmetry_space_group_name_H-M   'P 1'
_cell_length_a   8.50689746
_cell_length_b   8.50689746
_cell_length_c   10.18591904
_cell_angle_alpha   85.79336951
_cell_angle_beta   94.20663049
_cell_angle_gamma   118.36138229
_symmetry_Int_Tables_number   1
_chemical_formula_structural   Li3GaF6
_chemical_formula_sum   'Li18 Ga6 F36'
_cell_volume   646.27878015
_cell_formula_units_Z   6
loop_
 _symmetry_equiv_pos_site_id
 _symmetry_equiv_pos_as_xyz
  1  'x, y, z'
loop_
 _atom_site_type_symbol
 _atom_site_label
 _atom_site_symmetry_multiplicity
 _atom_site_fract_x
 _atom_site_fract_y
 _atom_site_fract_z
 _atom_site_occupancy
  Li  Li0  1  0.877188  0.540858  0.552440  1
  Li  Li1  1  0.540858  0.877188  0.947560  1
  Li  Li2  1  0.122812  0.459142  0.447560  1
  Li  Li3  1  0.459142  0.122812  0.052440  1
  Li  Li4  1  0.712792  0.992569  0.229827  1
  Li  Li5  1  0.992569  0.712792  0.270173  1
  Li  Li6  1  0.188242  0.188242  0.250000  1
  Li  Li7  1  0.811758  0.811758  0.750000  1
  Li  Li8  1  0.655583  0.061377  0.568760  1
  Li  Li9  1  0.061377  0.655583  0.931240  1
  Li  Li10  1  0.344417  0.938623  0.431240  1
  Li  Li11  1  0.938623  0.344417  0.068760  1
  Li  Li12  1  0.325672  0.371093  0.961694  1
  Li  Li13  1  0.371093  0.325672  0.538306  1
  Li  Li14  1  0.674328  0.628907  0.038306  1
  Li  Li15  1  0.628907  0.674328  0.461694  1
  Li  Li16  1  0.287208  0.007431  0.770173  1
  Li  Li17  1  0.007431  0.287208  0.729827  1
  Ga  Ga18  1  0.665286  0.340869  0.796286  1
  Ga  Ga19  1  0.340869  0.665286  0.703714  1
  Ga  Ga20  1  0.334714  0.659131  0.203714  1
  Ga  Ga21  1  0.659131  0.334714  0.296286  1
  Ga  Ga22  1  1.000000  1.000000  0.500000  1
  Ga  Ga23  1  0.000000  0.000000  0.000000  1
  F  F24  1  0.240649  0.444355  0.805492  1
  F  F25  1  0.226290  0.730740  0.335179  1
  F  F26  1  0.269260  0.773710  0.835179  1
  F  F27  1  0.773710  0.269260  0.664821  1
  F  F28  1  0.761060  0.913060  0.061890  1
  F  F29  1  0.913060  0.761060  0.438110  1
  F  F30  1  0.238940  0.086940  0.938110  1
  F  F31  1  0.086940  0.238940  0.561890  1
  F  F32  1  0.730740  0.226290  0.164821  1
  F  F33  1  0.763359  0.909930  0.565588  1
  F  F34  1  0.090070  0.236641  0.065588  1
  F  F35  1  0.236641  0.090070  0.434412  1
  F  F36  1  0.444355  0.240649  0.694508  1
  F  F37  1  0.428855  0.585823  0.067951  1
  F  F38  1  0.414177  0.571145  0.567951  1
  F  F39  1  0.571145  0.414177  0.932049  1
  F  F40  1  0.584227  0.109100  0.393899  1
  F  F41  1  0.109100  0.584227  0.106101  1
  F  F42  1  0.415773  0.890900  0.606101  1
  F  F43  1  0.890900  0.415773  0.893899  1
  F  F44  1  0.923789  0.065660  0.835289  1
  F  F45  1  0.065660  0.923789  0.664711  1
  F  F46  1  0.076211  0.934340  0.164711  1
  F  F47  1  0.934340  0.076211  0.335289  1
  F  F48  1  0.759351  0.555645  0.194508  1
  F  F49  1  0.555645  0.759351  0.305492  1
  F  F50  1  0.110972  0.570785  0.610248  1
  F  F51  1  0.585823  0.428855  0.432049  1
  F  F52  1  0.889028  0.429215  0.389752  1
  F  F53  1  0.429215  0.889028  0.110248  1
  F  F54  1  0.245551  0.434924  0.301908  1
  F  F55  1  0.434924  0.245551  0.198092  1
  F  F56  1  0.754449  0.565076  0.698092  1
  F  F57  1  0.565076  0.754449  0.801908  1
  F  F58  1  0.909930  0.763359  0.934412  1
  F  F59  1  0.570785  0.110972  0.889752  1
