# generated using pymatgen
data_Ag2SeO3
_symmetry_space_group_name_H-M   'P 1'
_cell_length_a   5.00653459
_cell_length_b   10.19754895
_cell_length_c   7.43944826
_cell_angle_alpha   90.00000000
_cell_angle_beta   93.56878902
_cell_angle_gamma   90.00000000
_symmetry_Int_Tables_number   1
_chemical_formula_structural   Ag2SeO3
_chemical_formula_sum   'Ag8 Se4 O12'
_cell_volume   379.07988407
_cell_formula_units_Z   4
loop_
 _symmetry_equiv_pos_site_id
 _symmetry_equiv_pos_as_xyz
  1  'x, y, z'
loop_
 _atom_site_type_symbol
 _atom_site_label
 _atom_site_symmetry_multiplicity
 _atom_site_fract_x
 _atom_site_fract_y
 _atom_site_fract_z
 _atom_site_occupancy
  Ag  Ag0  1  0.727490  0.063286  0.110483  1
  Ag  Ag1  1  0.727490  0.436714  0.610483  1
  Ag  Ag2  1  0.272510  0.936714  0.889517  1
  Ag  Ag3  1  0.272510  0.563286  0.389517  1
  Ag  Ag4  1  0.272217  0.246029  0.381018  1
  Ag  Ag5  1  0.727783  0.746029  0.118982  1
  Ag  Ag6  1  0.727783  0.753971  0.618982  1
  Ag  Ag7  1  0.272217  0.253971  0.881018  1
  Se  Se8  1  0.735276  0.393758  0.154165  1
  Se  Se9  1  0.264724  0.606242  0.845835  1
  Se  Se10  1  0.264724  0.893758  0.345835  1
  Se  Se11  1  0.735276  0.106242  0.654165  1
  O  O12  1  0.804286  0.243402  0.788163  1
  O  O13  1  0.195714  0.743402  0.711837  1
  O  O14  1  0.195714  0.756598  0.211837  1
  O  O15  1  0.804286  0.256598  0.288163  1
  O  O16  1  0.772557  0.981268  0.813368  1
  O  O17  1  0.227443  0.481268  0.686632  1
  O  O18  1  0.227443  0.018732  0.186632  1
  O  O19  1  0.385362  0.381879  0.133641  1
  O  O20  1  0.385362  0.118121  0.633641  1
  O  O21  1  0.614638  0.618121  0.866359  1
  O  O22  1  0.614638  0.881879  0.366359  1
  O  O23  1  0.772557  0.518732  0.313368  1
