# generated using pymatgen
data_BaEr2F8
_symmetry_space_group_name_H-M   'P 1'
_cell_length_a   6.33111455
_cell_length_b   6.33111455
_cell_length_c   4.29229534
_cell_angle_alpha   84.96977993
_cell_angle_beta   95.03022007
_cell_angle_gamma   67.13767154
_symmetry_Int_Tables_number   1
_chemical_formula_structural   BaEr2F8
_chemical_formula_sum   'Ba1 Er2 F8'
_cell_volume   156.52633357
_cell_formula_units_Z   1
loop_
 _symmetry_equiv_pos_site_id
 _symmetry_equiv_pos_as_xyz
  1  'x, y, z'
loop_
 _atom_site_type_symbol
 _atom_site_label
 _atom_site_symmetry_multiplicity
 _atom_site_fract_x
 _atom_site_fract_y
 _atom_site_fract_z
 _atom_site_occupancy
  Ba  Ba0  1  0.000000  0.000000  0.000000  1
  Er  Er1  1  0.324280  0.324280  0.500000  1
  Er  Er2  1  0.675720  0.675720  0.500000  1
  F  F3  1  0.737864  0.737864  0.000000  1
  F  F4  1  0.262136  0.262136  0.000000  1
  F  F5  1  0.606423  0.393577  0.771534  1
  F  F6  1  0.045704  0.671228  0.561700  1
  F  F7  1  0.671228  0.045704  0.438300  1
  F  F8  1  0.954296  0.328772  0.438300  1
  F  F9  1  0.328772  0.954296  0.561700  1
  F  F10  1  0.393577  0.606423  0.228466  1
