# generated using pymatgen
data_HfTe3O8
_symmetry_space_group_name_H-M   'P 1'
_cell_length_a   9.97692694
_cell_length_b   9.97692694
_cell_length_c   9.97692694
_cell_angle_alpha   109.47122063
_cell_angle_beta   109.47122063
_cell_angle_gamma   109.47122063
_symmetry_Int_Tables_number   1
_chemical_formula_structural   HfTe3O8
_chemical_formula_sum   'Hf4 Te12 O32'
_cell_volume   764.48414803
_cell_formula_units_Z   4
loop_
 _symmetry_equiv_pos_site_id
 _symmetry_equiv_pos_as_xyz
  1  'x, y, z'
loop_
 _atom_site_type_symbol
 _atom_site_label
 _atom_site_symmetry_multiplicity
 _atom_site_fract_x
 _atom_site_fract_y
 _atom_site_fract_z
 _atom_site_occupancy
  Hf  Hf0  1  0.500000  0.500000  0.000000  1
  Hf  Hf1  1  0.500000  1.000000  0.500000  1
  Hf  Hf2  1  0.000000  0.500000  0.500000  1
  Hf  Hf3  1  0.000000  0.000000  0.000000  1
  Te  Te4  1  0.250000  0.949118  0.699118  1
  Te  Te5  1  0.800882  0.750000  0.550882  1
  Te  Te6  1  0.550882  0.800882  0.750000  1
  Te  Te7  1  0.699118  0.250000  0.949118  1
  Te  Te8  1  0.949118  0.699118  0.250000  1
  Te  Te9  1  0.750000  0.550882  0.800882  1
  Te  Te10  1  0.750000  0.050882  0.300882  1
  Te  Te11  1  0.199118  0.250000  0.449118  1
  Te  Te12  1  0.449118  0.199118  0.250000  1
  Te  Te13  1  0.300882  0.750000  0.050882  1
  Te  Te14  1  0.050882  0.300882  0.750000  1
  Te  Te15  1  0.250000  0.449118  0.199118  1
  O  O16  1  0.833750  0.500000  1.000000  1
  O  O17  1  0.500000  1.000000  0.833750  1
  O  O18  1  0.000000  0.833750  0.500000  1
  O  O19  1  0.666250  0.666250  0.666250  1
  O  O20  1  0.166250  0.500000  0.000000  1
  O  O21  1  0.500000  0.000000  0.166250  1
  O  O22  1  0.000000  0.166250  0.500000  1
  O  O23  1  0.333750  0.333750  0.333750  1
  O  O24  1  0.044530  0.468482  0.703081  1
  O  O25  1  0.265402  0.341449  0.796919  1
  O  O26  1  0.234598  0.031518  0.076047  1
  O  O27  1  0.158551  0.423953  0.455470  1
  O  O28  1  0.423953  0.455470  0.158551  1
  O  O29  1  0.703081  0.044530  0.468482  1
  O  O30  1  0.341449  0.796919  0.265402  1
  O  O31  1  0.076047  0.234598  0.031518  1
  O  O32  1  0.544530  0.841449  0.576047  1
  O  O33  1  0.968482  0.923953  0.765402  1
  O  O34  1  0.203081  0.734598  0.658551  1
  O  O35  1  0.531518  0.296919  0.955470  1
  O  O36  1  0.923953  0.765402  0.968482  1
  O  O37  1  0.658551  0.203081  0.734598  1
  O  O38  1  0.296919  0.955470  0.531518  1
  O  O39  1  0.576047  0.544530  0.841449  1
  O  O40  1  0.841449  0.576047  0.544530  1
  O  O41  1  0.765402  0.968482  0.923953  1
  O  O42  1  0.734598  0.658551  0.203081  1
  O  O43  1  0.955470  0.531518  0.296919  1
  O  O44  1  0.455470  0.158551  0.423953  1
  O  O45  1  0.031518  0.076047  0.234598  1
  O  O46  1  0.796919  0.265402  0.341449  1
  O  O47  1  0.468482  0.703081  0.044530  1
