# generated using pymatgen
data_Cr2Fe3(SiO4)3
_symmetry_space_group_name_H-M   'P 1'
_cell_length_a   10.25938428
_cell_length_b   10.25938428
_cell_length_c   10.25938428
_cell_angle_alpha   109.47122063
_cell_angle_beta   109.47122063
_cell_angle_gamma   109.47122063
_symmetry_Int_Tables_number   1
_chemical_formula_structural   Cr2Fe3(SiO4)3
_chemical_formula_sum   'Cr8 Fe12 Si12 O48'
_cell_volume   831.26979663
_cell_formula_units_Z   4
loop_
 _symmetry_equiv_pos_site_id
 _symmetry_equiv_pos_as_xyz
  1  'x, y, z'
loop_
 _atom_site_type_symbol
 _atom_site_label
 _atom_site_symmetry_multiplicity
 _atom_site_fract_x
 _atom_site_fract_y
 _atom_site_fract_z
 _atom_site_occupancy
  Cr  Cr0  1  0.500000  0.500000  0.500000  1
  Cr  Cr1  1  0.500000  0.500000  0.000000  1
  Cr  Cr2  1  0.500000  0.000000  0.500000  1
  Cr  Cr3  1  0.000000  0.500000  0.500000  1
  Cr  Cr4  1  0.500000  0.000000  0.000000  1
  Cr  Cr5  1  0.000000  0.000000  0.500000  1
  Cr  Cr6  1  0.000000  0.500000  0.000000  1
  Cr  Cr7  1  0.000000  0.000000  0.000000  1
  Fe  Fe8  1  0.250000  0.875000  0.625000  1
  Fe  Fe9  1  0.875000  0.625000  0.250000  1
  Fe  Fe10  1  0.625000  0.875000  0.750000  1
  Fe  Fe11  1  0.875000  0.750000  0.625000  1
  Fe  Fe12  1  0.625000  0.250000  0.875000  1
  Fe  Fe13  1  0.750000  0.625000  0.875000  1
  Fe  Fe14  1  0.750000  0.125000  0.375000  1
  Fe  Fe15  1  0.125000  0.375000  0.750000  1
  Fe  Fe16  1  0.375000  0.125000  0.250000  1
  Fe  Fe17  1  0.125000  0.250000  0.375000  1
  Fe  Fe18  1  0.375000  0.750000  0.125000  1
  Fe  Fe19  1  0.250000  0.375000  0.125000  1
  Si  Si20  1  0.250000  0.125000  0.875000  1
  Si  Si21  1  0.750000  0.875000  0.125000  1
  Si  Si22  1  0.375000  0.250000  0.625000  1
  Si  Si23  1  0.625000  0.375000  0.250000  1
  Si  Si24  1  0.125000  0.750000  0.875000  1
  Si  Si25  1  0.875000  0.125000  0.750000  1
  Si  Si26  1  0.750000  0.375000  0.625000  1
  Si  Si27  1  0.375000  0.625000  0.750000  1
  Si  Si28  1  0.125000  0.875000  0.250000  1
  Si  Si29  1  0.875000  0.250000  0.125000  1
  Si  Si30  1  0.625000  0.750000  0.375000  1
  Si  Si31  1  0.250000  0.625000  0.375000  1
  O  O32  1  0.709216  0.691800  0.087264  1
  O  O33  1  0.691800  0.104535  0.982583  1
  O  O34  1  0.621952  0.709216  0.517417  1
  O  O35  1  0.517417  0.621952  0.709216  1
  O  O36  1  0.087264  0.878048  0.395465  1
  O  O37  1  0.395465  0.087264  0.878048  1
  O  O38  1  0.104535  0.982583  0.691800  1
  O  O39  1  0.621952  0.412736  0.104535  1
  O  O40  1  0.517417  0.395465  0.808200  1
  O  O41  1  0.878048  0.982583  0.790784  1
  O  O42  1  0.412736  0.104535  0.621952  1
  O  O43  1  0.808200  0.517417  0.395465  1
  O  O44  1  0.982583  0.790784  0.878048  1
  O  O45  1  0.087264  0.709216  0.691800  1
  O  O46  1  0.691800  0.087264  0.709216  1
  O  O47  1  0.104535  0.621952  0.412736  1
  O  O48  1  0.808200  0.790784  0.412736  1
  O  O49  1  0.395465  0.808200  0.517417  1
  O  O50  1  0.412736  0.808200  0.790784  1
  O  O51  1  0.790784  0.878048  0.982583  1
  O  O52  1  0.790784  0.412736  0.808200  1
  O  O53  1  0.878048  0.395465  0.087264  1
  O  O54  1  0.982583  0.691800  0.104535  1
  O  O55  1  0.709216  0.517417  0.621952  1
  O  O56  1  0.290784  0.308200  0.912736  1
  O  O57  1  0.308200  0.895465  0.017417  1
  O  O58  1  0.378048  0.290784  0.482583  1
  O  O59  1  0.482583  0.378048  0.290784  1
  O  O60  1  0.912736  0.121952  0.604535  1
  O  O61  1  0.604535  0.912736  0.121952  1
  O  O62  1  0.895465  0.017417  0.308200  1
  O  O63  1  0.378048  0.587264  0.895465  1
  O  O64  1  0.482583  0.604535  0.191800  1
  O  O65  1  0.121952  0.017417  0.209216  1
  O  O66  1  0.587264  0.895465  0.378048  1
  O  O67  1  0.191800  0.482583  0.604535  1
  O  O68  1  0.017417  0.209216  0.121952  1
  O  O69  1  0.912736  0.290784  0.308200  1
  O  O70  1  0.308200  0.912736  0.290784  1
  O  O71  1  0.895465  0.378048  0.587264  1
  O  O72  1  0.191800  0.209216  0.587264  1
  O  O73  1  0.604535  0.191800  0.482583  1
  O  O74  1  0.587264  0.191800  0.209216  1
  O  O75  1  0.209216  0.121952  0.017417  1
  O  O76  1  0.209216  0.587264  0.191800  1
  O  O77  1  0.121952  0.604535  0.912736  1
  O  O78  1  0.017417  0.308200  0.895465  1
  O  O79  1  0.290784  0.482583  0.378048  1
