# generated using pymatgen
data_Sr2ScF7
_symmetry_space_group_name_H-M   'P 1'
_cell_length_a   5.54602737
_cell_length_b   12.32388263
_cell_length_c   8.33671800
_cell_angle_alpha   90.00000000
_cell_angle_beta   90.43423771
_cell_angle_gamma   90.00000000
_symmetry_Int_Tables_number   1
_chemical_formula_structural   Sr2ScF7
_chemical_formula_sum   'Sr8 Sc4 F28'
_cell_volume   569.78655942
_cell_formula_units_Z   4
loop_
 _symmetry_equiv_pos_site_id
 _symmetry_equiv_pos_as_xyz
  1  'x, y, z'
loop_
 _atom_site_type_symbol
 _atom_site_label
 _atom_site_symmetry_multiplicity
 _atom_site_fract_x
 _atom_site_fract_y
 _atom_site_fract_z
 _atom_site_occupancy
  Sr  Sr0  1  0.235019  0.561099  0.322745  1
  Sr  Sr1  1  0.764981  0.061099  0.177255  1
  Sr  Sr2  1  0.764981  0.438901  0.677255  1
  Sr  Sr3  1  0.235019  0.938901  0.822745  1
  Sr  Sr4  1  0.234596  0.219985  0.448102  1
  Sr  Sr5  1  0.765404  0.719985  0.051898  1
  Sr  Sr6  1  0.765404  0.780015  0.551898  1
  Sr  Sr7  1  0.234596  0.280015  0.948102  1
  Sc  Sc8  1  0.721834  0.126192  0.716135  1
  Sc  Sc9  1  0.278166  0.626192  0.783865  1
  Sc  Sc10  1  0.278166  0.873808  0.283865  1
  Sc  Sc11  1  0.721834  0.373808  0.216135  1
  F  F12  1  0.800681  0.136313  0.476249  1
  F  F13  1  0.199319  0.636313  0.023751  1
  F  F14  1  0.199319  0.863687  0.523751  1
  F  F15  1  0.800681  0.363687  0.976249  1
  F  F16  1  0.985084  0.254917  0.696919  1
  F  F17  1  0.014916  0.754917  0.803081  1
  F  F18  1  0.014916  0.745083  0.303081  1
  F  F19  1  0.985084  0.245083  0.196919  1
  F  F20  1  0.198523  0.036662  0.289960  1
  F  F21  1  0.801477  0.536662  0.210040  1
  F  F22  1  0.801477  0.963338  0.710040  1
  F  F23  1  0.198523  0.463338  0.789960  1
  F  F24  1  0.512007  0.105223  0.924941  1
  F  F25  1  0.487993  0.605223  0.575059  1
  F  F26  1  0.487993  0.894777  0.075059  1
  F  F27  1  0.512007  0.394777  0.424941  1
  F  F28  1  0.512767  0.229645  0.207617  1
  F  F29  1  0.487233  0.729645  0.292383  1
  F  F30  1  0.487233  0.770355  0.792383  1
  F  F31  1  0.512767  0.270355  0.707617  1
  F  F32  1  0.386367  0.424934  0.129003  1
  F  F33  1  0.613633  0.924934  0.370997  1
  F  F34  1  0.613633  0.575066  0.870997  1
  F  F35  1  0.386367  0.075066  0.629003  1
  F  F36  1  0.983525  0.105029  0.909033  1
  F  F37  1  0.016475  0.605029  0.590967  1
  F  F38  1  0.016475  0.894971  0.090967  1
  F  F39  1  0.983525  0.394971  0.409033  1
