# generated using pymatgen
data_SrMg2N2
_symmetry_space_group_name_H-M   'P 1'
_cell_length_a   3.64360653
_cell_length_b   3.64360653
_cell_length_c   6.39976329
_cell_angle_alpha   90.00000000
_cell_angle_beta   90.00000000
_cell_angle_gamma   120.00000000
_symmetry_Int_Tables_number   1
_chemical_formula_structural   SrMg2N2
_chemical_formula_sum   'Sr1 Mg2 N2'
_cell_volume   73.57961088
_cell_formula_units_Z   1
loop_
 _symmetry_equiv_pos_site_id
 _symmetry_equiv_pos_as_xyz
  1  'x, y, z'
loop_
 _atom_site_type_symbol
 _atom_site_label
 _atom_site_symmetry_multiplicity
 _atom_site_fract_x
 _atom_site_fract_y
 _atom_site_fract_z
 _atom_site_occupancy
  Sr  Sr0  1  0.000000  0.000000  0.500000  1
  Mg  Mg1  1  0.333333  0.666667  0.868604  1
  Mg  Mg2  1  0.666667  0.333333  0.131396  1
  N  N3  1  0.333333  0.666667  0.220537  1
  N  N4  1  0.666667  0.333333  0.779463  1
