# generated using pymatgen
data_Li3GaSiO5
_symmetry_space_group_name_H-M   'P 1'
_cell_length_a   4.90551610
_cell_length_b   5.43322102
_cell_length_c   15.74238997
_cell_angle_alpha   90.00000000
_cell_angle_beta   90.00000000
_cell_angle_gamma   90.00000000
_symmetry_Int_Tables_number   1
_chemical_formula_structural   Li3GaSiO5
_chemical_formula_sum   'Li12 Ga4 Si4 O20'
_cell_volume   419.57803447
_cell_formula_units_Z   4
loop_
 _symmetry_equiv_pos_site_id
 _symmetry_equiv_pos_as_xyz
  1  'x, y, z'
loop_
 _atom_site_type_symbol
 _atom_site_label
 _atom_site_symmetry_multiplicity
 _atom_site_fract_x
 _atom_site_fract_y
 _atom_site_fract_z
 _atom_site_occupancy
  Li  Li0  1  0.499874  0.333204  0.407357  1
  Li  Li1  1  0.999874  0.666796  0.592643  1
  Li  Li2  1  0.999874  0.166796  0.907357  1
  Li  Li3  1  0.499874  0.833204  0.092643  1
  Li  Li4  1  0.503127  0.834843  0.504958  1
  Li  Li5  1  0.003127  0.165157  0.495042  1
  Li  Li6  1  0.003127  0.665157  0.004958  1
  Li  Li7  1  0.503127  0.334843  0.995042  1
  Li  Li8  1  0.500412  0.823720  0.695119  1
  Li  Li9  1  0.000412  0.176280  0.304881  1
  Li  Li10  1  0.000412  0.676280  0.195119  1
  Li  Li11  1  0.500412  0.323720  0.804881  1
  Ga  Ga12  1  0.499221  0.829202  0.300651  1
  Ga  Ga13  1  0.999221  0.170798  0.699349  1
  Ga  Ga14  1  0.999221  0.670798  0.800651  1
  Ga  Ga15  1  0.499221  0.329202  0.199349  1
  Si  Si16  1  0.004919  0.666002  0.402170  1
  Si  Si17  1  0.504919  0.333998  0.597830  1
  Si  Si18  1  0.504919  0.833998  0.902170  1
  Si  Si19  1  0.004919  0.166002  0.097830  1
  O  O20  1  0.596009  0.157554  0.296715  1
  O  O21  1  0.162163  0.818083  0.894699  1
  O  O22  1  0.162163  0.318083  0.605301  1
  O  O23  1  0.662163  0.181917  0.105301  1
  O  O24  1  0.103359  0.316207  0.014392  1
  O  O25  1  0.603359  0.683793  0.985608  1
  O  O26  1  0.603359  0.183793  0.514392  1
  O  O27  1  0.103359  0.816207  0.485608  1
  O  O28  1  0.101038  0.880234  0.101538  1
  O  O29  1  0.601038  0.119766  0.898462  1
  O  O30  1  0.601038  0.619766  0.601538  1
  O  O31  1  0.101038  0.380234  0.398462  1
  O  O32  1  0.116880  0.312245  0.186993  1
  O  O33  1  0.616880  0.687755  0.813007  1
  O  O34  1  0.616880  0.187755  0.686993  1
  O  O35  1  0.116880  0.812245  0.313007  1
  O  O36  1  0.096009  0.342446  0.796715  1
  O  O37  1  0.596009  0.657554  0.203285  1
  O  O38  1  0.662163  0.681917  0.394699  1
  O  O39  1  0.096009  0.842446  0.703285  1
