# generated using pymatgen
data_Sr3(GaN2)2
_symmetry_space_group_name_H-M   'P 1'
_cell_length_a   5.99245757
_cell_length_b   9.62331156
_cell_length_c   10.36935725
_cell_angle_alpha   90.00000000
_cell_angle_beta   90.00000000
_cell_angle_gamma   90.00000000
_symmetry_Int_Tables_number   1
_chemical_formula_structural   Sr3(GaN2)2
_chemical_formula_sum   'Sr12 Ga8 N16'
_cell_volume   597.97269231
_cell_formula_units_Z   4
loop_
 _symmetry_equiv_pos_site_id
 _symmetry_equiv_pos_as_xyz
  1  'x, y, z'
loop_
 _atom_site_type_symbol
 _atom_site_label
 _atom_site_symmetry_multiplicity
 _atom_site_fract_x
 _atom_site_fract_y
 _atom_site_fract_z
 _atom_site_occupancy
  Sr  Sr0  1  0.250000  0.595005  0.500000  1
  Sr  Sr1  1  0.250000  0.904995  0.000000  1
  Sr  Sr2  1  0.750000  0.404995  0.500000  1
  Sr  Sr3  1  0.750000  0.095005  0.000000  1
  Sr  Sr4  1  0.392190  0.588464  0.154055  1
  Sr  Sr5  1  0.392190  0.911536  0.345945  1
  Sr  Sr6  1  0.107810  0.588464  0.845945  1
  Sr  Sr7  1  0.107810  0.911536  0.654055  1
  Sr  Sr8  1  0.607810  0.411536  0.845945  1
  Sr  Sr9  1  0.607810  0.088464  0.654055  1
  Sr  Sr10  1  0.892190  0.411536  0.154055  1
  Sr  Sr11  1  0.892190  0.088464  0.345945  1
  Ga  Ga12  1  0.839084  0.750000  0.250000  1
  Ga  Ga13  1  0.660916  0.750000  0.750000  1
  Ga  Ga14  1  0.160916  0.250000  0.750000  1
  Ga  Ga15  1  0.339084  0.250000  0.250000  1
  Ga  Ga16  1  0.250000  0.230443  0.000000  1
  Ga  Ga17  1  0.750000  0.730443  0.500000  1
  Ga  Ga18  1  0.750000  0.769557  0.000000  1
  Ga  Ga19  1  0.250000  0.269557  0.500000  1
  N  N20  1  0.492767  0.167269  0.403844  1
  N  N21  1  0.492767  0.332731  0.096156  1
  N  N22  1  0.007233  0.167269  0.596156  1
  N  N23  1  0.007233  0.332731  0.903844  1
  N  N24  1  0.507233  0.832731  0.596156  1
  N  N25  1  0.507233  0.667269  0.903844  1
  N  N26  1  0.992767  0.832731  0.403844  1
  N  N27  1  0.992767  0.667269  0.096156  1
  N  N28  1  0.122069  0.374628  0.353886  1
  N  N29  1  0.122069  0.125372  0.146114  1
  N  N30  1  0.377931  0.374628  0.646114  1
  N  N31  1  0.377931  0.125372  0.853886  1
  N  N32  1  0.877931  0.874628  0.853886  1
  N  N33  1  0.622069  0.625372  0.353886  1
  N  N34  1  0.622069  0.874628  0.146114  1
  N  N35  1  0.877931  0.625372  0.646114  1
