# generated using pymatgen
data_AgO
_symmetry_space_group_name_H-M   'P 1'
_cell_length_a   6.80213704
_cell_length_b   6.80213704
_cell_length_c   6.80213704
_cell_angle_alpha   118.52261318
_cell_angle_beta   118.52261318
_cell_angle_gamma   92.57854217
_symmetry_Int_Tables_number   1
_chemical_formula_structural   AgO
_chemical_formula_sum   'Ag8 O8'
_cell_volume   227.26733221
_cell_formula_units_Z   8
loop_
 _symmetry_equiv_pos_site_id
 _symmetry_equiv_pos_as_xyz
  1  'x, y, z'
loop_
 _atom_site_type_symbol
 _atom_site_label
 _atom_site_symmetry_multiplicity
 _atom_site_fract_x
 _atom_site_fract_y
 _atom_site_fract_z
 _atom_site_occupancy
  Ag  Ag0  1  0.375000  0.125000  0.750000  1
  Ag  Ag1  1  0.875000  0.625000  0.250000  1
  Ag  Ag2  1  0.375000  0.625000  0.750000  1
  Ag  Ag3  1  0.375000  0.625000  0.250000  1
  Ag  Ag4  1  0.875000  0.625000  0.750000  1
  Ag  Ag5  1  0.375000  0.125000  0.250000  1
  Ag  Ag6  1  0.875000  0.125000  0.750000  1
  Ag  Ag7  1  0.875000  0.125000  0.250000  1
  O  O8  1  0.748399  0.406694  0.828176  1
  O  O9  1  0.156694  0.828518  0.158295  1
  O  O10  1  0.670223  0.998399  0.841705  1
  O  O11  1  0.578518  0.920223  0.171824  1
  O  O12  1  0.001601  0.843306  0.671824  1
  O  O13  1  0.593306  0.421482  0.341705  1
  O  O14  1  0.079777  0.251601  0.658295  1
  O  O15  1  0.171482  0.329777  0.328176  1
