# generated using pymatgen
data_Na3Sr3GaP4
_symmetry_space_group_name_H-M   'P 1'
_cell_length_a   9.43028737
_cell_length_b   9.43028737
_cell_length_c   7.40744554
_cell_angle_alpha   90.00000000
_cell_angle_beta   90.00000000
_cell_angle_gamma   120.00000000
_symmetry_Int_Tables_number   1
_chemical_formula_structural   Na3Sr3GaP4
_chemical_formula_sum   'Na6 Sr6 Ga2 P8'
_cell_volume   570.49120483
_cell_formula_units_Z   2
loop_
 _symmetry_equiv_pos_site_id
 _symmetry_equiv_pos_as_xyz
  1  'x, y, z'
loop_
 _atom_site_type_symbol
 _atom_site_label
 _atom_site_symmetry_multiplicity
 _atom_site_fract_x
 _atom_site_fract_y
 _atom_site_fract_z
 _atom_site_occupancy
  Na  Na0  1  0.134787  0.865213  0.169829  1
  Na  Na1  1  0.269573  0.134787  0.669829  1
  Na  Na2  1  0.865213  0.730427  0.669829  1
  Na  Na3  1  0.134787  0.269573  0.169829  1
  Na  Na4  1  0.730427  0.865213  0.169829  1
  Na  Na5  1  0.865213  0.134787  0.669829  1
  Sr  Sr6  1  0.954018  0.477009  0.999437  1
  Sr  Sr7  1  0.522991  0.045982  0.999437  1
  Sr  Sr8  1  0.477009  0.954018  0.499437  1
  Sr  Sr9  1  0.045982  0.522991  0.499437  1
  Sr  Sr10  1  0.522991  0.477009  0.999437  1
  Sr  Sr11  1  0.477009  0.522991  0.499437  1
  Ga  Ga12  1  0.666667  0.333333  0.375276  1
  Ga  Ga13  1  0.333333  0.666667  0.875276  1
  P  P14  1  0.333333  0.666667  0.214869  1
  P  P15  1  0.809365  0.190635  0.280019  1
  P  P16  1  0.618730  0.809365  0.780019  1
  P  P17  1  0.190635  0.381270  0.780019  1
  P  P18  1  0.809365  0.618730  0.280019  1
  P  P19  1  0.666667  0.333333  0.714869  1
  P  P20  1  0.381270  0.190635  0.280019  1
  P  P21  1  0.190635  0.809365  0.780019  1
