# generated using pymatgen
data_SrMnO3
_symmetry_space_group_name_H-M   'P 1'
_cell_length_a   5.53579132
_cell_length_b   5.53579132
_cell_length_c   9.27845293
_cell_angle_alpha   90.00000000
_cell_angle_beta   90.00000000
_cell_angle_gamma   120.00000000
_symmetry_Int_Tables_number   1
_chemical_formula_structural   SrMnO3
_chemical_formula_sum   'Sr4 Mn4 O12'
_cell_volume   246.24397952
_cell_formula_units_Z   4
loop_
 _symmetry_equiv_pos_site_id
 _symmetry_equiv_pos_as_xyz
  1  'x, y, z'
loop_
 _atom_site_type_symbol
 _atom_site_label
 _atom_site_symmetry_multiplicity
 _atom_site_fract_x
 _atom_site_fract_y
 _atom_site_fract_z
 _atom_site_occupancy
  Sr  Sr0  1  0.666667  0.333333  0.750000  1
  Sr  Sr1  1  0.333333  0.666667  0.250000  1
  Sr  Sr2  1  0.000000  0.000000  0.500000  1
  Sr  Sr3  1  0.000000  0.000000  0.000000  1
  Mn  Mn4  1  0.333333  0.666667  0.887135  1
  Mn  Mn5  1  0.666667  0.333333  0.387135  1
  Mn  Mn6  1  0.666667  0.333333  0.112865  1
  Mn  Mn7  1  0.333333  0.666667  0.612865  1
  O  O8  1  0.819117  0.180883  0.250000  1
  O  O9  1  0.638234  0.819117  0.750000  1
  O  O10  1  0.180883  0.361766  0.750000  1
  O  O11  1  0.819117  0.638234  0.250000  1
  O  O12  1  0.361766  0.180883  0.250000  1
  O  O13  1  0.180883  0.819117  0.750000  1
  O  O14  1  0.500000  0.000000  0.500000  1
  O  O15  1  0.500000  0.500000  0.000000  1
  O  O16  1  0.500000  0.000000  0.000000  1
  O  O17  1  0.500000  0.500000  0.500000  1
  O  O18  1  0.000000  0.500000  0.500000  1
  O  O19  1  0.000000  0.500000  0.000000  1
