# generated using pymatgen
data_Nd2SiTeO4
_symmetry_space_group_name_H-M   'P 1'
_cell_length_a   6.35765808
_cell_length_b   7.26720564
_cell_length_c   11.30188354
_cell_angle_alpha   90.00000000
_cell_angle_beta   90.00000000
_cell_angle_gamma   90.00000000
_symmetry_Int_Tables_number   1
_chemical_formula_structural   Nd2SiTeO4
_chemical_formula_sum   'Nd8 Si4 Te4 O16'
_cell_volume   522.17424190
_cell_formula_units_Z   4
loop_
 _symmetry_equiv_pos_site_id
 _symmetry_equiv_pos_as_xyz
  1  'x, y, z'
loop_
 _atom_site_type_symbol
 _atom_site_label
 _atom_site_symmetry_multiplicity
 _atom_site_fract_x
 _atom_site_fract_y
 _atom_site_fract_z
 _atom_site_occupancy
  Nd  Nd0  1  0.387928  0.750000  0.500000  1
  Nd  Nd1  1  0.387928  0.750000  0.000000  1
  Nd  Nd2  1  0.612072  0.250000  0.500000  1
  Nd  Nd3  1  0.612072  0.250000  0.000000  1
  Nd  Nd4  1  0.887245  0.961078  0.750000  1
  Nd  Nd5  1  0.887245  0.538922  0.250000  1
  Nd  Nd6  1  0.112755  0.461078  0.750000  1
  Nd  Nd7  1  0.112755  0.038922  0.250000  1
  Si  Si8  1  0.114272  0.250000  0.000000  1
  Si  Si9  1  0.885728  0.750000  0.000000  1
  Si  Si10  1  0.885728  0.750000  0.500000  1
  Si  Si11  1  0.114272  0.250000  0.500000  1
  Te  Te12  1  0.596089  0.579164  0.750000  1
  Te  Te13  1  0.596089  0.920836  0.250000  1
  Te  Te14  1  0.403911  0.079164  0.750000  1
  Te  Te15  1  0.403911  0.420836  0.250000  1
  O  O16  1  0.269527  0.077117  0.464373  1
  O  O17  1  0.269527  0.422883  0.535627  1
  O  O18  1  0.730473  0.577117  0.035627  1
  O  O19  1  0.730473  0.922883  0.964373  1
  O  O20  1  0.730473  0.922883  0.535627  1
  O  O21  1  0.730473  0.577117  0.464373  1
  O  O22  1  0.269527  0.422883  0.964373  1
  O  O23  1  0.269527  0.077117  0.035627  1
  O  O24  1  0.047854  0.769300  0.384829  1
  O  O25  1  0.047854  0.769300  0.115171  1
  O  O26  1  0.952146  0.269300  0.115171  1
  O  O27  1  0.952146  0.230700  0.884829  1
  O  O28  1  0.952146  0.230700  0.615171  1
  O  O29  1  0.952146  0.269300  0.384829  1
  O  O30  1  0.047854  0.730700  0.884829  1
  O  O31  1  0.047854  0.730700  0.615171  1
