# generated using pymatgen
data_Ba3Tm4O9
_symmetry_space_group_name_H-M   'P 1'
_cell_length_a   9.11345381
_cell_length_b   9.11345381
_cell_length_c   9.11345381
_cell_angle_alpha   38.93567440
_cell_angle_beta   38.93567440
_cell_angle_gamma   38.93567440
_symmetry_Int_Tables_number   1
_chemical_formula_structural   Ba3Tm4O9
_chemical_formula_sum   'Ba3 Tm4 O9'
_cell_volume   268.81076963
_cell_formula_units_Z   1
loop_
 _symmetry_equiv_pos_site_id
 _symmetry_equiv_pos_as_xyz
  1  'x, y, z'
loop_
 _atom_site_type_symbol
 _atom_site_label
 _atom_site_symmetry_multiplicity
 _atom_site_fract_x
 _atom_site_fract_y
 _atom_site_fract_z
 _atom_site_occupancy
  Ba  Ba0  1  0.000461  0.000461  0.000461  1
  Ba  Ba1  1  0.836161  0.836161  0.836161  1
  Ba  Ba2  1  0.421332  0.421332  0.421332  1
  Tm  Tm3  1  0.575024  0.575024  0.575024  1
  Tm  Tm4  1  0.136231  0.136231  0.136231  1
  Tm  Tm5  1  0.261429  0.261429  0.261429  1
  Tm  Tm6  1  0.699832  0.699832  0.699832  1
  O  O7  1  0.428711  0.959508  0.532948  1
  O  O8  1  0.959508  0.532948  0.428711  1
  O  O9  1  0.532948  0.428711  0.959508  1
  O  O10  1  0.311506  0.873772  0.399001  1
  O  O11  1  0.873772  0.399001  0.311506  1
  O  O12  1  0.399001  0.311506  0.873772  1
  O  O13  1  0.419107  0.865756  0.969722  1
  O  O14  1  0.969722  0.419107  0.865756  1
  O  O15  1  0.865756  0.969722  0.419107  1
