# generated using pymatgen
data_KMnO4
_symmetry_space_group_name_H-M   'P 1'
_cell_length_a   5.92929403
_cell_length_b   7.57733955
_cell_length_c   9.23189056
_cell_angle_alpha   90.00000000
_cell_angle_beta   90.00000000
_cell_angle_gamma   90.00000000
_symmetry_Int_Tables_number   1
_chemical_formula_structural   KMnO4
_chemical_formula_sum   'K4 Mn4 O16'
_cell_volume   414.77291007
_cell_formula_units_Z   4
loop_
 _symmetry_equiv_pos_site_id
 _symmetry_equiv_pos_as_xyz
  1  'x, y, z'
loop_
 _atom_site_type_symbol
 _atom_site_label
 _atom_site_symmetry_multiplicity
 _atom_site_fract_x
 _atom_site_fract_y
 _atom_site_fract_z
 _atom_site_occupancy
  K  K0  1  0.250000  0.656873  0.318864  1
  K  K1  1  0.750000  0.343127  0.681136  1
  K  K2  1  0.750000  0.156873  0.181136  1
  K  K3  1  0.250000  0.843127  0.818864  1
  Mn  Mn4  1  0.250000  0.189059  0.440574  1
  Mn  Mn5  1  0.750000  0.810941  0.559426  1
  Mn  Mn6  1  0.750000  0.689059  0.059426  1
  Mn  Mn7  1  0.250000  0.310941  0.940574  1
  O  O8  1  0.526464  0.810790  0.078294  1
  O  O9  1  0.026464  0.189210  0.921706  1
  O  O10  1  0.473536  0.310790  0.421706  1
  O  O11  1  0.973536  0.689210  0.578294  1
  O  O12  1  0.473536  0.189210  0.921706  1
  O  O13  1  0.973536  0.810790  0.078294  1
  O  O14  1  0.526464  0.689210  0.578294  1
  O  O15  1  0.026464  0.310790  0.421706  1
  O  O16  1  0.250000  0.036300  0.318463  1
  O  O17  1  0.750000  0.963700  0.681537  1
  O  O18  1  0.750000  0.536300  0.181537  1
  O  O19  1  0.250000  0.463700  0.818463  1
  O  O20  1  0.250000  0.101651  0.599860  1
  O  O21  1  0.750000  0.898349  0.400140  1
  O  O22  1  0.750000  0.601651  0.900140  1
  O  O23  1  0.250000  0.398349  0.099860  1
