# generated using pymatgen
data_Au3F8
_symmetry_space_group_name_H-M   'P 1'
_cell_length_a   5.59707680
_cell_length_b   10.94133560
_cell_length_c   8.00610501
_cell_angle_alpha   90.00000000
_cell_angle_beta   132.17913041
_cell_angle_gamma   90.00000000
_symmetry_Int_Tables_number   1
_chemical_formula_structural   Au3F8
_chemical_formula_sum   'Au6 F16'
_cell_volume   363.32889645
_cell_formula_units_Z   2
loop_
 _symmetry_equiv_pos_site_id
 _symmetry_equiv_pos_as_xyz
  1  'x, y, z'
loop_
 _atom_site_type_symbol
 _atom_site_label
 _atom_site_symmetry_multiplicity
 _atom_site_fract_x
 _atom_site_fract_y
 _atom_site_fract_z
 _atom_site_occupancy
  Au  Au0  1  0.154037  0.320042  0.963594  1
  Au  Au1  1  0.845963  0.820042  0.536406  1
  Au  Au2  1  0.845963  0.679958  0.036406  1
  Au  Au3  1  0.154037  0.179958  0.463594  1
  Au  Au4  1  0.000000  0.000000  0.000000  1
  Au  Au5  1  0.000000  0.500000  0.500000  1
  F  F6  1  0.352823  0.476159  0.111277  1
  F  F7  1  0.647177  0.976159  0.388723  1
  F  F8  1  0.647177  0.523841  0.888723  1
  F  F9  1  0.352823  0.023841  0.611277  1
  F  F10  1  0.133210  0.902241  0.840333  1
  F  F11  1  0.866790  0.402241  0.659667  1
  F  F12  1  0.956645  0.342521  0.314275  1
  F  F13  1  0.043355  0.842521  0.185725  1
  F  F14  1  0.043355  0.657479  0.685725  1
  F  F15  1  0.956645  0.157479  0.814275  1
  F  F16  1  0.411915  0.265655  0.750577  1
  F  F17  1  0.588085  0.765655  0.749423  1
  F  F18  1  0.588085  0.734345  0.249423  1
  F  F19  1  0.411915  0.234345  0.250577  1
  F  F20  1  0.133210  0.597759  0.340333  1
  F  F21  1  0.866790  0.097759  0.159667  1
