# generated using pymatgen
data_SnTe3O8
_symmetry_space_group_name_H-M   'P 1'
_cell_length_a   9.90689795
_cell_length_b   9.90689795
_cell_length_c   9.90689795
_cell_angle_alpha   109.47122063
_cell_angle_beta   109.47122063
_cell_angle_gamma   109.47122063
_symmetry_Int_Tables_number   1
_chemical_formula_structural   SnTe3O8
_chemical_formula_sum   'Sn4 Te12 O32'
_cell_volume   748.49891847
_cell_formula_units_Z   4
loop_
 _symmetry_equiv_pos_site_id
 _symmetry_equiv_pos_as_xyz
  1  'x, y, z'
loop_
 _atom_site_type_symbol
 _atom_site_label
 _atom_site_symmetry_multiplicity
 _atom_site_fract_x
 _atom_site_fract_y
 _atom_site_fract_z
 _atom_site_occupancy
  Sn  Sn0  1  0.000000  0.000000  0.000000  1
  Sn  Sn1  1  1.000000  0.500000  0.500000  1
  Sn  Sn2  1  0.500000  1.000000  0.500000  1
  Sn  Sn3  1  0.500000  0.500000  0.000000  1
  Te  Te4  1  0.948511  0.698511  0.250000  1
  Te  Te5  1  0.750000  0.551489  0.801489  1
  Te  Te6  1  0.750000  0.051489  0.301489  1
  Te  Te7  1  0.198511  0.250000  0.448511  1
  Te  Te8  1  0.448511  0.198511  0.250000  1
  Te  Te9  1  0.301489  0.750000  0.051489  1
  Te  Te10  1  0.051489  0.301489  0.750000  1
  Te  Te11  1  0.250000  0.448511  0.198511  1
  Te  Te12  1  0.698511  0.250000  0.948511  1
  Te  Te13  1  0.551489  0.801489  0.750000  1
  Te  Te14  1  0.801489  0.750000  0.551489  1
  Te  Te15  1  0.250000  0.948511  0.698511  1
  O  O16  1  0.829785  0.500000  1.000000  1
  O  O17  1  0.500000  1.000000  0.829785  1
  O  O18  1  1.000000  0.829785  0.500000  1
  O  O19  1  0.670215  0.670215  0.670215  1
  O  O20  1  0.170215  0.500000  0.000000  1
  O  O21  1  0.500000  1.000000  0.170215  1
  O  O22  1  1.000000  0.170215  0.500000  1
  O  O23  1  0.329785  0.329785  0.329785  1
  O  O24  1  0.047850  0.476353  0.710050  1
  O  O25  1  0.266303  0.337800  0.789950  1
  O  O26  1  0.233697  0.023647  0.071497  1
  O  O27  1  0.162200  0.428503  0.452150  1
  O  O28  1  0.428503  0.452150  0.162200  1
  O  O29  1  0.710050  0.047850  0.476353  1
  O  O30  1  0.337800  0.789950  0.266303  1
  O  O31  1  0.071497  0.233697  0.023647  1
  O  O32  1  0.547850  0.837800  0.571497  1
  O  O33  1  0.976353  0.928503  0.766303  1
  O  O34  1  0.210050  0.733697  0.662200  1
  O  O35  1  0.523647  0.289950  0.952150  1
  O  O36  1  0.928503  0.766303  0.976353  1
  O  O37  1  0.662200  0.210050  0.733697  1
  O  O38  1  0.289950  0.952150  0.523647  1
  O  O39  1  0.571497  0.547850  0.837800  1
  O  O40  1  0.837800  0.571497  0.547850  1
  O  O41  1  0.766303  0.976353  0.928503  1
  O  O42  1  0.733697  0.662200  0.210050  1
  O  O43  1  0.952150  0.523647  0.289950  1
  O  O44  1  0.452150  0.162200  0.428503  1
  O  O45  1  0.023647  0.071497  0.233697  1
  O  O46  1  0.789950  0.266303  0.337800  1
  O  O47  1  0.476353  0.710050  0.047850  1
