# generated using pymatgen
data_Ba10P6SO24
_symmetry_space_group_name_H-M   'P 1'
_cell_length_a   10.39360314
_cell_length_b   10.39360314
_cell_length_c   7.75835484
_cell_angle_alpha   90.00000000
_cell_angle_beta   90.00000000
_cell_angle_gamma   120.00000000
_symmetry_Int_Tables_number   1
_chemical_formula_structural   Ba10P6SO24
_chemical_formula_sum   'Ba10 P6 S1 O24'
_cell_volume   725.82601601
_cell_formula_units_Z   1
loop_
 _symmetry_equiv_pos_site_id
 _symmetry_equiv_pos_as_xyz
  1  'x, y, z'
loop_
 _atom_site_type_symbol
 _atom_site_label
 _atom_site_symmetry_multiplicity
 _atom_site_fract_x
 _atom_site_fract_y
 _atom_site_fract_z
 _atom_site_occupancy
  Ba  Ba0  1  0.985798  0.741375  0.738896  1
  Ba  Ba1  1  0.258625  0.244423  0.738896  1
  Ba  Ba2  1  0.755577  0.014202  0.738896  1
  Ba  Ba3  1  0.741375  0.755577  0.261104  1
  Ba  Ba4  1  0.014202  0.258625  0.261104  1
  Ba  Ba5  1  0.244423  0.985798  0.261104  1
  Ba  Ba6  1  0.666667  0.333333  0.480189  1
  Ba  Ba7  1  0.333333  0.666667  0.519811  1
  Ba  Ba8  1  0.666667  0.333333  0.980912  1
  Ba  Ba9  1  0.333333  0.666667  0.019088  1
  P  P10  1  0.368899  0.970201  0.751886  1
  P  P11  1  0.601302  0.631101  0.751886  1
  P  P12  1  0.970201  0.601302  0.248114  1
  P  P13  1  0.029799  0.398698  0.751886  1
  P  P14  1  0.398698  0.368899  0.248114  1
  P  P15  1  0.631101  0.029799  0.248114  1
  S  S16  1  0.000000  0.000000  0.500000  1
  O  O17  1  0.477037  0.141181  0.737344  1
  O  O18  1  0.094803  0.376214  0.580575  1
  O  O19  1  0.281410  0.905196  0.580575  1
  O  O20  1  0.623786  0.718590  0.580575  1
  O  O21  1  0.905196  0.623786  0.419425  1
  O  O22  1  0.718590  0.094803  0.419425  1
  O  O23  1  0.376214  0.281410  0.419425  1
  O  O24  1  0.062460  0.316641  0.899114  1
  O  O25  1  0.254181  0.937540  0.899114  1
  O  O26  1  0.683359  0.745819  0.899114  1
  O  O27  1  0.316641  0.254181  0.100886  1
  O  O28  1  0.111224  0.569880  0.786937  1
  O  O29  1  0.458656  0.888776  0.786937  1
  O  O30  1  0.430120  0.541344  0.786937  1
  O  O31  1  0.888776  0.430120  0.213063  1
  O  O32  1  0.541344  0.111224  0.213063  1
  O  O33  1  0.335856  0.477037  0.262656  1
  O  O34  1  0.522963  0.858819  0.262656  1
  O  O35  1  0.141181  0.664144  0.262656  1
  O  O36  1  0.664144  0.522963  0.737344  1
  O  O37  1  0.745819  0.062460  0.100886  1
  O  O38  1  0.858819  0.335856  0.737344  1
  O  O39  1  0.569880  0.458656  0.213063  1
  O  O40  1  0.937540  0.683359  0.100886  1
