# generated using pymatgen
data_RbBe3ZnF9
_symmetry_space_group_name_H-M   'P 1'
_cell_length_a   6.78528334
_cell_length_b   6.78528334
_cell_length_c   9.81390134
_cell_angle_alpha   90.00000000
_cell_angle_beta   90.00000000
_cell_angle_gamma   120.00000000
_symmetry_Int_Tables_number   1
_chemical_formula_structural   RbBe3ZnF9
_chemical_formula_sum   'Rb2 Be6 Zn2 F18'
_cell_volume   391.29860032
_cell_formula_units_Z   2
loop_
 _symmetry_equiv_pos_site_id
 _symmetry_equiv_pos_as_xyz
  1  'x, y, z'
loop_
 _atom_site_type_symbol
 _atom_site_label
 _atom_site_symmetry_multiplicity
 _atom_site_fract_x
 _atom_site_fract_y
 _atom_site_fract_z
 _atom_site_occupancy
  Rb  Rb0  1  0.333333  0.666667  0.500000  1
  Rb  Rb1  1  0.333333  0.666667  0.000000  1
  Be  Be2  1  0.876072  0.266733  0.250000  1
  Be  Be3  1  0.876072  0.609339  0.750000  1
  Be  Be4  1  0.390661  0.266733  0.750000  1
  Be  Be5  1  0.733267  0.123928  0.750000  1
  Be  Be6  1  0.733267  0.609339  0.250000  1
  Be  Be7  1  0.390661  0.123928  0.250000  1
  Zn  Zn8  1  0.000000  0.000000  0.500000  1
  Zn  Zn9  1  0.000000  0.000000  0.000000  1
  F  F10  1  0.754128  0.008033  0.619581  1
  F  F11  1  0.253905  0.245872  0.619581  1
  F  F12  1  0.991967  0.746095  0.619581  1
  F  F13  1  0.991967  0.245872  0.380419  1
  F  F14  1  0.906726  0.517003  0.250000  1
  F  F15  1  0.610277  0.093274  0.250000  1
  F  F16  1  0.482997  0.389723  0.250000  1
  F  F17  1  0.482997  0.093274  0.750000  1
  F  F18  1  0.610277  0.517003  0.750000  1
  F  F19  1  0.906726  0.389723  0.750000  1
  F  F20  1  0.991967  0.245872  0.119581  1
  F  F21  1  0.253905  0.008033  0.380419  1
  F  F22  1  0.754128  0.746095  0.380419  1
  F  F23  1  0.754128  0.746095  0.119581  1
  F  F24  1  0.253905  0.008033  0.119581  1
  F  F25  1  0.754128  0.008033  0.880419  1
  F  F26  1  0.253905  0.245872  0.880419  1
  F  F27  1  0.991967  0.746095  0.880419  1
