# generated using pymatgen
data_NaV(SiO3)2
_symmetry_space_group_name_H-M   'P 1'
_cell_length_a   6.61502632
_cell_length_b   6.61502632
_cell_length_c   5.39500787
_cell_angle_alpha   77.31254436
_cell_angle_beta   102.68745564
_cell_angle_gamma   95.53888273
_symmetry_Int_Tables_number   1
_chemical_formula_structural   NaV(SiO3)2
_chemical_formula_sum   'Na2 V2 Si4 O12'
_cell_volume   224.40050060
_cell_formula_units_Z   2
loop_
 _symmetry_equiv_pos_site_id
 _symmetry_equiv_pos_as_xyz
  1  'x, y, z'
loop_
 _atom_site_type_symbol
 _atom_site_label
 _atom_site_symmetry_multiplicity
 _atom_site_fract_x
 _atom_site_fract_y
 _atom_site_fract_z
 _atom_site_occupancy
  Na  Na0  1  0.703619  0.703619  0.250000  1
  Na  Na1  1  0.296381  0.296381  0.750000  1
  V  V2  1  0.095384  0.095384  0.250000  1
  V  V3  1  0.904616  0.904616  0.750000  1
  Si  Si4  1  0.381384  0.797176  0.742210  1
  Si  Si5  1  0.202824  0.618616  0.242210  1
  Si  Si6  1  0.797176  0.381384  0.757790  1
  Si  Si7  1  0.618616  0.202824  0.257790  1
  O  O8  1  0.805202  0.037921  0.352545  1
  O  O9  1  0.194798  0.962079  0.647455  1
  O  O10  1  0.107672  0.383459  0.303413  1
  O  O11  1  0.347038  0.643092  0.020783  1
  O  O12  1  0.962079  0.194798  0.852545  1
  O  O13  1  0.643092  0.347038  0.479217  1
  O  O14  1  0.892328  0.616541  0.696587  1
  O  O15  1  0.037921  0.805202  0.147455  1
  O  O16  1  0.356908  0.652962  0.520783  1
  O  O17  1  0.383459  0.107672  0.196587  1
  O  O18  1  0.652962  0.356908  0.979217  1
  O  O19  1  0.616541  0.892328  0.803413  1
