# generated using pymatgen
data_K3Cu3As2
_symmetry_space_group_name_H-M   'P 1'
_cell_length_a   7.64933591
_cell_length_b   7.64933591
_cell_length_c   7.64933591
_cell_angle_alpha   44.59344093
_cell_angle_beta   44.59344093
_cell_angle_gamma   44.59344093
_symmetry_Int_Tables_number   1
_chemical_formula_structural   K3Cu3As2
_chemical_formula_sum   'K3 Cu3 As2'
_cell_volume   200.62661671
_cell_formula_units_Z   1
loop_
 _symmetry_equiv_pos_site_id
 _symmetry_equiv_pos_as_xyz
  1  'x, y, z'
loop_
 _atom_site_type_symbol
 _atom_site_label
 _atom_site_symmetry_multiplicity
 _atom_site_fract_x
 _atom_site_fract_y
 _atom_site_fract_z
 _atom_site_occupancy
  K  K0  1  0.910629  0.910629  0.910629  1
  K  K1  1  0.089371  0.089371  0.089371  1
  K  K2  1  0.500000  0.500000  0.500000  1
  Cu  Cu3  1  0.500000  0.000000  0.500000  1
  Cu  Cu4  1  0.500000  0.500000  1.000000  1
  Cu  Cu5  1  0.000000  0.500000  0.500000  1
  As  As6  1  0.252345  0.252345  0.252345  1
  As  As7  1  0.747655  0.747655  0.747655  1
