# generated using pymatgen
data_CsKNa2Li12(SiO4)4
_symmetry_space_group_name_H-M   'P 1'
_cell_length_a   8.50855062
_cell_length_b   8.50855062
_cell_length_c   8.50855062
_cell_angle_alpha   98.21141902
_cell_angle_beta   98.21141902
_cell_angle_gamma   135.58975930
_symmetry_Int_Tables_number   1
_chemical_formula_structural   CsKNa2Li12(SiO4)4
_chemical_formula_sum   'Cs1 K1 Na2 Li12 Si4 O16'
_cell_volume   399.08883452
_cell_formula_units_Z   1
loop_
 _symmetry_equiv_pos_site_id
 _symmetry_equiv_pos_as_xyz
  1  'x, y, z'
loop_
 _atom_site_type_symbol
 _atom_site_label
 _atom_site_symmetry_multiplicity
 _atom_site_fract_x
 _atom_site_fract_y
 _atom_site_fract_z
 _atom_site_occupancy
  Cs  Cs0  1  0.000000  0.000000  0.000000  1
  K  K1  1  0.500000  0.500000  0.000000  1
  Na  Na2  1  0.750000  0.250000  0.500000  1
  Na  Na3  1  0.250000  0.750000  0.500000  1
  Li  Li4  1  0.710052  0.926397  0.636449  1
  Li  Li5  1  0.926397  0.289948  0.216344  1
  Li  Li6  1  0.289948  0.073603  0.363551  1
  Li  Li7  1  0.073603  0.710052  0.783656  1
  Li  Li8  1  0.499388  0.853651  0.871227  1
  Li  Li9  1  0.628161  0.499388  0.645737  1
  Li  Li10  1  0.500612  0.146349  0.128773  1
  Li  Li11  1  0.982424  0.628161  0.128773  1
  Li  Li12  1  0.017576  0.371839  0.871227  1
  Li  Li13  1  0.146349  0.017576  0.645737  1
  Li  Li14  1  0.371839  0.500612  0.354263  1
  Li  Li15  1  0.853651  0.982424  0.354263  1
  Si  Si16  1  0.421458  0.785471  0.206929  1
  Si  Si17  1  0.578542  0.214529  0.793071  1
  Si  Si18  1  0.214529  0.421458  0.635987  1
  Si  Si19  1  0.785471  0.578542  0.364013  1
  O  O20  1  0.489979  0.378649  0.299193  1
  O  O21  1  0.378649  0.079456  0.888670  1
  O  O22  1  0.079456  0.190786  0.700807  1
  O  O23  1  0.190786  0.489979  0.111330  1
  O  O24  1  0.621351  0.920544  0.111330  1
  O  O25  1  0.510021  0.621351  0.700807  1
  O  O26  1  0.809214  0.510021  0.888670  1
  O  O27  1  0.920544  0.809214  0.299193  1
  O  O28  1  0.838026  0.438498  0.276525  1
  O  O29  1  0.561502  0.838026  0.399528  1
  O  O30  1  0.438498  0.161974  0.600472  1
  O  O31  1  0.161974  0.561502  0.723475  1
  O  O32  1  0.672769  0.100026  0.772795  1
  O  O33  1  0.899974  0.672769  0.572744  1
  O  O34  1  0.100026  0.327231  0.427256  1
  O  O35  1  0.327231  0.899974  0.227205  1
