# generated using pymatgen
data_Ag2PSe3
_symmetry_space_group_name_H-M   'P 1'
_cell_length_a   6.63126183
_cell_length_b   11.75556468
_cell_length_c   14.70132352
_cell_angle_alpha   90.00000000
_cell_angle_beta   90.00000000
_cell_angle_gamma   90.00000000
_symmetry_Int_Tables_number   1
_chemical_formula_structural   Ag2PSe3
_chemical_formula_sum   'Ag16 P8 Se24'
_cell_volume   1146.03031606
_cell_formula_units_Z   8
loop_
 _symmetry_equiv_pos_site_id
 _symmetry_equiv_pos_as_xyz
  1  'x, y, z'
loop_
 _atom_site_type_symbol
 _atom_site_label
 _atom_site_symmetry_multiplicity
 _atom_site_fract_x
 _atom_site_fract_y
 _atom_site_fract_z
 _atom_site_occupancy
  Ag  Ag0  1  0.780082  0.286746  0.628895  1
  Ag  Ag1  1  0.280082  0.213254  0.371105  1
  Ag  Ag2  1  0.219918  0.786746  0.871105  1
  Ag  Ag3  1  0.719918  0.713254  0.128895  1
  Ag  Ag4  1  0.464260  0.304641  0.107114  1
  Ag  Ag5  1  0.964260  0.195359  0.892886  1
  Ag  Ag6  1  0.535740  0.804641  0.392886  1
  Ag  Ag7  1  0.035740  0.695359  0.607114  1
  Ag  Ag8  1  0.575378  0.615912  0.875272  1
  Ag  Ag9  1  0.075378  0.884088  0.124728  1
  Ag  Ag10  1  0.424622  0.115912  0.624728  1
  Ag  Ag11  1  0.924622  0.384088  0.375272  1
  Ag  Ag12  1  0.583330  0.361000  0.887781  1
  Ag  Ag13  1  0.083330  0.139000  0.112219  1
  Ag  Ag14  1  0.416670  0.861000  0.612219  1
  Ag  Ag15  1  0.916670  0.639000  0.387781  1
  P  P16  1  0.107513  0.469265  0.800645  1
  P  P17  1  0.607513  0.030735  0.199355  1
  P  P18  1  0.892487  0.969265  0.699355  1
  P  P19  1  0.392487  0.530735  0.300645  1
  P  P20  1  0.062641  0.505016  0.955686  1
  P  P21  1  0.562641  0.994984  0.044314  1
  P  P22  1  0.937359  0.005016  0.544314  1
  P  P23  1  0.437359  0.494984  0.455686  1
  Se  Se24  1  0.259416  0.301145  0.790085  1
  Se  Se25  1  0.759416  0.198855  0.209915  1
  Se  Se26  1  0.740584  0.801145  0.709915  1
  Se  Se27  1  0.240584  0.698855  0.290085  1
  Se  Se28  1  0.802810  0.470334  0.738951  1
  Se  Se29  1  0.302810  0.029666  0.261049  1
  Se  Se30  1  0.197190  0.970334  0.761049  1
  Se  Se31  1  0.697190  0.529666  0.238951  1
  Se  Se32  1  0.135628  0.486469  0.519097  1
  Se  Se33  1  0.635628  0.013531  0.480903  1
  Se  Se34  1  0.864372  0.986469  0.980903  1
  Se  Se35  1  0.364372  0.513531  0.019097  1
  Se  Se36  1  0.619041  0.637203  0.513909  1
  Se  Se37  1  0.119041  0.862797  0.486091  1
  Se  Se38  1  0.380959  0.137203  0.986091  1
  Se  Se39  1  0.880959  0.362797  0.013909  1
  Se  Se40  1  0.590885  0.323615  0.463002  1
  Se  Se41  1  0.090885  0.176385  0.536998  1
  Se  Se42  1  0.409115  0.823615  0.036998  1
  Se  Se43  1  0.909115  0.676385  0.963002  1
  Se  Se44  1  0.207639  0.384452  0.246113  1
  Se  Se45  1  0.707639  0.115548  0.753887  1
  Se  Se46  1  0.792361  0.884452  0.253887  1
  Se  Se47  1  0.292361  0.615548  0.746113  1
