# generated using pymatgen
data_SrV2(AsO5)2
_symmetry_space_group_name_H-M   'P 1'
_cell_length_a   5.00096193
_cell_length_b   12.74520534
_cell_length_c   12.92960641
_cell_angle_alpha   90.00000000
_cell_angle_beta   90.00000000
_cell_angle_gamma   90.00000000
_symmetry_Int_Tables_number   1
_chemical_formula_structural   SrV2(AsO5)2
_chemical_formula_sum   'Sr4 V8 As8 O40'
_cell_volume   824.11096022
_cell_formula_units_Z   4
loop_
 _symmetry_equiv_pos_site_id
 _symmetry_equiv_pos_as_xyz
  1  'x, y, z'
loop_
 _atom_site_type_symbol
 _atom_site_label
 _atom_site_symmetry_multiplicity
 _atom_site_fract_x
 _atom_site_fract_y
 _atom_site_fract_z
 _atom_site_occupancy
  Sr  Sr0  1  0.738152  0.007287  0.767488  1
  Sr  Sr1  1  0.238152  0.492713  0.232512  1
  Sr  Sr2  1  0.261848  0.507287  0.732512  1
  Sr  Sr3  1  0.761848  0.992713  0.267488  1
  V  V4  1  0.493497  0.347754  0.993336  1
  V  V5  1  0.993497  0.152246  0.006664  1
  V  V6  1  0.506503  0.847754  0.506664  1
  V  V7  1  0.006503  0.652246  0.493336  1
  V  V8  1  0.774080  0.756110  0.097451  1
  V  V9  1  0.274080  0.743890  0.902549  1
  V  V10  1  0.225920  0.256110  0.402549  1
  V  V11  1  0.725920  0.243890  0.597451  1
  As  As12  1  0.958676  0.532931  0.997207  1
  As  As13  1  0.458676  0.967069  0.002793  1
  As  As14  1  0.041324  0.032931  0.502793  1
  As  As15  1  0.541324  0.467069  0.497207  1
  As  As16  1  0.265091  0.761327  0.280939  1
  As  As17  1  0.765091  0.738673  0.719061  1
  As  As18  1  0.734909  0.261327  0.219061  1
  As  As19  1  0.234909  0.238673  0.780939  1
  O  O20  1  0.756498  0.266941  0.966994  1
  O  O21  1  0.256498  0.233059  0.033006  1
  O  O22  1  0.243502  0.766941  0.533006  1
  O  O23  1  0.743502  0.733059  0.466994  1
  O  O24  1  0.019604  0.787433  0.010375  1
  O  O25  1  0.519604  0.712567  0.989625  1
  O  O26  1  0.980396  0.287433  0.489625  1
  O  O27  1  0.480396  0.212567  0.510375  1
  O  O28  1  0.094153  0.601712  0.894116  1
  O  O29  1  0.594153  0.898288  0.105884  1
  O  O30  1  0.905847  0.101712  0.605884  1
  O  O31  1  0.405847  0.398288  0.394116  1
  O  O32  1  0.905665  0.605050  0.109587  1
  O  O33  1  0.405665  0.894950  0.890413  1
  O  O34  1  0.677831  0.478265  0.945348  1
  O  O35  1  0.094335  0.105050  0.390413  1
  O  O36  1  0.187101  0.444222  0.044946  1
  O  O37  1  0.687101  0.055778  0.955054  1
  O  O38  1  0.812899  0.944222  0.455054  1
  O  O39  1  0.312899  0.555778  0.544946  1
  O  O40  1  0.516582  0.186846  0.722633  1
  O  O41  1  0.016582  0.313154  0.277367  1
  O  O42  1  0.483418  0.686846  0.777367  1
  O  O43  1  0.983418  0.813154  0.222633  1
  O  O44  1  0.016637  0.299154  0.697858  1
  O  O45  1  0.516637  0.200846  0.302142  1
  O  O46  1  0.983363  0.799154  0.802142  1
  O  O47  1  0.483363  0.700846  0.197858  1
  O  O48  1  0.102556  0.134375  0.849948  1
  O  O49  1  0.602556  0.365625  0.150052  1
  O  O50  1  0.897444  0.634375  0.650052  1
  O  O51  1  0.397444  0.865625  0.349948  1
  O  O52  1  0.327871  0.348145  0.852714  1
  O  O53  1  0.827871  0.151855  0.147286  1
  O  O54  1  0.672129  0.848145  0.647286  1
  O  O55  1  0.172129  0.651855  0.352714  1
  O  O56  1  0.822169  0.521735  0.445348  1
  O  O57  1  0.322169  0.978265  0.554652  1
  O  O58  1  0.177831  0.021735  0.054652  1
  O  O59  1  0.594335  0.394950  0.609587  1
