# generated using pymatgen
data_MnSe2O5
_symmetry_space_group_name_H-M   'P 1'
_cell_length_a   6.88169637
_cell_length_b   6.88169637
_cell_length_c   6.00981854
_cell_angle_alpha   74.71345482
_cell_angle_beta   105.28654518
_cell_angle_gamma   72.93182755
_symmetry_Int_Tables_number   1
_chemical_formula_structural   MnSe2O5
_chemical_formula_sum   'Mn2 Se4 O10'
_cell_volume   243.84241418
_cell_formula_units_Z   2
loop_
 _symmetry_equiv_pos_site_id
 _symmetry_equiv_pos_as_xyz
  1  'x, y, z'
loop_
 _atom_site_type_symbol
 _atom_site_label
 _atom_site_symmetry_multiplicity
 _atom_site_fract_x
 _atom_site_fract_y
 _atom_site_fract_z
 _atom_site_occupancy
  Mn  Mn0  1  0.917530  0.917530  0.250000  1
  Mn  Mn1  1  0.082470  0.082470  0.750000  1
  Se  Se2  1  0.796701  0.481853  0.132518  1
  Se  Se3  1  0.481853  0.796701  0.367482  1
  Se  Se4  1  0.203299  0.518147  0.867482  1
  Se  Se5  1  0.518147  0.203299  0.632518  1
  O  O6  1  0.575397  0.575397  0.250000  1
  O  O7  1  0.424603  0.424603  0.750000  1
  O  O8  1  0.973159  0.595805  0.227334  1
  O  O9  1  0.595805  0.973159  0.272666  1
  O  O10  1  0.026841  0.404195  0.772666  1
  O  O11  1  0.404195  0.026841  0.727334  1
  O  O12  1  0.784099  0.084915  0.840111  1
  O  O13  1  0.084915  0.784099  0.659889  1
  O  O14  1  0.215901  0.915085  0.159889  1
  O  O15  1  0.915085  0.215901  0.340111  1
