# generated using pymatgen
data_SrCu2GeS4
_symmetry_space_group_name_H-M   'P 1'
_cell_length_a   6.18227759
_cell_length_b   6.18227759
_cell_length_c   15.30418061
_cell_angle_alpha   90.00000000
_cell_angle_beta   90.00000000
_cell_angle_gamma   120.00000000
_symmetry_Int_Tables_number   1
_chemical_formula_structural   SrCu2GeS4
_chemical_formula_sum   'Sr3 Cu6 Ge3 S12'
_cell_volume   506.56795862
_cell_formula_units_Z   3
loop_
 _symmetry_equiv_pos_site_id
 _symmetry_equiv_pos_as_xyz
  1  'x, y, z'
loop_
 _atom_site_type_symbol
 _atom_site_label
 _atom_site_symmetry_multiplicity
 _atom_site_fract_x
 _atom_site_fract_y
 _atom_site_fract_z
 _atom_site_occupancy
  Sr  Sr0  1  0.445806  0.445806  0.000000  1
  Sr  Sr1  1  0.000000  0.554194  0.333333  1
  Sr  Sr2  1  0.554194  0.000000  0.666667  1
  Cu  Cu3  1  0.347753  0.425010  0.755350  1
  Cu  Cu4  1  0.922743  0.574990  0.577983  1
  Cu  Cu5  1  0.425010  0.347753  0.244650  1
  Cu  Cu6  1  0.077257  0.652247  0.088683  1
  Cu  Cu7  1  0.574990  0.922743  0.422017  1
  Cu  Cu8  1  0.652247  0.077257  0.911317  1
  Ge  Ge9  1  0.712860  0.000000  0.166667  1
  Ge  Ge10  1  0.000000  0.712860  0.833333  1
  Ge  Ge11  1  0.287140  0.287140  0.500000  1
  S  S12  1  0.765357  0.662919  0.168342  1
  S  S13  1  0.897563  0.234643  0.501675  1
  S  S14  1  0.337081  0.102437  0.835009  1
  S  S15  1  0.102437  0.337081  0.164991  1
  S  S16  1  0.234643  0.897563  0.498325  1
  S  S17  1  0.662919  0.765357  0.831658  1
  S  S18  1  0.961929  0.470221  0.948438  1
  S  S19  1  0.508292  0.038071  0.281771  1
  S  S20  1  0.038071  0.508292  0.718229  1
  S  S21  1  0.470221  0.961929  0.051562  1
  S  S22  1  0.491708  0.529779  0.384895  1
  S  S23  1  0.529779  0.491708  0.615105  1
