# generated using pymatgen
data_Na2TiZn2SiO7
_symmetry_space_group_name_H-M   'P 1'
_cell_length_a   5.25690300
_cell_length_b   11.84621000
_cell_length_c   20.34714300
_cell_angle_alpha   90.00000000
_cell_angle_beta   90.00000000
_cell_angle_gamma   90.00000000
_symmetry_Int_Tables_number   1
_chemical_formula_structural   Na2TiZn2SiO7
_chemical_formula_sum   'Na16 Ti8 Zn16 Si8 O56'
_cell_volume   1267.10565177
_cell_formula_units_Z   8
loop_
 _symmetry_equiv_pos_site_id
 _symmetry_equiv_pos_as_xyz
  1  'x, y, z'
loop_
 _atom_site_type_symbol
 _atom_site_label
 _atom_site_symmetry_multiplicity
 _atom_site_fract_x
 _atom_site_fract_y
 _atom_site_fract_z
 _atom_site_occupancy
  Na  Na0  1  0.755382  0.663968  0.171093  1
  Na  Na1  1  0.735460  0.176111  0.502450  1
  Na  Na2  1  0.235460  0.823889  0.997550  1
  Na  Na3  1  0.764540  0.676111  0.497550  1
  Na  Na4  1  0.264540  0.323889  0.002450  1
  Na  Na5  1  0.264540  0.823889  0.497550  1
  Na  Na6  1  0.764540  0.176111  0.002450  1
  Na  Na7  1  0.235460  0.323889  0.502450  1
  Na  Na8  1  0.255382  0.336032  0.328907  1
  Na  Na9  1  0.744618  0.163968  0.828907  1
  Na  Na10  1  0.244618  0.836032  0.671093  1
  Na  Na11  1  0.735460  0.676111  0.997550  1
  Na  Na12  1  0.744618  0.663968  0.671093  1
  Na  Na13  1  0.255382  0.836032  0.171093  1
  Na  Na14  1  0.755382  0.163968  0.328907  1
  Na  Na15  1  0.244618  0.336032  0.828907  1
  Ti  Ti16  1  0.789995  0.185033  0.164906  1
  Ti  Ti17  1  0.289995  0.814967  0.335094  1
  Ti  Ti18  1  0.710005  0.685033  0.835094  1
  Ti  Ti19  1  0.210005  0.314967  0.664906  1
  Ti  Ti20  1  0.210005  0.814967  0.835094  1
  Ti  Ti21  1  0.710005  0.185033  0.664906  1
  Ti  Ti22  1  0.289995  0.314967  0.164906  1
  Ti  Ti23  1  0.789995  0.685033  0.335094  1
  Zn  Zn24  1  0.753182  0.919684  0.739236  1
  Zn  Zn25  1  0.753182  0.419684  0.760764  1
  Zn  Zn26  1  0.253182  0.580316  0.739236  1
  Zn  Zn27  1  0.253182  0.080316  0.760764  1
  Zn  Zn28  1  0.246818  0.080316  0.260764  1
  Zn  Zn29  1  0.246818  0.580316  0.239236  1
  Zn  Zn30  1  0.746818  0.419684  0.260764  1
  Zn  Zn31  1  0.785992  0.923696  0.429979  1
  Zn  Zn32  1  0.285992  0.076304  0.070021  1
  Zn  Zn33  1  0.714008  0.423696  0.570021  1
  Zn  Zn34  1  0.214008  0.576304  0.929979  1
  Zn  Zn35  1  0.214008  0.076304  0.570021  1
  Zn  Zn36  1  0.714008  0.923696  0.929979  1
  Zn  Zn37  1  0.285992  0.576304  0.429979  1
  Zn  Zn38  1  0.785992  0.423696  0.070021  1
  Zn  Zn39  1  0.746818  0.919684  0.239236  1
  Si  Si40  1  0.778550  0.929112  0.088022  1
  Si  Si41  1  0.278550  0.070888  0.411978  1
  Si  Si42  1  0.721450  0.429112  0.911978  1
  Si  Si43  1  0.221450  0.570888  0.588022  1
  Si  Si44  1  0.221450  0.070888  0.911978  1
  Si  Si45  1  0.721450  0.929112  0.588022  1
  Si  Si46  1  0.278550  0.570888  0.088022  1
  Si  Si47  1  0.778550  0.429112  0.411978  1
  O  O48  1  0.700226  0.351191  0.348459  1
  O  O49  1  0.200226  0.648809  0.151541  1
  O  O50  1  0.799774  0.851191  0.651541  1
  O  O51  1  0.299774  0.148809  0.848459  1
  O  O52  1  0.299774  0.648809  0.651541  1
  O  O53  1  0.799774  0.351191  0.848459  1
  O  O54  1  0.200226  0.148809  0.348459  1
  O  O55  1  0.700226  0.851191  0.151541  1
  O  O56  1  0.653660  0.059020  0.097654  1
  O  O57  1  0.153660  0.940980  0.402346  1
  O  O58  1  0.846340  0.559020  0.902346  1
  O  O59  1  0.346340  0.440980  0.597654  1
  O  O60  1  0.346340  0.940980  0.902346  1
  O  O61  1  0.846340  0.059020  0.597654  1
  O  O62  1  0.153660  0.440980  0.097654  1
  O  O63  1  0.653660  0.559020  0.402346  1
  O  O64  1  0.666829  0.368553  0.478699  1
  O  O65  1  0.166829  0.631447  0.021301  1
  O  O66  1  0.833171  0.868553  0.521301  1
  O  O67  1  0.333171  0.131447  0.978699  1
  O  O68  1  0.333171  0.631447  0.521301  1
  O  O69  1  0.833171  0.368553  0.978699  1
  O  O70  1  0.166829  0.131447  0.478699  1
  O  O71  1  0.666829  0.868553  0.021301  1
  O  O72  1  0.951633  0.305262  0.213268  1
  O  O73  1  0.585769  0.296984  0.109217  1
  O  O74  1  0.451633  0.694738  0.286732  1
  O  O75  1  0.048367  0.194738  0.713268  1
  O  O76  1  0.048367  0.694738  0.786732  1
  O  O77  1  0.548367  0.305262  0.713268  1
  O  O78  1  0.451633  0.194738  0.213268  1
  O  O79  1  0.951633  0.805262  0.286732  1
  O  O80  1  0.590588  0.061089  0.416944  1
  O  O81  1  0.090588  0.938911  0.083056  1
  O  O82  1  0.909412  0.561089  0.583056  1
  O  O83  1  0.409412  0.438911  0.916944  1
  O  O84  1  0.409412  0.938911  0.583056  1
  O  O85  1  0.909412  0.061089  0.916944  1
  O  O86  1  0.090588  0.438911  0.416944  1
  O  O87  1  0.590588  0.561089  0.083056  1
  O  O88  1  0.896897  0.070031  0.224957  1
  O  O89  1  0.396897  0.929969  0.275043  1
  O  O90  1  0.603103  0.570031  0.775043  1
  O  O91  1  0.103103  0.429969  0.724957  1
  O  O92  1  0.103103  0.929969  0.775043  1
  O  O93  1  0.603103  0.070031  0.724957  1
  O  O94  1  0.396897  0.429969  0.224957  1
  O  O95  1  0.896897  0.570031  0.275043  1
  O  O96  1  0.585769  0.796984  0.390783  1
  O  O97  1  0.085769  0.203016  0.109217  1
  O  O98  1  0.914231  0.296984  0.609217  1
  O  O99  1  0.414231  0.703016  0.890783  1
  O  O100  1  0.414231  0.203016  0.609217  1
  O  O101  1  0.914231  0.796984  0.890783  1
  O  O102  1  0.085769  0.703016  0.390783  1
  O  O103  1  0.548367  0.805262  0.786732  1
