# generated using pymatgen
data_VAg2(PO4)2
_symmetry_space_group_name_H-M   'P 1'
_cell_length_a   6.36037459
_cell_length_b   14.09545561
_cell_length_c   7.79557747
_cell_angle_alpha   90.00000000
_cell_angle_beta   99.65350456
_cell_angle_gamma   90.00000000
_symmetry_Int_Tables_number   1
_chemical_formula_structural   VAg2(PO4)2
_chemical_formula_sum   'V4 Ag8 P8 O32'
_cell_volume   688.99565603
_cell_formula_units_Z   4
loop_
 _symmetry_equiv_pos_site_id
 _symmetry_equiv_pos_as_xyz
  1  'x, y, z'
loop_
 _atom_site_type_symbol
 _atom_site_label
 _atom_site_symmetry_multiplicity
 _atom_site_fract_x
 _atom_site_fract_y
 _atom_site_fract_z
 _atom_site_occupancy
  V  V0  1  0.234442  0.924941  0.775574  1
  V  V1  1  0.265558  0.424941  0.224426  1
  V  V2  1  0.734442  0.575059  0.775574  1
  V  V3  1  0.765558  0.075059  0.224426  1
  Ag  Ag4  1  0.848865  0.286449  0.954772  1
  Ag  Ag5  1  0.651135  0.786449  0.045228  1
  Ag  Ag6  1  0.151135  0.713551  0.045228  1
  Ag  Ag7  1  0.348865  0.213551  0.954772  1
  Ag  Ag8  1  0.075474  0.646989  0.469182  1
  Ag  Ag9  1  0.424526  0.146989  0.530818  1
  Ag  Ag10  1  0.924526  0.353011  0.530818  1
  Ag  Ag11  1  0.575474  0.853011  0.469182  1
  P  P12  1  0.248889  0.020603  0.173166  1
  P  P13  1  0.251111  0.520603  0.826834  1
  P  P14  1  0.748889  0.479397  0.173166  1
  P  P15  1  0.751111  0.979397  0.826834  1
  P  P16  1  0.463772  0.374833  0.638850  1
  P  P17  1  0.036228  0.874833  0.361150  1
  P  P18  1  0.536228  0.625167  0.361150  1
  P  P19  1  0.963772  0.125167  0.638850  1
  O  O20  1  0.042139  0.221548  0.715373  1
  O  O21  1  0.457861  0.721548  0.284627  1
  O  O22  1  0.957861  0.778452  0.284627  1
  O  O23  1  0.542139  0.278452  0.715373  1
  O  O24  1  0.813778  0.085338  0.773907  1
  O  O25  1  0.686222  0.585338  0.226093  1
  O  O26  1  0.186222  0.914662  0.226093  1
  O  O27  1  0.313778  0.414662  0.773907  1
  O  O28  1  0.531570  0.957491  0.716419  1
  O  O29  1  0.968430  0.457491  0.283581  1
  O  O30  1  0.468430  0.042509  0.283581  1
  O  O31  1  0.031570  0.542509  0.716419  1
  O  O32  1  0.259364  0.018400  0.979158  1
  O  O33  1  0.240636  0.518400  0.020842  1
  O  O34  1  0.740636  0.981600  0.020842  1
  O  O35  1  0.759364  0.481600  0.979158  1
  O  O36  1  0.918509  0.910835  0.778277  1
  O  O37  1  0.581491  0.410835  0.221723  1
  O  O38  1  0.081491  0.089165  0.221723  1
  O  O39  1  0.418509  0.589165  0.778277  1
  O  O40  1  0.645591  0.445884  0.635432  1
  O  O41  1  0.854409  0.945884  0.364568  1
  O  O42  1  0.354409  0.554116  0.364568  1
  O  O43  1  0.145591  0.054116  0.635432  1
  O  O44  1  0.685531  0.637315  0.536693  1
  O  O45  1  0.814469  0.137315  0.463307  1
  O  O46  1  0.314469  0.362685  0.463307  1
  O  O47  1  0.185531  0.862685  0.536693  1
  O  O48  1  0.819765  0.671490  0.895556  1
  O  O49  1  0.680235  0.171490  0.104444  1
  O  O50  1  0.180235  0.328510  0.104444  1
  O  O51  1  0.319765  0.828510  0.895556  1
