# generated using pymatgen
data_Li7PN4
_symmetry_space_group_name_H-M   'P 1'
_cell_length_a   9.40237787
_cell_length_b   9.40237787
_cell_length_c   9.40237787
_cell_angle_alpha   90.00000000
_cell_angle_beta   90.00000000
_cell_angle_gamma   90.00000000
_symmetry_Int_Tables_number   1
_chemical_formula_structural   Li7PN4
_chemical_formula_sum   'Li56 P8 N32'
_cell_volume   831.21448524
_cell_formula_units_Z   8
loop_
 _symmetry_equiv_pos_site_id
 _symmetry_equiv_pos_as_xyz
  1  'x, y, z'
loop_
 _atom_site_type_symbol
 _atom_site_label
 _atom_site_symmetry_multiplicity
 _atom_site_fract_x
 _atom_site_fract_y
 _atom_site_fract_z
 _atom_site_occupancy
  Li  Li0  1  0.000000  0.500000  0.500000  1
  Li  Li1  1  0.500000  0.000000  0.000000  1
  Li  Li2  1  0.000000  0.000000  0.500000  1
  Li  Li3  1  0.000000  0.500000  0.000000  1
  Li  Li4  1  0.500000  0.000000  0.500000  1
  Li  Li5  1  0.500000  0.500000  0.000000  1
  Li  Li6  1  0.250000  0.000000  0.500000  1
  Li  Li7  1  0.000000  0.500000  0.750000  1
  Li  Li8  1  0.000000  0.500000  0.250000  1
  Li  Li9  1  0.500000  0.250000  0.000000  1
  Li  Li10  1  0.500000  0.750000  0.000000  1
  Li  Li11  1  0.750000  0.000000  0.500000  1
  Li  Li12  1  0.225374  0.225374  0.225374  1
  Li  Li13  1  0.274626  0.725374  0.274626  1
  Li  Li14  1  0.274626  0.274626  0.725374  1
  Li  Li15  1  0.725374  0.274626  0.274626  1
  Li  Li16  1  0.774626  0.774626  0.225374  1
  Li  Li17  1  0.225374  0.774626  0.774626  1
  Li  Li18  1  0.774626  0.225374  0.774626  1
  Li  Li19  1  0.725374  0.725374  0.725374  1
  Li  Li20  1  0.253336  0.237083  0.975164  1
  Li  Li21  1  0.246664  0.475164  0.262917  1
  Li  Li22  1  0.246664  0.524836  0.737083  1
  Li  Li23  1  0.524836  0.262917  0.753336  1
  Li  Li24  1  0.475164  0.262917  0.246664  1
  Li  Li25  1  0.737083  0.246664  0.524836  1
  Li  Li26  1  0.262917  0.753336  0.524836  1
  Li  Li27  1  0.975164  0.253336  0.237083  1
  Li  Li28  1  0.237083  0.975164  0.253336  1
  Li  Li29  1  0.762917  0.024836  0.253336  1
  Li  Li30  1  0.975164  0.746664  0.762917  1
  Li  Li31  1  0.762917  0.975164  0.746664  1
  Li  Li32  1  0.024836  0.746664  0.237083  1
  Li  Li33  1  0.024836  0.253336  0.762917  1
  Li  Li34  1  0.237083  0.024836  0.746664  1
  Li  Li35  1  0.253336  0.762917  0.024836  1
  Li  Li36  1  0.746664  0.237083  0.024836  1
  Li  Li37  1  0.746664  0.762917  0.975164  1
  Li  Li38  1  0.262917  0.246664  0.475164  1
  Li  Li39  1  0.737083  0.753336  0.475164  1
  Li  Li40  1  0.524836  0.737083  0.246664  1
  Li  Li41  1  0.475164  0.737083  0.753336  1
  Li  Li42  1  0.753336  0.524836  0.262917  1
  Li  Li43  1  0.753336  0.475164  0.737083  1
  Li  Li44  1  0.264387  0.000000  0.000000  1
  Li  Li45  1  0.235613  0.500000  0.500000  1
  Li  Li46  1  0.500000  0.500000  0.764387  1
  Li  Li47  1  0.500000  0.500000  0.235613  1
  Li  Li48  1  0.500000  0.235613  0.500000  1
  Li  Li49  1  0.500000  0.764387  0.500000  1
  Li  Li50  1  0.000000  0.264387  0.000000  1
  Li  Li51  1  0.000000  0.000000  0.264387  1
  Li  Li52  1  0.000000  0.735613  0.000000  1
  Li  Li53  1  0.000000  0.000000  0.735613  1
  Li  Li54  1  0.735613  0.000000  0.000000  1
  Li  Li55  1  0.764387  0.500000  0.500000  1
  P  P56  1  0.500000  0.500000  0.500000  1
  P  P57  1  0.000000  0.000000  0.000000  1
  P  P58  1  0.500000  0.000000  0.750000  1
  P  P59  1  0.750000  0.500000  0.000000  1
  P  P60  1  0.250000  0.500000  0.000000  1
  P  P61  1  0.000000  0.250000  0.500000  1
  P  P62  1  0.000000  0.750000  0.500000  1
  P  P63  1  0.500000  0.000000  0.250000  1
  N  N64  1  0.603461  0.603461  0.603461  1
  N  N65  1  0.896539  0.103461  0.896539  1
  N  N66  1  0.103461  0.896539  0.896539  1
  N  N67  1  0.896539  0.896539  0.103461  1
  N  N68  1  0.603461  0.396539  0.396539  1
  N  N69  1  0.396539  0.396539  0.603461  1
  N  N70  1  0.396539  0.603461  0.396539  1
  N  N71  1  0.103461  0.103461  0.103461  1
  N  N72  1  0.350731  0.387385  0.099421  1
  N  N73  1  0.149269  0.599421  0.112615  1
  N  N74  1  0.149269  0.400579  0.887385  1
  N  N75  1  0.400579  0.112615  0.850731  1
  N  N76  1  0.599421  0.112615  0.149269  1
  N  N77  1  0.887385  0.149269  0.400579  1
  N  N78  1  0.112615  0.850731  0.400579  1
  N  N79  1  0.099421  0.350731  0.387385  1
  N  N80  1  0.387385  0.099421  0.350731  1
  N  N81  1  0.612615  0.900579  0.350731  1
  N  N82  1  0.099421  0.649269  0.612615  1
  N  N83  1  0.612615  0.099421  0.649269  1
  N  N84  1  0.900579  0.649269  0.387385  1
  N  N85  1  0.900579  0.350731  0.612615  1
  N  N86  1  0.387385  0.900579  0.649269  1
  N  N87  1  0.350731  0.612615  0.900579  1
  N  N88  1  0.649269  0.387385  0.900579  1
  N  N89  1  0.649269  0.612615  0.099421  1
  N  N90  1  0.112615  0.149269  0.599421  1
  N  N91  1  0.887385  0.850731  0.599421  1
  N  N92  1  0.400579  0.887385  0.149269  1
  N  N93  1  0.599421  0.887385  0.850731  1
  N  N94  1  0.850731  0.400579  0.112615  1
  N  N95  1  0.850731  0.599421  0.887385  1
