# generated using pymatgen
data_Ba2MnS3
_symmetry_space_group_name_H-M   'P 1'
_cell_length_a   4.35206115
_cell_length_b   8.90861214
_cell_length_c   17.20842576
_cell_angle_alpha   90.00000000
_cell_angle_beta   90.00000000
_cell_angle_gamma   90.00000000
_symmetry_Int_Tables_number   1
_chemical_formula_structural   Ba2MnS3
_chemical_formula_sum   'Ba8 Mn4 S12'
_cell_volume   667.18486014
_cell_formula_units_Z   4
loop_
 _symmetry_equiv_pos_site_id
 _symmetry_equiv_pos_as_xyz
  1  'x, y, z'
loop_
 _atom_site_type_symbol
 _atom_site_label
 _atom_site_symmetry_multiplicity
 _atom_site_fract_x
 _atom_site_fract_y
 _atom_site_fract_z
 _atom_site_occupancy
  Ba  Ba0  1  0.250000  0.254867  0.543243  1
  Ba  Ba1  1  0.750000  0.245133  0.043243  1
  Ba  Ba2  1  0.250000  0.754867  0.956757  1
  Ba  Ba3  1  0.750000  0.745133  0.456757  1
  Ba  Ba4  1  0.250000  0.916920  0.214292  1
  Ba  Ba5  1  0.750000  0.083080  0.785708  1
  Ba  Ba6  1  0.250000  0.416920  0.285708  1
  Ba  Ba7  1  0.750000  0.583080  0.714292  1
  Mn  Mn8  1  0.750000  0.628470  0.133548  1
  Mn  Mn9  1  0.750000  0.128470  0.366452  1
  Mn  Mn10  1  0.250000  0.371530  0.866452  1
  Mn  Mn11  1  0.250000  0.871530  0.633548  1
  S  S12  1  0.250000  0.505593  0.101617  1
  S  S13  1  0.750000  0.494407  0.898383  1
  S  S14  1  0.250000  0.005593  0.398383  1
  S  S15  1  0.750000  0.994407  0.601617  1
  S  S16  1  0.250000  0.631048  0.572946  1
  S  S17  1  0.750000  0.368952  0.427054  1
  S  S18  1  0.250000  0.131048  0.927054  1
  S  S19  1  0.750000  0.678079  0.270447  1
  S  S20  1  0.250000  0.821921  0.770447  1
  S  S21  1  0.750000  0.178079  0.229553  1
  S  S22  1  0.250000  0.321921  0.729553  1
  S  S23  1  0.750000  0.868952  0.072946  1
