# generated using pymatgen
data_CaWO4
_symmetry_space_group_name_H-M   'P 1'
_cell_length_a   6.88099833
_cell_length_b   6.88099833
_cell_length_c   6.88099833
_cell_angle_alpha   134.38603645
_cell_angle_beta   134.38603645
_cell_angle_gamma   66.48567169
_symmetry_Int_Tables_number   1
_chemical_formula_structural   CaWO4
_chemical_formula_sum   'Ca2 W2 O8'
_cell_volume   163.77022633
_cell_formula_units_Z   2
loop_
 _symmetry_equiv_pos_site_id
 _symmetry_equiv_pos_as_xyz
  1  'x, y, z'
loop_
 _atom_site_type_symbol
 _atom_site_label
 _atom_site_symmetry_multiplicity
 _atom_site_fract_x
 _atom_site_fract_y
 _atom_site_fract_z
 _atom_site_occupancy
  Ca  Ca0  1  0.750000  0.250000  0.500000  1
  Ca  Ca1  1  0.000000  0.000000  0.000000  1
  W  W2  1  0.250000  0.750000  0.500000  1
  W  W3  1  0.500000  0.500000  0.000000  1
  O  O4  1  0.740174  0.343267  0.910549  1
  O  O5  1  0.093267  0.682718  0.103092  1
  O  O6  1  0.579625  0.990174  0.896908  1
  O  O7  1  0.432718  0.829625  0.089451  1
  O  O8  1  0.317282  0.420375  0.410549  1
  O  O9  1  0.170375  0.259826  0.603092  1
  O  O10  1  0.009826  0.906733  0.589451  1
  O  O11  1  0.656733  0.567282  0.396908  1
