# generated using pymatgen
data_Ba5Nd8Mn4O21
_symmetry_space_group_name_H-M   'P 1'
_cell_length_a   10.61288802
_cell_length_b   10.61288802
_cell_length_c   10.61288802
_cell_angle_alpha   94.50344747
_cell_angle_beta   94.50344747
_cell_angle_gamma   147.45421708
_symmetry_Int_Tables_number   1
_chemical_formula_structural   Ba5Nd8Mn4O21
_chemical_formula_sum   'Ba5 Nd8 Mn4 O21'
_cell_volume   617.31195736
_cell_formula_units_Z   1
loop_
 _symmetry_equiv_pos_site_id
 _symmetry_equiv_pos_as_xyz
  1  'x, y, z'
loop_
 _atom_site_type_symbol
 _atom_site_label
 _atom_site_symmetry_multiplicity
 _atom_site_fract_x
 _atom_site_fract_y
 _atom_site_fract_z
 _atom_site_occupancy
  Ba  Ba0  1  0.135667  0.469258  0.604924  1
  Ba  Ba1  1  0.530742  0.135667  0.666409  1
  Ba  Ba2  1  0.469258  0.864333  0.333591  1
  Ba  Ba3  1  0.864333  0.530742  0.395076  1
  Ba  Ba4  1  0.000000  0.000000  0.000000  1
  Nd  Nd5  1  0.357046  0.589066  0.946112  1
  Nd  Nd6  1  0.410934  0.357046  0.767980  1
  Nd  Nd7  1  0.589066  0.642954  0.232020  1
  Nd  Nd8  1  0.642954  0.410934  0.053888  1
  Nd  Nd9  1  0.168563  0.752849  0.921412  1
  Nd  Nd10  1  0.247151  0.168563  0.415713  1
  Nd  Nd11  1  0.752849  0.831437  0.584287  1
  Nd  Nd12  1  0.831437  0.247151  0.078588  1
  Mn  Mn13  1  0.252091  0.959659  0.211750  1
  Mn  Mn14  1  0.040341  0.252091  0.292432  1
  Mn  Mn15  1  0.959659  0.747909  0.707568  1
  Mn  Mn16  1  0.747909  0.040341  0.788250  1
  O  O17  1  0.505221  0.098423  0.111400  1
  O  O18  1  0.393820  0.505221  0.406798  1
  O  O19  1  0.098423  0.987023  0.593202  1
  O  O20  1  0.987023  0.393820  0.888600  1
  O  O21  1  0.494779  0.901577  0.888600  1
  O  O22  1  0.606180  0.494779  0.593202  1
  O  O23  1  0.901577  0.012977  0.406798  1
  O  O24  1  0.012977  0.606180  0.111400  1
  O  O25  1  0.706327  0.931505  0.132899  1
  O  O26  1  0.573428  0.706327  0.774822  1
  O  O27  1  0.931505  0.798606  0.225178  1
  O  O28  1  0.798606  0.573428  0.867101  1
  O  O29  1  0.293673  0.068495  0.867101  1
  O  O30  1  0.426572  0.293673  0.225178  1
  O  O31  1  0.068495  0.201394  0.774822  1
  O  O32  1  0.201394  0.426572  0.132899  1
  O  O33  1  0.967887  0.377081  0.344967  1
  O  O34  1  0.500000  0.500000  0.000000  1
  O  O35  1  0.032113  0.622919  0.655033  1
  O  O36  1  0.377081  0.032113  0.409194  1
  O  O37  1  0.622919  0.967887  0.590806  1
