# generated using pymatgen
data_Sr2TmTaO6
_symmetry_space_group_name_H-M   'P 1'
_cell_length_a   5.82650051
_cell_length_b   5.89135936
_cell_length_c   10.09925847
_cell_angle_alpha   90.00000000
_cell_angle_beta   125.06738182
_cell_angle_gamma   90.00000000
_symmetry_Int_Tables_number   1
_chemical_formula_structural   Sr2TmTaO6
_chemical_formula_sum   'Sr4 Tm2 Ta2 O12'
_cell_volume   283.73913125
_cell_formula_units_Z   2
loop_
 _symmetry_equiv_pos_site_id
 _symmetry_equiv_pos_as_xyz
  1  'x, y, z'
loop_
 _atom_site_type_symbol
 _atom_site_label
 _atom_site_symmetry_multiplicity
 _atom_site_fract_x
 _atom_site_fract_y
 _atom_site_fract_z
 _atom_site_occupancy
  Sr  Sr0  1  0.242497  0.033217  0.250255  1
  Sr  Sr1  1  0.757503  0.533217  0.249745  1
  Sr  Sr2  1  0.242497  0.466783  0.750255  1
  Sr  Sr3  1  0.757503  0.966783  0.749745  1
  Tm  Tm4  1  0.500000  0.500000  0.500000  1
  Tm  Tm5  1  0.500000  0.000000  0.000000  1
  Ta  Ta6  1  0.000000  0.000000  0.500000  1
  Ta  Ta7  1  0.000000  0.500000  0.000000  1
  O  O8  1  0.313724  0.020833  0.736957  1
  O  O9  1  0.686276  0.520833  0.763043  1
  O  O10  1  0.686276  0.979167  0.263043  1
  O  O11  1  0.313724  0.479167  0.236957  1
  O  O12  1  0.841775  0.726583  0.542181  1
  O  O13  1  0.158225  0.226583  0.957819  1
  O  O14  1  0.158225  0.273417  0.457819  1
  O  O15  1  0.841775  0.773417  0.042181  1
  O  O16  1  0.766542  0.297444  0.039195  1
  O  O17  1  0.233458  0.797444  0.460805  1
  O  O18  1  0.233458  0.702556  0.960805  1
  O  O19  1  0.766542  0.202556  0.539195  1
