# generated using pymatgen
data_Cd2As2O7
_symmetry_space_group_name_H-M   'P 1'
_cell_length_a   5.83264403
_cell_length_b   5.83264403
_cell_length_c   4.95891968
_cell_angle_alpha   82.73914240
_cell_angle_beta   97.26085760
_cell_angle_gamma   75.15538202
_symmetry_Int_Tables_number   1
_chemical_formula_structural   Cd2As2O7
_chemical_formula_sum   'Cd2 As2 O7'
_cell_volume   159.53010908
_cell_formula_units_Z   1
loop_
 _symmetry_equiv_pos_site_id
 _symmetry_equiv_pos_as_xyz
  1  'x, y, z'
loop_
 _atom_site_type_symbol
 _atom_site_label
 _atom_site_symmetry_multiplicity
 _atom_site_fract_x
 _atom_site_fract_y
 _atom_site_fract_z
 _atom_site_occupancy
  Cd  Cd0  1  0.304616  0.304616  0.500000  1
  Cd  Cd1  1  0.695384  0.695384  0.500000  1
  As  As2  1  0.773334  0.226666  0.091596  1
  As  As3  1  0.226666  0.773334  0.908404  1
  O  O4  1  0.389784  0.919794  0.722493  1
  O  O5  1  0.919794  0.389784  0.277507  1
  O  O6  1  0.610216  0.080206  0.277507  1
  O  O7  1  0.080206  0.610216  0.722493  1
  O  O8  1  0.000000  0.000000  0.000000  1
  O  O9  1  0.386762  0.613238  0.216287  1
  O  O10  1  0.613238  0.386762  0.783713  1
