# generated using pymatgen
data_Nd2HgO4
_symmetry_space_group_name_H-M   'P 1'
_cell_length_a   7.27161055
_cell_length_b   7.27161055
_cell_length_c   10.35511070
_cell_angle_alpha   60.20292923
_cell_angle_beta   119.79707077
_cell_angle_gamma   149.34994583
_symmetry_Int_Tables_number   1
_chemical_formula_structural   Nd2HgO4
_chemical_formula_sum   'Nd4 Hg2 O8'
_cell_volume   239.22732305
_cell_formula_units_Z   2
loop_
 _symmetry_equiv_pos_site_id
 _symmetry_equiv_pos_as_xyz
  1  'x, y, z'
loop_
 _atom_site_type_symbol
 _atom_site_label
 _atom_site_symmetry_multiplicity
 _atom_site_fract_x
 _atom_site_fract_y
 _atom_site_fract_z
 _atom_site_occupancy
  Nd  Nd0  1  0.380213  0.619787  0.540213  1
  Nd  Nd1  1  0.619787  0.380213  0.459787  1
  Nd  Nd2  1  0.158668  0.841332  0.798432  1
  Nd  Nd3  1  0.841332  0.158668  0.201568  1
  Hg  Hg4  1  0.885041  0.114959  0.838627  1
  Hg  Hg5  1  0.114959  0.885041  0.161373  1
  O  O6  1  0.796025  0.203975  0.941967  1
  O  O7  1  0.203975  0.796025  0.058033  1
  O  O8  1  0.963464  0.036536  0.721097  1
  O  O9  1  0.036536  0.963464  0.278903  1
  O  O10  1  0.580436  0.419564  0.653829  1
  O  O11  1  0.419564  0.580436  0.346171  1
  O  O12  1  0.771685  0.228315  0.389471  1
  O  O13  1  0.228315  0.771685  0.610529  1
