# generated using pymatgen
data_Na2Al2As3
_symmetry_space_group_name_H-M   'P 1'
_cell_length_a   13.22216534
_cell_length_b   6.77976231
_cell_length_c   14.59357260
_cell_angle_alpha   90.00000000
_cell_angle_beta   90.33063025
_cell_angle_gamma   90.00000000
_symmetry_Int_Tables_number   1
_chemical_formula_structural   Na2Al2As3
_chemical_formula_sum   'Na16 Al16 As24'
_cell_volume   1308.19186499
_cell_formula_units_Z   8
loop_
 _symmetry_equiv_pos_site_id
 _symmetry_equiv_pos_as_xyz
  1  'x, y, z'
loop_
 _atom_site_type_symbol
 _atom_site_label
 _atom_site_symmetry_multiplicity
 _atom_site_fract_x
 _atom_site_fract_y
 _atom_site_fract_z
 _atom_site_occupancy
  Na  Na0  1  0.861516  0.054500  0.990840  1
  Na  Na1  1  0.138484  0.554500  0.509160  1
  Na  Na2  1  0.138484  0.945500  0.009160  1
  Na  Na3  1  0.861516  0.445500  0.490840  1
  Na  Na4  1  0.350457  0.410851  0.018870  1
  Na  Na5  1  0.649543  0.910851  0.481130  1
  Na  Na6  1  0.649543  0.589149  0.981130  1
  Na  Na7  1  0.350457  0.089149  0.518870  1
  Na  Na8  1  0.086049  0.452292  0.107213  1
  Na  Na9  1  0.913951  0.952292  0.392787  1
  Na  Na10  1  0.913951  0.547708  0.892787  1
  Na  Na11  1  0.086049  0.047708  0.607213  1
  Na  Na12  1  0.566244  0.099150  0.914753  1
  Na  Na13  1  0.433756  0.599150  0.585247  1
  Na  Na14  1  0.433756  0.900850  0.085247  1
  Na  Na15  1  0.566244  0.400850  0.414753  1
  Al  Al16  1  0.315646  0.712008  0.834406  1
  Al  Al17  1  0.684354  0.212008  0.665594  1
  Al  Al18  1  0.684354  0.287992  0.165594  1
  Al  Al19  1  0.315646  0.787992  0.334406  1
  Al  Al20  1  0.906136  0.203300  0.730015  1
  Al  Al21  1  0.093864  0.703300  0.769985  1
  Al  Al22  1  0.093864  0.796700  0.269985  1
  Al  Al23  1  0.906136  0.296700  0.230015  1
  Al  Al24  1  0.189131  0.236913  0.827332  1
  Al  Al25  1  0.810869  0.736913  0.672668  1
  Al  Al26  1  0.810869  0.763087  0.172668  1
  Al  Al27  1  0.189131  0.263087  0.327332  1
  Al  Al28  1  0.410838  0.236307  0.759478  1
  Al  Al29  1  0.589162  0.736307  0.740522  1
  Al  Al30  1  0.589162  0.763693  0.240522  1
  Al  Al31  1  0.410838  0.263693  0.259478  1
  As  As32  1  0.033673  0.029539  0.826678  1
  As  As33  1  0.966327  0.529539  0.673322  1
  As  As34  1  0.966327  0.970461  0.173322  1
  As  As35  1  0.033673  0.470461  0.326678  1
  As  As36  1  0.161837  0.546123  0.913582  1
  As  As37  1  0.838163  0.046123  0.586418  1
  As  As38  1  0.838163  0.453877  0.086418  1
  As  As39  1  0.161837  0.953877  0.413582  1
  As  As40  1  0.339455  0.049284  0.895138  1
  As  As41  1  0.660545  0.549284  0.604862  1
  As  As42  1  0.660545  0.950716  0.104862  1
  As  As43  1  0.339455  0.450716  0.395138  1
  As  As44  1  0.252974  0.163141  0.170311  1
  As  As45  1  0.747026  0.663141  0.329689  1
  As  As46  1  0.747026  0.836859  0.829689  1
  As  As47  1  0.252974  0.336859  0.670311  1
  As  As48  1  0.479623  0.530416  0.842618  1
  As  As49  1  0.520377  0.030416  0.657382  1
  As  As50  1  0.520377  0.469584  0.157382  1
  As  As51  1  0.479623  0.969584  0.342618  1
  As  As52  1  0.249931  0.789213  0.174232  1
  As  As53  1  0.750069  0.289213  0.325768  1
  As  As54  1  0.750069  0.210787  0.825768  1
  As  As55  1  0.249931  0.710787  0.674232  1
