# generated using pymatgen
data_Nd2O3
_symmetry_space_group_name_H-M   'P 1'
_cell_length_a   9.68309834
_cell_length_b   9.68309834
_cell_length_c   9.68309834
_cell_angle_alpha   109.47122063
_cell_angle_beta   109.47122063
_cell_angle_gamma   109.47122063
_symmetry_Int_Tables_number   1
_chemical_formula_structural   Nd2O3
_chemical_formula_sum   'Nd16 O24'
_cell_volume   698.90980959
_cell_formula_units_Z   8
loop_
 _symmetry_equiv_pos_site_id
 _symmetry_equiv_pos_as_xyz
  1  'x, y, z'
loop_
 _atom_site_type_symbol
 _atom_site_label
 _atom_site_symmetry_multiplicity
 _atom_site_fract_x
 _atom_site_fract_y
 _atom_site_fract_z
 _atom_site_occupancy
  Nd  Nd0  1  0.250000  0.719223  0.469223  1
  Nd  Nd1  1  0.030777  0.750000  0.780777  1
  Nd  Nd2  1  0.780777  0.030777  0.750000  1
  Nd  Nd3  1  0.469223  0.250000  0.719223  1
  Nd  Nd4  1  0.719223  0.469223  0.250000  1
  Nd  Nd5  1  0.750000  0.780777  0.030777  1
  Nd  Nd6  1  0.750000  0.280777  0.530777  1
  Nd  Nd7  1  0.969223  0.250000  0.219223  1
  Nd  Nd8  1  0.219223  0.969223  0.250000  1
  Nd  Nd9  1  0.530777  0.750000  0.280777  1
  Nd  Nd10  1  0.280777  0.530777  0.750000  1
  Nd  Nd11  1  0.250000  0.219223  0.969223  1
  Nd  Nd12  1  0.000000  0.500000  0.000000  1
  Nd  Nd13  1  0.500000  1.000000  0.000000  1
  Nd  Nd14  1  0.000000  0.000000  0.500000  1
  Nd  Nd15  1  0.500000  0.500000  0.500000  1
  O  O16  1  0.028166  0.488002  0.758985  1
  O  O17  1  0.229017  0.269181  0.741015  1
  O  O18  1  0.270983  0.011998  0.040164  1
  O  O19  1  0.230819  0.459836  0.471834  1
  O  O20  1  0.459836  0.471834  0.230819  1
  O  O21  1  0.758985  0.028166  0.488002  1
  O  O22  1  0.269181  0.741015  0.229017  1
  O  O23  1  0.040164  0.270983  0.011998  1
  O  O24  1  0.488002  0.758985  0.028166  1
  O  O25  1  0.741015  0.229017  0.269181  1
  O  O26  1  0.011998  0.040164  0.270983  1
  O  O27  1  0.471834  0.230819  0.459836  1
  O  O28  1  0.971834  0.511998  0.241015  1
  O  O29  1  0.770983  0.730819  0.258985  1
  O  O30  1  0.729017  0.988002  0.959836  1
  O  O31  1  0.769181  0.540164  0.528166  1
  O  O32  1  0.528166  0.769181  0.540164  1
  O  O33  1  0.988002  0.959836  0.729017  1
  O  O34  1  0.258985  0.770983  0.730819  1
  O  O35  1  0.511998  0.241015  0.971834  1
  O  O36  1  0.959836  0.729017  0.988002  1
  O  O37  1  0.730819  0.258985  0.770983  1
  O  O38  1  0.241015  0.971834  0.511998  1
  O  O39  1  0.540164  0.528166  0.769181  1
