# generated using pymatgen
data_ScAg(PSe3)2
_symmetry_space_group_name_H-M   'P 1'
_cell_length_a   6.53503237
_cell_length_b   6.53503237
_cell_length_c   15.16892307
_cell_angle_alpha   90.00000000
_cell_angle_beta   90.00000000
_cell_angle_gamma   120.00000000
_symmetry_Int_Tables_number   1
_chemical_formula_structural   ScAg(PSe3)2
_chemical_formula_sum   'Sc2 Ag2 P4 Se12'
_cell_volume   561.02325905
_cell_formula_units_Z   2
loop_
 _symmetry_equiv_pos_site_id
 _symmetry_equiv_pos_as_xyz
  1  'x, y, z'
loop_
 _atom_site_type_symbol
 _atom_site_label
 _atom_site_symmetry_multiplicity
 _atom_site_fract_x
 _atom_site_fract_y
 _atom_site_fract_z
 _atom_site_occupancy
  Sc  Sc0  1  0.000000  0.000000  0.250000  1
  Sc  Sc1  1  0.000000  0.000000  0.750000  1
  Ag  Ag2  1  0.333333  0.666667  0.750000  1
  Ag  Ag3  1  0.666667  0.333333  0.250000  1
  P  P4  1  0.666667  0.333333  0.675750  1
  P  P5  1  0.666667  0.333333  0.824250  1
  P  P6  1  0.333333  0.666667  0.324250  1
  P  P7  1  0.333333  0.666667  0.175750  1
  Se  Se8  1  0.671410  0.695453  0.133067  1
  Se  Se9  1  0.024043  0.695453  0.366933  1
  Se  Se10  1  0.024043  0.328590  0.133067  1
  Se  Se11  1  0.328590  0.304547  0.866933  1
  Se  Se12  1  0.695453  0.024043  0.866933  1
  Se  Se13  1  0.328590  0.024043  0.633067  1
  Se  Se14  1  0.695453  0.671410  0.633067  1
  Se  Se15  1  0.975957  0.304547  0.633067  1
  Se  Se16  1  0.304547  0.975957  0.133067  1
  Se  Se17  1  0.671410  0.975957  0.366933  1
  Se  Se18  1  0.975957  0.671410  0.866933  1
  Se  Se19  1  0.304547  0.328590  0.366933  1
