# generated using pymatgen
data_Dy4Si2S3O7
_symmetry_space_group_name_H-M   'P 1'
_cell_length_a   10.75819767
_cell_length_b   10.75819767
_cell_length_c   10.75819767
_cell_angle_alpha   113.89563493
_cell_angle_beta   113.89563493
_cell_angle_gamma   100.94438844
_symmetry_Int_Tables_number   1
_chemical_formula_structural   Dy4Si2S3O7
_chemical_formula_sum   'Dy16 Si8 S12 O28'
_cell_volume   942.92920970
_cell_formula_units_Z   4
loop_
 _symmetry_equiv_pos_site_id
 _symmetry_equiv_pos_as_xyz
  1  'x, y, z'
loop_
 _atom_site_type_symbol
 _atom_site_label
 _atom_site_symmetry_multiplicity
 _atom_site_fract_x
 _atom_site_fract_y
 _atom_site_fract_z
 _atom_site_occupancy
  Dy  Dy0  1  0.172198  0.827802  0.000000  1
  Dy  Dy1  1  0.577802  0.077802  0.155605  1
  Dy  Dy2  1  0.922198  0.422198  0.844395  1
  Dy  Dy3  1  0.827802  0.172198  0.000000  1
  Dy  Dy4  1  0.577802  0.422198  0.500000  1
  Dy  Dy5  1  0.172198  0.172198  0.344395  1
  Dy  Dy6  1  0.827802  0.827802  0.655605  1
  Dy  Dy7  1  0.922198  0.077802  0.500000  1
  Dy  Dy8  1  0.047662  0.783384  0.264278  1
  Dy  Dy9  1  0.519106  0.783384  0.735722  1
  Dy  Dy10  1  0.216616  0.480894  0.264278  1
  Dy  Dy11  1  0.533384  0.297662  0.764278  1
  Dy  Dy12  1  0.533384  0.769106  0.235722  1
  Dy  Dy13  1  0.230894  0.466616  0.764278  1
  Dy  Dy14  1  0.702338  0.466616  0.235722  1
  Dy  Dy15  1  0.216616  0.952338  0.735722  1
  Si  Si16  1  0.654008  0.028952  0.625055  1
  Si  Si17  1  0.403897  0.028952  0.374945  1
  Si  Si18  1  0.971048  0.596103  0.625055  1
  Si  Si19  1  0.778952  0.904008  0.125055  1
  Si  Si20  1  0.778952  0.653897  0.874945  1
  Si  Si21  1  0.346103  0.221048  0.125055  1
  Si  Si22  1  0.095992  0.221048  0.874945  1
  Si  Si23  1  0.971048  0.345992  0.374945  1
  S  S24  1  0.750000  0.250000  0.500000  1
  S  S25  1  0.000000  0.000000  0.000000  1
  S  S26  1  0.500000  0.500000  0.000000  1
  S  S27  1  0.250000  0.750000  0.500000  1
  S  S28  1  0.228733  0.125000  0.603733  1
  S  S29  1  0.875000  0.771267  0.396267  1
  S  S30  1  0.375000  0.478733  0.603733  1
  S  S31  1  0.521267  0.625000  0.396267  1
  S  S32  1  0.521267  0.125000  0.896267  1
  S  S33  1  0.875000  0.478733  0.103733  1
  S  S34  1  0.375000  0.771267  0.896267  1
  S  S35  1  0.228733  0.625000  0.103733  1
  O  O36  1  0.024300  0.524300  0.500000  1
  O  O37  1  0.274300  0.274300  0.000000  1
  O  O38  1  0.725700  0.725700  0.000000  1
  O  O39  1  0.475700  0.975700  0.500000  1
  O  O40  1  0.218267  0.950824  0.267443  1
  O  O41  1  0.683382  0.950824  0.732557  1
  O  O42  1  0.049176  0.316618  0.267443  1
  O  O43  1  0.700824  0.468267  0.767443  1
  O  O44  1  0.700824  0.933382  0.232557  1
  O  O45  1  0.066618  0.299176  0.767443  1
  O  O46  1  0.531733  0.299176  0.232557  1
  O  O47  1  0.049176  0.781733  0.732557  1
  O  O48  1  0.307935  0.290015  0.264653  1
  O  O49  1  0.025362  0.043282  0.735347  1
  O  O50  1  0.956718  0.974638  0.264653  1
  O  O51  1  0.793282  0.557935  0.517920  1
  O  O52  1  0.040015  0.275362  0.482080  1
  O  O53  1  0.724638  0.959985  0.517920  1
  O  O54  1  0.442065  0.206718  0.482080  1
  O  O55  1  0.709985  0.692065  0.735347  1
  O  O56  1  0.442065  0.959985  0.235347  1
  O  O57  1  0.724638  0.206718  0.764653  1
  O  O58  1  0.793282  0.275362  0.235347  1
  O  O59  1  0.956718  0.692065  0.982080  1
  O  O60  1  0.709985  0.974638  0.017920  1
  O  O61  1  0.025362  0.290015  0.982080  1
  O  O62  1  0.307935  0.043282  0.017920  1
  O  O63  1  0.040015  0.557935  0.764653  1
