# generated using pymatgen
data_Ba3P14
_symmetry_space_group_name_H-M   'P 1'
_cell_length_a   6.56854963
_cell_length_b   13.25005926
_cell_length_c   12.22044099
_cell_angle_alpha   90.00000000
_cell_angle_beta   122.14005235
_cell_angle_gamma   90.00000000
_symmetry_Int_Tables_number   1
_chemical_formula_structural   Ba3P14
_chemical_formula_sum   'Ba6 P28'
_cell_volume   900.59496387
_cell_formula_units_Z   2
loop_
 _symmetry_equiv_pos_site_id
 _symmetry_equiv_pos_as_xyz
  1  'x, y, z'
loop_
 _atom_site_type_symbol
 _atom_site_label
 _atom_site_symmetry_multiplicity
 _atom_site_fract_x
 _atom_site_fract_y
 _atom_site_fract_z
 _atom_site_occupancy
  Ba  Ba0  1  0.182783  0.652757  0.387576  1
  Ba  Ba1  1  0.817217  0.152757  0.112424  1
  Ba  Ba2  1  0.817217  0.347243  0.612424  1
  Ba  Ba3  1  0.182783  0.847243  0.887576  1
  Ba  Ba4  1  0.000000  0.500000  0.000000  1
  Ba  Ba5  1  0.000000  0.000000  0.500000  1
  P  P6  1  0.049442  0.847361  0.151743  1
  P  P7  1  0.950558  0.347361  0.348257  1
  P  P8  1  0.950558  0.152639  0.848257  1
  P  P9  1  0.049442  0.652639  0.651743  1
  P  P10  1  0.723725  0.487222  0.313015  1
  P  P11  1  0.276275  0.987222  0.186985  1
  P  P12  1  0.612957  0.682165  0.946163  1
  P  P13  1  0.387043  0.182165  0.553837  1
  P  P14  1  0.387043  0.317835  0.053837  1
  P  P15  1  0.612957  0.817835  0.446163  1
  P  P16  1  0.295577  0.587975  0.856849  1
  P  P17  1  0.704423  0.087975  0.643151  1
  P  P18  1  0.704423  0.412025  0.143151  1
  P  P19  1  0.295577  0.912025  0.356849  1
  P  P20  1  0.624703  0.714543  0.773002  1
  P  P21  1  0.375297  0.214543  0.726998  1
  P  P22  1  0.375297  0.285457  0.226998  1
  P  P23  1  0.624703  0.785457  0.273002  1
  P  P24  1  0.588669  0.563864  0.686187  1
  P  P25  1  0.411331  0.063864  0.813813  1
  P  P26  1  0.411331  0.436136  0.313813  1
  P  P27  1  0.588669  0.936136  0.186187  1
  P  P28  1  0.259728  0.775657  0.644267  1
  P  P29  1  0.740272  0.275657  0.855733  1
  P  P30  1  0.740272  0.224343  0.355733  1
  P  P31  1  0.259728  0.724343  0.144267  1
  P  P32  1  0.723725  0.012778  0.813015  1
  P  P33  1  0.276275  0.512778  0.686985  1
