# generated using pymatgen
data_HgO
_symmetry_space_group_name_H-M   'P 1'
_cell_length_a   3.73885212
_cell_length_b   5.79659488
_cell_length_c   6.73969095
_cell_angle_alpha   90.00000000
_cell_angle_beta   90.00000000
_cell_angle_gamma   90.00000000
_symmetry_Int_Tables_number   1
_chemical_formula_structural   HgO
_chemical_formula_sum   'Hg4 O4'
_cell_volume   146.06670060
_cell_formula_units_Z   4
loop_
 _symmetry_equiv_pos_site_id
 _symmetry_equiv_pos_as_xyz
  1  'x, y, z'
loop_
 _atom_site_type_symbol
 _atom_site_label
 _atom_site_symmetry_multiplicity
 _atom_site_fract_x
 _atom_site_fract_y
 _atom_site_fract_z
 _atom_site_occupancy
  Hg  Hg0  1  0.742922  0.750000  0.615261  1
  Hg  Hg1  1  0.242922  0.250000  0.884739  1
  Hg  Hg2  1  0.257078  0.250000  0.384739  1
  Hg  Hg3  1  0.757078  0.750000  0.115261  1
  O  O4  1  0.069045  0.750000  0.862233  1
  O  O5  1  0.569045  0.250000  0.637767  1
  O  O6  1  0.930955  0.250000  0.137767  1
  O  O7  1  0.430955  0.750000  0.362233  1
