# generated using pymatgen
data_Ga2O3
_symmetry_space_group_name_H-M   'P 1'
_cell_length_a   5.39991172
_cell_length_b   5.39991172
_cell_length_c   5.39991172
_cell_angle_alpha   55.87160676
_cell_angle_beta   55.87160676
_cell_angle_gamma   55.87160676
_symmetry_Int_Tables_number   1
_chemical_formula_structural   Ga2O3
_chemical_formula_sum   'Ga4 O6'
_cell_volume   100.68355112
_cell_formula_units_Z   2
loop_
 _symmetry_equiv_pos_site_id
 _symmetry_equiv_pos_as_xyz
  1  'x, y, z'
loop_
 _atom_site_type_symbol
 _atom_site_label
 _atom_site_symmetry_multiplicity
 _atom_site_fract_x
 _atom_site_fract_y
 _atom_site_fract_z
 _atom_site_occupancy
  Ga  Ga0  1  0.144089  0.144089  0.144089  1
  Ga  Ga1  1  0.355911  0.355911  0.355911  1
  Ga  Ga2  1  0.855911  0.855911  0.855911  1
  Ga  Ga3  1  0.644089  0.644089  0.644089  1
  O  O4  1  0.553129  0.946871  0.250000  1
  O  O5  1  0.946871  0.250000  0.553129  1
  O  O6  1  0.250000  0.553129  0.946871  1
  O  O7  1  0.446871  0.053129  0.750000  1
  O  O8  1  0.750000  0.446871  0.053129  1
  O  O9  1  0.053129  0.750000  0.446871  1
