# generated using pymatgen
data_Ba(HoTe2)2
_symmetry_space_group_name_H-M   'P 1'
_cell_length_a   4.47581063
_cell_length_b   13.79725927
_cell_length_c   16.26826192
_cell_angle_alpha   90.00000000
_cell_angle_beta   90.00000000
_cell_angle_gamma   90.00000000
_symmetry_Int_Tables_number   1
_chemical_formula_structural   Ba(HoTe2)2
_chemical_formula_sum   'Ba4 Ho8 Te16'
_cell_volume   1004.62894036
_cell_formula_units_Z   4
loop_
 _symmetry_equiv_pos_site_id
 _symmetry_equiv_pos_as_xyz
  1  'x, y, z'
loop_
 _atom_site_type_symbol
 _atom_site_label
 _atom_site_symmetry_multiplicity
 _atom_site_fract_x
 _atom_site_fract_y
 _atom_site_fract_z
 _atom_site_occupancy
  Ba  Ba0  1  0.750000  0.761301  0.669621  1
  Ba  Ba1  1  0.250000  0.238699  0.330379  1
  Ba  Ba2  1  0.750000  0.261301  0.830379  1
  Ba  Ba3  1  0.250000  0.738699  0.169621  1
  Ho  Ho4  1  0.250000  0.580695  0.903533  1
  Ho  Ho5  1  0.750000  0.419305  0.096467  1
  Ho  Ho6  1  0.250000  0.080695  0.596467  1
  Ho  Ho7  1  0.750000  0.919305  0.403533  1
  Ho  Ho8  1  0.750000  0.441046  0.609766  1
  Ho  Ho9  1  0.250000  0.558954  0.390234  1
  Ho  Ho10  1  0.750000  0.941046  0.890234  1
  Ho  Ho11  1  0.250000  0.058954  0.109766  1
  Te  Te12  1  0.250000  0.972509  0.284193  1
  Te  Te13  1  0.750000  0.027491  0.715807  1
  Te  Te14  1  0.250000  0.472509  0.215807  1
  Te  Te15  1  0.750000  0.527491  0.784193  1
  Te  Te16  1  0.250000  0.873220  0.528361  1
  Te  Te17  1  0.750000  0.126780  0.471639  1
  Te  Te18  1  0.250000  0.373220  0.971639  1
  Te  Te19  1  0.750000  0.626780  0.028361  1
  Te  Te20  1  0.250000  0.795319  0.840318  1
  Te  Te21  1  0.750000  0.204681  0.159682  1
  Te  Te22  1  0.250000  0.295319  0.659682  1
  Te  Te23  1  0.750000  0.704681  0.340318  1
  Te  Te24  1  0.750000  0.910184  0.075944  1
  Te  Te25  1  0.250000  0.089816  0.924056  1
  Te  Te26  1  0.750000  0.410184  0.424056  1
  Te  Te27  1  0.250000  0.589816  0.575944  1
