# generated using pymatgen
data_Na5Nd(WO4)4
_symmetry_space_group_name_H-M   'P 1'
_cell_length_a   10.14003095
_cell_length_b   10.14003095
_cell_length_c   10.14003095
_cell_angle_alpha   108.93094803
_cell_angle_beta   108.93094803
_cell_angle_gamma   110.55725500
_symmetry_Int_Tables_number   1
_chemical_formula_structural   Na5Nd(WO4)4
_chemical_formula_sum   'Na10 Nd2 W8 O32'
_cell_volume   802.37733629
_cell_formula_units_Z   2
loop_
 _symmetry_equiv_pos_site_id
 _symmetry_equiv_pos_as_xyz
  1  'x, y, z'
loop_
 _atom_site_type_symbol
 _atom_site_label
 _atom_site_symmetry_multiplicity
 _atom_site_fract_x
 _atom_site_fract_y
 _atom_site_fract_z
 _atom_site_occupancy
  Na  Na0  1  0.588055  0.172172  0.826053  1
  Na  Na1  1  0.422172  0.096119  0.084117  1
  Na  Na2  1  0.500000  0.500000  0.000000  1
  Na  Na3  1  0.750000  0.250000  0.500000  1
  Na  Na4  1  0.827828  0.653881  0.415883  1
  Na  Na5  1  0.661945  0.577828  0.673947  1
  Na  Na6  1  0.903881  0.987998  0.326053  1
  Na  Na7  1  0.237998  0.411945  0.584117  1
  Na  Na8  1  0.012002  0.338055  0.915883  1
  Na  Na9  1  0.346119  0.762002  0.173947  1
  Nd  Nd10  1  0.000000  0.000000  0.000000  1
  Nd  Nd11  1  0.250000  0.750000  0.500000  1
  W  W12  1  0.697915  0.919793  0.587035  1
  W  W13  1  0.360880  0.447915  0.278121  1
  W  W14  1  0.169793  0.082759  0.721879  1
  W  W15  1  0.332759  0.110880  0.412965  1
  W  W16  1  0.552085  0.830207  0.912965  1
  W  W17  1  0.889120  0.302085  0.221879  1
  W  W18  1  0.080207  0.667241  0.778121  1
  W  W19  1  0.917241  0.639120  0.087035  1
  O  O20  1  0.795191  0.673802  0.176169  1
  O  O21  1  0.869022  0.545191  0.621389  1
  O  O22  1  0.923802  0.247633  0.378611  1
  O  O23  1  0.497633  0.619022  0.823831  1
  O  O24  1  0.454809  0.076198  0.323831  1
  O  O25  1  0.380978  0.204809  0.878611  1
  O  O26  1  0.326198  0.502367  0.121389  1
  O  O27  1  0.752367  0.130978  0.676169  1
  O  O28  1  0.132218  0.730513  0.235471  1
  O  O29  1  0.146747  0.882218  0.901706  1
  O  O30  1  0.980513  0.245041  0.098294  1
  O  O31  1  0.495041  0.896747  0.764529  1
  O  O32  1  0.117782  0.019487  0.264529  1
  O  O33  1  0.103253  0.867782  0.598294  1
  O  O34  1  0.269487  0.504959  0.401706  1
  O  O35  1  0.754959  0.853253  0.735471  1
  O  O36  1  0.823316  0.423388  0.966153  1
  O  O37  1  0.107163  0.573316  0.899928  1
  O  O38  1  0.673388  0.207236  0.100072  1
  O  O39  1  0.457236  0.857163  0.033847  1
  O  O40  1  0.479329  0.803054  0.446282  1
  O  O41  1  0.283046  0.229329  0.176275  1
  O  O42  1  0.053054  0.106772  0.823725  1
  O  O43  1  0.356772  0.033046  0.553718  1
  O  O44  1  0.770671  0.946946  0.053718  1
  O  O45  1  0.966954  0.520671  0.323725  1
  O  O46  1  0.196946  0.643228  0.676275  1
  O  O47  1  0.893228  0.716954  0.946282  1
  O  O48  1  0.792764  0.892837  0.466153  1
  O  O49  1  0.576612  0.542764  0.399928  1
  O  O50  1  0.142837  0.176684  0.600072  1
  O  O51  1  0.426684  0.326612  0.533847  1
