# generated using pymatgen
data_NdFe3(BO3)4
_symmetry_space_group_name_H-M   'P 1'
_cell_length_a   6.15805066
_cell_length_b   6.15805066
_cell_length_c   6.15805066
_cell_angle_alpha   103.75290676
_cell_angle_beta   103.75290676
_cell_angle_gamma   103.75290676
_symmetry_Int_Tables_number   1
_chemical_formula_structural   NdFe3(BO3)4
_chemical_formula_sum   'Nd1 Fe3 B4 O12'
_cell_volume   209.33532826
_cell_formula_units_Z   1
loop_
 _symmetry_equiv_pos_site_id
 _symmetry_equiv_pos_as_xyz
  1  'x, y, z'
loop_
 _atom_site_type_symbol
 _atom_site_label
 _atom_site_symmetry_multiplicity
 _atom_site_fract_x
 _atom_site_fract_y
 _atom_site_fract_z
 _atom_site_occupancy
  Nd  Nd0  1  0.000000  0.000000  0.000000  1
  Fe  Fe1  1  0.550740  0.000000  0.449260  1
  Fe  Fe2  1  0.449260  0.550740  0.000000  1
  Fe  Fe3  1  0.000000  0.449260  0.550740  1
  B  B4  1  0.946561  0.500000  0.053439  1
  B  B5  1  0.053439  0.946561  0.500000  1
  B  B6  1  0.500000  0.053439  0.946561  1
  B  B7  1  0.500000  0.500000  0.500000  1
  O  O8  1  0.970819  0.373627  0.210046  1
  O  O9  1  0.626373  0.029181  0.789954  1
  O  O10  1  0.029181  0.789954  0.626373  1
  O  O11  1  0.789954  0.626373  0.029181  1
  O  O12  1  0.500000  0.643406  0.356594  1
  O  O13  1  0.643406  0.356594  0.500000  1
  O  O14  1  0.356594  0.500000  0.643406  1
  O  O15  1  0.500000  0.909990  0.090010  1
  O  O16  1  0.909990  0.090010  0.500000  1
  O  O17  1  0.090010  0.500000  0.909990  1
  O  O18  1  0.373627  0.210046  0.970819  1
  O  O19  1  0.210046  0.970819  0.373627  1
