# generated using pymatgen
data_Rb2Be3Cd2F12
_symmetry_space_group_name_H-M   'P 1'
_cell_length_a   10.61965038
_cell_length_b   10.61965038
_cell_length_c   10.61965038
_cell_angle_alpha   90.00000000
_cell_angle_beta   90.00000000
_cell_angle_gamma   90.00000000
_symmetry_Int_Tables_number   1
_chemical_formula_structural   Rb2Be3Cd2F12
_chemical_formula_sum   'Rb8 Be12 Cd8 F48'
_cell_volume   1197.65203685
_cell_formula_units_Z   4
loop_
 _symmetry_equiv_pos_site_id
 _symmetry_equiv_pos_as_xyz
  1  'x, y, z'
loop_
 _atom_site_type_symbol
 _atom_site_label
 _atom_site_symmetry_multiplicity
 _atom_site_fract_x
 _atom_site_fract_y
 _atom_site_fract_z
 _atom_site_occupancy
  Rb  Rb0  1  0.056988  0.056988  0.056988  1
  Rb  Rb1  1  0.443012  0.943012  0.556988  1
  Rb  Rb2  1  0.556988  0.443012  0.943012  1
  Rb  Rb3  1  0.943012  0.556988  0.443012  1
  Rb  Rb4  1  0.296546  0.296546  0.296546  1
  Rb  Rb5  1  0.203454  0.703454  0.796546  1
  Rb  Rb6  1  0.796546  0.203454  0.703454  1
  Rb  Rb7  1  0.703454  0.796546  0.203454  1
  Be  Be8  1  0.624597  0.474352  0.261930  1
  Be  Be9  1  0.875403  0.525648  0.761930  1
  Be  Be10  1  0.375403  0.974352  0.238070  1
  Be  Be11  1  0.124597  0.025648  0.738070  1
  Be  Be12  1  0.974352  0.238070  0.375403  1
  Be  Be13  1  0.738070  0.124597  0.025648  1
  Be  Be14  1  0.238070  0.375403  0.974352  1
  Be  Be15  1  0.525648  0.761930  0.875403  1
  Be  Be16  1  0.761930  0.875403  0.525648  1
  Be  Be17  1  0.025648  0.738070  0.124597  1
  Be  Be18  1  0.474352  0.261930  0.624597  1
  Be  Be19  1  0.261930  0.624597  0.474352  1
  Cd  Cd20  1  0.579060  0.579060  0.579060  1
  Cd  Cd21  1  0.920940  0.420940  0.079060  1
  Cd  Cd22  1  0.079060  0.920940  0.420940  1
  Cd  Cd23  1  0.420940  0.079060  0.920940  1
  Cd  Cd24  1  0.837651  0.837651  0.837651  1
  Cd  Cd25  1  0.662349  0.162349  0.337651  1
  Cd  Cd26  1  0.337651  0.662349  0.162349  1
  Cd  Cd27  1  0.162349  0.337651  0.662349  1
  F  F28  1  0.397592  0.666865  0.511474  1
  F  F29  1  0.429735  0.837248  0.240547  1
  F  F30  1  0.070265  0.162752  0.740547  1
  F  F31  1  0.837248  0.240547  0.429735  1
  F  F32  1  0.975569  0.431030  0.709954  1
  F  F33  1  0.524431  0.568970  0.209954  1
  F  F34  1  0.209954  0.524431  0.568970  1
  F  F35  1  0.568970  0.209954  0.524431  1
  F  F36  1  0.931030  0.790046  0.024431  1
  F  F37  1  0.709954  0.975569  0.431030  1
  F  F38  1  0.431030  0.709954  0.975569  1
  F  F39  1  0.290046  0.475569  0.068970  1
  F  F40  1  0.790046  0.024431  0.931030  1
  F  F41  1  0.068970  0.290046  0.475569  1
  F  F42  1  0.024431  0.931030  0.790046  1
  F  F43  1  0.475569  0.068970  0.290046  1
  F  F44  1  0.666865  0.511474  0.397592  1
  F  F45  1  0.929735  0.662752  0.759453  1
  F  F46  1  0.511474  0.397592  0.666865  1
  F  F47  1  0.988526  0.602408  0.166865  1
  F  F48  1  0.897592  0.833135  0.488526  1
  F  F49  1  0.488526  0.897592  0.833135  1
  F  F50  1  0.102408  0.333135  0.011474  1
  F  F51  1  0.602408  0.166865  0.988526  1
  F  F52  1  0.011474  0.102408  0.333135  1
  F  F53  1  0.166865  0.988526  0.602408  1
  F  F54  1  0.333135  0.011474  0.102408  1
  F  F55  1  0.833135  0.488526  0.897592  1
  F  F56  1  0.739193  0.485069  0.170111  1
  F  F57  1  0.170111  0.739193  0.485069  1
  F  F58  1  0.485069  0.170111  0.739193  1
  F  F59  1  0.014931  0.829889  0.239193  1
  F  F60  1  0.670111  0.760807  0.514931  1
  F  F61  1  0.514931  0.670111  0.760807  1
  F  F62  1  0.329889  0.260807  0.985069  1
  F  F63  1  0.829889  0.239193  0.014931  1
  F  F64  1  0.985069  0.329889  0.260807  1
  F  F65  1  0.239193  0.014931  0.829889  1
  F  F66  1  0.260807  0.985069  0.329889  1
  F  F67  1  0.760807  0.514931  0.670111  1
  F  F68  1  0.570265  0.337248  0.259453  1
  F  F69  1  0.259453  0.570265  0.337248  1
  F  F70  1  0.337248  0.259453  0.570265  1
  F  F71  1  0.162752  0.740547  0.070265  1
  F  F72  1  0.759453  0.929735  0.662752  1
  F  F73  1  0.740547  0.070265  0.162752  1
  F  F74  1  0.240547  0.429735  0.837248  1
  F  F75  1  0.662752  0.759453  0.929735  1
