# generated using pymatgen
data_SiO2
_symmetry_space_group_name_H-M   'P 1'
_cell_length_a   9.90121499
_cell_length_b   9.90121499
_cell_length_c   7.53560989
_cell_angle_alpha   81.28760818
_cell_angle_beta   98.71239182
_cell_angle_gamma   91.76125780
_symmetry_Int_Tables_number   1
_chemical_formula_structural   SiO2
_chemical_formula_sum   'Si12 O24'
_cell_volume   721.77326659
_cell_formula_units_Z   12
loop_
 _symmetry_equiv_pos_site_id
 _symmetry_equiv_pos_as_xyz
  1  'x, y, z'
loop_
 _atom_site_type_symbol
 _atom_site_label
 _atom_site_symmetry_multiplicity
 _atom_site_fract_x
 _atom_site_fract_y
 _atom_site_fract_z
 _atom_site_occupancy
  Si  Si0  1  0.610419  0.833917  0.414072  1
  Si  Si1  1  0.833917  0.610419  0.585928  1
  Si  Si2  1  0.389581  0.166083  0.585928  1
  Si  Si3  1  0.166083  0.389581  0.414072  1
  Si  Si4  1  0.381239  0.844692  0.655782  1
  Si  Si5  1  0.844692  0.381239  0.344218  1
  Si  Si6  1  0.618761  0.155308  0.344218  1
  Si  Si7  1  0.155308  0.618761  0.655782  1
  Si  Si8  1  0.512140  0.715318  0.046947  1
  Si  Si9  1  0.715318  0.512140  0.953053  1
  Si  Si10  1  0.487860  0.284682  0.953053  1
  Si  Si11  1  0.284682  0.487860  0.046947  1
  O  O12  1  0.746068  0.746068  0.500000  1
  O  O13  1  0.253932  0.253932  0.500000  1
  O  O14  1  0.491994  0.793868  0.541389  1
  O  O15  1  0.793868  0.491994  0.458611  1
  O  O16  1  0.508006  0.206132  0.458611  1
  O  O17  1  0.206132  0.508006  0.541389  1
  O  O18  1  0.348978  0.005594  0.592658  1
  O  O19  1  0.005594  0.348978  0.407342  1
  O  O20  1  0.651022  0.994406  0.407342  1
  O  O21  1  0.994406  0.651022  0.592658  1
  O  O22  1  0.760513  0.239487  0.384383  1
  O  O23  1  0.239487  0.760513  0.615617  1
  O  O24  1  0.351672  0.351672  0.000000  1
  O  O25  1  0.648328  0.648328  0.000000  1
  O  O26  1  0.405393  0.594607  0.108130  1
  O  O27  1  0.594607  0.405393  0.891870  1
  O  O28  1  0.181810  0.559075  0.871385  1
  O  O29  1  0.559075  0.181810  0.128615  1
  O  O30  1  0.818190  0.440925  0.128615  1
  O  O31  1  0.440925  0.818190  0.871385  1
  O  O32  1  0.196248  0.445161  0.210213  1
  O  O33  1  0.445161  0.196248  0.789787  1
  O  O34  1  0.803752  0.554839  0.789787  1
  O  O35  1  0.554839  0.803752  0.210213  1
