# generated using pymatgen
data_Lu2Cu(B2O5)2
_symmetry_space_group_name_H-M   'P 1'
_cell_length_a   9.29799748
_cell_length_b   7.20626232
_cell_length_c   10.36248364
_cell_angle_alpha   90.00000000
_cell_angle_beta   153.88500752
_cell_angle_gamma   90.00000000
_symmetry_Int_Tables_number   1
_chemical_formula_structural   Lu2Cu(B2O5)2
_chemical_formula_sum   'Lu4 Cu2 B8 O20'
_cell_volume   305.62429410
_cell_formula_units_Z   2
loop_
 _symmetry_equiv_pos_site_id
 _symmetry_equiv_pos_as_xyz
  1  'x, y, z'
loop_
 _atom_site_type_symbol
 _atom_site_label
 _atom_site_symmetry_multiplicity
 _atom_site_fract_x
 _atom_site_fract_y
 _atom_site_fract_z
 _atom_site_occupancy
  Lu  Lu0  1  0.665872  0.602060  0.001867  1
  Lu  Lu1  1  0.834128  0.102060  0.998133  1
  Lu  Lu2  1  0.165872  0.897940  0.001867  1
  Lu  Lu3  1  0.334128  0.397940  0.998133  1
  Cu  Cu4  1  0.500000  0.000000  0.000000  1
  Cu  Cu5  1  0.000000  0.500000  0.000000  1
  B  B6  1  0.539905  0.229552  0.461287  1
  B  B7  1  0.960095  0.729552  0.538713  1
  B  B8  1  0.460095  0.770448  0.538713  1
  B  B9  1  0.039905  0.270448  0.461287  1
  B  B10  1  0.364327  0.402356  0.528857  1
  B  B11  1  0.135673  0.902356  0.471143  1
  B  B12  1  0.864327  0.097644  0.528857  1
  B  B13  1  0.635673  0.597644  0.471143  1
  O  O14  1  0.960850  0.089819  0.321976  1
  O  O15  1  0.539150  0.589819  0.678024  1
  O  O16  1  0.733334  0.891253  0.773148  1
  O  O17  1  0.766666  0.391253  0.226852  1
  O  O18  1  0.266666  0.108747  0.226852  1
  O  O19  1  0.233334  0.608747  0.773148  1
  O  O20  1  0.543877  0.089615  0.212487  1
  O  O21  1  0.956123  0.589615  0.787513  1
  O  O22  1  0.456123  0.910385  0.787513  1
  O  O23  1  0.043877  0.410385  0.212487  1
  O  O24  1  0.857614  0.161859  0.661218  1
  O  O25  1  0.642386  0.661859  0.338782  1
  O  O26  1  0.142386  0.838141  0.338782  1
  O  O27  1  0.357614  0.338141  0.661218  1
  O  O28  1  0.092081  0.224229  0.642772  1
  O  O29  1  0.407919  0.724229  0.357228  1
  O  O30  1  0.907919  0.775771  0.357228  1
  O  O31  1  0.592081  0.275771  0.642772  1
  O  O32  1  0.039150  0.910181  0.678024  1
  O  O33  1  0.460850  0.410181  0.321976  1
