# generated using pymatgen
data_RbBaPO4
_symmetry_space_group_name_H-M   'P 1'
_cell_length_a   5.80588131
_cell_length_b   7.94987622
_cell_length_c   10.26222749
_cell_angle_alpha   90.00000000
_cell_angle_beta   90.00000000
_cell_angle_gamma   90.00000000
_symmetry_Int_Tables_number   1
_chemical_formula_structural   RbBaPO4
_chemical_formula_sum   'Rb4 Ba4 P4 O16'
_cell_volume   473.66375956
_cell_formula_units_Z   4
loop_
 _symmetry_equiv_pos_site_id
 _symmetry_equiv_pos_as_xyz
  1  'x, y, z'
loop_
 _atom_site_type_symbol
 _atom_site_label
 _atom_site_symmetry_multiplicity
 _atom_site_fract_x
 _atom_site_fract_y
 _atom_site_fract_z
 _atom_site_occupancy
  Rb  Rb0  1  0.750000  0.156297  0.915733  1
  Rb  Rb1  1  0.250000  0.343703  0.415733  1
  Rb  Rb2  1  0.250000  0.843703  0.084267  1
  Rb  Rb3  1  0.750000  0.656297  0.584267  1
  Ba  Ba4  1  0.250000  0.500755  0.808292  1
  Ba  Ba5  1  0.250000  0.000755  0.691708  1
  Ba  Ba6  1  0.750000  0.999245  0.308292  1
  Ba  Ba7  1  0.750000  0.499245  0.191708  1
  P  P8  1  0.250000  0.770269  0.414176  1
  P  P9  1  0.750000  0.229731  0.585824  1
  P  P10  1  0.250000  0.270269  0.085824  1
  P  P11  1  0.750000  0.729731  0.914176  1
  O  O12  1  0.971061  0.291022  0.658477  1
  O  O13  1  0.471061  0.708978  0.341523  1
  O  O14  1  0.528939  0.791022  0.841523  1
  O  O15  1  0.028939  0.208978  0.158477  1
  O  O16  1  0.028939  0.708978  0.341523  1
  O  O17  1  0.528939  0.291022  0.658477  1
  O  O18  1  0.471061  0.208978  0.158477  1
  O  O19  1  0.971061  0.791022  0.841523  1
  O  O20  1  0.250000  0.966708  0.418518  1
  O  O21  1  0.750000  0.033292  0.581482  1
  O  O22  1  0.250000  0.466708  0.081482  1
  O  O23  1  0.750000  0.533292  0.918518  1
  O  O24  1  0.750000  0.800313  0.056859  1
  O  O25  1  0.250000  0.199687  0.943141  1
  O  O26  1  0.750000  0.300313  0.443141  1
  O  O27  1  0.250000  0.699687  0.556859  1
