# generated using pymatgen
data_RbSm2CuSe4
_symmetry_space_group_name_H-M   'P 1'
_cell_length_a   7.57440250
_cell_length_b   7.57440250
_cell_length_c   14.60538874
_cell_angle_alpha   90.00000000
_cell_angle_beta   90.00000000
_cell_angle_gamma   147.76005792
_symmetry_Int_Tables_number   1
_chemical_formula_structural   RbSm2CuSe4
_chemical_formula_sum   'Rb2 Sm4 Cu2 Se8'
_cell_volume   447.00940689
_cell_formula_units_Z   2
loop_
 _symmetry_equiv_pos_site_id
 _symmetry_equiv_pos_as_xyz
  1  'x, y, z'
loop_
 _atom_site_type_symbol
 _atom_site_label
 _atom_site_symmetry_multiplicity
 _atom_site_fract_x
 _atom_site_fract_y
 _atom_site_fract_z
 _atom_site_occupancy
  Rb  Rb0  1  0.890959  0.109041  0.750000  1
  Rb  Rb1  1  0.109041  0.890959  0.250000  1
  Sm  Sm2  1  0.365580  0.634420  0.063209  1
  Sm  Sm3  1  0.634420  0.365580  0.936791  1
  Sm  Sm4  1  0.365580  0.634420  0.436791  1
  Sm  Sm5  1  0.634420  0.365580  0.563209  1
  Cu  Cu6  1  0.162209  0.837791  0.750000  1
  Cu  Cu7  1  0.837791  0.162209  0.250000  1
  Se  Se8  1  0.429385  0.570615  0.250000  1
  Se  Se9  1  0.570615  0.429385  0.750000  1
  Se  Se10  1  0.737719  0.262281  0.111966  1
  Se  Se11  1  0.262281  0.737719  0.888034  1
  Se  Se12  1  0.000000  0.000000  0.500000  1
  Se  Se13  1  0.000000  0.000000  0.000000  1
  Se  Se14  1  0.737719  0.262281  0.388034  1
  Se  Se15  1  0.262281  0.737719  0.611966  1
