# generated using pymatgen
data_Ba(TbTe2)2
_symmetry_space_group_name_H-M   'P 1'
_cell_length_a   4.50330776
_cell_length_b   13.84678124
_cell_length_c   16.36556044
_cell_angle_alpha   90.00000000
_cell_angle_beta   90.00000000
_cell_angle_gamma   90.00000000
_symmetry_Int_Tables_number   1
_chemical_formula_structural   Ba(TbTe2)2
_chemical_formula_sum   'Ba4 Tb8 Te16'
_cell_volume   1020.49608137
_cell_formula_units_Z   4
loop_
 _symmetry_equiv_pos_site_id
 _symmetry_equiv_pos_as_xyz
  1  'x, y, z'
loop_
 _atom_site_type_symbol
 _atom_site_label
 _atom_site_symmetry_multiplicity
 _atom_site_fract_x
 _atom_site_fract_y
 _atom_site_fract_z
 _atom_site_occupancy
  Ba  Ba0  1  0.750000  0.761172  0.669399  1
  Ba  Ba1  1  0.250000  0.238828  0.330601  1
  Ba  Ba2  1  0.750000  0.261172  0.830601  1
  Ba  Ba3  1  0.250000  0.738828  0.169399  1
  Tb  Tb4  1  0.250000  0.580596  0.903455  1
  Tb  Tb5  1  0.750000  0.419404  0.096545  1
  Tb  Tb6  1  0.250000  0.080596  0.596545  1
  Tb  Tb7  1  0.750000  0.919404  0.403455  1
  Tb  Tb8  1  0.750000  0.440131  0.609426  1
  Tb  Tb9  1  0.250000  0.559869  0.390574  1
  Tb  Tb10  1  0.750000  0.940131  0.890574  1
  Tb  Tb11  1  0.250000  0.059869  0.109426  1
  Te  Te12  1  0.250000  0.972985  0.284013  1
  Te  Te13  1  0.750000  0.027015  0.715987  1
  Te  Te14  1  0.250000  0.472985  0.215987  1
  Te  Te15  1  0.750000  0.527015  0.784013  1
  Te  Te16  1  0.250000  0.872114  0.528624  1
  Te  Te17  1  0.750000  0.127886  0.471376  1
  Te  Te18  1  0.250000  0.372114  0.971376  1
  Te  Te19  1  0.750000  0.627886  0.028624  1
  Te  Te20  1  0.250000  0.795030  0.838292  1
  Te  Te21  1  0.750000  0.204970  0.161708  1
  Te  Te22  1  0.250000  0.295030  0.661708  1
  Te  Te23  1  0.750000  0.704970  0.338292  1
  Te  Te24  1  0.750000  0.909994  0.076735  1
  Te  Te25  1  0.250000  0.090006  0.923265  1
  Te  Te26  1  0.750000  0.409994  0.423265  1
  Te  Te27  1  0.250000  0.590006  0.576735  1
