# generated using pymatgen
data_Lu2SiO5
_symmetry_space_group_name_H-M   'P 1'
_cell_length_a   7.88268489
_cell_length_b   7.88268489
_cell_length_c   10.28811122
_cell_angle_alpha   61.31669986
_cell_angle_beta   118.68330014
_cell_angle_gamma   129.91483453
_symmetry_Int_Tables_number   1
_chemical_formula_structural   Lu2SiO5
_chemical_formula_sum   'Lu8 Si4 O20'
_cell_volume   415.86001048
_cell_formula_units_Z   4
loop_
 _symmetry_equiv_pos_site_id
 _symmetry_equiv_pos_as_xyz
  1  'x, y, z'
loop_
 _atom_site_type_symbol
 _atom_site_label
 _atom_site_symmetry_multiplicity
 _atom_site_fract_x
 _atom_site_fract_y
 _atom_site_fract_z
 _atom_site_occupancy
  Lu  Lu0  1  0.522893  0.240348  0.339159  1
  Lu  Lu1  1  0.240348  0.522893  0.160841  1
  Lu  Lu2  1  0.477107  0.759652  0.660841  1
  Lu  Lu3  1  0.759652  0.477107  0.839159  1
  Lu  Lu4  1  0.295066  0.218522  0.971368  1
  Lu  Lu5  1  0.218522  0.295066  0.528632  1
  Lu  Lu6  1  0.704934  0.781478  0.028632  1
  Lu  Lu7  1  0.781478  0.704934  0.471368  1
  Si  Si8  1  0.909829  0.274913  0.693987  1
  Si  Si9  1  0.274913  0.909829  0.806013  1
  Si  Si10  1  0.090171  0.725087  0.306013  1
  Si  Si11  1  0.725087  0.090171  0.193987  1
  O  O12  1  0.421140  0.388513  0.395641  1
  O  O13  1  0.388513  0.421140  0.104359  1
  O  O14  1  0.578860  0.611487  0.604359  1
  O  O15  1  0.611487  0.578860  0.895641  1
  O  O16  1  0.720306  0.126023  0.566272  1
  O  O17  1  0.126023  0.720306  0.933728  1
  O  O18  1  0.279694  0.873977  0.433728  1
  O  O19  1  0.873977  0.279694  0.066272  1
  O  O20  1  0.852009  0.450131  0.678625  1
  O  O21  1  0.450131  0.852009  0.821375  1
  O  O22  1  0.147991  0.549869  0.321375  1
  O  O23  1  0.549869  0.147991  0.178625  1
  O  O24  1  0.897645  0.074315  0.366010  1
  O  O25  1  0.074315  0.897645  0.133990  1
  O  O26  1  0.102355  0.925685  0.633990  1
  O  O27  1  0.925685  0.102355  0.866010  1
  O  O28  1  0.589577  0.833716  0.169351  1
  O  O29  1  0.833716  0.589577  0.330649  1
  O  O30  1  0.410423  0.166284  0.830649  1
  O  O31  1  0.166284  0.410423  0.669351  1
