# generated using pymatgen
data_Sr5(SnP3)2
_symmetry_space_group_name_H-M   'P 1'
_cell_length_a   4.16802108
_cell_length_b   12.30717748
_cell_length_c   13.91667242
_cell_angle_alpha   90.00000000
_cell_angle_beta   90.00000000
_cell_angle_gamma   90.00000000
_symmetry_Int_Tables_number   1
_chemical_formula_structural   Sr5(SnP3)2
_chemical_formula_sum   'Sr10 Sn4 P12'
_cell_volume   713.87763294
_cell_formula_units_Z   2
loop_
 _symmetry_equiv_pos_site_id
 _symmetry_equiv_pos_as_xyz
  1  'x, y, z'
loop_
 _atom_site_type_symbol
 _atom_site_label
 _atom_site_symmetry_multiplicity
 _atom_site_fract_x
 _atom_site_fract_y
 _atom_site_fract_z
 _atom_site_occupancy
  Sr  Sr0  1  0.000000  0.628976  0.069548  1
  Sr  Sr1  1  0.000000  0.618860  0.742175  1
  Sr  Sr2  1  0.000000  0.128976  0.430452  1
  Sr  Sr3  1  0.000000  0.871024  0.569548  1
  Sr  Sr4  1  0.000000  0.500000  0.500000  1
  Sr  Sr5  1  0.000000  0.000000  0.000000  1
  Sr  Sr6  1  0.000000  0.881140  0.242175  1
  Sr  Sr7  1  0.000000  0.118860  0.757825  1
  Sr  Sr8  1  0.000000  0.381140  0.257825  1
  Sr  Sr9  1  0.000000  0.371024  0.930452  1
  Sn  Sn10  1  0.500000  0.285316  0.603470  1
  Sn  Sn11  1  0.500000  0.214684  0.103470  1
  Sn  Sn12  1  0.500000  0.785316  0.896530  1
  Sn  Sn13  1  0.500000  0.714684  0.396530  1
  P  P14  1  0.000000  0.634500  0.306423  1
  P  P15  1  0.500000  0.079815  0.601850  1
  P  P16  1  0.500000  0.420185  0.101850  1
  P  P17  1  0.500000  0.579815  0.898150  1
  P  P18  1  0.500000  0.669870  0.575859  1
  P  P19  1  0.500000  0.330130  0.424141  1
  P  P20  1  0.500000  0.169870  0.924141  1
  P  P21  1  0.500000  0.830130  0.075859  1
  P  P22  1  0.500000  0.920185  0.398150  1
  P  P23  1  0.000000  0.865500  0.806423  1
  P  P24  1  0.000000  0.365500  0.693577  1
  P  P25  1  0.000000  0.134500  0.193577  1
