# generated using pymatgen
data_Fe3(PO4)2
_symmetry_space_group_name_H-M   'P 1'
_cell_length_a   6.12885487
_cell_length_b   4.86298625
_cell_length_c   10.57394100
_cell_angle_alpha   90.00000000
_cell_angle_beta   90.35609929
_cell_angle_gamma   90.00000000
_symmetry_Int_Tables_number   1
_chemical_formula_structural   Fe3(PO4)2
_chemical_formula_sum   'Fe6 P4 O16'
_cell_volume   315.14532841
_cell_formula_units_Z   2
loop_
 _symmetry_equiv_pos_site_id
 _symmetry_equiv_pos_as_xyz
  1  'x, y, z'
loop_
 _atom_site_type_symbol
 _atom_site_label
 _atom_site_symmetry_multiplicity
 _atom_site_fract_x
 _atom_site_fract_y
 _atom_site_fract_z
 _atom_site_occupancy
  Fe  Fe0  1  0.236078  0.484753  0.782576  1
  Fe  Fe1  1  0.763922  0.984753  0.717424  1
  Fe  Fe2  1  0.763922  0.515247  0.217424  1
  Fe  Fe3  1  0.236078  0.015247  0.282576  1
  Fe  Fe4  1  0.500000  0.500000  0.500000  1
  Fe  Fe5  1  0.500000  0.000000  0.000000  1
  P  P6  1  0.262539  0.933186  0.600924  1
  P  P7  1  0.737461  0.433186  0.899076  1
  P  P8  1  0.737461  0.066814  0.399076  1
  P  P9  1  0.262539  0.566814  0.100924  1
  O  O10  1  0.254709  0.680458  0.963945  1
  O  O11  1  0.745291  0.180458  0.536055  1
  O  O12  1  0.745291  0.319542  0.036055  1
  O  O13  1  0.254709  0.819542  0.463945  1
  O  O14  1  0.719481  0.749792  0.395163  1
  O  O15  1  0.280519  0.249792  0.104837  1
  O  O16  1  0.280519  0.250208  0.604837  1
  O  O17  1  0.719481  0.750208  0.895163  1
  O  O18  1  0.470028  0.786062  0.662201  1
  O  O19  1  0.529972  0.286062  0.837799  1
  O  O20  1  0.071708  0.673776  0.182886  1
  O  O21  1  0.928292  0.173776  0.317114  1
  O  O22  1  0.928292  0.326224  0.817114  1
  O  O23  1  0.071708  0.826224  0.682886  1
  O  O24  1  0.470028  0.713938  0.162201  1
  O  O25  1  0.529972  0.213938  0.337799  1
