# generated using pymatgen
data_K4Nb8Si(P2O17)2
_symmetry_space_group_name_H-M   'P 1'
_cell_length_a   10.78115925
_cell_length_b   10.78115925
_cell_length_c   6.52508046
_cell_angle_alpha   90.00000000
_cell_angle_beta   90.00000000
_cell_angle_gamma   90.00000000
_symmetry_Int_Tables_number   1
_chemical_formula_structural   K4Nb8Si(P2O17)2
_chemical_formula_sum   'K4 Nb8 Si1 P4 O34'
_cell_volume   758.43225304
_cell_formula_units_Z   1
loop_
 _symmetry_equiv_pos_site_id
 _symmetry_equiv_pos_as_xyz
  1  'x, y, z'
loop_
 _atom_site_type_symbol
 _atom_site_label
 _atom_site_symmetry_multiplicity
 _atom_site_fract_x
 _atom_site_fract_y
 _atom_site_fract_z
 _atom_site_occupancy
  K  K0  1  0.500000  0.500000  0.500000  1
  K  K1  1  0.000000  0.500000  0.300171  1
  K  K2  1  0.500000  0.000000  0.699829  1
  K  K3  1  0.000000  0.000000  0.500000  1
  Nb  Nb4  1  0.177954  0.177954  0.000000  1
  Nb  Nb5  1  0.822046  0.822046  0.000000  1
  Nb  Nb6  1  0.822046  0.177954  0.000000  1
  Nb  Nb7  1  0.177954  0.822046  0.000000  1
  Nb  Nb8  1  0.500000  0.186610  0.202182  1
  Nb  Nb9  1  0.813390  0.500000  0.797818  1
  Nb  Nb10  1  0.186610  0.500000  0.797818  1
  Nb  Nb11  1  0.500000  0.813390  0.202182  1
  Si  Si12  1  0.500000  0.500000  0.000000  1
  P  P13  1  0.240163  0.240163  0.500000  1
  P  P14  1  0.240163  0.759837  0.500000  1
  P  P15  1  0.759837  0.759837  0.500000  1
  P  P16  1  0.759837  0.240163  0.500000  1
  O  O17  1  0.161126  0.196366  0.313230  1
  O  O18  1  0.838874  0.803634  0.313230  1
  O  O19  1  0.803634  0.161126  0.686770  1
  O  O20  1  0.196366  0.838874  0.686770  1
  O  O21  1  0.838874  0.196366  0.313230  1
  O  O22  1  0.803634  0.838874  0.686770  1
  O  O23  1  0.196366  0.161126  0.686770  1
  O  O24  1  0.161126  0.803634  0.313230  1
  O  O25  1  0.824556  0.000000  0.028178  1
  O  O26  1  0.000000  0.824556  0.971822  1
  O  O27  1  0.000000  0.175444  0.971822  1
  O  O28  1  0.175444  0.000000  0.028178  1
  O  O29  1  0.500000  0.374605  0.148644  1
  O  O30  1  0.625395  0.500000  0.851356  1
  O  O31  1  0.374605  0.500000  0.851356  1
  O  O32  1  0.500000  0.625395  0.148644  1
  O  O33  1  0.378056  0.214395  0.459241  1
  O  O34  1  0.500000  0.000000  0.253636  1
  O  O35  1  0.000000  0.500000  0.746364  1
  O  O36  1  0.363062  0.827524  0.021606  1
  O  O37  1  0.172476  0.363062  0.978394  1
  O  O38  1  0.827524  0.636938  0.978394  1
  O  O39  1  0.636938  0.172476  0.021606  1
  O  O40  1  0.172476  0.636938  0.978394  1
  O  O41  1  0.827524  0.363062  0.978394  1
  O  O42  1  0.636938  0.827524  0.021606  1
  O  O43  1  0.363062  0.172476  0.021606  1
  O  O44  1  0.378056  0.785605  0.459241  1
  O  O45  1  0.214395  0.378056  0.540759  1
  O  O46  1  0.785605  0.621944  0.540759  1
  O  O47  1  0.621944  0.214395  0.459241  1
  O  O48  1  0.214395  0.621944  0.540759  1
  O  O49  1  0.785605  0.378056  0.540759  1
  O  O50  1  0.621944  0.785605  0.459241  1
