# generated using pymatgen
data_KVPO5
_symmetry_space_group_name_H-M   'P 1'
_cell_length_a   6.45810432
_cell_length_b   10.61532725
_cell_length_c   12.96809881
_cell_angle_alpha   90.00000000
_cell_angle_beta   90.00000000
_cell_angle_gamma   90.00000000
_symmetry_Int_Tables_number   1
_chemical_formula_structural   KVPO5
_chemical_formula_sum   'K8 V8 P8 O40'
_cell_volume   889.02659743
_cell_formula_units_Z   8
loop_
 _symmetry_equiv_pos_site_id
 _symmetry_equiv_pos_as_xyz
  1  'x, y, z'
loop_
 _atom_site_type_symbol
 _atom_site_label
 _atom_site_symmetry_multiplicity
 _atom_site_fract_x
 _atom_site_fract_y
 _atom_site_fract_z
 _atom_site_occupancy
  K  K0  1  0.220763  0.815017  0.625264  1
  K  K1  1  0.720763  0.315017  0.874736  1
  K  K2  1  0.279237  0.815017  0.125264  1
  K  K3  1  0.703326  0.071160  0.104587  1
  K  K4  1  0.203326  0.571160  0.395413  1
  K  K5  1  0.296674  0.571160  0.895413  1
  K  K6  1  0.796674  0.071160  0.604587  1
  K  K7  1  0.779237  0.315017  0.374736  1
  V  V8  1  0.494171  0.004053  0.374464  1
  V  V9  1  0.505829  0.504053  0.625536  1
  V  V10  1  0.005829  0.004053  0.874464  1
  V  V11  1  0.266491  0.256260  0.246299  1
  V  V12  1  0.733509  0.756260  0.753701  1
  V  V13  1  0.233509  0.256260  0.746299  1
  V  V14  1  0.766491  0.756260  0.253701  1
  V  V15  1  0.994171  0.504053  0.125536  1
  P  P16  1  0.997802  0.017137  0.319737  1
  P  P17  1  0.002198  0.517137  0.680263  1
  P  P18  1  0.502198  0.017137  0.819737  1
  P  P19  1  0.497802  0.517137  0.180263  1
  P  P20  1  0.833962  0.763261  0.003157  1
  P  P21  1  0.166038  0.263261  0.996843  1
  P  P22  1  0.666038  0.763261  0.503157  1
  P  P23  1  0.333962  0.263261  0.496843  1
  O  O24  1  0.543739  0.891041  0.280864  1
  O  O25  1  0.456261  0.391041  0.719136  1
  O  O26  1  0.956261  0.891041  0.780864  1
  O  O27  1  0.043739  0.391041  0.219136  1
  O  O28  1  0.954562  0.643921  0.227001  1
  O  O29  1  0.045438  0.143921  0.772999  1
  O  O30  1  0.545438  0.643921  0.727001  1
  O  O31  1  0.454562  0.143921  0.272999  1
  O  O32  1  0.955402  0.904273  0.246223  1
  O  O33  1  0.044598  0.404273  0.753777  1
  O  O34  1  0.544598  0.904273  0.746223  1
  O  O35  1  0.455402  0.404273  0.253777  1
  O  O36  1  0.032787  0.132279  0.246963  1
  O  O37  1  0.967213  0.632279  0.753037  1
  O  O38  1  0.467213  0.132279  0.746963  1
  O  O39  1  0.692042  0.744399  0.908327  1
  O  O40  1  0.532787  0.632279  0.253037  1
  O  O41  1  0.811951  0.487964  0.611586  1
  O  O42  1  0.311951  0.987964  0.888414  1
  O  O43  1  0.688049  0.487964  0.111586  1
  O  O44  1  0.808049  0.044376  0.389407  1
  O  O45  1  0.191951  0.544376  0.610593  1
  O  O46  1  0.691951  0.044376  0.889407  1
  O  O47  1  0.308049  0.544376  0.110593  1
  O  O48  1  0.478935  0.148121  0.480628  1
  O  O49  1  0.521065  0.648121  0.519372  1
  O  O50  1  0.021065  0.148121  0.980628  1
  O  O51  1  0.978935  0.648121  0.019372  1
  O  O52  1  0.475292  0.381427  0.510009  1
  O  O53  1  0.524708  0.881427  0.489991  1
  O  O54  1  0.024708  0.381427  0.010009  1
  O  O55  1  0.975292  0.881427  0.989991  1
  O  O56  1  0.196953  0.285010  0.399692  1
  O  O57  1  0.803047  0.785010  0.600308  1
  O  O58  1  0.303047  0.285010  0.899692  1
  O  O59  1  0.696953  0.785010  0.100308  1
  O  O60  1  0.192042  0.244399  0.591673  1
  O  O61  1  0.807958  0.744399  0.408327  1
  O  O62  1  0.307958  0.244399  0.091673  1
  O  O63  1  0.188049  0.987964  0.388414  1
