# generated using pymatgen
data_Sb2Ir
_symmetry_space_group_name_H-M   'P 1'
_cell_length_a   6.69358831
_cell_length_b   6.63961317
_cell_length_c   6.79475242
_cell_angle_alpha   90.00000000
_cell_angle_beta   114.92775054
_cell_angle_gamma   90.00000000
_symmetry_Int_Tables_number   1
_chemical_formula_structural   Sb2Ir
_chemical_formula_sum   'Sb8 Ir4'
_cell_volume   273.84579300
_cell_formula_units_Z   4
loop_
 _symmetry_equiv_pos_site_id
 _symmetry_equiv_pos_as_xyz
  1  'x, y, z'
loop_
 _atom_site_type_symbol
 _atom_site_label
 _atom_site_symmetry_multiplicity
 _atom_site_fract_x
 _atom_site_fract_y
 _atom_site_fract_z
 _atom_site_occupancy
  Sb  Sb0  1  0.149073  0.134971  0.878839  1
  Sb  Sb1  1  0.850927  0.634971  0.621161  1
  Sb  Sb2  1  0.850927  0.865029  0.121161  1
  Sb  Sb3  1  0.149073  0.365029  0.378839  1
  Sb  Sb4  1  0.344606  0.637446  0.178702  1
  Sb  Sb5  1  0.655394  0.137446  0.321298  1
  Sb  Sb6  1  0.655394  0.362554  0.821298  1
  Sb  Sb7  1  0.344606  0.862554  0.678702  1
  Ir  Ir8  1  0.271693  0.499018  0.791070  1
  Ir  Ir9  1  0.728307  0.999018  0.708930  1
  Ir  Ir10  1  0.728307  0.500982  0.208930  1
  Ir  Ir11  1  0.271693  0.000982  0.291070  1
