# generated using pymatgen
data_NaAsO3
_symmetry_space_group_name_H-M   'P 1'
_cell_length_a   7.45716733
_cell_length_b   7.61516577
_cell_length_c   8.26117869
_cell_angle_alpha   103.78719772
_cell_angle_beta   92.63786049
_cell_angle_gamma   90.32185998
_symmetry_Int_Tables_number   1
_chemical_formula_structural   NaAsO3
_chemical_formula_sum   'Na6 As6 O18'
_cell_volume   455.06608348
_cell_formula_units_Z   6
loop_
 _symmetry_equiv_pos_site_id
 _symmetry_equiv_pos_as_xyz
  1  'x, y, z'
loop_
 _atom_site_type_symbol
 _atom_site_label
 _atom_site_symmetry_multiplicity
 _atom_site_fract_x
 _atom_site_fract_y
 _atom_site_fract_z
 _atom_site_occupancy
  Na  Na0  1  0.755857  0.575242  0.796814  1
  Na  Na1  1  0.244143  0.424758  0.203186  1
  Na  Na2  1  0.747117  0.057751  0.778353  1
  Na  Na3  1  0.252883  0.942249  0.221647  1
  Na  Na4  1  0.982365  0.253634  0.511585  1
  Na  Na5  1  0.017635  0.746366  0.488415  1
  As  As6  1  0.550918  0.721020  0.386314  1
  As  As7  1  0.449082  0.278980  0.613686  1
  As  As8  1  0.777844  0.952975  0.171312  1
  As  As9  1  0.222156  0.047025  0.828688  1
  As  As10  1  0.773240  0.378241  0.173869  1
  As  As11  1  0.226760  0.621759  0.826131  1
  O  O12  1  0.679359  0.171285  0.202977  1
  O  O13  1  0.297971  0.232633  0.453003  1
  O  O14  1  0.328502  0.729571  0.403902  1
  O  O15  1  0.671498  0.270429  0.596098  1
  O  O16  1  0.580499  0.858187  0.238137  1
  O  O17  1  0.419501  0.141813  0.761863  1
  O  O18  1  0.049533  0.554657  0.692150  1
  O  O19  1  0.950467  0.445343  0.307850  1
  O  O20  1  0.047280  0.043566  0.692839  1
  O  O21  1  0.952720  0.956434  0.307161  1
  O  O22  1  0.215945  0.633784  0.029239  1
  O  O23  1  0.574886  0.499167  0.252254  1
  O  O24  1  0.205605  0.133286  0.033084  1
  O  O25  1  0.794395  0.866714  0.966916  1
  O  O26  1  0.320641  0.828715  0.797023  1
  O  O27  1  0.784055  0.366216  0.970761  1
  O  O28  1  0.425114  0.500833  0.747746  1
  O  O29  1  0.702029  0.767367  0.546997  1
