# generated using pymatgen
data_Sr3P14
_symmetry_space_group_name_H-M   'P 1'
_cell_length_a   6.38560753
_cell_length_b   12.87291611
_cell_length_c   11.84372891
_cell_angle_alpha   90.00000000
_cell_angle_beta   122.69130961
_cell_angle_gamma   90.00000000
_symmetry_Int_Tables_number   1
_chemical_formula_structural   Sr3P14
_chemical_formula_sum   'Sr6 P28'
_cell_volume   819.35024311
_cell_formula_units_Z   2
loop_
 _symmetry_equiv_pos_site_id
 _symmetry_equiv_pos_as_xyz
  1  'x, y, z'
loop_
 _atom_site_type_symbol
 _atom_site_label
 _atom_site_symmetry_multiplicity
 _atom_site_fract_x
 _atom_site_fract_y
 _atom_site_fract_z
 _atom_site_occupancy
  Sr  Sr0  1  0.000000  0.000000  0.500000  1
  Sr  Sr1  1  0.000000  0.500000  0.000000  1
  Sr  Sr2  1  0.417547  0.158699  0.110282  1
  Sr  Sr3  1  0.582453  0.658699  0.389718  1
  Sr  Sr4  1  0.582453  0.841301  0.889718  1
  Sr  Sr5  1  0.417547  0.341301  0.610282  1
  P  P6  1  0.710270  0.323748  0.048670  1
  P  P7  1  0.289730  0.823748  0.451330  1
  P  P8  1  0.289730  0.676252  0.951330  1
  P  P9  1  0.710270  0.176252  0.548670  1
  P  P10  1  0.560376  0.417406  0.140407  1
  P  P11  1  0.439624  0.917406  0.359593  1
  P  P12  1  0.439624  0.582594  0.859593  1
  P  P13  1  0.560376  0.082594  0.640407  1
  P  P14  1  0.078119  0.290770  0.229374  1
  P  P15  1  0.921881  0.790770  0.270626  1
  P  P16  1  0.921881  0.709230  0.770626  1
  P  P17  1  0.078119  0.209230  0.729374  1
  P  P18  1  0.211588  0.446628  0.319514  1
  P  P19  1  0.788412  0.946628  0.180486  1
  P  P20  1  0.788412  0.553372  0.680486  1
  P  P21  1  0.211588  0.053372  0.819514  1
  P  P22  1  0.965234  0.225901  0.361273  1
  P  P23  1  0.034766  0.725901  0.138727  1
  P  P24  1  0.034766  0.774099  0.638727  1
  P  P25  1  0.965234  0.274099  0.861273  1
  P  P26  1  0.116086  0.996305  0.183111  1
  P  P27  1  0.883914  0.496305  0.316889  1
  P  P28  1  0.883914  0.003695  0.816889  1
  P  P29  1  0.116086  0.503695  0.683111  1
  P  P30  1  0.729324  0.351461  0.352764  1
  P  P31  1  0.270676  0.851461  0.147236  1
  P  P32  1  0.270676  0.648539  0.647236  1
  P  P33  1  0.729324  0.148539  0.852764  1
