# generated using pymatgen
data_Li6CoO4
_symmetry_space_group_name_H-M   'P 1'
_cell_length_a   6.59381541
_cell_length_b   6.59381541
_cell_length_c   4.69809806
_cell_angle_alpha   90.00000000
_cell_angle_beta   90.00000000
_cell_angle_gamma   90.00000000
_symmetry_Int_Tables_number   1
_chemical_formula_structural   Li6CoO4
_chemical_formula_sum   'Li12 Co2 O8'
_cell_volume   204.26579450
_cell_formula_units_Z   2
loop_
 _symmetry_equiv_pos_site_id
 _symmetry_equiv_pos_as_xyz
  1  'x, y, z'
loop_
 _atom_site_type_symbol
 _atom_site_label
 _atom_site_symmetry_multiplicity
 _atom_site_fract_x
 _atom_site_fract_y
 _atom_site_fract_z
 _atom_site_occupancy
  Li  Li0  1  0.282237  0.282237  0.500000  1
  Li  Li1  1  0.782237  0.217763  0.000000  1
  Li  Li2  1  0.500000  0.000000  0.048743  1
  Li  Li3  1  0.217763  0.217763  0.000000  1
  Li  Li4  1  0.282237  0.717763  0.500000  1
  Li  Li5  1  0.500000  0.000000  0.548743  1
  Li  Li6  1  0.217763  0.782237  0.000000  1
  Li  Li7  1  0.717763  0.717763  0.500000  1
  Li  Li8  1  0.782237  0.782237  0.000000  1
  Li  Li9  1  0.000000  0.500000  0.451257  1
  Li  Li10  1  0.717763  0.282237  0.500000  1
  Li  Li11  1  0.000000  0.500000  0.951257  1
  Co  Co12  1  0.000000  0.000000  0.500000  1
  Co  Co13  1  0.500000  0.500000  0.000000  1
  O  O14  1  0.500000  0.236685  0.786530  1
  O  O15  1  0.236685  0.500000  0.213470  1
  O  O16  1  0.000000  0.736685  0.713470  1
  O  O17  1  0.763315  0.500000  0.213470  1
  O  O18  1  0.736685  0.000000  0.286530  1
  O  O19  1  0.500000  0.763315  0.786530  1
  O  O20  1  0.000000  0.263315  0.713470  1
  O  O21  1  0.263315  0.000000  0.286530  1
