# generated using pymatgen
data_BaSmC2O6F
_symmetry_space_group_name_H-M   'P 1'
_cell_length_a   13.14754268
_cell_length_b   13.14754268
_cell_length_c   13.14754268
_cell_angle_alpha   22.22753442
_cell_angle_beta   22.22753442
_cell_angle_gamma   22.22753442
_symmetry_Int_Tables_number   1
_chemical_formula_structural   BaSmC2O6F
_chemical_formula_sum   'Ba2 Sm2 C4 O12 F2'
_cell_volume   285.17722470
_cell_formula_units_Z   2
loop_
 _symmetry_equiv_pos_site_id
 _symmetry_equiv_pos_as_xyz
  1  'x, y, z'
loop_
 _atom_site_type_symbol
 _atom_site_label
 _atom_site_symmetry_multiplicity
 _atom_site_fract_x
 _atom_site_fract_y
 _atom_site_fract_z
 _atom_site_occupancy
  Ba  Ba0  1  0.000000  0.000000  0.000000  1
  Ba  Ba1  1  0.500000  0.500000  0.500000  1
  Sm  Sm2  1  0.745097  0.745097  0.745097  1
  Sm  Sm3  1  0.254903  0.254903  0.254903  1
  C  C4  1  0.125320  0.125320  0.125320  1
  C  C5  1  0.874680  0.874680  0.874680  1
  C  C6  1  0.393460  0.393460  0.393460  1
  C  C7  1  0.606540  0.606540  0.606540  1
  O  O8  1  0.021451  0.578412  0.021451  1
  O  O9  1  0.578412  0.021451  0.021451  1
  O  O10  1  0.311118  0.752963  0.752963  1
  O  O11  1  0.752963  0.311118  0.752963  1
  O  O12  1  0.752963  0.752963  0.311118  1
  O  O13  1  0.247037  0.247037  0.688882  1
  O  O14  1  0.688882  0.247037  0.247037  1
  O  O15  1  0.247037  0.688882  0.247037  1
  O  O16  1  0.421588  0.978549  0.978549  1
  O  O17  1  0.978549  0.421588  0.978549  1
  O  O18  1  0.978549  0.978549  0.421588  1
  O  O19  1  0.021451  0.021451  0.578412  1
  F  F20  1  0.685891  0.685891  0.685891  1
  F  F21  1  0.314109  0.314109  0.314109  1
