# generated using pymatgen
data_Sr3NiPtO6
_symmetry_space_group_name_H-M   'P 1'
_cell_length_a   6.74710175
_cell_length_b   6.74710175
_cell_length_c   6.74710175
_cell_angle_alpha   91.69430260
_cell_angle_beta   91.69430260
_cell_angle_gamma   91.69430260
_symmetry_Int_Tables_number   1
_chemical_formula_structural   Sr3NiPtO6
_chemical_formula_sum   'Sr6 Ni2 Pt2 O12'
_cell_volume   306.73991016
_cell_formula_units_Z   2
loop_
 _symmetry_equiv_pos_site_id
 _symmetry_equiv_pos_as_xyz
  1  'x, y, z'
loop_
 _atom_site_type_symbol
 _atom_site_label
 _atom_site_symmetry_multiplicity
 _atom_site_fract_x
 _atom_site_fract_y
 _atom_site_fract_z
 _atom_site_occupancy
  Sr  Sr0  1  0.885874  0.614126  0.250000  1
  Sr  Sr1  1  0.250000  0.885874  0.614126  1
  Sr  Sr2  1  0.385874  0.750000  0.114126  1
  Sr  Sr3  1  0.114126  0.385874  0.750000  1
  Sr  Sr4  1  0.750000  0.114126  0.385874  1
  Sr  Sr5  1  0.614126  0.250000  0.885874  1
  Ni  Ni6  1  0.250000  0.250000  0.250000  1
  Ni  Ni7  1  0.750000  0.750000  0.750000  1
  Pt  Pt8  1  0.000000  0.000000  0.000000  1
  Pt  Pt9  1  0.500000  0.500000  0.500000  1
  O  O10  1  0.465582  0.590275  0.789471  1
  O  O11  1  0.789471  0.465582  0.590275  1
  O  O12  1  0.590275  0.789471  0.465582  1
  O  O13  1  0.710529  0.909725  0.034418  1
  O  O14  1  0.034418  0.710529  0.909725  1
  O  O15  1  0.909725  0.034418  0.710529  1
  O  O16  1  0.534418  0.409725  0.210529  1
  O  O17  1  0.210529  0.534418  0.409725  1
  O  O18  1  0.409725  0.210529  0.534418  1
  O  O19  1  0.289471  0.090275  0.965582  1
  O  O20  1  0.090275  0.965582  0.289471  1
  O  O21  1  0.965582  0.289471  0.090275  1
