# generated using pymatgen
data_NaCaPO4
_symmetry_space_group_name_H-M   'P 1'
_cell_length_a   5.47906114
_cell_length_b   9.20626022
_cell_length_c   20.65820037
_cell_angle_alpha   90.00000000
_cell_angle_beta   90.00000000
_cell_angle_gamma   90.00000000
_symmetry_Int_Tables_number   1
_chemical_formula_structural   NaCaPO4
_chemical_formula_sum   'Na12 Ca12 P12 O48'
_cell_volume   1042.03397332
_cell_formula_units_Z   12
loop_
 _symmetry_equiv_pos_site_id
 _symmetry_equiv_pos_as_xyz
  1  'x, y, z'
loop_
 _atom_site_type_symbol
 _atom_site_label
 _atom_site_symmetry_multiplicity
 _atom_site_fract_x
 _atom_site_fract_y
 _atom_site_fract_z
 _atom_site_occupancy
  Na  Na0  1  0.283569  0.427953  0.223769  1
  Na  Na1  1  0.737792  0.936162  0.942634  1
  Na  Na2  1  0.237792  0.063838  0.057366  1
  Na  Na3  1  0.737792  0.563838  0.442634  1
  Na  Na4  1  0.237792  0.436162  0.557366  1
  Na  Na5  1  0.783569  0.572047  0.776231  1
  Na  Na6  1  0.783569  0.927953  0.276231  1
  Na  Na7  1  0.283569  0.072047  0.723769  1
  Na  Na8  1  0.767949  0.924564  0.608191  1
  Na  Na9  1  0.267949  0.075436  0.391809  1
  Na  Na10  1  0.767949  0.575436  0.108191  1
  Na  Na11  1  0.267949  0.424564  0.891809  1
  Ca  Ca12  1  0.294500  0.796200  0.834810  1
  Ca  Ca13  1  0.794500  0.203800  0.165190  1
  Ca  Ca14  1  0.294500  0.703800  0.334810  1
  Ca  Ca15  1  0.794500  0.296200  0.665190  1
  Ca  Ca16  1  0.272007  0.705228  0.668813  1
  Ca  Ca17  1  0.772007  0.294772  0.331187  1
  Ca  Ca18  1  0.272007  0.794772  0.168813  1
  Ca  Ca19  1  0.772007  0.205228  0.831187  1
  Ca  Ca20  1  0.235840  0.798850  0.502112  1
  Ca  Ca21  1  0.735840  0.201150  0.497888  1
  Ca  Ca22  1  0.235840  0.701150  0.002112  1
  Ca  Ca23  1  0.735840  0.298850  0.997888  1
  P  P24  1  0.276304  0.089136  0.574669  1
  P  P25  1  0.241646  0.412197  0.407436  1
  P  P26  1  0.741646  0.912197  0.092564  1
  P  P27  1  0.241646  0.087803  0.907436  1
  P  P28  1  0.774347  0.916264  0.757801  1
  P  P29  1  0.274347  0.083736  0.242199  1
  P  P30  1  0.741646  0.587803  0.592564  1
  P  P31  1  0.774347  0.583736  0.257801  1
  P  P32  1  0.274347  0.416264  0.742199  1
  P  P33  1  0.776304  0.589136  0.925331  1
  P  P34  1  0.276304  0.410864  0.074669  1
  P  P35  1  0.776304  0.910864  0.425331  1
  O  O36  1  0.054864  0.194141  0.581416  1
  O  O37  1  0.554864  0.805859  0.418584  1
  O  O38  1  0.054864  0.305859  0.081416  1
  O  O39  1  0.554864  0.694141  0.918584  1
  O  O40  1  0.511534  0.159442  0.603762  1
  O  O41  1  0.011534  0.840558  0.396238  1
  O  O42  1  0.511534  0.340558  0.103762  1
  O  O43  1  0.011534  0.659442  0.896238  1
  O  O44  1  0.219748  0.943784  0.610059  1
  O  O45  1  0.719748  0.056216  0.389941  1
  O  O46  1  0.219748  0.556216  0.110059  1
  O  O47  1  0.719748  0.443784  0.889941  1
  O  O48  1  0.333988  0.057547  0.502560  1
  O  O49  1  0.833988  0.942453  0.497440  1
  O  O50  1  0.333988  0.442453  0.002560  1
  O  O51  1  0.833988  0.557547  0.997440  1
  O  O52  1  0.037679  0.352221  0.772820  1
  O  O53  1  0.537679  0.647779  0.227180  1
  O  O54  1  0.037679  0.147779  0.272820  1
  O  O55  1  0.537679  0.852221  0.727180  1
  O  O56  1  0.486639  0.167809  0.921216  1
  O  O57  1  0.490883  0.308449  0.751616  1
  O  O58  1  0.490883  0.191551  0.251616  1
  O  O59  1  0.990883  0.808449  0.748384  1
  O  O60  1  0.334719  0.564663  0.775192  1
  O  O61  1  0.834719  0.435337  0.224808  1
  O  O62  1  0.334719  0.935337  0.275192  1
  O  O63  1  0.834719  0.064663  0.724808  1
  O  O64  1  0.218400  0.441645  0.669674  1
  O  O65  1  0.718400  0.558355  0.330326  1
  O  O66  1  0.218400  0.058355  0.169674  1
  O  O67  1  0.718400  0.941645  0.830326  1
  O  O68  1  0.023709  0.187998  0.926586  1
  O  O69  1  0.523709  0.812002  0.073414  1
  O  O70  1  0.023709  0.312002  0.426586  1
  O  O71  1  0.523709  0.687998  0.573414  1
  O  O72  1  0.719182  0.551864  0.665286  1
  O  O73  1  0.219182  0.448136  0.334714  1
  O  O74  1  0.719182  0.948136  0.165286  1
  O  O75  1  0.219182  0.051864  0.834714  1
  O  O76  1  0.731401  0.443980  0.552669  1
  O  O77  1  0.231401  0.556020  0.447331  1
  O  O78  1  0.731401  0.056020  0.052669  1
  O  O79  1  0.231401  0.943980  0.947331  1
  O  O80  1  0.986639  0.667809  0.578784  1
  O  O81  1  0.486639  0.332191  0.421216  1
  O  O82  1  0.986639  0.832191  0.078784  1
  O  O83  1  0.990883  0.691551  0.248384  1
