# generated using pymatgen
data_Nd3Ga5O12
_symmetry_space_group_name_H-M   'P 1'
_cell_length_a   10.96113675
_cell_length_b   10.96113675
_cell_length_c   10.96113675
_cell_angle_alpha   109.47122063
_cell_angle_beta   109.47122063
_cell_angle_gamma   109.47122063
_symmetry_Int_Tables_number   1
_chemical_formula_structural   Nd3Ga5O12
_chemical_formula_sum   'Nd12 Ga20 O48'
_cell_volume   1013.78275070
_cell_formula_units_Z   4
loop_
 _symmetry_equiv_pos_site_id
 _symmetry_equiv_pos_as_xyz
  1  'x, y, z'
loop_
 _atom_site_type_symbol
 _atom_site_label
 _atom_site_symmetry_multiplicity
 _atom_site_fract_x
 _atom_site_fract_y
 _atom_site_fract_z
 _atom_site_occupancy
  Nd  Nd0  1  0.250000  0.875000  0.625000  1
  Nd  Nd1  1  0.875000  0.625000  0.250000  1
  Nd  Nd2  1  0.625000  0.875000  0.750000  1
  Nd  Nd3  1  0.875000  0.750000  0.625000  1
  Nd  Nd4  1  0.625000  0.250000  0.875000  1
  Nd  Nd5  1  0.750000  0.625000  0.875000  1
  Nd  Nd6  1  0.750000  0.125000  0.375000  1
  Nd  Nd7  1  0.125000  0.375000  0.750000  1
  Nd  Nd8  1  0.375000  0.125000  0.250000  1
  Nd  Nd9  1  0.125000  0.250000  0.375000  1
  Nd  Nd10  1  0.375000  0.750000  0.125000  1
  Nd  Nd11  1  0.250000  0.375000  0.125000  1
  Ga  Ga12  1  0.250000  0.125000  0.875000  1
  Ga  Ga13  1  0.750000  0.875000  0.125000  1
  Ga  Ga14  1  0.375000  0.250000  0.625000  1
  Ga  Ga15  1  0.625000  0.375000  0.250000  1
  Ga  Ga16  1  0.125000  0.750000  0.875000  1
  Ga  Ga17  1  0.875000  0.125000  0.750000  1
  Ga  Ga18  1  0.750000  0.375000  0.625000  1
  Ga  Ga19  1  0.375000  0.625000  0.750000  1
  Ga  Ga20  1  0.125000  0.875000  0.250000  1
  Ga  Ga21  1  0.875000  0.250000  0.125000  1
  Ga  Ga22  1  0.625000  0.750000  0.375000  1
  Ga  Ga23  1  0.250000  0.625000  0.375000  1
  Ga  Ga24  1  0.500000  0.500000  0.500000  1
  Ga  Ga25  1  0.500000  0.500000  0.000000  1
  Ga  Ga26  1  0.500000  1.000000  0.500000  1
  Ga  Ga27  1  1.000000  0.500000  0.500000  1
  Ga  Ga28  1  0.500000  1.000000  0.000000  1
  Ga  Ga29  1  1.000000  1.000000  0.500000  1
  Ga  Ga30  1  1.000000  0.500000  0.000000  1
  Ga  Ga31  1  0.000000  0.000000  0.000000  1
  O  O32  1  0.298564  0.477016  0.380523  1
  O  O33  1  0.022984  0.321548  0.903506  1
  O  O34  1  0.119477  0.596494  0.918042  1
  O  O35  1  0.201436  0.581958  0.178452  1
  O  O36  1  0.201436  0.119477  0.022984  1
  O  O37  1  0.581958  0.178452  0.201436  1
  O  O38  1  0.596494  0.178452  0.477016  1
  O  O39  1  0.178452  0.201436  0.581958  1
  O  O40  1  0.903506  0.380523  0.581958  1
  O  O41  1  0.321548  0.918042  0.298564  1
  O  O42  1  0.918042  0.298564  0.321548  1
  O  O43  1  0.022984  0.201436  0.119477  1
  O  O44  1  0.178452  0.477016  0.596494  1
  O  O45  1  0.581958  0.903506  0.380523  1
  O  O46  1  0.119477  0.022984  0.201436  1
  O  O47  1  0.477016  0.596494  0.178452  1
  O  O48  1  0.380523  0.581958  0.903506  1
  O  O49  1  0.903506  0.022984  0.321548  1
  O  O50  1  0.596494  0.918042  0.119477  1
  O  O51  1  0.096494  0.619477  0.418042  1
  O  O52  1  0.918042  0.119477  0.596494  1
  O  O53  1  0.380523  0.298564  0.477016  1
  O  O54  1  0.321548  0.903506  0.022984  1
  O  O55  1  0.298564  0.321548  0.918042  1
  O  O56  1  0.701436  0.522984  0.619477  1
  O  O57  1  0.977016  0.678452  0.096494  1
  O  O58  1  0.880523  0.403506  0.081958  1
  O  O59  1  0.798564  0.418042  0.821548  1
  O  O60  1  0.798564  0.880523  0.977016  1
  O  O61  1  0.418042  0.821548  0.798564  1
  O  O62  1  0.403506  0.821548  0.522984  1
  O  O63  1  0.821548  0.798564  0.418042  1
  O  O64  1  0.701436  0.678452  0.081958  1
  O  O65  1  0.678452  0.096494  0.977016  1
  O  O66  1  0.619477  0.701436  0.522984  1
  O  O67  1  0.522984  0.619477  0.701436  1
  O  O68  1  0.081958  0.880523  0.403506  1
  O  O69  1  0.403506  0.081958  0.880523  1
  O  O70  1  0.096494  0.977016  0.678452  1
  O  O71  1  0.619477  0.418042  0.096494  1
  O  O72  1  0.522984  0.403506  0.821548  1
  O  O73  1  0.880523  0.977016  0.798564  1
  O  O74  1  0.418042  0.096494  0.619477  1
  O  O75  1  0.821548  0.522984  0.403506  1
  O  O76  1  0.977016  0.798564  0.880523  1
  O  O77  1  0.081958  0.701436  0.678452  1
  O  O78  1  0.678452  0.081958  0.701436  1
  O  O79  1  0.477016  0.380523  0.298564  1
