# generated using pymatgen
data_TeF6
_symmetry_space_group_name_H-M   'P 1'
_cell_length_a   5.28110556
_cell_length_b   9.06405833
_cell_length_c   10.11022045
_cell_angle_alpha   90.00000000
_cell_angle_beta   90.00000000
_cell_angle_gamma   90.00000000
_symmetry_Int_Tables_number   1
_chemical_formula_structural   TeF6
_chemical_formula_sum   'Te4 F24'
_cell_volume   483.95854836
_cell_formula_units_Z   4
loop_
 _symmetry_equiv_pos_site_id
 _symmetry_equiv_pos_as_xyz
  1  'x, y, z'
loop_
 _atom_site_type_symbol
 _atom_site_label
 _atom_site_symmetry_multiplicity
 _atom_site_fract_x
 _atom_site_fract_y
 _atom_site_fract_z
 _atom_site_occupancy
  Te  Te0  1  0.597158  0.750000  0.627695  1
  Te  Te1  1  0.097158  0.250000  0.872305  1
  Te  Te2  1  0.402842  0.250000  0.372305  1
  Te  Te3  1  0.902842  0.750000  0.127695  1
  F  F4  1  0.554785  0.395345  0.268749  1
  F  F5  1  0.054785  0.604655  0.231251  1
  F  F6  1  0.445215  0.895345  0.731251  1
  F  F7  1  0.945215  0.104655  0.768749  1
  F  F8  1  0.182499  0.750000  0.015046  1
  F  F9  1  0.682499  0.250000  0.484954  1
  F  F10  1  0.817501  0.250000  0.984954  1
  F  F11  1  0.317501  0.750000  0.515046  1
  F  F12  1  0.622576  0.750000  0.240082  1
  F  F13  1  0.122576  0.250000  0.259918  1
  F  F14  1  0.377424  0.250000  0.759918  1
  F  F15  1  0.877424  0.750000  0.740082  1
  F  F16  1  0.750008  0.895481  0.024505  1
  F  F17  1  0.250008  0.104519  0.475495  1
  F  F18  1  0.249992  0.395481  0.975495  1
  F  F19  1  0.749992  0.604519  0.524505  1
  F  F20  1  0.249992  0.104519  0.975495  1
  F  F21  1  0.749992  0.895481  0.524505  1
  F  F22  1  0.750008  0.604519  0.024505  1
  F  F23  1  0.250008  0.395481  0.475495  1
  F  F24  1  0.054785  0.895345  0.231251  1
  F  F25  1  0.554785  0.104655  0.268749  1
  F  F26  1  0.945215  0.395345  0.768749  1
  F  F27  1  0.445215  0.604655  0.731251  1
