# generated using pymatgen
data_CoAsS
_symmetry_space_group_name_H-M   'P 1'
_cell_length_a   5.58405165
_cell_length_b   5.58405165
_cell_length_c   5.58405165
_cell_angle_alpha   90.00000000
_cell_angle_beta   90.00000000
_cell_angle_gamma   90.00000000
_symmetry_Int_Tables_number   1
_chemical_formula_structural   CoAsS
_chemical_formula_sum   'Co4 As4 S4'
_cell_volume   174.11984825
_cell_formula_units_Z   4
loop_
 _symmetry_equiv_pos_site_id
 _symmetry_equiv_pos_as_xyz
  1  'x, y, z'
loop_
 _atom_site_type_symbol
 _atom_site_label
 _atom_site_symmetry_multiplicity
 _atom_site_fract_x
 _atom_site_fract_y
 _atom_site_fract_z
 _atom_site_occupancy
  Co  Co0  1  0.507983  0.492017  0.992017  1
  Co  Co1  1  0.492017  0.992017  0.507983  1
  Co  Co2  1  0.007983  0.007983  0.007983  1
  Co  Co3  1  0.992017  0.507983  0.492017  1
  As  As4  1  0.621411  0.878589  0.121411  1
  As  As5  1  0.121411  0.621411  0.878589  1
  As  As6  1  0.378589  0.378589  0.378589  1
  As  As7  1  0.878589  0.121411  0.621411  1
  S  S8  1  0.380943  0.119057  0.880943  1
  S  S9  1  0.880943  0.380943  0.119057  1
  S  S10  1  0.119057  0.880943  0.380943  1
  S  S11  1  0.619057  0.619057  0.619057  1
