# generated using pymatgen
data_BaCuTeF
_symmetry_space_group_name_H-M   'P 1'
_cell_length_a   4.44880855
_cell_length_b   4.44880855
_cell_length_c   9.52664486
_cell_angle_alpha   90.00000000
_cell_angle_beta   90.00000000
_cell_angle_gamma   90.00000000
_symmetry_Int_Tables_number   1
_chemical_formula_structural   BaCuTeF
_chemical_formula_sum   'Ba2 Cu2 Te2 F2'
_cell_volume   188.55037873
_cell_formula_units_Z   2
loop_
 _symmetry_equiv_pos_site_id
 _symmetry_equiv_pos_as_xyz
  1  'x, y, z'
loop_
 _atom_site_type_symbol
 _atom_site_label
 _atom_site_symmetry_multiplicity
 _atom_site_fract_x
 _atom_site_fract_y
 _atom_site_fract_z
 _atom_site_occupancy
  Ba  Ba0  1  0.000000  0.500000  0.658833  1
  Ba  Ba1  1  0.500000  0.000000  0.341167  1
  Cu  Cu2  1  0.000000  0.000000  0.000000  1
  Cu  Cu3  1  0.500000  0.500000  0.000000  1
  Te  Te4  1  0.500000  0.000000  0.840878  1
  Te  Te5  1  0.000000  0.500000  0.159122  1
  F  F6  1  0.500000  0.500000  0.500000  1
  F  F7  1  0.000000  0.000000  0.500000  1
