# generated using pymatgen
data_K3TmSi2O7
_symmetry_space_group_name_H-M   'P 1'
_cell_length_a   9.87924990
_cell_length_b   9.87924990
_cell_length_c   14.39991695
_cell_angle_alpha   90.00000000
_cell_angle_beta   90.00000000
_cell_angle_gamma   120.00000000
_symmetry_Int_Tables_number   1
_chemical_formula_structural   K3TmSi2O7
_chemical_formula_sum   'K18 Tm6 Si12 O42'
_cell_volume   1217.13446805
_cell_formula_units_Z   6
loop_
 _symmetry_equiv_pos_site_id
 _symmetry_equiv_pos_as_xyz
  1  'x, y, z'
loop_
 _atom_site_type_symbol
 _atom_site_label
 _atom_site_symmetry_multiplicity
 _atom_site_fract_x
 _atom_site_fract_y
 _atom_site_fract_z
 _atom_site_occupancy
  K  K0  1  0.000000  0.000000  0.500000  1
  K  K1  1  0.332300  0.000000  0.092191  1
  K  K2  1  0.332300  0.332300  0.592191  1
  K  K3  1  0.000000  0.667700  0.592191  1
  K  K4  1  0.000000  0.332300  0.092191  1
  K  K5  1  0.667700  0.667700  0.092191  1
  K  K6  1  0.332300  0.000000  0.407809  1
  K  K7  1  0.000000  0.000000  0.000000  1
  K  K8  1  0.333333  0.666667  0.750000  1
  K  K9  1  0.666667  0.333333  0.250000  1
  K  K10  1  0.666667  0.333333  0.750000  1
  K  K11  1  0.333333  0.666667  0.250000  1
  K  K12  1  0.667700  0.667700  0.407809  1
  K  K13  1  0.667700  0.000000  0.907809  1
  K  K14  1  0.000000  0.667700  0.907809  1
  K  K15  1  0.000000  0.332300  0.407809  1
  K  K16  1  0.667700  0.000000  0.592191  1
  K  K17  1  0.332300  0.332300  0.907809  1
  Tm  Tm18  1  0.000000  0.000000  0.750000  1
  Tm  Tm19  1  0.333333  0.666667  0.000000  1
  Tm  Tm20  1  0.666667  0.333333  0.500000  1
  Tm  Tm21  1  0.666667  0.333333  0.000000  1
  Tm  Tm22  1  0.333333  0.666667  0.500000  1
  Tm  Tm23  1  0.000000  0.000000  0.250000  1
  Si  Si24  1  0.657883  0.657883  0.857609  1
  Si  Si25  1  0.342117  0.000000  0.857609  1
  Si  Si26  1  0.000000  0.342117  0.857609  1
  Si  Si27  1  0.000000  0.657883  0.357609  1
  Si  Si28  1  0.342117  0.000000  0.642391  1
  Si  Si29  1  0.342117  0.342117  0.357609  1
  Si  Si30  1  0.657883  0.000000  0.357609  1
  Si  Si31  1  0.342117  0.342117  0.142391  1
  Si  Si32  1  0.000000  0.657883  0.142391  1
  Si  Si33  1  0.000000  0.342117  0.642391  1
  Si  Si34  1  0.657883  0.657883  0.642391  1
  Si  Si35  1  0.657883  0.000000  0.142391  1
  O  O36  1  0.410309  0.000000  0.750000  1
  O  O37  1  0.410309  0.410309  0.250000  1
  O  O38  1  0.000000  0.589691  0.250000  1
  O  O39  1  0.000000  0.410309  0.750000  1
  O  O40  1  0.589691  0.589691  0.750000  1
  O  O41  1  0.589691  0.000000  0.250000  1
  O  O42  1  0.823479  0.823479  0.851005  1
  O  O43  1  0.176521  0.000000  0.851005  1
  O  O44  1  0.000000  0.176521  0.851005  1
  O  O45  1  0.000000  0.823479  0.351005  1
  O  O46  1  0.176521  0.000000  0.648995  1
  O  O47  1  0.176521  0.176521  0.351005  1
  O  O48  1  0.823479  0.000000  0.351005  1
  O  O49  1  0.176521  0.176521  0.148995  1
  O  O50  1  0.000000  0.823479  0.148995  1
  O  O51  1  0.000000  0.176521  0.648995  1
  O  O52  1  0.823479  0.823479  0.648995  1
  O  O53  1  0.823479  0.000000  0.148995  1
  O  O54  1  0.322046  0.843467  0.909360  1
  O  O55  1  0.156533  0.478579  0.909360  1
  O  O56  1  0.521421  0.677954  0.909360  1
  O  O57  1  0.478579  0.322046  0.409360  1
  O  O58  1  0.677954  0.521421  0.590640  1
  O  O59  1  0.677954  0.156533  0.409360  1
  O  O60  1  0.843467  0.521421  0.409360  1
  O  O61  1  0.156533  0.677954  0.090640  1
  O  O62  1  0.521421  0.843467  0.090640  1
  O  O63  1  0.478579  0.156533  0.590640  1
  O  O64  1  0.843467  0.322046  0.590640  1
  O  O65  1  0.322046  0.478579  0.090640  1
  O  O66  1  0.677954  0.156533  0.090640  1
  O  O67  1  0.843467  0.521421  0.090640  1
  O  O68  1  0.478579  0.322046  0.090640  1
  O  O69  1  0.521421  0.677954  0.590640  1
  O  O70  1  0.322046  0.478579  0.409360  1
  O  O71  1  0.322046  0.843467  0.590640  1
  O  O72  1  0.677954  0.521421  0.909360  1
  O  O73  1  0.156533  0.677954  0.409360  1
  O  O74  1  0.521421  0.843467  0.409360  1
  O  O75  1  0.478579  0.156533  0.909360  1
  O  O76  1  0.843467  0.322046  0.909360  1
  O  O77  1  0.156533  0.478579  0.590640  1
