# generated using pymatgen
data_Na2Mn3O7
_symmetry_space_group_name_H-M   'P 1'
_cell_length_a   6.83045989
_cell_length_b   6.84593243
_cell_length_c   7.71388848
_cell_angle_alpha   103.51181804
_cell_angle_beta   109.43773313
_cell_angle_gamma   111.06188493
_symmetry_Int_Tables_number   1
_chemical_formula_structural   Na2Mn3O7
_chemical_formula_sum   'Na4 Mn6 O14'
_cell_volume   290.72919362
_cell_formula_units_Z   2
loop_
 _symmetry_equiv_pos_site_id
 _symmetry_equiv_pos_as_xyz
  1  'x, y, z'
loop_
 _atom_site_type_symbol
 _atom_site_label
 _atom_site_symmetry_multiplicity
 _atom_site_fract_x
 _atom_site_fract_y
 _atom_site_fract_z
 _atom_site_occupancy
  Na  Na0  1  0.266974  0.684715  0.477330  1
  Na  Na1  1  0.733026  0.315285  0.522670  1
  Na  Na2  1  0.335491  0.827044  0.063787  1
  Na  Na3  1  0.664509  0.172956  0.936213  1
  Mn  Mn4  1  0.923755  0.921780  0.779809  1
  Mn  Mn5  1  0.076245  0.078220  0.220191  1
  Mn  Mn6  1  0.357435  0.360089  0.079675  1
  Mn  Mn7  1  0.642565  0.639911  0.920325  1
  Mn  Mn8  1  0.219775  0.218491  0.641527  1
  Mn  Mn9  1  0.780225  0.781509  0.358473  1
  O  O10  1  0.546734  0.354977  0.723121  1
  O  O11  1  0.453266  0.645023  0.276879  1
  O  O12  1  0.877490  0.057208  0.585079  1
  O  O13  1  0.122510  0.942792  0.414921  1
  O  O14  1  0.311347  0.489960  0.866427  1
  O  O15  1  0.688653  0.510040  0.133573  1
  O  O16  1  0.871715  0.682604  0.564214  1
  O  O17  1  0.128285  0.317396  0.435786  1
  O  O18  1  0.971410  0.792871  0.981848  1
  O  O19  1  0.028590  0.207129  0.018152  1
  O  O20  1  0.385519  0.196868  0.244694  1
  O  O21  1  0.614481  0.803132  0.755306  1
  O  O22  1  0.737710  0.913839  0.152655  1
  O  O23  1  0.262290  0.086161  0.847345  1
