# generated using pymatgen
data_Tl3GeTe3
_symmetry_space_group_name_H-M   'P 1'
_cell_length_a   9.84268645
_cell_length_b   10.00682114
_cell_length_c   10.73058210
_cell_angle_alpha   89.59538480
_cell_angle_beta   97.16444447
_cell_angle_gamma   100.84721562
_symmetry_Int_Tables_number   1
_chemical_formula_structural   Tl3GeTe3
_chemical_formula_sum   'Tl12 Ge4 Te12'
_cell_volume   1029.76332277
_cell_formula_units_Z   4
loop_
 _symmetry_equiv_pos_site_id
 _symmetry_equiv_pos_as_xyz
  1  'x, y, z'
loop_
 _atom_site_type_symbol
 _atom_site_label
 _atom_site_symmetry_multiplicity
 _atom_site_fract_x
 _atom_site_fract_y
 _atom_site_fract_z
 _atom_site_occupancy
  Tl  Tl0  1  0.185206  0.835855  0.837232  1
  Tl  Tl1  1  0.814794  0.164145  0.162768  1
  Tl  Tl2  1  0.308673  0.715804  0.240844  1
  Tl  Tl3  1  0.691327  0.284196  0.759156  1
  Tl  Tl4  1  0.511430  0.630794  0.650835  1
  Tl  Tl5  1  0.488570  0.369206  0.349165  1
  Tl  Tl6  1  0.877754  0.951855  0.651791  1
  Tl  Tl7  1  0.122246  0.048145  0.348209  1
  Tl  Tl8  1  0.901623  0.572664  0.340138  1
  Tl  Tl9  1  0.098377  0.427336  0.659862  1
  Tl  Tl10  1  0.644301  0.771526  0.089382  1
  Tl  Tl11  1  0.355699  0.228474  0.910618  1
  Ge  Ge12  1  0.576430  0.014678  0.414492  1
  Ge  Ge13  1  0.908895  0.571935  0.983457  1
  Ge  Ge14  1  0.091105  0.428065  0.016543  1
  Ge  Ge15  1  0.423570  0.985322  0.585508  1
  Te  Te16  1  0.129203  0.384530  0.258146  1
  Te  Te17  1  0.687283  0.442021  0.076359  1
  Te  Te18  1  0.996467  0.798182  0.112409  1
  Te  Te19  1  0.312717  0.557979  0.923641  1
  Te  Te20  1  0.671479  0.785952  0.408836  1
  Te  Te21  1  0.328521  0.214048  0.591164  1
  Te  Te22  1  0.576411  0.936077  0.791559  1
  Te  Te23  1  0.423589  0.063923  0.208441  1
  Te  Te24  1  0.870797  0.615470  0.741854  1
  Te  Te25  1  0.781293  0.222645  0.471119  1
  Te  Te26  1  0.218707  0.777355  0.528881  1
  Te  Te27  1  0.003533  0.201818  0.887591  1
