# generated using pymatgen
data_Rb2GeS3
_symmetry_space_group_name_H-M   'P 1'
_cell_length_a   7.73421989
_cell_length_b   7.73421989
_cell_length_c   9.91373763
_cell_angle_alpha   58.68392605
_cell_angle_beta   121.31607395
_cell_angle_gamma   126.04112855
_symmetry_Int_Tables_number   1
_chemical_formula_structural   Rb2GeS3
_chemical_formula_sum   'Rb4 Ge2 S6'
_cell_volume   389.51193135
_cell_formula_units_Z   2
loop_
 _symmetry_equiv_pos_site_id
 _symmetry_equiv_pos_as_xyz
  1  'x, y, z'
loop_
 _atom_site_type_symbol
 _atom_site_label
 _atom_site_symmetry_multiplicity
 _atom_site_fract_x
 _atom_site_fract_y
 _atom_site_fract_z
 _atom_site_occupancy
  Rb  Rb0  1  0.916467  0.083533  0.632533  1
  Rb  Rb1  1  0.083533  0.916467  0.367467  1
  Rb  Rb2  1  0.311381  0.688619  0.184980  1
  Rb  Rb3  1  0.688619  0.311381  0.815020  1
  Ge  Ge4  1  0.619092  0.380908  0.182150  1
  Ge  Ge5  1  0.380908  0.619092  0.817850  1
  S  S6  1  0.385677  0.614323  0.601953  1
  S  S7  1  0.614323  0.385677  0.398047  1
  S  S8  1  0.206892  0.793108  0.776579  1
  S  S9  1  0.741930  0.741930  0.000000  1
  S  S10  1  0.258070  0.258070  0.000000  1
  S  S11  1  0.793108  0.206892  0.223421  1
