# generated using pymatgen
data_Tl2GeSe3
_symmetry_space_group_name_H-M   'P 1'
_cell_length_a   7.09330987
_cell_length_b   7.23949244
_cell_length_c   8.95971386
_cell_angle_alpha   89.58571866
_cell_angle_beta   111.77099074
_cell_angle_gamma   113.55201542
_symmetry_Int_Tables_number   1
_chemical_formula_structural   Tl2GeSe3
_chemical_formula_sum   'Tl4 Ge2 Se6'
_cell_volume   386.28048595
_cell_formula_units_Z   2
loop_
 _symmetry_equiv_pos_site_id
 _symmetry_equiv_pos_as_xyz
  1  'x, y, z'
loop_
 _atom_site_type_symbol
 _atom_site_label
 _atom_site_symmetry_multiplicity
 _atom_site_fract_x
 _atom_site_fract_y
 _atom_site_fract_z
 _atom_site_occupancy
  Tl  Tl0  1  0.729643  0.319015  0.101966  1
  Tl  Tl1  1  0.270357  0.680985  0.898034  1
  Tl  Tl2  1  0.868511  0.042825  0.667460  1
  Tl  Tl3  1  0.131489  0.957175  0.332540  1
  Ge  Ge4  1  0.429171  0.549541  0.315357  1
  Ge  Ge5  1  0.570829  0.450459  0.684643  1
  Se  Se6  1  0.762904  0.707789  0.914172  1
  Se  Se7  1  0.237096  0.292211  0.085828  1
  Se  Se8  1  0.513203  0.886779  0.264985  1
  Se  Se9  1  0.486797  0.113221  0.735015  1
  Se  Se10  1  0.226505  0.462811  0.493462  1
  Se  Se11  1  0.773495  0.537189  0.506538  1
