# generated using pymatgen
data_Ba3Lu(BO3)3
_symmetry_space_group_name_H-M   'P 1'
_cell_length_a   9.44866600
_cell_length_b   9.44866600
_cell_length_c   17.88247522
_cell_angle_alpha   90.00000000
_cell_angle_beta   90.00000000
_cell_angle_gamma   120.00000000
_symmetry_Int_Tables_number   1
_chemical_formula_structural   Ba3Lu(BO3)3
_chemical_formula_sum   'Ba18 Lu6 B18 O54'
_cell_volume   1382.60861471
_cell_formula_units_Z   6
loop_
 _symmetry_equiv_pos_site_id
 _symmetry_equiv_pos_as_xyz
  1  'x, y, z'
loop_
 _atom_site_type_symbol
 _atom_site_label
 _atom_site_symmetry_multiplicity
 _atom_site_fract_x
 _atom_site_fract_y
 _atom_site_fract_z
 _atom_site_occupancy
  Ba  Ba0  1  0.682119  0.682119  0.871460  1
  Ba  Ba1  1  0.000000  0.682119  0.371460  1
  Ba  Ba2  1  0.682119  0.000000  0.371460  1
  Ba  Ba3  1  0.317881  0.000000  0.871460  1
  Ba  Ba4  1  0.000000  0.317881  0.871460  1
  Ba  Ba5  1  0.317881  0.317881  0.371460  1
  Ba  Ba6  1  0.652067  0.652067  0.629538  1
  Ba  Ba7  1  0.000000  0.652067  0.129538  1
  Ba  Ba8  1  0.652067  0.000000  0.129538  1
  Ba  Ba9  1  0.347933  0.000000  0.629538  1
  Ba  Ba10  1  0.000000  0.347933  0.629538  1
  Ba  Ba11  1  0.347933  0.347933  0.129538  1
  Ba  Ba12  1  0.333333  0.666667  0.277653  1
  Ba  Ba13  1  0.666667  0.333333  0.777653  1
  Ba  Ba14  1  0.333333  0.666667  0.777653  1
  Ba  Ba15  1  0.666667  0.333333  0.277653  1
  Ba  Ba16  1  0.000000  0.000000  0.717219  1
  Ba  Ba17  1  0.000000  0.000000  0.217219  1
  Lu  Lu18  1  0.333333  0.666667  0.997338  1
  Lu  Lu19  1  0.666667  0.333333  0.497338  1
  Lu  Lu20  1  0.333333  0.666667  0.497338  1
  Lu  Lu21  1  0.666667  0.333333  0.997338  1
  Lu  Lu22  1  0.000000  0.000000  0.503503  1
  Lu  Lu23  1  0.000000  0.000000  0.003503  1
  B  B24  1  0.660462  0.660462  0.423852  1
  B  B25  1  0.000000  0.660462  0.923852  1
  B  B26  1  0.660462  0.000000  0.923852  1
  B  B27  1  0.339538  0.000000  0.423852  1
  B  B28  1  0.000000  0.339538  0.423852  1
  B  B29  1  0.339538  0.339538  0.923852  1
  B  B30  1  0.667449  0.667449  0.249537  1
  B  B31  1  0.000000  0.667449  0.749537  1
  B  B32  1  0.667449  0.000000  0.749537  1
  B  B33  1  0.332551  0.000000  0.249537  1
  B  B34  1  0.000000  0.332551  0.249537  1
  B  B35  1  0.332551  0.332551  0.749537  1
  B  B36  1  0.673038  0.673038  0.071942  1
  B  B37  1  0.000000  0.673038  0.571942  1
  B  B38  1  0.673038  0.000000  0.571942  1
  B  B39  1  0.326962  0.000000  0.071942  1
  B  B40  1  0.000000  0.326962  0.071942  1
  B  B41  1  0.326962  0.326962  0.571942  1
  O  O42  1  0.807332  0.807332  0.433151  1
  O  O43  1  0.000000  0.807332  0.933151  1
  O  O44  1  0.807332  0.000000  0.933151  1
  O  O45  1  0.192668  0.000000  0.433151  1
  O  O46  1  0.000000  0.192668  0.433151  1
  O  O47  1  0.192668  0.192668  0.933151  1
  O  O48  1  0.661457  0.147634  0.918707  1
  O  O49  1  0.852366  0.513823  0.918707  1
  O  O50  1  0.486177  0.338543  0.918707  1
  O  O51  1  0.513823  0.661457  0.418707  1
  O  O52  1  0.338543  0.852366  0.418707  1
  O  O53  1  0.147634  0.486177  0.418707  1
  O  O54  1  0.661457  0.513823  0.418707  1
  O  O55  1  0.147634  0.661457  0.918707  1
  O  O56  1  0.513823  0.852366  0.918707  1
  O  O57  1  0.486177  0.147634  0.418707  1
  O  O58  1  0.852366  0.338543  0.418707  1
  O  O59  1  0.338543  0.486177  0.918707  1
  O  O60  1  0.519863  0.519863  0.249352  1
  O  O61  1  0.000000  0.519863  0.749352  1
  O  O62  1  0.519863  0.000000  0.749352  1
  O  O63  1  0.480137  0.000000  0.249352  1
  O  O64  1  0.000000  0.480137  0.249352  1
  O  O65  1  0.480137  0.480137  0.749352  1
  O  O66  1  0.814920  0.147587  0.749982  1
  O  O67  1  0.852413  0.667333  0.749982  1
  O  O68  1  0.332667  0.185080  0.749982  1
  O  O69  1  0.667333  0.814920  0.249982  1
  O  O70  1  0.185080  0.852413  0.249982  1
  O  O71  1  0.147587  0.332667  0.249982  1
  O  O72  1  0.814920  0.667333  0.249982  1
  O  O73  1  0.147587  0.814920  0.749982  1
  O  O74  1  0.667333  0.852413  0.749982  1
  O  O75  1  0.332667  0.147587  0.249982  1
  O  O76  1  0.852413  0.185080  0.249982  1
  O  O77  1  0.185080  0.332667  0.749982  1
  O  O78  1  0.673226  0.147103  0.567464  1
  O  O79  1  0.852897  0.526123  0.567464  1
  O  O80  1  0.473877  0.326774  0.567464  1
  O  O81  1  0.526123  0.673226  0.067464  1
  O  O82  1  0.326774  0.852897  0.067464  1
  O  O83  1  0.147103  0.473877  0.067464  1
  O  O84  1  0.673226  0.526123  0.067464  1
  O  O85  1  0.147103  0.673226  0.567464  1
  O  O86  1  0.526123  0.852897  0.567464  1
  O  O87  1  0.473877  0.147103  0.067464  1
  O  O88  1  0.852897  0.326774  0.067464  1
  O  O89  1  0.326774  0.473877  0.567464  1
  O  O90  1  0.819227  0.819227  0.081426  1
  O  O91  1  0.000000  0.819227  0.581426  1
  O  O92  1  0.819227  0.000000  0.581426  1
  O  O93  1  0.180773  0.000000  0.081426  1
  O  O94  1  0.000000  0.180773  0.081426  1
  O  O95  1  0.180773  0.180773  0.581426  1
