# generated using pymatgen
data_K4Ta2S11
_symmetry_space_group_name_H-M   'P 1'
_cell_length_a   7.61436841
_cell_length_b   11.65685468
_cell_length_c   12.00498998
_cell_angle_alpha   68.83838635
_cell_angle_beta   86.37820774
_cell_angle_gamma   85.47382758
_symmetry_Int_Tables_number   1
_chemical_formula_structural   K4Ta2S11
_chemical_formula_sum   'K8 Ta4 S22'
_cell_volume   989.91441679
_cell_formula_units_Z   2
loop_
 _symmetry_equiv_pos_site_id
 _symmetry_equiv_pos_as_xyz
  1  'x, y, z'
loop_
 _atom_site_type_symbol
 _atom_site_label
 _atom_site_symmetry_multiplicity
 _atom_site_fract_x
 _atom_site_fract_y
 _atom_site_fract_z
 _atom_site_occupancy
  K  K0  1  0.229200  0.652867  0.947084  1
  K  K1  1  0.743519  0.369240  0.506206  1
  K  K2  1  0.256481  0.630760  0.493794  1
  K  K3  1  0.472778  0.187016  0.846342  1
  K  K4  1  0.783578  0.962918  0.388369  1
  K  K5  1  0.216422  0.037082  0.611631  1
  K  K6  1  0.527222  0.812984  0.153658  1
  K  K7  1  0.770800  0.347133  0.052916  1
  Ta  Ta8  1  0.266052  0.352753  0.340503  1
  Ta  Ta9  1  0.733948  0.647247  0.659497  1
  Ta  Ta10  1  0.354586  0.132876  0.204224  1
  Ta  Ta11  1  0.645414  0.867124  0.795776  1
  S  S12  1  0.166267  0.969097  0.203137  1
  S  S13  1  0.611183  0.082712  0.119669  1
  S  S14  1  0.388817  0.917288  0.880331  1
  S  S15  1  0.233908  0.338635  0.534002  1
  S  S16  1  0.933233  0.806033  0.664703  1
  S  S17  1  0.066767  0.193967  0.335297  1
  S  S18  1  0.653578  0.637406  0.898051  1
  S  S19  1  0.346422  0.362594  0.101949  1
  S  S20  1  0.711946  0.063941  0.635111  1
  S  S21  1  0.288054  0.936059  0.364889  1
  S  S22  1  0.036183  0.623697  0.729612  1
  S  S23  1  0.963817  0.376303  0.270388  1
  S  S24  1  0.731492  0.415779  0.758992  1
  S  S25  1  0.268508  0.584221  0.241008  1
  S  S26  1  0.490607  0.180901  0.366460  1
  S  S27  1  0.190550  0.267951  0.029946  1
  S  S28  1  0.833733  0.030903  0.796863  1
  S  S29  1  0.809450  0.732049  0.970054  1
  S  S30  1  0.486763  0.515805  0.744553  1
  S  S31  1  0.513237  0.484195  0.255447  1
  S  S32  1  0.509393  0.819099  0.633540  1
  S  S33  1  0.766092  0.661365  0.465998  1
