# generated using pymatgen
data_SrCdP2O7
_symmetry_space_group_name_H-M   'P 1'
_cell_length_a   5.50838641
_cell_length_b   8.67225454
_cell_length_c   14.24836981
_cell_angle_alpha   90.00000000
_cell_angle_beta   112.57217897
_cell_angle_gamma   90.00000000
_symmetry_Int_Tables_number   1
_chemical_formula_structural   SrCdP2O7
_chemical_formula_sum   'Sr4 Cd4 P8 O28'
_cell_volume   628.50670572
_cell_formula_units_Z   4
loop_
 _symmetry_equiv_pos_site_id
 _symmetry_equiv_pos_as_xyz
  1  'x, y, z'
loop_
 _atom_site_type_symbol
 _atom_site_label
 _atom_site_symmetry_multiplicity
 _atom_site_fract_x
 _atom_site_fract_y
 _atom_site_fract_z
 _atom_site_occupancy
  Sr  Sr0  1  0.512948  0.324161  0.229852  1
  Sr  Sr1  1  0.487052  0.824161  0.270148  1
  Sr  Sr2  1  0.487052  0.675839  0.770148  1
  Sr  Sr3  1  0.512948  0.175839  0.729852  1
  Cd  Cd4  1  0.219645  0.355364  0.906370  1
  Cd  Cd5  1  0.780355  0.855364  0.593630  1
  Cd  Cd6  1  0.780355  0.644636  0.093630  1
  Cd  Cd7  1  0.219645  0.144636  0.406370  1
  P  P8  1  0.823913  0.216376  0.526737  1
  P  P9  1  0.176087  0.716376  0.973263  1
  P  P10  1  0.176087  0.783624  0.473263  1
  P  P11  1  0.823913  0.283624  0.026737  1
  P  P12  1  0.933095  0.468836  0.675107  1
  P  P13  1  0.066905  0.968836  0.824893  1
  P  P14  1  0.066905  0.531164  0.324893  1
  P  P15  1  0.933095  0.031164  0.175107  1
  O  O16  1  0.719728  0.116420  0.593424  1
  O  O17  1  0.280272  0.616420  0.906576  1
  O  O18  1  0.280272  0.883580  0.406576  1
  O  O19  1  0.719728  0.383580  0.093424  1
  O  O20  1  0.109219  0.174467  0.543532  1
  O  O21  1  0.890781  0.674467  0.956468  1
  O  O22  1  0.890781  0.825533  0.456468  1
  O  O23  1  0.109219  0.325533  0.043532  1
  O  O24  1  0.631760  0.213339  0.415460  1
  O  O25  1  0.368240  0.713339  0.084540  1
  O  O26  1  0.368240  0.786661  0.584540  1
  O  O27  1  0.631760  0.286661  0.915460  1
  O  O28  1  0.726864  0.446564  0.721486  1
  O  O29  1  0.273136  0.946564  0.778514  1
  O  O30  1  0.273136  0.553436  0.278514  1
  O  O31  1  0.726864  0.053436  0.221486  1
  O  O32  1  0.817942  0.106666  0.061900  1
  O  O33  1  0.182058  0.606666  0.438100  1
  O  O34  1  0.182058  0.893334  0.938100  1
  O  O35  1  0.817942  0.393334  0.561900  1
  O  O36  1  0.989965  0.863021  0.159042  1
  O  O37  1  0.010035  0.363021  0.340958  1
  O  O38  1  0.010035  0.136979  0.840958  1
  O  O39  1  0.989965  0.636979  0.659042  1
  O  O40  1  0.195972  0.111727  0.236913  1
  O  O41  1  0.804028  0.611727  0.263087  1
  O  O42  1  0.804028  0.888273  0.763087  1
  O  O43  1  0.195972  0.388273  0.736913  1
