# generated using pymatgen
data_K2Li14Zr3O14
_symmetry_space_group_name_H-M   'P 1'
_cell_length_a   8.31551800
_cell_length_b   8.31551800
_cell_length_c   8.31551800
_cell_angle_alpha   127.47877442
_cell_angle_beta   123.25100299
_cell_angle_gamma   80.98022452
_symmetry_Int_Tables_number   1
_chemical_formula_structural   K2Li14Zr3O14
_chemical_formula_sum   'K2 Li14 Zr3 O14'
_cell_volume   367.80075347
_cell_formula_units_Z   1
loop_
 _symmetry_equiv_pos_site_id
 _symmetry_equiv_pos_as_xyz
  1  'x, y, z'
loop_
 _atom_site_type_symbol
 _atom_site_label
 _atom_site_symmetry_multiplicity
 _atom_site_fract_x
 _atom_site_fract_y
 _atom_site_fract_z
 _atom_site_occupancy
  K  K0  1  0.500000  0.759221  0.259221  1
  K  K1  1  0.500000  0.240779  0.740779  1
  Li  Li2  1  0.705766  0.136223  0.112943  1
  Li  Li3  1  0.976720  0.863777  0.569543  1
  Li  Li4  1  0.023280  0.592823  0.887057  1
  Li  Li5  1  0.294234  0.407177  0.430457  1
  Li  Li6  1  0.023280  0.136223  0.430457  1
  Li  Li7  1  0.845552  0.500000  0.345552  1
  Li  Li8  1  0.154448  0.500000  0.654448  1
  Li  Li9  1  0.413454  0.770924  0.642530  1
  Li  Li10  1  0.586546  0.229076  0.357470  1
  Li  Li11  1  0.871606  0.229076  0.642530  1
  Li  Li12  1  0.128394  0.770924  0.357470  1
  Li  Li13  1  0.705766  0.592823  0.569543  1
  Li  Li14  1  0.294234  0.863777  0.887057  1
  Li  Li15  1  0.976720  0.407177  0.112943  1
  Zr  Zr16  1  0.000000  0.000000  0.000000  1
  Zr  Zr17  1  0.272148  0.272148  0.000000  1
  Zr  Zr18  1  0.727852  0.727852  0.000000  1
  O  O19  1  0.051721  0.872430  0.179291  1
  O  O20  1  0.420659  0.629337  0.791322  1
  O  O21  1  0.838015  0.629337  0.208678  1
  O  O22  1  0.579341  0.370663  0.208678  1
  O  O23  1  0.161985  0.370663  0.791322  1
  O  O24  1  0.744665  0.030416  0.285751  1
  O  O25  1  0.255335  0.541087  0.285751  1
  O  O26  1  0.255335  0.969584  0.714249  1
  O  O27  1  0.744665  0.458913  0.714249  1
  O  O28  1  1.000000  0.712257  0.712257  1
  O  O29  1  1.000000  0.287743  0.287743  1
  O  O30  1  0.693139  0.872430  0.820709  1
  O  O31  1  0.306861  0.127570  0.179291  1
  O  O32  1  0.948279  0.127570  0.820709  1
