# generated using pymatgen
data_Dy4(B2O5)3
_symmetry_space_group_name_H-M   'P 1'
_cell_length_a   6.27610600
_cell_length_b   6.27610600
_cell_length_c   18.96833739
_cell_angle_alpha   83.92145916
_cell_angle_beta   96.07854084
_cell_angle_gamma   138.89137638
_symmetry_Int_Tables_number   1
_chemical_formula_structural   Dy4(B2O5)3
_chemical_formula_sum   'Dy8 B12 O30'
_cell_volume   488.09339927
_cell_formula_units_Z   2
loop_
 _symmetry_equiv_pos_site_id
 _symmetry_equiv_pos_as_xyz
  1  'x, y, z'
loop_
 _atom_site_type_symbol
 _atom_site_label
 _atom_site_symmetry_multiplicity
 _atom_site_fract_x
 _atom_site_fract_y
 _atom_site_fract_z
 _atom_site_occupancy
  Dy  Dy0  1  0.065563  0.331832  0.901314  1
  Dy  Dy1  1  0.331832  0.065563  0.598686  1
  Dy  Dy2  1  0.934437  0.668168  0.098686  1
  Dy  Dy3  1  0.668168  0.934437  0.401314  1
  Dy  Dy4  1  0.347776  0.073132  0.803012  1
  Dy  Dy5  1  0.073132  0.347776  0.696988  1
  Dy  Dy6  1  0.652224  0.926868  0.196988  1
  Dy  Dy7  1  0.926868  0.652224  0.303012  1
  B  B8  1  0.361215  0.021977  0.973997  1
  B  B9  1  0.021977  0.361215  0.526003  1
  B  B10  1  0.638785  0.978023  0.026003  1
  B  B11  1  0.978023  0.638785  0.473997  1
  B  B12  1  0.793811  0.659317  0.694295  1
  B  B13  1  0.659317  0.793811  0.805705  1
  B  B14  1  0.206189  0.340683  0.305705  1
  B  B15  1  0.340683  0.206189  0.194295  1
  B  B16  1  0.196073  0.391311  0.087683  1
  B  B17  1  0.391311  0.196073  0.412317  1
  B  B18  1  0.803927  0.608689  0.912317  1
  B  B19  1  0.608689  0.803927  0.587683  1
  O  O20  1  0.077959  0.440169  0.138723  1
  O  O21  1  0.922041  0.559831  0.861277  1
  O  O22  1  0.087619  0.504476  0.450993  1
  O  O23  1  0.504476  0.087619  0.049007  1
  O  O24  1  0.912381  0.495524  0.549007  1
  O  O25  1  0.495524  0.912381  0.950993  1
  O  O26  1  0.163419  0.189850  0.378217  1
  O  O27  1  0.189850  0.163419  0.121783  1
  O  O28  1  0.559831  0.922041  0.638723  1
  O  O29  1  0.810150  0.836581  0.878217  1
  O  O30  1  0.664127  0.533973  0.196718  1
  O  O31  1  0.533973  0.664127  0.303282  1
  O  O32  1  0.335873  0.466027  0.803282  1
  O  O33  1  0.466027  0.335873  0.696718  1
  O  O34  1  0.711439  0.539705  0.429552  1
  O  O35  1  0.539705  0.711439  0.070448  1
  O  O36  1  0.288561  0.460295  0.570448  1
  O  O37  1  0.460295  0.288561  0.929552  1
  O  O38  1  0.753482  0.008650  0.521631  1
  O  O39  1  0.008650  0.753482  0.978369  1
  O  O40  1  0.246518  0.991350  0.478369  1
  O  O41  1  0.991350  0.246518  0.021631  1
  O  O42  1  0.953208  0.314424  0.296734  1
  O  O43  1  0.314424  0.953208  0.203266  1
  O  O44  1  0.046792  0.685576  0.703266  1
  O  O45  1  0.685576  0.046792  0.796734  1
  O  O46  1  0.865385  0.865385  0.750000  1
  O  O47  1  0.134615  0.134615  0.250000  1
  O  O48  1  0.836581  0.810150  0.621783  1
  O  O49  1  0.440169  0.077959  0.361277  1
