# generated using pymatgen
data_Cd3(AsO4)2
_symmetry_space_group_name_H-M   'P 1'
_cell_length_a   6.73094519
_cell_length_b   12.34130387
_cell_length_c   9.48452223
_cell_angle_alpha   90.00000000
_cell_angle_beta   98.15473292
_cell_angle_gamma   90.00000000
_symmetry_Int_Tables_number   1
_chemical_formula_structural   Cd3(AsO4)2
_chemical_formula_sum   'Cd12 As8 O32'
_cell_volume   779.89993527
_cell_formula_units_Z   4
loop_
 _symmetry_equiv_pos_site_id
 _symmetry_equiv_pos_as_xyz
  1  'x, y, z'
loop_
 _atom_site_type_symbol
 _atom_site_label
 _atom_site_symmetry_multiplicity
 _atom_site_fract_x
 _atom_site_fract_y
 _atom_site_fract_z
 _atom_site_occupancy
  Cd  Cd0  1  0.872379  0.692724  0.641823  1
  Cd  Cd1  1  0.627621  0.192724  0.358177  1
  Cd  Cd2  1  0.127621  0.307276  0.358177  1
  Cd  Cd3  1  0.372379  0.807276  0.641823  1
  Cd  Cd4  1  0.666769  0.575293  0.279201  1
  Cd  Cd5  1  0.833231  0.075293  0.720799  1
  Cd  Cd6  1  0.333231  0.424707  0.720799  1
  Cd  Cd7  1  0.166769  0.924707  0.279201  1
  Cd  Cd8  1  0.154041  0.616272  0.055801  1
  Cd  Cd9  1  0.345959  0.116272  0.944199  1
  Cd  Cd10  1  0.845959  0.383728  0.944199  1
  Cd  Cd11  1  0.654041  0.883728  0.055801  1
  As  As12  1  0.188545  0.586334  0.394570  1
  As  As13  1  0.311455  0.086334  0.605430  1
  As  As14  1  0.811455  0.413666  0.605430  1
  As  As15  1  0.688545  0.913666  0.394570  1
  As  As16  1  0.609740  0.636806  0.916945  1
  As  As17  1  0.890260  0.136806  0.083055  1
  As  As18  1  0.390260  0.363194  0.083055  1
  As  As19  1  0.109740  0.863194  0.916945  1
  O  O20  1  0.247487  0.460389  0.471416  1
  O  O21  1  0.252513  0.960389  0.528584  1
  O  O22  1  0.752513  0.539611  0.528584  1
  O  O23  1  0.747487  0.039611  0.471416  1
  O  O24  1  0.982659  0.579022  0.265015  1
  O  O25  1  0.517341  0.079022  0.734985  1
  O  O26  1  0.017341  0.420978  0.734985  1
  O  O27  1  0.482659  0.920978  0.265015  1
  O  O28  1  0.365239  0.630416  0.292578  1
  O  O29  1  0.134761  0.130416  0.707422  1
  O  O30  1  0.634761  0.369584  0.707422  1
  O  O31  1  0.865239  0.869584  0.292578  1
  O  O32  1  0.159427  0.679778  0.524674  1
  O  O33  1  0.340573  0.179778  0.475326  1
  O  O34  1  0.840573  0.320222  0.475326  1
  O  O35  1  0.659427  0.820222  0.524674  1
  O  O36  1  0.389602  0.564240  0.882409  1
  O  O37  1  0.110398  0.064240  0.117591  1
  O  O38  1  0.610398  0.435760  0.117591  1
  O  O39  1  0.889602  0.935760  0.882409  1
  O  O40  1  0.332458  0.933847  0.921252  1
  O  O41  1  0.167542  0.433847  0.078748  1
  O  O42  1  0.667542  0.066153  0.078748  1
  O  O43  1  0.832458  0.566153  0.921252  1
  O  O44  1  0.102557  0.794743  0.074699  1
  O  O45  1  0.397443  0.294743  0.925301  1
  O  O46  1  0.897443  0.205257  0.925301  1
  O  O47  1  0.602557  0.705257  0.074699  1
  O  O48  1  0.125618  0.769194  0.783360  1
  O  O49  1  0.374382  0.269194  0.216640  1
  O  O50  1  0.874382  0.230806  0.216640  1
  O  O51  1  0.625618  0.730806  0.783360  1
