# generated using pymatgen
data_CsDyCdTe3
_symmetry_space_group_name_H-M   'P 1'
_cell_length_a   8.98579207
_cell_length_b   8.98579207
_cell_length_c   11.88901859
_cell_angle_alpha   90.00000000
_cell_angle_beta   90.00000000
_cell_angle_gamma   150.68704677
_symmetry_Int_Tables_number   1
_chemical_formula_structural   CsDyCdTe3
_chemical_formula_sum   'Cs2 Dy2 Cd2 Te6'
_cell_volume   469.98288579
_cell_formula_units_Z   2
loop_
 _symmetry_equiv_pos_site_id
 _symmetry_equiv_pos_as_xyz
  1  'x, y, z'
loop_
 _atom_site_type_symbol
 _atom_site_label
 _atom_site_symmetry_multiplicity
 _atom_site_fract_x
 _atom_site_fract_y
 _atom_site_fract_z
 _atom_site_occupancy
  Cs  Cs0  1  0.249004  0.750996  0.250000  1
  Cs  Cs1  1  0.750996  0.249004  0.750000  1
  Dy  Dy2  1  0.000000  0.000000  0.500000  1
  Dy  Dy3  1  0.000000  0.000000  0.000000  1
  Cd  Cd4  1  0.536908  0.463092  0.250000  1
  Cd  Cd5  1  0.463092  0.536908  0.750000  1
  Te  Te6  1  0.380195  0.619805  0.546439  1
  Te  Te7  1  0.619805  0.380195  0.453561  1
  Te  Te8  1  0.619805  0.380195  0.046439  1
  Te  Te9  1  0.380195  0.619805  0.953561  1
  Te  Te10  1  0.934755  0.065245  0.250000  1
  Te  Te11  1  0.065245  0.934755  0.750000  1
