# generated using pymatgen
data_LiBO2
_symmetry_space_group_name_H-M   'P 1'
_cell_length_a   4.45285623
_cell_length_b   4.45285623
_cell_length_c   4.45285623
_cell_angle_alpha   123.24309601
_cell_angle_beta   123.24309601
_cell_angle_gamma   84.46896483
_symmetry_Int_Tables_number   1
_chemical_formula_structural   LiBO2
_chemical_formula_sum   'Li2 B2 O4'
_cell_volume   59.06987082
_cell_formula_units_Z   2
loop_
 _symmetry_equiv_pos_site_id
 _symmetry_equiv_pos_as_xyz
  1  'x, y, z'
loop_
 _atom_site_type_symbol
 _atom_site_label
 _atom_site_symmetry_multiplicity
 _atom_site_fract_x
 _atom_site_fract_y
 _atom_site_fract_z
 _atom_site_occupancy
  Li  Li0  1  0.750000  0.250000  0.500000  1
  Li  Li1  1  1.000000  1.000000  0.000000  1
  B  B2  1  0.250000  0.750000  0.500000  1
  B  B3  1  0.500000  0.500000  0.000000  1
  O  O4  1  0.219075  0.125000  0.594075  1
  O  O5  1  0.875000  0.469075  0.094075  1
  O  O6  1  0.375000  0.780925  0.905925  1
  O  O7  1  0.530925  0.625000  0.405925  1
