# generated using pymatgen
data_Rb4Ta2S11
_symmetry_space_group_name_H-M   'P 1'
_cell_length_a   7.84373554
_cell_length_b   13.86015052
_cell_length_c   18.66958461
_cell_angle_alpha   90.00000000
_cell_angle_beta   90.00000000
_cell_angle_gamma   90.00000000
_symmetry_Int_Tables_number   1
_chemical_formula_structural   Rb4Ta2S11
_chemical_formula_sum   'Rb16 Ta8 S44'
_cell_volume   2029.67052275
_cell_formula_units_Z   4
loop_
 _symmetry_equiv_pos_site_id
 _symmetry_equiv_pos_as_xyz
  1  'x, y, z'
loop_
 _atom_site_type_symbol
 _atom_site_label
 _atom_site_symmetry_multiplicity
 _atom_site_fract_x
 _atom_site_fract_y
 _atom_site_fract_z
 _atom_site_occupancy
  Rb  Rb0  1  0.813852  0.085479  0.026873  1
  Rb  Rb1  1  0.186148  0.914521  0.526873  1
  Rb  Rb2  1  0.186148  0.585479  0.026873  1
  Rb  Rb3  1  0.813852  0.414521  0.526873  1
  Rb  Rb4  1  0.330716  0.269059  0.126748  1
  Rb  Rb5  1  0.669284  0.730941  0.626748  1
  Rb  Rb6  1  0.669284  0.769059  0.126748  1
  Rb  Rb7  1  0.210283  0.539663  0.728703  1
  Rb  Rb8  1  0.795290  0.786166  0.378932  1
  Rb  Rb9  1  0.204710  0.213834  0.878932  1
  Rb  Rb10  1  0.204710  0.286166  0.378932  1
  Rb  Rb11  1  0.795290  0.713834  0.878932  1
  Rb  Rb12  1  0.330716  0.230941  0.626748  1
  Rb  Rb13  1  0.789717  0.039663  0.728703  1
  Rb  Rb14  1  0.789717  0.460337  0.228703  1
  Rb  Rb15  1  0.210283  0.960337  0.228703  1
  Ta  Ta16  1  0.741245  0.437024  0.970600  1
  Ta  Ta17  1  0.258755  0.562976  0.470600  1
  Ta  Ta18  1  0.258755  0.937024  0.970600  1
  Ta  Ta19  1  0.741245  0.062976  0.470600  1
  Ta  Ta20  1  0.794667  0.380113  0.789716  1
  Ta  Ta21  1  0.205333  0.619887  0.289716  1
  Ta  Ta22  1  0.205333  0.880113  0.789716  1
  Ta  Ta23  1  0.794667  0.119887  0.289716  1
  S  S24  1  0.748170  0.576607  0.032879  1
  S  S25  1  0.251830  0.423393  0.532879  1
  S  S26  1  0.251830  0.076607  0.032879  1
  S  S27  1  0.748170  0.923393  0.532879  1
  S  S28  1  0.542264  0.477995  0.871173  1
  S  S29  1  0.457736  0.522005  0.371173  1
  S  S30  1  0.457736  0.977995  0.871173  1
  S  S31  1  0.542264  0.022005  0.371173  1
  S  S32  1  0.014249  0.184002  0.227647  1
  S  S33  1  0.985751  0.815998  0.727647  1
  S  S34  1  0.985751  0.684002  0.227647  1
  S  S35  1  0.014249  0.315998  0.727647  1
  S  S36  1  0.601990  0.257955  0.307092  1
  S  S37  1  0.398010  0.742045  0.807092  1
  S  S38  1  0.398010  0.757955  0.307092  1
  S  S39  1  0.601990  0.242045  0.807092  1
  S  S40  1  0.772590  0.236461  0.391585  1
  S  S41  1  0.251257  0.038968  0.734033  1
  S  S42  1  0.227410  0.736461  0.391585  1
  S  S43  1  0.772590  0.263539  0.891585  1
  S  S44  1  0.962715  0.023682  0.378685  1
  S  S45  1  0.037285  0.976318  0.878685  1
  S  S46  1  0.037285  0.523682  0.378685  1
  S  S47  1  0.962715  0.476318  0.878685  1
  S  S48  1  0.604281  0.071187  0.187613  1
  S  S49  1  0.395719  0.928813  0.687613  1
  S  S50  1  0.395719  0.571187  0.187613  1
  S  S51  1  0.604281  0.428813  0.687613  1
  S  S52  1  0.748743  0.961032  0.234033  1
  S  S53  1  0.739420  0.322880  0.075055  1
  S  S54  1  0.251257  0.461032  0.234033  1
  S  S55  1  0.748743  0.538968  0.734033  1
  S  S56  1  0.435498  0.098326  0.456705  1
  S  S57  1  0.564502  0.901674  0.956705  1
  S  S58  1  0.564502  0.598326  0.456705  1
  S  S59  1  0.435498  0.401674  0.956705  1
  S  S60  1  0.973775  0.159210  0.524059  1
  S  S61  1  0.026225  0.840790  0.024059  1
  S  S62  1  0.026225  0.659210  0.524059  1
  S  S63  1  0.973775  0.340790  0.024059  1
  S  S64  1  0.739420  0.177120  0.575055  1
  S  S65  1  0.260580  0.822880  0.075055  1
  S  S66  1  0.260580  0.677120  0.575055  1
  S  S67  1  0.227410  0.763539  0.891585  1
