# generated using pymatgen
data_K3NbSe4
_symmetry_space_group_name_H-M   'P 1'
_cell_length_a   9.77072768
_cell_length_b   9.90930182
_cell_length_c   11.34190524
_cell_angle_alpha   90.00000000
_cell_angle_beta   90.00000000
_cell_angle_gamma   90.00000000
_symmetry_Int_Tables_number   1
_chemical_formula_structural   K3NbSe4
_chemical_formula_sum   'K12 Nb4 Se16'
_cell_volume   1098.13562327
_cell_formula_units_Z   4
loop_
 _symmetry_equiv_pos_site_id
 _symmetry_equiv_pos_as_xyz
  1  'x, y, z'
loop_
 _atom_site_type_symbol
 _atom_site_label
 _atom_site_symmetry_multiplicity
 _atom_site_fract_x
 _atom_site_fract_y
 _atom_site_fract_z
 _atom_site_occupancy
  K  K0  1  0.372129  0.583204  0.750000  1
  K  K1  1  0.127871  0.083204  0.250000  1
  K  K2  1  0.627871  0.416796  0.250000  1
  K  K3  1  0.872129  0.916796  0.750000  1
  K  K4  1  0.940804  0.708307  0.451879  1
  K  K5  1  0.440804  0.791693  0.048121  1
  K  K6  1  0.559196  0.208307  0.548121  1
  K  K7  1  0.059196  0.291693  0.951879  1
  K  K8  1  0.059196  0.291693  0.548121  1
  K  K9  1  0.559196  0.208307  0.951879  1
  K  K10  1  0.440804  0.791693  0.451879  1
  K  K11  1  0.940804  0.708307  0.048121  1
  Nb  Nb12  1  0.213130  0.513628  0.250000  1
  Nb  Nb13  1  0.713130  0.986372  0.250000  1
  Nb  Nb14  1  0.286870  0.013628  0.750000  1
  Nb  Nb15  1  0.786870  0.486372  0.750000  1
  Se  Se16  1  0.335278  0.447618  0.426295  1
  Se  Se17  1  0.664722  0.552382  0.926295  1
  Se  Se18  1  0.835278  0.052382  0.073705  1
  Se  Se19  1  0.164722  0.947618  0.573705  1
  Se  Se20  1  0.013249  0.587192  0.750000  1
  Se  Se21  1  0.513249  0.912808  0.750000  1
  Se  Se22  1  0.486751  0.087192  0.250000  1
  Se  Se23  1  0.986751  0.412808  0.250000  1
  Se  Se24  1  0.810813  0.242890  0.750000  1
  Se  Se25  1  0.310813  0.257110  0.750000  1
  Se  Se26  1  0.689187  0.742890  0.250000  1
  Se  Se27  1  0.189187  0.757110  0.250000  1
  Se  Se28  1  0.664722  0.552382  0.573705  1
  Se  Se29  1  0.164722  0.947618  0.926295  1
  Se  Se30  1  0.835278  0.052382  0.426295  1
  Se  Se31  1  0.335278  0.447618  0.073705  1
