# generated using pymatgen
data_TmAl3(BO3)4
_symmetry_space_group_name_H-M   'P 1'
_cell_length_a   5.91260937
_cell_length_b   5.91260937
_cell_length_c   5.91260937
_cell_angle_alpha   104.33874624
_cell_angle_beta   104.33874624
_cell_angle_gamma   104.33874624
_symmetry_Int_Tables_number   1
_chemical_formula_structural   TmAl3(BO3)4
_chemical_formula_sum   'Tm1 Al3 B4 O12'
_cell_volume   183.20815689
_cell_formula_units_Z   1
loop_
 _symmetry_equiv_pos_site_id
 _symmetry_equiv_pos_as_xyz
  1  'x, y, z'
loop_
 _atom_site_type_symbol
 _atom_site_label
 _atom_site_symmetry_multiplicity
 _atom_site_fract_x
 _atom_site_fract_y
 _atom_site_fract_z
 _atom_site_occupancy
  Tm  Tm0  1  0.000000  0.000000  0.000000  1
  Al  Al1  1  0.555000  0.445000  0.000000  1
  Al  Al2  1  0.000000  0.555000  0.445000  1
  Al  Al3  1  0.445000  0.000000  0.555000  1
  B  B4  1  0.500000  0.944187  0.055813  1
  B  B5  1  0.055813  0.500000  0.944187  1
  B  B6  1  0.944187  0.055813  0.500000  1
  B  B7  1  0.500000  0.500000  0.500000  1
  O  O8  1  0.092378  0.907622  0.500000  1
  O  O9  1  0.907622  0.500000  0.092378  1
  O  O10  1  0.500000  0.092378  0.907622  1
  O  O11  1  0.351308  0.648692  0.500000  1
  O  O12  1  0.648692  0.500000  0.351308  1
  O  O13  1  0.500000  0.351308  0.648692  1
  O  O14  1  0.781758  0.028714  0.631005  1
  O  O15  1  0.028714  0.631005  0.781758  1
  O  O16  1  0.631005  0.781758  0.028714  1
  O  O17  1  0.218242  0.368995  0.971286  1
  O  O18  1  0.368995  0.971286  0.218242  1
  O  O19  1  0.971286  0.218242  0.368995  1
