# generated using pymatgen
data_Al4C3
_symmetry_space_group_name_H-M   'P 1'
_cell_length_a   8.59324246
_cell_length_b   8.59324246
_cell_length_c   8.59324246
_cell_angle_alpha   22.50741015
_cell_angle_beta   22.50741015
_cell_angle_gamma   22.50741015
_symmetry_Int_Tables_number   1
_chemical_formula_structural   Al4C3
_chemical_formula_sum   'Al4 C3'
_cell_volume   81.56409925
_cell_formula_units_Z   1
loop_
 _symmetry_equiv_pos_site_id
 _symmetry_equiv_pos_as_xyz
  1  'x, y, z'
loop_
 _atom_site_type_symbol
 _atom_site_label
 _atom_site_symmetry_multiplicity
 _atom_site_fract_x
 _atom_site_fract_y
 _atom_site_fract_z
 _atom_site_occupancy
  Al  Al0  1  0.129903  0.129903  0.129903  1
  Al  Al1  1  0.870097  0.870097  0.870097  1
  Al  Al2  1  0.293489  0.293489  0.293489  1
  Al  Al3  1  0.706511  0.706511  0.706511  1
  C  C4  1  0.216738  0.216738  0.216738  1
  C  C5  1  0.783262  0.783262  0.783262  1
  C  C6  1  0.000000  0.000000  0.000000  1
