# generated using pymatgen
data_Sr5As3O12F
_symmetry_space_group_name_H-M   'P 1'
_cell_length_a   10.16641615
_cell_length_b   10.16641615
_cell_length_c   7.49606954
_cell_angle_alpha   90.00000000
_cell_angle_beta   90.00000000
_cell_angle_gamma   120.00000000
_symmetry_Int_Tables_number   1
_chemical_formula_structural   Sr5As3O12F
_chemical_formula_sum   'Sr10 As6 O24 F2'
_cell_volume   670.96521344
_cell_formula_units_Z   2
loop_
 _symmetry_equiv_pos_site_id
 _symmetry_equiv_pos_as_xyz
  1  'x, y, z'
loop_
 _atom_site_type_symbol
 _atom_site_label
 _atom_site_symmetry_multiplicity
 _atom_site_fract_x
 _atom_site_fract_y
 _atom_site_fract_z
 _atom_site_occupancy
  Sr  Sr0  1  0.752024  0.758601  0.250000  1
  Sr  Sr1  1  0.006577  0.247976  0.250000  1
  Sr  Sr2  1  0.758601  0.006577  0.750000  1
  Sr  Sr3  1  0.993423  0.752024  0.750000  1
  Sr  Sr4  1  0.247976  0.241399  0.750000  1
  Sr  Sr5  1  0.241399  0.993423  0.250000  1
  Sr  Sr6  1  0.333333  0.666667  0.499416  1
  Sr  Sr7  1  0.666667  0.333333  0.999416  1
  Sr  Sr8  1  0.666667  0.333333  0.500584  1
  Sr  Sr9  1  0.333333  0.666667  0.000584  1
  As  As10  1  0.630875  0.029899  0.250000  1
  As  As11  1  0.970101  0.600976  0.250000  1
  As  As12  1  0.600976  0.630875  0.750000  1
  As  As13  1  0.369125  0.970101  0.750000  1
  As  As14  1  0.029899  0.399024  0.750000  1
  As  As15  1  0.399024  0.369125  0.250000  1
  O  O16  1  0.678354  0.514145  0.750000  1
  O  O17  1  0.469930  0.874664  0.750000  1
  O  O18  1  0.342498  0.251552  0.433579  1
  O  O19  1  0.090946  0.342498  0.933579  1
  O  O20  1  0.251552  0.909054  0.933579  1
  O  O21  1  0.748448  0.090946  0.433579  1
  O  O22  1  0.909054  0.657502  0.433579  1
  O  O23  1  0.657502  0.748448  0.933579  1
  O  O24  1  0.657502  0.748448  0.566421  1
  O  O25  1  0.909054  0.657502  0.066421  1
  O  O26  1  0.748448  0.090946  0.066421  1
  O  O27  1  0.251552  0.909054  0.566421  1
  O  O28  1  0.125336  0.595266  0.750000  1
  O  O29  1  0.342498  0.251552  0.066421  1
  O  O30  1  0.404734  0.530070  0.750000  1
  O  O31  1  0.874664  0.404734  0.250000  1
  O  O32  1  0.321646  0.485855  0.250000  1
  O  O33  1  0.835791  0.321646  0.750000  1
  O  O34  1  0.485855  0.164209  0.750000  1
  O  O35  1  0.514145  0.835791  0.250000  1
  O  O36  1  0.164209  0.678354  0.250000  1
  O  O37  1  0.090946  0.342498  0.566421  1
  O  O38  1  0.595266  0.469930  0.250000  1
  O  O39  1  0.530070  0.125336  0.250000  1
  F  F40  1  0.000000  0.000000  0.250000  1
  F  F41  1  0.000000  0.000000  0.750000  1
