# generated using pymatgen
data_Tl4GeS4
_symmetry_space_group_name_H-M   'P 1'
_cell_length_a   9.87906862
_cell_length_b   9.87906862
_cell_length_c   7.83423189
_cell_angle_alpha   58.00390306
_cell_angle_beta   121.99609694
_cell_angle_gamma   107.48377461
_symmetry_Int_Tables_number   1
_chemical_formula_structural   Tl4GeS4
_chemical_formula_sum   'Tl8 Ge2 S8'
_cell_volume   549.72272199
_cell_formula_units_Z   2
loop_
 _symmetry_equiv_pos_site_id
 _symmetry_equiv_pos_as_xyz
  1  'x, y, z'
loop_
 _atom_site_type_symbol
 _atom_site_label
 _atom_site_symmetry_multiplicity
 _atom_site_fract_x
 _atom_site_fract_y
 _atom_site_fract_z
 _atom_site_occupancy
  Tl  Tl0  1  0.199776  0.794971  0.324343  1
  Tl  Tl1  1  0.205029  0.800224  0.824343  1
  Tl  Tl2  1  0.586394  0.963442  0.567701  1
  Tl  Tl3  1  0.036558  0.413606  0.067701  1
  Tl  Tl4  1  0.010201  0.267446  0.653378  1
  Tl  Tl5  1  0.732554  0.989799  0.153378  1
  Tl  Tl6  1  0.420143  0.364336  0.036994  1
  Tl  Tl7  1  0.635664  0.579857  0.536994  1
  Ge  Ge8  1  0.375805  0.201147  0.638072  1
  Ge  Ge9  1  0.798853  0.624195  0.138072  1
  S  S10  1  0.911259  0.795835  0.912073  1
  S  S11  1  0.204165  0.088741  0.412073  1
  S  S12  1  0.764495  0.380556  0.159924  1
  S  S13  1  0.619444  0.235505  0.659924  1
  S  S14  1  0.284680  0.439206  0.498103  1
  S  S15  1  0.560794  0.715320  0.998103  1
  S  S16  1  0.391159  0.048574  0.984512  1
  S  S17  1  0.951426  0.608841  0.484512  1
