# generated using pymatgen
data_VPO4
_symmetry_space_group_name_H-M   'P 1'
_cell_length_a   4.75849620
_cell_length_b   4.75849620
_cell_length_c   6.48286331
_cell_angle_alpha   90.00000000
_cell_angle_beta   90.00000000
_cell_angle_gamma   112.58502396
_symmetry_Int_Tables_number   1
_chemical_formula_structural   VPO4
_chemical_formula_sum   'V2 P2 O8'
_cell_volume   135.53584099
_cell_formula_units_Z   2
loop_
 _symmetry_equiv_pos_site_id
 _symmetry_equiv_pos_as_xyz
  1  'x, y, z'
loop_
 _atom_site_type_symbol
 _atom_site_label
 _atom_site_symmetry_multiplicity
 _atom_site_fract_x
 _atom_site_fract_y
 _atom_site_fract_z
 _atom_site_occupancy
  V  V0  1  0.000000  0.000000  0.500000  1
  V  V1  1  0.000000  0.000000  0.000000  1
  P  P2  1  0.349600  0.650400  0.250000  1
  P  P3  1  0.650400  0.349600  0.750000  1
  O  O4  1  0.708331  0.779055  0.250000  1
  O  O5  1  0.779055  0.708331  0.750000  1
  O  O6  1  0.291669  0.220945  0.750000  1
  O  O7  1  0.220945  0.291669  0.250000  1
  O  O8  1  0.244039  0.755961  0.447813  1
  O  O9  1  0.755961  0.244039  0.552187  1
  O  O10  1  0.244039  0.755961  0.052187  1
  O  O11  1  0.755961  0.244039  0.947813  1
