# generated using pymatgen
data_NaSr4(SbO4)3
_symmetry_space_group_name_H-M   'P 1'
_cell_length_a   8.23106646
_cell_length_b   8.20589060
_cell_length_c   11.57724085
_cell_angle_alpha   90.00000000
_cell_angle_beta   134.67431754
_cell_angle_gamma   90.00000000
_symmetry_Int_Tables_number   1
_chemical_formula_structural   NaSr4(SbO4)3
_chemical_formula_sum   'Na2 Sr8 Sb6 O24'
_cell_volume   556.06627018
_cell_formula_units_Z   2
loop_
 _symmetry_equiv_pos_site_id
 _symmetry_equiv_pos_as_xyz
  1  'x, y, z'
loop_
 _atom_site_type_symbol
 _atom_site_label
 _atom_site_symmetry_multiplicity
 _atom_site_fract_x
 _atom_site_fract_y
 _atom_site_fract_z
 _atom_site_occupancy
  Na  Na0  1  0.000000  0.500000  0.500000  1
  Na  Na1  1  0.000000  0.000000  0.000000  1
  Sr  Sr2  1  0.968263  0.745061  0.236576  1
  Sr  Sr3  1  0.031737  0.245061  0.263424  1
  Sr  Sr4  1  0.543115  0.254245  0.277132  1
  Sr  Sr5  1  0.456885  0.754245  0.222868  1
  Sr  Sr6  1  0.031737  0.254939  0.763424  1
  Sr  Sr7  1  0.968263  0.754939  0.736576  1
  Sr  Sr8  1  0.543115  0.245755  0.777132  1
  Sr  Sr9  1  0.456885  0.745755  0.722868  1
  Sb  Sb10  1  0.500000  0.000000  0.500000  1
  Sb  Sb11  1  0.500000  0.500000  0.000000  1
  Sb  Sb12  1  0.000000  0.000000  0.500000  1
  Sb  Sb13  1  0.000000  0.500000  0.000000  1
  Sb  Sb14  1  0.500000  0.000000  0.000000  1
  Sb  Sb15  1  0.500000  0.500000  0.500000  1
  O  O16  1  0.789074  0.461504  0.039422  1
  O  O17  1  0.210926  0.961504  0.460578  1
  O  O18  1  0.210926  0.538496  0.960578  1
  O  O19  1  0.789074  0.038496  0.539422  1
  O  O20  1  0.480771  0.250169  0.529385  1
  O  O21  1  0.519229  0.750169  0.970615  1
  O  O22  1  0.519229  0.749831  0.470615  1
  O  O23  1  0.480771  0.249831  0.029385  1
  O  O24  1  0.286915  0.458678  0.249516  1
  O  O25  1  0.713085  0.958678  0.250484  1
  O  O26  1  0.713085  0.541322  0.750484  1
  O  O27  1  0.286915  0.041322  0.749516  1
  O  O28  1  0.981294  0.227932  0.456403  1
  O  O29  1  0.018706  0.727932  0.043597  1
  O  O30  1  0.018706  0.772068  0.543597  1
  O  O31  1  0.981294  0.272068  0.956403  1
  O  O32  1  0.238210  0.960917  0.964948  1
  O  O33  1  0.761790  0.460917  0.535052  1
  O  O34  1  0.761790  0.039083  0.035052  1
  O  O35  1  0.238210  0.539083  0.464948  1
  O  O36  1  0.692661  0.963820  0.727723  1
  O  O37  1  0.307339  0.463820  0.772277  1
  O  O38  1  0.307339  0.036180  0.272277  1
  O  O39  1  0.692661  0.536180  0.227723  1
