# generated using pymatgen
data_NdTa7O19
_symmetry_space_group_name_H-M   'P 1'
_cell_length_a   6.29076704
_cell_length_b   6.29076704
_cell_length_c   20.15391887
_cell_angle_alpha   90.00000000
_cell_angle_beta   90.00000000
_cell_angle_gamma   120.00000000
_symmetry_Int_Tables_number   1
_chemical_formula_structural   NdTa7O19
_chemical_formula_sum   'Nd2 Ta14 O38'
_cell_volume   690.71254394
_cell_formula_units_Z   2
loop_
 _symmetry_equiv_pos_site_id
 _symmetry_equiv_pos_as_xyz
  1  'x, y, z'
loop_
 _atom_site_type_symbol
 _atom_site_label
 _atom_site_symmetry_multiplicity
 _atom_site_fract_x
 _atom_site_fract_y
 _atom_site_fract_z
 _atom_site_occupancy
  Nd  Nd0  1  0.000000  0.000000  0.000000  1
  Nd  Nd1  1  0.000000  0.000000  0.500000  1
  Ta  Ta2  1  0.025885  0.334653  0.655898  1
  Ta  Ta3  1  0.665347  0.691232  0.655898  1
  Ta  Ta4  1  0.025885  0.334653  0.844102  1
  Ta  Ta5  1  0.665347  0.691232  0.844102  1
  Ta  Ta6  1  0.308768  0.974115  0.844102  1
  Ta  Ta7  1  0.665347  0.974115  0.155898  1
  Ta  Ta8  1  0.308768  0.334653  0.155898  1
  Ta  Ta9  1  0.308768  0.334653  0.344102  1
  Ta  Ta10  1  0.665347  0.974115  0.344102  1
  Ta  Ta11  1  0.025885  0.691232  0.155898  1
  Ta  Ta12  1  0.333333  0.666667  0.500000  1
  Ta  Ta13  1  0.333333  0.666667  0.000000  1
  Ta  Ta14  1  0.025885  0.691232  0.344102  1
  Ta  Ta15  1  0.308768  0.974115  0.655898  1
  O  O16  1  0.000000  0.000000  0.632049  1
  O  O17  1  0.000000  0.000000  0.867951  1
  O  O18  1  0.000000  0.000000  0.367951  1
  O  O19  1  0.000000  0.000000  0.132049  1
  O  O20  1  0.333333  0.666667  0.667144  1
  O  O21  1  0.333333  0.666667  0.832856  1
  O  O22  1  0.333333  0.666667  0.332856  1
  O  O23  1  0.333333  0.666667  0.167144  1
  O  O24  1  0.041611  0.291854  0.750000  1
  O  O25  1  0.708146  0.749757  0.750000  1
  O  O26  1  0.250243  0.958389  0.750000  1
  O  O27  1  0.250243  0.291854  0.250000  1
  O  O28  1  0.708146  0.958389  0.250000  1
  O  O29  1  0.041611  0.749757  0.250000  1
  O  O30  1  0.615484  0.902284  0.443221  1
  O  O31  1  0.097716  0.384516  0.556779  1
  O  O32  1  0.911575  0.333195  0.153271  1
  O  O33  1  0.421620  0.088425  0.346729  1
  O  O34  1  0.666805  0.578380  0.346729  1
  O  O35  1  0.666805  0.578380  0.153271  1
  O  O36  1  0.421620  0.088425  0.153271  1
  O  O37  1  0.666805  0.088425  0.846729  1
  O  O38  1  0.421620  0.333195  0.846729  1
  O  O39  1  0.911575  0.578380  0.846729  1
  O  O40  1  0.421620  0.333195  0.653271  1
  O  O41  1  0.911575  0.578380  0.653271  1
  O  O42  1  0.911575  0.333195  0.346729  1
  O  O43  1  0.666805  0.088425  0.653271  1
  O  O44  1  0.097716  0.384516  0.943221  1
  O  O45  1  0.286800  0.902284  0.556779  1
  O  O46  1  0.615484  0.713200  0.556779  1
  O  O47  1  0.615484  0.713200  0.943221  1
  O  O48  1  0.286800  0.902284  0.943221  1
  O  O49  1  0.615484  0.902284  0.056779  1
  O  O50  1  0.286800  0.384516  0.056779  1
  O  O51  1  0.097716  0.713200  0.056779  1
  O  O52  1  0.286800  0.384516  0.443221  1
  O  O53  1  0.097716  0.713200  0.443221  1
