# generated using pymatgen
data_Mg2Tl2(MoO4)3
_symmetry_space_group_name_H-M   'P 1'
_cell_length_a   10.99952216
_cell_length_b   10.99952216
_cell_length_c   10.99952216
_cell_angle_alpha   90.00000000
_cell_angle_beta   90.00000000
_cell_angle_gamma   90.00000000
_symmetry_Int_Tables_number   1
_chemical_formula_structural   Mg2Tl2(MoO4)3
_chemical_formula_sum   'Mg8 Tl8 Mo12 O48'
_cell_volume   1330.82655161
_cell_formula_units_Z   4
loop_
 _symmetry_equiv_pos_site_id
 _symmetry_equiv_pos_as_xyz
  1  'x, y, z'
loop_
 _atom_site_type_symbol
 _atom_site_label
 _atom_site_symmetry_multiplicity
 _atom_site_fract_x
 _atom_site_fract_y
 _atom_site_fract_z
 _atom_site_occupancy
  Mg  Mg0  1  0.114329  0.614329  0.885671  1
  Mg  Mg1  1  0.385671  0.385671  0.385671  1
  Mg  Mg2  1  0.885671  0.114329  0.614329  1
  Mg  Mg3  1  0.614329  0.885671  0.114329  1
  Mg  Mg4  1  0.661095  0.661095  0.661095  1
  Mg  Mg5  1  0.838905  0.338905  0.161095  1
  Mg  Mg6  1  0.338905  0.161095  0.838905  1
  Mg  Mg7  1  0.161095  0.838905  0.338905  1
  Tl  Tl8  1  0.165947  0.165947  0.165947  1
  Tl  Tl9  1  0.334053  0.834053  0.665947  1
  Tl  Tl10  1  0.665947  0.334053  0.834053  1
  Tl  Tl11  1  0.834053  0.665947  0.334053  1
  Tl  Tl12  1  0.940197  0.940197  0.940197  1
  Tl  Tl13  1  0.559803  0.059803  0.440197  1
  Tl  Tl14  1  0.440197  0.559803  0.059803  1
  Tl  Tl15  1  0.059803  0.440197  0.559803  1
  Mo  Mo16  1  0.622160  0.972466  0.797067  1
  Mo  Mo17  1  0.122160  0.527534  0.202933  1
  Mo  Mo18  1  0.297067  0.877840  0.027534  1
  Mo  Mo19  1  0.877840  0.027534  0.297067  1
  Mo  Mo20  1  0.797067  0.622160  0.972466  1
  Mo  Mo21  1  0.702933  0.377840  0.472466  1
  Mo  Mo22  1  0.202933  0.122160  0.527534  1
  Mo  Mo23  1  0.377840  0.472466  0.702933  1
  Mo  Mo24  1  0.027534  0.297067  0.877840  1
  Mo  Mo25  1  0.527534  0.202933  0.122160  1
  Mo  Mo26  1  0.972466  0.797067  0.622160  1
  Mo  Mo27  1  0.472466  0.702933  0.377840  1
  O  O28  1  0.954544  0.280499  0.022356  1
  O  O29  1  0.454544  0.219501  0.977644  1
  O  O30  1  0.045456  0.780499  0.477644  1
  O  O31  1  0.219501  0.977644  0.454544  1
  O  O32  1  0.477644  0.045456  0.780499  1
  O  O33  1  0.977644  0.454544  0.219501  1
  O  O34  1  0.280499  0.022356  0.954544  1
  O  O35  1  0.022356  0.954544  0.280499  1
  O  O36  1  0.780499  0.477644  0.045456  1
  O  O37  1  0.719501  0.522356  0.545456  1
  O  O38  1  0.522356  0.545456  0.719501  1
  O  O39  1  0.545456  0.719501  0.522356  1
  O  O40  1  0.180267  0.245120  0.897379  1
  O  O41  1  0.680267  0.254880  0.102621  1
  O  O42  1  0.819733  0.745120  0.602621  1
  O  O43  1  0.254880  0.102621  0.680267  1
  O  O44  1  0.602621  0.819733  0.745120  1
  O  O45  1  0.102621  0.680267  0.254880  1
  O  O46  1  0.729263  0.054357  0.705315  1
  O  O47  1  0.245120  0.897379  0.180267  1
  O  O48  1  0.745120  0.602621  0.819733  1
  O  O49  1  0.754880  0.397379  0.319733  1
  O  O50  1  0.397379  0.319733  0.754880  1
  O  O51  1  0.319733  0.754880  0.397379  1
  O  O52  1  0.945643  0.205315  0.770737  1
  O  O53  1  0.445643  0.294685  0.229263  1
  O  O54  1  0.054357  0.705315  0.729263  1
  O  O55  1  0.294685  0.229263  0.445643  1
  O  O56  1  0.472840  0.547555  0.323887  1
  O  O57  1  0.323887  0.472840  0.547555  1
  O  O58  1  0.547555  0.323887  0.472840  1
  O  O59  1  0.952445  0.676113  0.972840  1
  O  O60  1  0.823887  0.027160  0.452445  1
  O  O61  1  0.452445  0.823887  0.027160  1
  O  O62  1  0.176113  0.527160  0.047555  1
  O  O63  1  0.676113  0.972840  0.952445  1
  O  O64  1  0.047555  0.176113  0.527160  1
  O  O65  1  0.972840  0.952445  0.676113  1
  O  O66  1  0.527160  0.047555  0.176113  1
  O  O67  1  0.027160  0.452445  0.823887  1
  O  O68  1  0.554357  0.794685  0.270737  1
  O  O69  1  0.270737  0.554357  0.794685  1
  O  O70  1  0.794685  0.270737  0.554357  1
  O  O71  1  0.705315  0.729263  0.054357  1
  O  O72  1  0.770737  0.945643  0.205315  1
  O  O73  1  0.205315  0.770737  0.945643  1
  O  O74  1  0.229263  0.445643  0.294685  1
  O  O75  1  0.897379  0.180267  0.245120  1
