# generated using pymatgen
data_KNaV2O6
_symmetry_space_group_name_H-M   'P 1'
_cell_length_a   7.47269902
_cell_length_b   7.47269902
_cell_length_c   5.93297929
_cell_angle_alpha   79.28910419
_cell_angle_beta   100.71089581
_cell_angle_gamma   92.96677697
_symmetry_Int_Tables_number   1
_chemical_formula_structural   KNaV2O6
_chemical_formula_sum   'K2 Na2 V4 O12'
_cell_volume   319.81023849
_cell_formula_units_Z   2
loop_
 _symmetry_equiv_pos_site_id
 _symmetry_equiv_pos_as_xyz
  1  'x, y, z'
loop_
 _atom_site_type_symbol
 _atom_site_label
 _atom_site_symmetry_multiplicity
 _atom_site_fract_x
 _atom_site_fract_y
 _atom_site_fract_z
 _atom_site_occupancy
  K  K0  1  0.198037  0.198037  0.250000  1
  K  K1  1  0.801963  0.801963  0.750000  1
  Na  Na2  1  0.594568  0.594568  0.250000  1
  Na  Na3  1  0.405432  0.405432  0.750000  1
  V  V4  1  0.298947  0.870663  0.777615  1
  V  V5  1  0.870663  0.298947  0.722385  1
  V  V6  1  0.701053  0.129337  0.222385  1
  V  V7  1  0.129337  0.701053  0.277615  1
  O  O8  1  0.919769  0.612859  0.214432  1
  O  O9  1  0.612859  0.919769  0.285568  1
  O  O10  1  0.080231  0.387141  0.785568  1
  O  O11  1  0.387141  0.080231  0.714432  1
  O  O12  1  0.858363  0.168769  0.486011  1
  O  O13  1  0.168769  0.858363  0.013989  1
  O  O14  1  0.141637  0.831231  0.513989  1
  O  O15  1  0.831231  0.141637  0.986011  1
  O  O16  1  0.462264  0.712918  0.850593  1
  O  O17  1  0.712918  0.462264  0.649407  1
  O  O18  1  0.537736  0.287082  0.149407  1
  O  O19  1  0.287082  0.537736  0.350593  1
