# generated using pymatgen
data_BaFe(Si2O5)2
_symmetry_space_group_name_H-M   'P 1'
_cell_length_a   7.63011300
_cell_length_b   7.63011300
_cell_length_c   16.43668400
_cell_angle_alpha   90.00000000
_cell_angle_beta   90.00000000
_cell_angle_gamma   90.00000000
_symmetry_Int_Tables_number   1
_chemical_formula_structural   BaFe(Si2O5)2
_chemical_formula_sum   'Ba4 Fe4 Si16 O40'
_cell_volume   956.92113206
_cell_formula_units_Z   4
loop_
 _symmetry_equiv_pos_site_id
 _symmetry_equiv_pos_as_xyz
  1  'x, y, z'
loop_
 _atom_site_type_symbol
 _atom_site_label
 _atom_site_symmetry_multiplicity
 _atom_site_fract_x
 _atom_site_fract_y
 _atom_site_fract_z
 _atom_site_occupancy
  Ba  Ba0  1  0.500000  0.500000  0.500000  1
  Ba  Ba1  1  0.000000  0.000000  0.500000  1
  Ba  Ba2  1  0.000000  0.000000  0.000000  1
  Ba  Ba3  1  0.500000  0.500000  0.000000  1
  Fe  Fe4  1  0.500000  0.000000  0.594268  1
  Fe  Fe5  1  0.000000  0.500000  0.905732  1
  Fe  Fe6  1  0.000000  0.500000  0.405732  1
  Fe  Fe7  1  0.500000  0.000000  0.094268  1
  Si  Si8  1  0.182362  0.266875  0.655142  1
  Si  Si9  1  0.817638  0.733125  0.655142  1
  Si  Si10  1  0.266875  0.182362  0.844858  1
  Si  Si11  1  0.766875  0.317638  0.655142  1
  Si  Si12  1  0.233125  0.682362  0.655142  1
  Si  Si13  1  0.317638  0.766875  0.844858  1
  Si  Si14  1  0.682362  0.233125  0.844858  1
  Si  Si15  1  0.733125  0.817638  0.844858  1
  Si  Si16  1  0.317638  0.233125  0.344858  1
  Si  Si17  1  0.682362  0.766875  0.344858  1
  Si  Si18  1  0.233125  0.317638  0.155142  1
  Si  Si19  1  0.733125  0.182362  0.344858  1
  Si  Si20  1  0.266875  0.817638  0.344858  1
  Si  Si21  1  0.182362  0.733125  0.155142  1
  Si  Si22  1  0.817638  0.266875  0.155142  1
  Si  Si23  1  0.766875  0.682362  0.155142  1
  O  O24  1  0.272003  0.135664  0.591322  1
  O  O25  1  0.727997  0.864336  0.591322  1
  O  O26  1  0.135664  0.272003  0.908678  1
  O  O27  1  0.635664  0.227997  0.591322  1
  O  O28  1  0.364336  0.772003  0.591322  1
  O  O29  1  0.227997  0.635664  0.908678  1
  O  O30  1  0.772003  0.364336  0.908678  1
  O  O31  1  0.864336  0.727997  0.908678  1
  O  O32  1  0.227997  0.364336  0.408678  1
  O  O33  1  0.772003  0.635664  0.408678  1
  O  O34  1  0.364336  0.227997  0.091322  1
  O  O35  1  0.864336  0.272003  0.408678  1
  O  O36  1  0.135664  0.727997  0.408678  1
  O  O37  1  0.272003  0.864336  0.091322  1
  O  O38  1  0.727997  0.135664  0.091322  1
  O  O39  1  0.253828  0.030425  0.362305  1
  O  O40  1  0.635664  0.772003  0.091322  1
  O  O41  1  0.753828  0.530425  0.637695  1
  O  O42  1  0.469575  0.246172  0.862305  1
  O  O43  1  0.969575  0.253828  0.637695  1
  O  O44  1  0.030425  0.746172  0.637695  1
  O  O45  1  0.253828  0.969575  0.862305  1
  O  O46  1  0.746172  0.030425  0.862305  1
  O  O47  1  0.530425  0.753828  0.862305  1
  O  O48  1  0.720346  0.720346  0.250000  1
  O  O49  1  0.779654  0.220346  0.250000  1
  O  O50  1  0.220346  0.779654  0.250000  1
  O  O51  1  0.279654  0.279654  0.250000  1
  O  O52  1  0.779654  0.779654  0.750000  1
  O  O53  1  0.720346  0.279654  0.750000  1
  O  O54  1  0.279654  0.720346  0.750000  1
  O  O55  1  0.220346  0.220346  0.750000  1
  O  O56  1  0.969575  0.746172  0.137695  1
  O  O57  1  0.753828  0.469575  0.137695  1
  O  O58  1  0.246172  0.530425  0.137695  1
  O  O59  1  0.469575  0.753828  0.362305  1
  O  O60  1  0.530425  0.246172  0.362305  1
  O  O61  1  0.030425  0.253828  0.137695  1
  O  O62  1  0.746172  0.969575  0.362305  1
  O  O63  1  0.246172  0.469575  0.637695  1
