# generated using pymatgen
data_Pr2Be2GeO7
_symmetry_space_group_name_H-M   'P 1'
_cell_length_a   7.67364581
_cell_length_b   7.67364581
_cell_length_c   4.95652459
_cell_angle_alpha   90.00000000
_cell_angle_beta   90.00000000
_cell_angle_gamma   90.00000000
_symmetry_Int_Tables_number   1
_chemical_formula_structural   Pr2Be2GeO7
_chemical_formula_sum   'Pr4 Be4 Ge2 O14'
_cell_volume   291.86415752
_cell_formula_units_Z   2
loop_
 _symmetry_equiv_pos_site_id
 _symmetry_equiv_pos_as_xyz
  1  'x, y, z'
loop_
 _atom_site_type_symbol
 _atom_site_label
 _atom_site_symmetry_multiplicity
 _atom_site_fract_x
 _atom_site_fract_y
 _atom_site_fract_z
 _atom_site_occupancy
  Pr  Pr0  1  0.659859  0.840141  0.504025  1
  Pr  Pr1  1  0.159859  0.659859  0.495975  1
  Pr  Pr2  1  0.840141  0.340141  0.495975  1
  Pr  Pr3  1  0.340141  0.159859  0.504025  1
  Be  Be4  1  0.367223  0.867223  0.039539  1
  Be  Be5  1  0.867223  0.632777  0.960461  1
  Be  Be6  1  0.632777  0.132777  0.039539  1
  Be  Be7  1  0.132777  0.367223  0.960461  1
  Ge  Ge8  1  0.500000  0.500000  0.000000  1
  Ge  Ge9  1  0.000000  0.000000  0.000000  1
  O  O10  1  0.922515  0.826249  0.797356  1
  O  O11  1  0.173751  0.922515  0.202644  1
  O  O12  1  0.577485  0.326249  0.202644  1
  O  O13  1  0.422515  0.673751  0.202644  1
  O  O14  1  0.326249  0.422515  0.797356  1
  O  O15  1  0.673751  0.577485  0.797356  1
  O  O16  1  0.000000  0.500000  0.829722  1
  O  O17  1  0.500000  0.000000  0.170278  1
  O  O18  1  0.141401  0.358599  0.280538  1
  O  O19  1  0.641401  0.141401  0.719462  1
  O  O20  1  0.358599  0.858599  0.719462  1
  O  O21  1  0.858599  0.641401  0.280538  1
  O  O22  1  0.077485  0.173751  0.797356  1
  O  O23  1  0.826249  0.077485  0.202644  1
