# generated using pymatgen
data_Zn(GaTe2)2
_symmetry_space_group_name_H-M   'P 1'
_cell_length_a   7.38847399
_cell_length_b   7.38847399
_cell_length_c   7.38847399
_cell_angle_alpha   131.46755265
_cell_angle_beta   131.46755265
_cell_angle_gamma   71.07128084
_symmetry_Int_Tables_number   1
_chemical_formula_structural   Zn(GaTe2)2
_chemical_formula_sum   'Zn1 Ga2 Te4'
_cell_volume   221.74431781
_cell_formula_units_Z   1
loop_
 _symmetry_equiv_pos_site_id
 _symmetry_equiv_pos_as_xyz
  1  'x, y, z'
loop_
 _atom_site_type_symbol
 _atom_site_label
 _atom_site_symmetry_multiplicity
 _atom_site_fract_x
 _atom_site_fract_y
 _atom_site_fract_z
 _atom_site_occupancy
  Zn  Zn0  1  0.000000  0.000000  0.000000  1
  Ga  Ga1  1  0.500000  0.500000  0.000000  1
  Ga  Ga2  1  0.250000  0.750000  0.500000  1
  Te  Te3  1  0.400362  0.897477  0.031049  1
  Te  Te4  1  0.102523  0.133572  0.502885  1
  Te  Te5  1  0.630687  0.599638  0.497115  1
  Te  Te6  1  0.866428  0.369313  0.968951  1
