# generated using pymatgen
data_KAg2AsO4
_symmetry_space_group_name_H-M   'P 1'
_cell_length_a   5.57101001
_cell_length_b   5.57101001
_cell_length_c   5.57101001
_cell_angle_alpha   114.74508622
_cell_angle_beta   114.74508622
_cell_angle_gamma   99.37156349
_symmetry_Int_Tables_number   1
_chemical_formula_structural   KAg2AsO4
_chemical_formula_sum   'K1 Ag2 As1 O4'
_cell_volume   130.08001923
_cell_formula_units_Z   1
loop_
 _symmetry_equiv_pos_site_id
 _symmetry_equiv_pos_as_xyz
  1  'x, y, z'
loop_
 _atom_site_type_symbol
 _atom_site_label
 _atom_site_symmetry_multiplicity
 _atom_site_fract_x
 _atom_site_fract_y
 _atom_site_fract_z
 _atom_site_occupancy
  K  K0  1  0.500000  0.500000  0.000000  1
  Ag  Ag1  1  0.250000  0.750000  0.500000  1
  Ag  Ag2  1  0.750000  0.250000  0.500000  1
  As  As3  1  0.000000  0.000000  0.000000  1
  O  O4  1  0.030427  0.030427  0.336002  1
  O  O5  1  0.969573  0.305575  0.000000  1
  O  O6  1  0.305575  0.969573  0.000000  1
  O  O7  1  0.694425  0.694425  0.663998  1
