# generated using pymatgen
data_TbCuSe2
_symmetry_space_group_name_H-M   'P 1'
_cell_length_a   6.61893744
_cell_length_b   7.34168945
_cell_length_c   7.10123301
_cell_angle_alpha   90.00000000
_cell_angle_beta   96.07301528
_cell_angle_gamma   90.00000000
_symmetry_Int_Tables_number   1
_chemical_formula_structural   TbCuSe2
_chemical_formula_sum   'Tb4 Cu4 Se8'
_cell_volume   343.14199545
_cell_formula_units_Z   4
loop_
 _symmetry_equiv_pos_site_id
 _symmetry_equiv_pos_as_xyz
  1  'x, y, z'
loop_
 _atom_site_type_symbol
 _atom_site_label
 _atom_site_symmetry_multiplicity
 _atom_site_fract_x
 _atom_site_fract_y
 _atom_site_fract_z
 _atom_site_occupancy
  Tb  Tb0  1  0.803994  0.541911  0.701061  1
  Tb  Tb1  1  0.196006  0.041911  0.798939  1
  Tb  Tb2  1  0.196006  0.458089  0.298939  1
  Tb  Tb3  1  0.803994  0.958089  0.201061  1
  Cu  Cu4  1  0.574257  0.341153  0.044970  1
  Cu  Cu5  1  0.425743  0.658847  0.955030  1
  Cu  Cu6  1  0.574257  0.158847  0.544970  1
  Cu  Cu7  1  0.425743  0.841153  0.455030  1
  Se  Se8  1  0.071359  0.775673  0.497271  1
  Se  Se9  1  0.071359  0.724327  0.997271  1
  Se  Se10  1  0.928641  0.275673  0.002729  1
  Se  Se11  1  0.928641  0.224327  0.502729  1
  Se  Se12  1  0.400114  0.387984  0.717745  1
  Se  Se13  1  0.599886  0.887984  0.782255  1
  Se  Se14  1  0.599886  0.612016  0.282255  1
  Se  Se15  1  0.400114  0.112016  0.217745  1
