# generated using pymatgen
data_Rb3P6N11
_symmetry_space_group_name_H-M   'P 1'
_cell_length_a   10.61422676
_cell_length_b   10.61422676
_cell_length_c   10.61422676
_cell_angle_alpha   90.00000000
_cell_angle_beta   90.00000000
_cell_angle_gamma   90.00000000
_symmetry_Int_Tables_number   1
_chemical_formula_structural   Rb3P6N11
_chemical_formula_sum   'Rb12 P24 N44'
_cell_volume   1195.81799548
_cell_formula_units_Z   4
loop_
 _symmetry_equiv_pos_site_id
 _symmetry_equiv_pos_as_xyz
  1  'x, y, z'
loop_
 _atom_site_type_symbol
 _atom_site_label
 _atom_site_symmetry_multiplicity
 _atom_site_fract_x
 _atom_site_fract_y
 _atom_site_fract_z
 _atom_site_occupancy
  Rb  Rb0  1  0.489175  0.489175  0.489175  1
  Rb  Rb1  1  0.739175  0.760825  0.239175  1
  Rb  Rb2  1  0.760825  0.239175  0.739175  1
  Rb  Rb3  1  0.239175  0.739175  0.760825  1
  Rb  Rb4  1  0.989175  0.010825  0.510825  1
  Rb  Rb5  1  0.010825  0.510825  0.989175  1
  Rb  Rb6  1  0.510825  0.989175  0.010825  1
  Rb  Rb7  1  0.260825  0.260825  0.260825  1
  Rb  Rb8  1  0.375000  0.625000  0.125000  1
  Rb  Rb9  1  0.625000  0.125000  0.375000  1
  Rb  Rb10  1  0.125000  0.375000  0.625000  1
  Rb  Rb11  1  0.875000  0.875000  0.875000  1
  P  P12  1  0.179628  0.952994  0.041974  1
  P  P13  1  0.679628  0.547006  0.958026  1
  P  P14  1  0.952994  0.041974  0.179628  1
  P  P15  1  0.047006  0.541974  0.320372  1
  P  P16  1  0.041974  0.179628  0.952994  1
  P  P17  1  0.458026  0.820372  0.452994  1
  P  P18  1  0.929628  0.291974  0.297006  1
  P  P19  1  0.429628  0.208026  0.702994  1
  P  P20  1  0.070372  0.791974  0.202994  1
  P  P21  1  0.208026  0.702994  0.429628  1
  P  P22  1  0.202994  0.070372  0.791974  1
  P  P23  1  0.702994  0.429628  0.208026  1
  P  P24  1  0.291974  0.297006  0.929628  1
  P  P25  1  0.297006  0.929628  0.291974  1
  P  P26  1  0.791974  0.202994  0.070372  1
  P  P27  1  0.708026  0.797006  0.570372  1
  P  P28  1  0.797006  0.570372  0.708026  1
  P  P29  1  0.958026  0.679628  0.547006  1
  P  P30  1  0.541974  0.320372  0.047006  1
  P  P31  1  0.452994  0.458026  0.820372  1
  P  P32  1  0.547006  0.958026  0.679628  1
  P  P33  1  0.320372  0.047006  0.541974  1
  P  P34  1  0.820372  0.452994  0.458026  1
  P  P35  1  0.570372  0.708026  0.797006  1
  N  N36  1  0.051809  0.051809  0.051809  1
  N  N37  1  0.301809  0.198191  0.801809  1
  N  N38  1  0.198191  0.801809  0.301809  1
  N  N39  1  0.801809  0.301809  0.198191  1
  N  N40  1  0.551809  0.448191  0.948191  1
  N  N41  1  0.448191  0.948191  0.551809  1
  N  N42  1  0.948191  0.551809  0.448191  1
  N  N43  1  0.698191  0.698191  0.698191  1
  N  N44  1  0.125000  0.809425  0.059425  1
  N  N45  1  0.190575  0.559425  0.375000  1
  N  N46  1  0.059425  0.125000  0.809425  1
  N  N47  1  0.440575  0.875000  0.309425  1
  N  N48  1  0.809425  0.059425  0.125000  1
  N  N49  1  0.940575  0.625000  0.690575  1
  N  N50  1  0.559425  0.375000  0.190575  1
  N  N51  1  0.309425  0.440575  0.875000  1
  N  N52  1  0.690575  0.940575  0.625000  1
  N  N53  1  0.375000  0.190575  0.559425  1
  N  N54  1  0.875000  0.309425  0.440575  1
  N  N55  1  0.777028  0.510932  0.845212  1
  N  N56  1  0.625000  0.690575  0.940575  1
  N  N57  1  0.739068  0.527028  0.095212  1
  N  N58  1  0.972972  0.904788  0.239068  1
  N  N59  1  0.027028  0.404788  0.260932  1
  N  N60  1  0.904788  0.239068  0.972972  1
  N  N61  1  0.595212  0.760932  0.472972  1
  N  N62  1  0.989068  0.154788  0.277028  1
  N  N63  1  0.489068  0.345212  0.722972  1
  N  N64  1  0.010932  0.654788  0.222972  1
  N  N65  1  0.345212  0.722972  0.489068  1
  N  N66  1  0.222972  0.010932  0.654788  1
  N  N67  1  0.722972  0.489068  0.345212  1
  N  N68  1  0.154788  0.277028  0.989068  1
  N  N69  1  0.277028  0.989068  0.154788  1
  N  N70  1  0.654788  0.222972  0.010932  1
  N  N71  1  0.845212  0.777028  0.510932  1
  N  N72  1  0.510932  0.845212  0.777028  1
  N  N73  1  0.760932  0.472972  0.595212  1
  N  N74  1  0.260932  0.027028  0.404788  1
  N  N75  1  0.527028  0.095212  0.739068  1
  N  N76  1  0.472972  0.595212  0.760932  1
  N  N77  1  0.404788  0.260932  0.027028  1
  N  N78  1  0.095212  0.739068  0.527028  1
  N  N79  1  0.239068  0.972972  0.904788  1
