# generated using pymatgen
data_Na2PtSe2
_symmetry_space_group_name_H-M   'P 1'
_cell_length_a   5.75838256
_cell_length_b   5.75838256
_cell_length_c   11.45483782
_cell_angle_alpha   90.00000000
_cell_angle_beta   90.00000000
_cell_angle_gamma   141.98936817
_symmetry_Int_Tables_number   1
_chemical_formula_structural   Na2PtSe2
_chemical_formula_sum   'Na4 Pt2 Se4'
_cell_volume   233.90261595
_cell_formula_units_Z   2
loop_
 _symmetry_equiv_pos_site_id
 _symmetry_equiv_pos_as_xyz
  1  'x, y, z'
loop_
 _atom_site_type_symbol
 _atom_site_label
 _atom_site_symmetry_multiplicity
 _atom_site_fract_x
 _atom_site_fract_y
 _atom_site_fract_z
 _atom_site_occupancy
  Na  Na0  1  0.563483  0.436517  0.869185  1
  Na  Na1  1  0.436517  0.563483  0.369185  1
  Na  Na2  1  0.174753  0.825247  0.599357  1
  Na  Na3  1  0.825247  0.174753  0.099357  1
  Pt  Pt4  1  0.864030  0.135970  0.751157  1
  Pt  Pt5  1  0.135970  0.864030  0.251157  1
  Se  Se6  1  0.447725  0.552275  0.630555  1
  Se  Se7  1  0.552275  0.447725  0.130555  1
  Se  Se8  1  0.280602  0.719398  0.872045  1
  Se  Se9  1  0.719398  0.280602  0.372045  1
