# generated using pymatgen
data_LiCaPO4
_symmetry_space_group_name_H-M   'P 1'
_cell_length_a   7.66702482
_cell_length_b   7.66702482
_cell_length_c   10.05235277
_cell_angle_alpha   90.00000000
_cell_angle_beta   90.00000000
_cell_angle_gamma   120.00000000
_symmetry_Int_Tables_number   1
_chemical_formula_structural   LiCaPO4
_chemical_formula_sum   'Li6 Ca6 P6 O24'
_cell_volume   511.74321268
_cell_formula_units_Z   6
loop_
 _symmetry_equiv_pos_site_id
 _symmetry_equiv_pos_as_xyz
  1  'x, y, z'
loop_
 _atom_site_type_symbol
 _atom_site_label
 _atom_site_symmetry_multiplicity
 _atom_site_fract_x
 _atom_site_fract_y
 _atom_site_fract_z
 _atom_site_occupancy
  Li  Li0  1  0.039945  0.237630  0.256310  1
  Li  Li1  1  0.762370  0.802315  0.256310  1
  Li  Li2  1  0.197685  0.960055  0.256310  1
  Li  Li3  1  0.237630  0.039945  0.756310  1
  Li  Li4  1  0.802315  0.762370  0.756310  1
  Li  Li5  1  0.960055  0.197685  0.756310  1
  Ca  Ca6  1  0.019481  0.541667  0.485354  1
  Ca  Ca7  1  0.980519  0.522186  0.985354  1
  Ca  Ca8  1  0.477814  0.458333  0.985354  1
  Ca  Ca9  1  0.541667  0.019481  0.985354  1
  Ca  Ca10  1  0.522186  0.980519  0.485354  1
  Ca  Ca11  1  0.458333  0.477814  0.485354  1
  P  P12  1  0.000000  0.000000  0.999648  1
  P  P13  1  0.333333  0.666667  0.757204  1
  P  P14  1  0.666667  0.333333  0.257204  1
  P  P15  1  0.666667  0.333333  0.685884  1
  P  P16  1  0.333333  0.666667  0.185884  1
  P  P17  1  0.000000  0.000000  0.499648  1
  O  O18  1  0.767444  0.550752  0.628124  1
  O  O19  1  0.523084  0.666106  0.807627  1
  O  O20  1  0.333894  0.856979  0.807627  1
  O  O21  1  0.143021  0.476916  0.807627  1
  O  O22  1  0.666106  0.523084  0.307627  1
  O  O23  1  0.856979  0.333894  0.307627  1
  O  O24  1  0.476916  0.143021  0.307627  1
  O  O25  1  0.783308  0.232556  0.628124  1
  O  O26  1  0.666667  0.333333  0.840216  1
  O  O27  1  0.449248  0.216692  0.628124  1
  O  O28  1  0.232556  0.783308  0.128124  1
  O  O29  1  0.550752  0.767444  0.128124  1
  O  O30  1  0.000000  0.000000  0.154818  1
  O  O31  1  0.000000  0.000000  0.654818  1
  O  O32  1  0.333333  0.666667  0.340216  1
  O  O33  1  0.221061  0.125062  0.945656  1
  O  O34  1  0.666667  0.333333  0.101219  1
  O  O35  1  0.333333  0.666667  0.601219  1
  O  O36  1  0.778939  0.904001  0.445656  1
  O  O37  1  0.874938  0.095999  0.945656  1
  O  O38  1  0.904001  0.778939  0.945656  1
  O  O39  1  0.125062  0.221061  0.445656  1
  O  O40  1  0.095999  0.874938  0.445656  1
  O  O41  1  0.216692  0.449248  0.128124  1
