# generated using pymatgen
data_SiS2
_symmetry_space_group_name_H-M   'P 1'
_cell_length_a   6.87759310
_cell_length_b   6.87759310
_cell_length_c   6.87759310
_cell_angle_alpha   132.08739620
_cell_angle_beta   126.28458134
_cell_angle_gamma   74.80768967
_symmetry_Int_Tables_number   1
_chemical_formula_structural   SiS2
_chemical_formula_sum   'Si2 S4'
_cell_volume   189.62100456
_cell_formula_units_Z   2
loop_
 _symmetry_equiv_pos_site_id
 _symmetry_equiv_pos_as_xyz
  1  'x, y, z'
loop_
 _atom_site_type_symbol
 _atom_site_label
 _atom_site_symmetry_multiplicity
 _atom_site_fract_x
 _atom_site_fract_y
 _atom_site_fract_z
 _atom_site_occupancy
  Si  Si0  1  1.000000  0.750000  0.750000  1
  Si  Si1  1  0.000000  0.250000  0.250000  1
  S  S2  1  0.708947  0.894547  0.814399  1
  S  S3  1  0.291053  0.105453  0.185601  1
  S  S4  1  0.919852  0.605453  0.314399  1
  S  S5  1  0.080148  0.394547  0.685601  1
