# generated using pymatgen
data_SmCuSe2
_symmetry_space_group_name_H-M   'P 1'
_cell_length_a   6.68792834
_cell_length_b   7.43832560
_cell_length_c   7.17178321
_cell_angle_alpha   90.00000000
_cell_angle_beta   96.31049610
_cell_angle_gamma   90.00000000
_symmetry_Int_Tables_number   1
_chemical_formula_structural   SmCuSe2
_chemical_formula_sum   'Sm4 Cu4 Se8'
_cell_volume   354.61286168
_cell_formula_units_Z   4
loop_
 _symmetry_equiv_pos_site_id
 _symmetry_equiv_pos_as_xyz
  1  'x, y, z'
loop_
 _atom_site_type_symbol
 _atom_site_label
 _atom_site_symmetry_multiplicity
 _atom_site_fract_x
 _atom_site_fract_y
 _atom_site_fract_z
 _atom_site_occupancy
  Sm  Sm0  1  0.305560  0.543674  0.700894  1
  Sm  Sm1  1  0.694440  0.043674  0.799106  1
  Sm  Sm2  1  0.694440  0.456326  0.299106  1
  Sm  Sm3  1  0.305560  0.956326  0.200894  1
  Cu  Cu4  1  0.929024  0.840122  0.454527  1
  Cu  Cu5  1  0.070976  0.159878  0.545473  1
  Cu  Cu6  1  0.929024  0.659878  0.954527  1
  Cu  Cu7  1  0.070976  0.340122  0.045473  1
  Se  Se8  1  0.576997  0.723839  0.997699  1
  Se  Se9  1  0.576997  0.776161  0.497699  1
  Se  Se10  1  0.423003  0.223839  0.502301  1
  Se  Se11  1  0.423003  0.276161  0.002301  1
  Se  Se12  1  0.098788  0.612059  0.280208  1
  Se  Se13  1  0.901212  0.112059  0.219792  1
  Se  Se14  1  0.901212  0.387941  0.719792  1
  Se  Se15  1  0.098788  0.887941  0.780208  1
