# generated using pymatgen
data_Sr3Y2(GeO4)3
_symmetry_space_group_name_H-M   'P 1'
_cell_length_a   11.48305134
_cell_length_b   11.48305134
_cell_length_c   11.48305134
_cell_angle_alpha   109.47122063
_cell_angle_beta   109.47122063
_cell_angle_gamma   109.47122063
_symmetry_Int_Tables_number   1
_chemical_formula_structural   Sr3Y2(GeO4)3
_chemical_formula_sum   'Sr12 Y8 Ge12 O48'
_cell_volume   1165.60131580
_cell_formula_units_Z   4
loop_
 _symmetry_equiv_pos_site_id
 _symmetry_equiv_pos_as_xyz
  1  'x, y, z'
loop_
 _atom_site_type_symbol
 _atom_site_label
 _atom_site_symmetry_multiplicity
 _atom_site_fract_x
 _atom_site_fract_y
 _atom_site_fract_z
 _atom_site_occupancy
  Sr  Sr0  1  0.375000  0.750000  0.125000  1
  Sr  Sr1  1  0.125000  0.250000  0.375000  1
  Sr  Sr2  1  0.375000  0.125000  0.250000  1
  Sr  Sr3  1  0.125000  0.375000  0.750000  1
  Sr  Sr4  1  0.875000  0.750000  0.625000  1
  Sr  Sr5  1  0.750000  0.125000  0.375000  1
  Sr  Sr6  1  0.750000  0.625000  0.875000  1
  Sr  Sr7  1  0.625000  0.250000  0.875000  1
  Sr  Sr8  1  0.250000  0.875000  0.625000  1
  Sr  Sr9  1  0.875000  0.625000  0.250000  1
  Sr  Sr10  1  0.625000  0.875000  0.750000  1
  Sr  Sr11  1  0.250000  0.375000  0.125000  1
  Y  Y12  1  0.000000  0.000000  0.000000  1
  Y  Y13  1  0.000000  0.500000  0.000000  1
  Y  Y14  1  0.000000  0.000000  0.500000  1
  Y  Y15  1  1.000000  0.500000  0.500000  1
  Y  Y16  1  0.500000  0.000000  0.500000  1
  Y  Y17  1  0.500000  0.500000  0.000000  1
  Y  Y18  1  0.500000  0.500000  0.500000  1
  Y  Y19  1  0.500000  0.000000  0.000000  1
  Ge  Ge20  1  0.250000  0.125000  0.875000  1
  Ge  Ge21  1  0.750000  0.875000  0.125000  1
  Ge  Ge22  1  0.375000  0.250000  0.625000  1
  Ge  Ge23  1  0.625000  0.375000  0.250000  1
  Ge  Ge24  1  0.125000  0.750000  0.875000  1
  Ge  Ge25  1  0.875000  0.125000  0.750000  1
  Ge  Ge26  1  0.750000  0.375000  0.625000  1
  Ge  Ge27  1  0.375000  0.625000  0.750000  1
  Ge  Ge28  1  0.125000  0.875000  0.250000  1
  Ge  Ge29  1  0.875000  0.250000  0.125000  1
  Ge  Ge30  1  0.625000  0.750000  0.375000  1
  Ge  Ge31  1  0.250000  0.625000  0.375000  1
  O  O32  1  0.789800  0.409757  0.802187  1
  O  O33  1  0.090243  0.880043  0.392430  1
  O  O34  1  0.697813  0.107570  0.987613  1
  O  O35  1  0.710200  0.512387  0.619957  1
  O  O36  1  0.710200  0.697813  0.090243  1
  O  O37  1  0.512387  0.619957  0.710200  1
  O  O38  1  0.107570  0.619957  0.409757  1
  O  O39  1  0.619957  0.710200  0.512387  1
  O  O40  1  0.392430  0.802187  0.512387  1
  O  O41  1  0.880043  0.987613  0.789800  1
  O  O42  1  0.987613  0.789800  0.880043  1
  O  O43  1  0.090243  0.710200  0.697813  1
  O  O44  1  0.619957  0.409757  0.107570  1
  O  O45  1  0.512387  0.392430  0.802187  1
  O  O46  1  0.697813  0.090243  0.710200  1
  O  O47  1  0.409757  0.107570  0.619957  1
  O  O48  1  0.802187  0.512387  0.392430  1
  O  O49  1  0.392430  0.090243  0.880043  1
  O  O50  1  0.107570  0.987613  0.697813  1
  O  O51  1  0.607570  0.197813  0.487613  1
  O  O52  1  0.987613  0.697813  0.107570  1
  O  O53  1  0.802187  0.789800  0.409757  1
  O  O54  1  0.880043  0.392430  0.090243  1
  O  O55  1  0.789800  0.880043  0.987613  1
  O  O56  1  0.210200  0.590243  0.197813  1
  O  O57  1  0.909757  0.119957  0.607570  1
  O  O58  1  0.302187  0.892430  0.012387  1
  O  O59  1  0.289800  0.487613  0.380043  1
  O  O60  1  0.289800  0.302187  0.909757  1
  O  O61  1  0.487613  0.380043  0.289800  1
  O  O62  1  0.892430  0.380043  0.590243  1
  O  O63  1  0.380043  0.289800  0.487613  1
  O  O64  1  0.210200  0.119957  0.012387  1
  O  O65  1  0.119957  0.607570  0.909757  1
  O  O66  1  0.197813  0.210200  0.590243  1
  O  O67  1  0.590243  0.197813  0.210200  1
  O  O68  1  0.012387  0.302187  0.892430  1
  O  O69  1  0.892430  0.012387  0.302187  1
  O  O70  1  0.607570  0.909757  0.119957  1
  O  O71  1  0.197813  0.487613  0.607570  1
  O  O72  1  0.590243  0.892430  0.380043  1
  O  O73  1  0.302187  0.909757  0.289800  1
  O  O74  1  0.487613  0.607570  0.197813  1
  O  O75  1  0.380043  0.590243  0.892430  1
  O  O76  1  0.909757  0.289800  0.302187  1
  O  O77  1  0.012387  0.210200  0.119957  1
  O  O78  1  0.119957  0.012387  0.210200  1
  O  O79  1  0.409757  0.802187  0.789800  1
