# generated using pymatgen
data_TaTlSe3
_symmetry_space_group_name_H-M   'P 1'
_cell_length_a   3.65071270
_cell_length_b   9.84224267
_cell_length_c   15.34572550
_cell_angle_alpha   90.00000000
_cell_angle_beta   90.00000000
_cell_angle_gamma   90.00000000
_symmetry_Int_Tables_number   1
_chemical_formula_structural   TaTlSe3
_chemical_formula_sum   'Ta4 Tl4 Se12'
_cell_volume   551.39033687
_cell_formula_units_Z   4
loop_
 _symmetry_equiv_pos_site_id
 _symmetry_equiv_pos_as_xyz
  1  'x, y, z'
loop_
 _atom_site_type_symbol
 _atom_site_label
 _atom_site_symmetry_multiplicity
 _atom_site_fract_x
 _atom_site_fract_y
 _atom_site_fract_z
 _atom_site_occupancy
  Ta  Ta0  1  0.250000  0.658296  0.072012  1
  Ta  Ta1  1  0.750000  0.341704  0.927988  1
  Ta  Ta2  1  0.250000  0.158296  0.427988  1
  Ta  Ta3  1  0.750000  0.841704  0.572012  1
  Tl  Tl4  1  0.750000  0.499128  0.328024  1
  Tl  Tl5  1  0.250000  0.500872  0.671976  1
  Tl  Tl6  1  0.750000  0.999128  0.171976  1
  Tl  Tl7  1  0.250000  0.000872  0.828024  1
  Se  Se8  1  0.250000  0.528846  0.903549  1
  Se  Se9  1  0.750000  0.471154  0.096451  1
  Se  Se10  1  0.250000  0.028846  0.596451  1
  Se  Se11  1  0.750000  0.971154  0.403549  1
  Se  Se12  1  0.250000  0.743777  0.218545  1
  Se  Se13  1  0.750000  0.256223  0.781455  1
  Se  Se14  1  0.250000  0.243777  0.281455  1
  Se  Se15  1  0.750000  0.756223  0.718545  1
  Se  Se16  1  0.250000  0.688944  0.502178  1
  Se  Se17  1  0.750000  0.311056  0.497822  1
  Se  Se18  1  0.250000  0.188944  0.997822  1
  Se  Se19  1  0.750000  0.811056  0.002178  1
