# generated using pymatgen
data_NdBO3
_symmetry_space_group_name_H-M   'P 1'
_cell_length_a   6.39361048
_cell_length_b   6.59700326
_cell_length_c   6.60351908
_cell_angle_alpha   93.56040890
_cell_angle_beta   105.65309556
_cell_angle_gamma   106.82439447
_symmetry_Int_Tables_number   1
_chemical_formula_structural   NdBO3
_chemical_formula_sum   'Nd4 B4 O12'
_cell_volume   253.73092549
_cell_formula_units_Z   4
loop_
 _symmetry_equiv_pos_site_id
 _symmetry_equiv_pos_as_xyz
  1  'x, y, z'
loop_
 _atom_site_type_symbol
 _atom_site_label
 _atom_site_symmetry_multiplicity
 _atom_site_fract_x
 _atom_site_fract_y
 _atom_site_fract_z
 _atom_site_occupancy
  Nd  Nd0  1  0.442061  0.809860  0.221156  1
  Nd  Nd1  1  0.557939  0.190140  0.778844  1
  Nd  Nd2  1  0.046959  0.264106  0.331494  1
  Nd  Nd3  1  0.953041  0.735894  0.668506  1
  B  B4  1  0.480715  0.271576  0.266410  1
  B  B5  1  0.519285  0.728424  0.733590  1
  B  B6  1  0.983804  0.758834  0.221001  1
  B  B7  1  0.016196  0.241166  0.778999  1
  O  O8  1  0.574465  0.544271  0.750524  1
  O  O9  1  0.425535  0.455729  0.249476  1
  O  O10  1  0.149595  0.134251  0.713130  1
  O  O11  1  0.850405  0.865749  0.286870  1
  O  O12  1  0.383058  0.797720  0.835839  1
  O  O13  1  0.616942  0.202280  0.164161  1
  O  O14  1  0.045269  0.776486  0.038364  1
  O  O15  1  0.954731  0.223514  0.961636  1
  O  O16  1  0.624724  0.871069  0.613388  1
  O  O17  1  0.375276  0.128931  0.386612  1
  O  O18  1  0.910658  0.355283  0.633575  1
  O  O19  1  0.089342  0.644717  0.366425  1
