# generated using pymatgen
data_VCrO4
_symmetry_space_group_name_H-M   'P 1'
_cell_length_a   5.07948963
_cell_length_b   5.07948963
_cell_length_c   6.19175109
_cell_angle_alpha   90.00000000
_cell_angle_beta   90.00000000
_cell_angle_gamma   112.49208966
_symmetry_Int_Tables_number   1
_chemical_formula_structural   VCrO4
_chemical_formula_sum   'V2 Cr2 O8'
_cell_volume   147.60253697
_cell_formula_units_Z   2
loop_
 _symmetry_equiv_pos_site_id
 _symmetry_equiv_pos_as_xyz
  1  'x, y, z'
loop_
 _atom_site_type_symbol
 _atom_site_label
 _atom_site_symmetry_multiplicity
 _atom_site_fract_x
 _atom_site_fract_y
 _atom_site_fract_z
 _atom_site_occupancy
  V  V0  1  0.354917  0.645083  0.750000  1
  V  V1  1  0.645083  0.354917  0.250000  1
  Cr  Cr2  1  0.000000  0.000000  0.500000  1
  Cr  Cr3  1  0.000000  0.000000  0.000000  1
  O  O4  1  0.789888  0.742901  0.250000  1
  O  O5  1  0.210112  0.257099  0.750000  1
  O  O6  1  0.742901  0.789888  0.750000  1
  O  O7  1  0.257099  0.210112  0.250000  1
  O  O8  1  0.765107  0.234893  0.032236  1
  O  O9  1  0.234893  0.765107  0.532236  1
  O  O10  1  0.234893  0.765107  0.967764  1
  O  O11  1  0.765107  0.234893  0.467764  1
