# generated using pymatgen
data_CdSnF6
_symmetry_space_group_name_H-M   'P 1'
_cell_length_a   5.90733128
_cell_length_b   5.90733128
_cell_length_c   5.90733128
_cell_angle_alpha   55.73108559
_cell_angle_beta   55.73108559
_cell_angle_gamma   55.73108559
_symmetry_Int_Tables_number   1
_chemical_formula_structural   CdSnF6
_chemical_formula_sum   'Cd1 Sn1 F6'
_cell_volume   131.33353638
_cell_formula_units_Z   1
loop_
 _symmetry_equiv_pos_site_id
 _symmetry_equiv_pos_as_xyz
  1  'x, y, z'
loop_
 _atom_site_type_symbol
 _atom_site_label
 _atom_site_symmetry_multiplicity
 _atom_site_fract_x
 _atom_site_fract_y
 _atom_site_fract_z
 _atom_site_occupancy
  Cd  Cd0  1  0.500000  0.500000  0.500000  1
  Sn  Sn1  1  0.000000  0.000000  0.000000  1
  F  F2  1  0.109679  0.356641  0.767356  1
  F  F3  1  0.356641  0.767356  0.109679  1
  F  F4  1  0.232644  0.890321  0.643359  1
  F  F5  1  0.643359  0.232644  0.890321  1
  F  F6  1  0.890321  0.643359  0.232644  1
  F  F7  1  0.767356  0.109679  0.356641  1
