# generated using pymatgen
data_Zr3Tl2OF12
_symmetry_space_group_name_H-M   'P 1'
_cell_length_a   11.13369622
_cell_length_b   11.13369622
_cell_length_c   11.13369622
_cell_angle_alpha   41.36660385
_cell_angle_beta   41.36660385
_cell_angle_gamma   41.36660385
_symmetry_Int_Tables_number   1
_chemical_formula_structural   Zr3Tl2OF12
_chemical_formula_sum   'Zr6 Tl4 O2 F24'
_cell_volume   544.56676841
_cell_formula_units_Z   2
loop_
 _symmetry_equiv_pos_site_id
 _symmetry_equiv_pos_as_xyz
  1  'x, y, z'
loop_
 _atom_site_type_symbol
 _atom_site_label
 _atom_site_symmetry_multiplicity
 _atom_site_fract_x
 _atom_site_fract_y
 _atom_site_fract_z
 _atom_site_occupancy
  Zr  Zr0  1  0.575664  0.029123  0.575664  1
  Zr  Zr1  1  0.029123  0.575664  0.575664  1
  Zr  Zr2  1  0.575664  0.575664  0.029123  1
  Zr  Zr3  1  0.424336  0.424336  0.970877  1
  Zr  Zr4  1  0.424336  0.970877  0.424336  1
  Zr  Zr5  1  0.970877  0.424336  0.424336  1
  Tl  Tl6  1  0.140037  0.140037  0.140037  1
  Tl  Tl7  1  0.859963  0.859963  0.859963  1
  Tl  Tl8  1  0.500000  0.500000  0.500000  1
  Tl  Tl9  1  0.000000  0.000000  0.000000  1
  O  O10  1  0.286851  0.286851  0.286851  1
  O  O11  1  0.713149  0.713149  0.713149  1
  F  F12  1  0.292846  0.628254  0.292846  1
  F  F13  1  0.628254  0.292846  0.292846  1
  F  F14  1  0.292846  0.292846  0.628254  1
  F  F15  1  0.707154  0.707154  0.371746  1
  F  F16  1  0.707154  0.371746  0.707154  1
  F  F17  1  0.371746  0.707154  0.707154  1
  F  F18  1  0.090486  0.595830  0.090486  1
  F  F19  1  0.595830  0.090486  0.090486  1
  F  F20  1  0.352632  0.000000  0.647368  1
  F  F21  1  0.647368  0.352632  0.000000  1
  F  F22  1  0.000000  0.647368  0.352632  1
  F  F23  1  0.647368  0.000000  0.352632  1
  F  F24  1  0.352632  0.647368  0.000000  1
  F  F25  1  0.000000  0.352632  0.647368  1
  F  F26  1  0.083061  0.648341  0.648341  1
  F  F27  1  0.648341  0.083061  0.648341  1
  F  F28  1  0.648341  0.648341  0.083061  1
  F  F29  1  0.351659  0.351659  0.916939  1
  F  F30  1  0.916939  0.351659  0.351659  1
  F  F31  1  0.351659  0.916939  0.351659  1
  F  F32  1  0.404170  0.909514  0.909514  1
  F  F33  1  0.909514  0.404170  0.909514  1
  F  F34  1  0.909514  0.909514  0.404170  1
  F  F35  1  0.090486  0.090486  0.595830  1
