# generated using pymatgen
data_BaV4O9
_symmetry_space_group_name_H-M   'P 1'
_cell_length_a   7.91066014
_cell_length_b   5.09013396
_cell_length_c   9.58032365
_cell_angle_alpha   90.00000000
_cell_angle_beta   111.60190894
_cell_angle_gamma   90.00000000
_symmetry_Int_Tables_number   1
_chemical_formula_structural   BaV4O9
_chemical_formula_sum   'Ba2 V8 O18'
_cell_volume   358.66991427
_cell_formula_units_Z   2
loop_
 _symmetry_equiv_pos_site_id
 _symmetry_equiv_pos_as_xyz
  1  'x, y, z'
loop_
 _atom_site_type_symbol
 _atom_site_label
 _atom_site_symmetry_multiplicity
 _atom_site_fract_x
 _atom_site_fract_y
 _atom_site_fract_z
 _atom_site_occupancy
  Ba  Ba0  1  0.000000  0.329779  0.750000  1
  Ba  Ba1  1  0.000000  0.670221  0.250000  1
  V  V2  1  0.692895  0.742421  0.846883  1
  V  V3  1  0.307105  0.742421  0.653117  1
  V  V4  1  0.307105  0.257579  0.153117  1
  V  V5  1  0.692895  0.257579  0.346883  1
  V  V6  1  0.551877  0.243160  0.944897  1
  V  V7  1  0.448123  0.243160  0.555103  1
  V  V8  1  0.448123  0.756840  0.055103  1
  V  V9  1  0.551877  0.756840  0.444897  1
  O  O10  1  0.500000  0.024309  0.750000  1
  O  O11  1  0.500000  0.975691  0.250000  1
  O  O12  1  0.674190  0.903002  0.025198  1
  O  O13  1  0.325810  0.903002  0.474802  1
  O  O14  1  0.325810  0.096998  0.974802  1
  O  O15  1  0.674190  0.096998  0.525198  1
  O  O16  1  0.587522  0.422457  0.149097  1
  O  O17  1  0.412478  0.422457  0.350903  1
  O  O18  1  0.412478  0.577543  0.850903  1
  O  O19  1  0.587522  0.577543  0.649097  1
  O  O20  1  0.881347  0.126760  0.339452  1
  O  O21  1  0.118653  0.126760  0.160548  1
  O  O22  1  0.118653  0.873240  0.660548  1
  O  O23  1  0.881347  0.873240  0.839452  1
  O  O24  1  0.769742  0.565038  0.435440  1
  O  O25  1  0.230258  0.565038  0.064560  1
  O  O26  1  0.230258  0.434962  0.564560  1
  O  O27  1  0.769742  0.434962  0.935440  1
