# generated using pymatgen
data_Ba3Ti3(BO6)2
_symmetry_space_group_name_H-M   'P 1'
_cell_length_a   8.88921484
_cell_length_b   8.88921484
_cell_length_c   3.85725145
_cell_angle_alpha   90.00000000
_cell_angle_beta   90.00000000
_cell_angle_gamma   120.00000000
_symmetry_Int_Tables_number   1
_chemical_formula_structural   Ba3Ti3(BO6)2
_chemical_formula_sum   'Ba3 Ti3 B2 O12'
_cell_volume   263.95833963
_cell_formula_units_Z   1
loop_
 _symmetry_equiv_pos_site_id
 _symmetry_equiv_pos_as_xyz
  1  'x, y, z'
loop_
 _atom_site_type_symbol
 _atom_site_label
 _atom_site_symmetry_multiplicity
 _atom_site_fract_x
 _atom_site_fract_y
 _atom_site_fract_z
 _atom_site_occupancy
  Ba  Ba0  1  0.404285  0.404285  0.500000  1
  Ba  Ba1  1  0.595715  0.000000  0.500000  1
  Ba  Ba2  1  0.000000  0.595715  0.500000  1
  Ti  Ti3  1  0.765416  0.765416  0.000000  1
  Ti  Ti4  1  0.234584  0.000000  0.000000  1
  Ti  Ti5  1  0.000000  0.234584  0.000000  1
  B  B6  1  0.666667  0.333333  0.000000  1
  B  B7  1  0.333333  0.666667  0.000000  1
  O  O8  1  0.185094  0.505657  0.000000  1
  O  O9  1  0.505657  0.185094  0.000000  1
  O  O10  1  0.814906  0.320563  0.000000  1
  O  O11  1  0.679437  0.494343  0.000000  1
  O  O12  1  0.494343  0.679437  0.000000  1
  O  O13  1  0.320563  0.814906  0.000000  1
  O  O14  1  0.000000  0.263550  0.500000  1
  O  O15  1  0.263550  0.000000  0.500000  1
  O  O16  1  0.736450  0.736450  0.500000  1
  O  O17  1  0.000000  0.815406  0.000000  1
  O  O18  1  0.815406  0.000000  0.000000  1
  O  O19  1  0.184594  0.184594  0.000000  1
