# generated using pymatgen
data_KBaPSe4
_symmetry_space_group_name_H-M   'P 1'
_cell_length_a   7.12018526
_cell_length_b   10.31586364
_cell_length_c   12.71452349
_cell_angle_alpha   90.00000000
_cell_angle_beta   90.00000000
_cell_angle_gamma   90.00000000
_symmetry_Int_Tables_number   1
_chemical_formula_structural   KBaPSe4
_chemical_formula_sum   'K4 Ba4 P4 Se16'
_cell_volume   933.89268780
_cell_formula_units_Z   4
loop_
 _symmetry_equiv_pos_site_id
 _symmetry_equiv_pos_as_xyz
  1  'x, y, z'
loop_
 _atom_site_type_symbol
 _atom_site_label
 _atom_site_symmetry_multiplicity
 _atom_site_fract_x
 _atom_site_fract_y
 _atom_site_fract_z
 _atom_site_occupancy
  K  K0  1  0.250000  0.333376  0.130418  1
  K  K1  1  0.750000  0.666624  0.869582  1
  K  K2  1  0.750000  0.833376  0.369582  1
  K  K3  1  0.250000  0.166624  0.630418  1
  Ba  Ba4  1  0.250000  0.619326  0.642091  1
  Ba  Ba5  1  0.750000  0.380674  0.357909  1
  Ba  Ba6  1  0.750000  0.119326  0.857909  1
  Ba  Ba7  1  0.250000  0.880674  0.142091  1
  P  P8  1  0.250000  0.604351  0.326460  1
  P  P9  1  0.750000  0.395649  0.673540  1
  P  P10  1  0.750000  0.104351  0.173540  1
  P  P11  1  0.250000  0.895649  0.826460  1
  Se  Se12  1  0.250000  0.075695  0.923780  1
  Se  Se13  1  0.750000  0.924305  0.076220  1
  Se  Se14  1  0.750000  0.575695  0.576220  1
  Se  Se15  1  0.250000  0.424305  0.423780  1
  Se  Se16  1  0.250000  0.786790  0.419493  1
  Se  Se17  1  0.750000  0.213210  0.580507  1
  Se  Se18  1  0.750000  0.286790  0.080507  1
  Se  Se19  1  0.250000  0.713210  0.919493  1
  Se  Se20  1  0.001359  0.105974  0.277029  1
  Se  Se21  1  0.501359  0.894026  0.722971  1
  Se  Se22  1  0.998641  0.605974  0.222971  1
  Se  Se23  1  0.498641  0.394026  0.777029  1
  Se  Se24  1  0.998641  0.894026  0.722971  1
  Se  Se25  1  0.498641  0.105974  0.277029  1
  Se  Se26  1  0.001359  0.394026  0.777029  1
  Se  Se27  1  0.501359  0.605974  0.222971  1
