# generated using pymatgen
data_Ba3AlSb3
_symmetry_space_group_name_H-M   'P 1'
_cell_length_a   11.30205444
_cell_length_b   11.30205444
_cell_length_c   14.27142818
_cell_angle_alpha   90.00000000
_cell_angle_beta   90.00000000
_cell_angle_gamma   142.42114475
_symmetry_Int_Tables_number   1
_chemical_formula_structural   Ba3AlSb3
_chemical_formula_sum   'Ba12 Al4 Sb12'
_cell_volume   1111.75015636
_cell_formula_units_Z   4
loop_
 _symmetry_equiv_pos_site_id
 _symmetry_equiv_pos_as_xyz
  1  'x, y, z'
loop_
 _atom_site_type_symbol
 _atom_site_label
 _atom_site_symmetry_multiplicity
 _atom_site_fract_x
 _atom_site_fract_y
 _atom_site_fract_z
 _atom_site_occupancy
  Ba  Ba0  1  0.130092  0.479126  0.871147  1
  Ba  Ba1  1  0.979126  0.630092  0.628853  1
  Ba  Ba2  1  0.369908  0.020874  0.371147  1
  Ba  Ba3  1  0.520874  0.869908  0.128853  1
  Ba  Ba4  1  0.869908  0.520874  0.128853  1
  Ba  Ba5  1  0.020874  0.369908  0.371147  1
  Ba  Ba6  1  0.630092  0.979126  0.628853  1
  Ba  Ba7  1  0.479126  0.130092  0.871147  1
  Ba  Ba8  1  0.185631  0.185631  0.647192  1
  Ba  Ba9  1  0.685631  0.685631  0.852808  1
  Ba  Ba10  1  0.314369  0.314369  0.147192  1
  Ba  Ba11  1  0.814369  0.814369  0.352808  1
  Al  Al12  1  0.585181  0.414819  0.500000  1
  Al  Al13  1  0.914819  0.085181  0.000000  1
  Al  Al14  1  0.414819  0.585181  0.500000  1
  Al  Al15  1  0.085181  0.914819  1.000000  1
  Sb  Sb16  1  0.640679  0.958768  0.880150  1
  Sb  Sb17  1  0.458768  0.140679  0.619850  1
  Sb  Sb18  1  0.859321  0.541232  0.380150  1
  Sb  Sb19  1  0.041232  0.359321  0.119850  1
  Sb  Sb20  1  0.359321  0.041232  0.119850  1
  Sb  Sb21  1  0.541232  0.859321  0.380150  1
  Sb  Sb22  1  0.140679  0.458768  0.619850  1
  Sb  Sb23  1  0.958768  0.640679  0.880150  1
  Sb  Sb24  1  0.296357  0.296357  0.398303  1
  Sb  Sb25  1  0.796357  0.796357  0.101697  1
  Sb  Sb26  1  0.203643  0.203643  0.898303  1
  Sb  Sb27  1  0.703643  0.703643  0.601697  1
