# generated using pymatgen
data_Cu3SbS3
_symmetry_space_group_name_H-M   'P 1'
_cell_length_a   6.54146320
_cell_length_b   8.09905926
_cell_length_c   10.26864359
_cell_angle_alpha   90.00000000
_cell_angle_beta   90.00000000
_cell_angle_gamma   90.00000000
_symmetry_Int_Tables_number   1
_chemical_formula_structural   Cu3SbS3
_chemical_formula_sum   'Cu12 Sb4 S12'
_cell_volume   544.02963733
_cell_formula_units_Z   4
loop_
 _symmetry_equiv_pos_site_id
 _symmetry_equiv_pos_as_xyz
  1  'x, y, z'
loop_
 _atom_site_type_symbol
 _atom_site_label
 _atom_site_symmetry_multiplicity
 _atom_site_fract_x
 _atom_site_fract_y
 _atom_site_fract_z
 _atom_site_occupancy
  Cu  Cu0  1  0.987587  0.076195  0.466642  1
  Cu  Cu1  1  0.487587  0.423805  0.533358  1
  Cu  Cu2  1  0.512413  0.923805  0.966642  1
  Cu  Cu3  1  0.012413  0.576195  0.033358  1
  Cu  Cu4  1  0.129955  0.367796  0.412277  1
  Cu  Cu5  1  0.629955  0.132204  0.587723  1
  Cu  Cu6  1  0.870045  0.867796  0.087723  1
  Cu  Cu7  1  0.370045  0.632204  0.912277  1
  Cu  Cu8  1  0.054531  0.169109  0.094441  1
  Cu  Cu9  1  0.554531  0.330891  0.905559  1
  Cu  Cu10  1  0.945469  0.669109  0.405559  1
  Cu  Cu11  1  0.445469  0.830891  0.594441  1
  Sb  Sb12  1  0.886289  0.725291  0.736021  1
  Sb  Sb13  1  0.386289  0.774709  0.263979  1
  Sb  Sb14  1  0.113711  0.225291  0.763979  1
  Sb  Sb15  1  0.613711  0.274709  0.236021  1
  S  S16  1  0.602087  0.681952  0.073773  1
  S  S17  1  0.102087  0.818048  0.926227  1
  S  S18  1  0.897913  0.318048  0.573773  1
  S  S19  1  0.397913  0.181952  0.426227  1
  S  S20  1  0.874833  0.049727  0.254818  1
  S  S21  1  0.374833  0.450273  0.745182  1
  S  S22  1  0.125167  0.549727  0.245182  1
  S  S23  1  0.625167  0.950273  0.754818  1
  S  S24  1  0.397721  0.161698  0.054528  1
  S  S25  1  0.897721  0.338302  0.945472  1
  S  S26  1  0.602279  0.661698  0.445472  1
  S  S27  1  0.102279  0.838302  0.554528  1
