# generated using pymatgen
data_Na3AuS2
_symmetry_space_group_name_H-M   'P 1'
_cell_length_a   7.15171577
_cell_length_b   7.15171577
_cell_length_c   7.15171577
_cell_angle_alpha   65.32677231
_cell_angle_beta   65.32677231
_cell_angle_gamma   65.32677231
_symmetry_Int_Tables_number   1
_chemical_formula_structural   Na3AuS2
_chemical_formula_sum   'Na6 Au2 S4'
_cell_volume   288.65158931
_cell_formula_units_Z   2
loop_
 _symmetry_equiv_pos_site_id
 _symmetry_equiv_pos_as_xyz
  1  'x, y, z'
loop_
 _atom_site_type_symbol
 _atom_site_label
 _atom_site_symmetry_multiplicity
 _atom_site_fract_x
 _atom_site_fract_y
 _atom_site_fract_z
 _atom_site_occupancy
  Na  Na0  1  0.750000  0.034115  0.465885  1
  Na  Na1  1  0.465885  0.750000  0.034115  1
  Na  Na2  1  0.034115  0.465885  0.750000  1
  Na  Na3  1  0.250000  0.965885  0.534115  1
  Na  Na4  1  0.534115  0.250000  0.965885  1
  Na  Na5  1  0.965885  0.534115  0.250000  1
  Au  Au6  1  0.500000  0.500000  0.500000  1
  Au  Au7  1  0.000000  0.000000  0.000000  1
  S  S8  1  0.361257  0.361257  0.361257  1
  S  S9  1  0.138743  0.138743  0.138743  1
  S  S10  1  0.861257  0.861257  0.861257  1
  S  S11  1  0.638743  0.638743  0.638743  1
