# generated using pymatgen
data_CaZn(GeO3)2
_symmetry_space_group_name_H-M   'P 1'
_cell_length_a   6.88258180
_cell_length_b   6.88258180
_cell_length_c   5.51303450
_cell_angle_alpha   78.43994659
_cell_angle_beta   101.56005341
_cell_angle_gamma   97.10733788
_symmetry_Int_Tables_number   1
_chemical_formula_structural   CaZn(GeO3)2
_chemical_formula_sum   'Ca2 Zn2 Ge4 O12'
_cell_volume   249.71278654
_cell_formula_units_Z   2
loop_
 _symmetry_equiv_pos_site_id
 _symmetry_equiv_pos_as_xyz
  1  'x, y, z'
loop_
 _atom_site_type_symbol
 _atom_site_label
 _atom_site_symmetry_multiplicity
 _atom_site_fract_x
 _atom_site_fract_y
 _atom_site_fract_z
 _atom_site_occupancy
  Ca  Ca0  1  0.696873  0.696873  0.250000  1
  Ca  Ca1  1  0.303127  0.303127  0.750000  1
  Zn  Zn2  1  0.093411  0.093411  0.250000  1
  Zn  Zn3  1  0.906589  0.906589  0.750000  1
  Ge  Ge4  1  0.186181  0.617581  0.225545  1
  Ge  Ge5  1  0.617581  0.186181  0.274455  1
  Ge  Ge6  1  0.813819  0.382419  0.774455  1
  Ge  Ge7  1  0.382419  0.813819  0.725545  1
  O  O8  1  0.388394  0.671377  0.483661  1
  O  O9  1  0.671377  0.388394  0.016339  1
  O  O10  1  0.611606  0.328623  0.516339  1
  O  O11  1  0.328623  0.611606  0.983661  1
  O  O12  1  0.624319  0.896816  0.845182  1
  O  O13  1  0.896816  0.624319  0.654818  1
  O  O14  1  0.375681  0.103184  0.154818  1
  O  O15  1  0.103184  0.375681  0.345182  1
  O  O16  1  0.015798  0.798863  0.134239  1
  O  O17  1  0.798863  0.015798  0.365761  1
  O  O18  1  0.984202  0.201137  0.865761  1
  O  O19  1  0.201137  0.984202  0.634239  1
