# generated using pymatgen
data_RbAlPdF6
_symmetry_space_group_name_H-M   'P 1'
_cell_length_a   7.23291013
_cell_length_b   7.39311137
_cell_length_c   10.28940506
_cell_angle_alpha   90.00000000
_cell_angle_beta   90.00000000
_cell_angle_gamma   90.00000000
_symmetry_Int_Tables_number   1
_chemical_formula_structural   RbAlPdF6
_chemical_formula_sum   'Rb4 Al4 Pd4 F24'
_cell_volume   550.21266349
_cell_formula_units_Z   4
loop_
 _symmetry_equiv_pos_site_id
 _symmetry_equiv_pos_as_xyz
  1  'x, y, z'
loop_
 _atom_site_type_symbol
 _atom_site_label
 _atom_site_symmetry_multiplicity
 _atom_site_fract_x
 _atom_site_fract_y
 _atom_site_fract_z
 _atom_site_occupancy
  Rb  Rb0  1  0.250000  0.480941  0.868171  1
  Rb  Rb1  1  0.750000  0.019059  0.368171  1
  Rb  Rb2  1  0.750000  0.519059  0.131829  1
  Rb  Rb3  1  0.250000  0.980941  0.631829  1
  Al  Al4  1  0.000000  0.500000  0.500000  1
  Al  Al5  1  0.500000  0.500000  0.500000  1
  Al  Al6  1  0.500000  0.000000  0.000000  1
  Al  Al7  1  0.000000  0.000000  0.000000  1
  Pd  Pd8  1  0.750000  0.219265  0.737428  1
  Pd  Pd9  1  0.750000  0.719265  0.762572  1
  Pd  Pd10  1  0.250000  0.280735  0.237428  1
  Pd  Pd11  1  0.250000  0.780735  0.262572  1
  F  F12  1  0.531126  0.793367  0.905154  1
  F  F13  1  0.031126  0.206633  0.094846  1
  F  F14  1  0.968874  0.293367  0.594846  1
  F  F15  1  0.468874  0.706633  0.405154  1
  F  F16  1  0.468874  0.206633  0.094846  1
  F  F17  1  0.968874  0.793367  0.905154  1
  F  F18  1  0.031126  0.706633  0.405154  1
  F  F19  1  0.531126  0.293367  0.594846  1
  F  F20  1  0.000818  0.634164  0.648594  1
  F  F21  1  0.500818  0.365836  0.351406  1
  F  F22  1  0.499182  0.134164  0.851406  1
  F  F23  1  0.999182  0.865836  0.148594  1
  F  F24  1  0.750000  0.959822  0.640745  1
  F  F25  1  0.250000  0.040178  0.359255  1
  F  F26  1  0.750000  0.459822  0.859255  1
  F  F27  1  0.250000  0.540178  0.140745  1
  F  F28  1  0.750000  0.030107  0.016117  1
  F  F29  1  0.250000  0.969893  0.983883  1
  F  F30  1  0.750000  0.530107  0.483883  1
  F  F31  1  0.250000  0.469893  0.516117  1
  F  F32  1  0.000818  0.134164  0.851406  1
  F  F33  1  0.500818  0.865836  0.148594  1
  F  F34  1  0.499182  0.634164  0.648594  1
  F  F35  1  0.999182  0.365836  0.351406  1
