# generated using pymatgen
data_K2WSe4
_symmetry_space_group_name_H-M   'P 1'
_cell_length_a   7.28623837
_cell_length_b   10.01377588
_cell_length_c   12.88111957
_cell_angle_alpha   90.00000000
_cell_angle_beta   90.00000000
_cell_angle_gamma   90.00000000
_symmetry_Int_Tables_number   1
_chemical_formula_structural   K2WSe4
_chemical_formula_sum   'K8 W4 Se16'
_cell_volume   939.84201054
_cell_formula_units_Z   4
loop_
 _symmetry_equiv_pos_site_id
 _symmetry_equiv_pos_as_xyz
  1  'x, y, z'
loop_
 _atom_site_type_symbol
 _atom_site_label
 _atom_site_symmetry_multiplicity
 _atom_site_fract_x
 _atom_site_fract_y
 _atom_site_fract_z
 _atom_site_occupancy
  K  K0  1  0.750000  0.548602  0.844659  1
  K  K1  1  0.250000  0.451398  0.155341  1
  K  K2  1  0.750000  0.048602  0.655341  1
  K  K3  1  0.250000  0.951398  0.344659  1
  K  K4  1  0.750000  0.847266  0.113287  1
  K  K5  1  0.250000  0.152734  0.886713  1
  K  K6  1  0.750000  0.347266  0.386713  1
  K  K7  1  0.250000  0.652734  0.613287  1
  W  W8  1  0.750000  0.252675  0.066870  1
  W  W9  1  0.250000  0.247325  0.566870  1
  W  W10  1  0.750000  0.752675  0.433130  1
  W  W11  1  0.250000  0.747325  0.933130  1
  Se  Se12  1  0.250000  0.777977  0.113476  1
  Se  Se13  1  0.250000  0.277977  0.386524  1
  Se  Se14  1  0.750000  0.722023  0.613476  1
  Se  Se15  1  0.750000  0.980661  0.388784  1
  Se  Se16  1  0.750000  0.480661  0.111216  1
  Se  Se17  1  0.250000  0.519339  0.888784  1
  Se  Se18  1  0.008026  0.648786  0.362786  1
  Se  Se19  1  0.250000  0.019339  0.611216  1
  Se  Se20  1  0.491974  0.148786  0.137214  1
  Se  Se21  1  0.991974  0.851214  0.862786  1
  Se  Se22  1  0.491974  0.648786  0.362786  1
  Se  Se23  1  0.508026  0.351214  0.637214  1
  Se  Se24  1  0.508026  0.851214  0.862786  1
  Se  Se25  1  0.008026  0.148786  0.137214  1
  Se  Se26  1  0.991974  0.351214  0.637214  1
  Se  Se27  1  0.750000  0.222023  0.886524  1
