# generated using pymatgen
data_Y2Si2O7
_symmetry_space_group_name_H-M   'P 1'
_cell_length_a   5.09591197
_cell_length_b   8.22332222
_cell_length_c   13.84074351
_cell_angle_alpha   90.00000000
_cell_angle_beta   90.00000000
_cell_angle_gamma   90.00000000
_symmetry_Int_Tables_number   1
_chemical_formula_structural   Y2Si2O7
_chemical_formula_sum   'Y8 Si8 O28'
_cell_volume   580.00087072
_cell_formula_units_Z   4
loop_
 _symmetry_equiv_pos_site_id
 _symmetry_equiv_pos_as_xyz
  1  'x, y, z'
loop_
 _atom_site_type_symbol
 _atom_site_label
 _atom_site_symmetry_multiplicity
 _atom_site_fract_x
 _atom_site_fract_y
 _atom_site_fract_z
 _atom_site_occupancy
  Y  Y0  1  0.841948  0.509404  0.625689  1
  Y  Y1  1  0.158052  0.009404  0.374311  1
  Y  Y2  1  0.658052  0.509404  0.125689  1
  Y  Y3  1  0.341948  0.009404  0.874311  1
  Y  Y4  1  0.841948  0.990596  0.625689  1
  Y  Y5  1  0.158052  0.490596  0.374311  1
  Y  Y6  1  0.658052  0.990596  0.125689  1
  Y  Y7  1  0.341948  0.490596  0.874311  1
  Si  Si8  1  0.125624  0.250000  0.040057  1
  Si  Si9  1  0.874376  0.750000  0.959943  1
  Si  Si10  1  0.374376  0.250000  0.540057  1
  Si  Si11  1  0.625624  0.750000  0.459943  1
  Si  Si12  1  0.879371  0.250000  0.818882  1
  Si  Si13  1  0.120629  0.750000  0.181118  1
  Si  Si14  1  0.620629  0.250000  0.318882  1
  Si  Si15  1  0.379371  0.750000  0.681118  1
  O  O16  1  0.849616  0.250000  0.099671  1
  O  O17  1  0.150384  0.750000  0.900329  1
  O  O18  1  0.650384  0.250000  0.599671  1
  O  O19  1  0.349616  0.750000  0.400329  1
  O  O20  1  0.293172  0.418404  0.047085  1
  O  O21  1  0.706828  0.918404  0.952915  1
  O  O22  1  0.206828  0.418404  0.547085  1
  O  O23  1  0.793172  0.918404  0.452915  1
  O  O24  1  0.293172  0.081596  0.047085  1
  O  O25  1  0.706828  0.581596  0.952915  1
  O  O26  1  0.206828  0.081596  0.547085  1
  O  O27  1  0.793172  0.581596  0.452915  1
  O  O28  1  0.064455  0.250000  0.919671  1
  O  O29  1  0.935545  0.750000  0.080329  1
  O  O30  1  0.435545  0.250000  0.419671  1
  O  O31  1  0.564455  0.750000  0.580329  1
  O  O32  1  0.489350  0.585589  0.732728  1
  O  O33  1  0.510650  0.085589  0.267272  1
  O  O34  1  0.010650  0.585589  0.232728  1
  O  O35  1  0.989350  0.085589  0.767272  1
  O  O36  1  0.489350  0.914411  0.732728  1
  O  O37  1  0.510650  0.414411  0.267272  1
  O  O38  1  0.010650  0.914411  0.232728  1
  O  O39  1  0.989350  0.414411  0.767272  1
  O  O40  1  0.068917  0.750000  0.654901  1
  O  O41  1  0.931083  0.250000  0.345099  1
  O  O42  1  0.431083  0.750000  0.154901  1
  O  O43  1  0.568917  0.250000  0.845099  1
