# generated using pymatgen
data_KSnAsO5
_symmetry_space_group_name_H-M   'P 1'
_cell_length_a   6.82048206
_cell_length_b   11.14481178
_cell_length_c   13.70401582
_cell_angle_alpha   90.00000000
_cell_angle_beta   90.00000000
_cell_angle_gamma   90.00000000
_symmetry_Int_Tables_number   1
_chemical_formula_structural   KSnAsO5
_chemical_formula_sum   'K8 Sn8 As8 O40'
_cell_volume   1041.68320114
_cell_formula_units_Z   8
loop_
 _symmetry_equiv_pos_site_id
 _symmetry_equiv_pos_as_xyz
  1  'x, y, z'
loop_
 _atom_site_type_symbol
 _atom_site_label
 _atom_site_symmetry_multiplicity
 _atom_site_fract_x
 _atom_site_fract_y
 _atom_site_fract_z
 _atom_site_occupancy
  K  K0  1  0.224683  0.298305  0.629982  1
  K  K1  1  0.689479  0.561441  0.112114  1
  K  K2  1  0.810521  0.561441  0.612114  1
  K  K3  1  0.310521  0.061441  0.887886  1
  K  K4  1  0.724683  0.798305  0.870018  1
  K  K5  1  0.275317  0.298305  0.129982  1
  K  K6  1  0.775317  0.798305  0.370018  1
  K  K7  1  0.189479  0.061441  0.387886  1
  Sn  Sn8  1  0.746078  0.250399  0.749823  1
  Sn  Sn9  1  0.253922  0.750399  0.250177  1
  Sn  Sn10  1  0.753922  0.250399  0.249823  1
  Sn  Sn11  1  0.500232  0.998963  0.625987  1
  Sn  Sn12  1  0.499768  0.498963  0.374013  1
  Sn  Sn13  1  0.999768  0.998963  0.125987  1
  Sn  Sn14  1  0.000232  0.498963  0.874013  1
  Sn  Sn15  1  0.246078  0.750399  0.750177  1
  As  As16  1  0.333925  0.747743  0.502276  1
  As  As17  1  0.833925  0.247743  0.997724  1
  As  As18  1  0.166075  0.747743  0.002276  1
  As  As19  1  0.497712  0.501540  0.822815  1
  As  As20  1  0.502288  0.001540  0.177185  1
  As  As21  1  0.002288  0.501540  0.322815  1
  As  As22  1  0.666075  0.247743  0.497724  1
  As  As23  1  0.997712  0.001540  0.677185  1
  O  O24  1  0.470130  0.886320  0.259216  1
  O  O25  1  0.529870  0.386320  0.740784  1
  O  O26  1  0.029870  0.886320  0.759216  1
  O  O27  1  0.970130  0.386320  0.240784  1
  O  O28  1  0.976690  0.124622  0.753020  1
  O  O29  1  0.023310  0.624622  0.246980  1
  O  O30  1  0.523310  0.124622  0.253020  1
  O  O31  1  0.476690  0.624622  0.746980  1
  O  O32  1  0.044708  0.877478  0.232794  1
  O  O33  1  0.955292  0.377478  0.767206  1
  O  O34  1  0.455292  0.877478  0.732794  1
  O  O35  1  0.544708  0.377478  0.267206  1
  O  O36  1  0.525207  0.134813  0.723292  1
  O  O37  1  0.474793  0.634813  0.276708  1
  O  O38  1  0.974793  0.134813  0.223292  1
  O  O39  1  0.820863  0.225701  0.400359  1
  O  O40  1  0.025207  0.634813  0.776708  1
  O  O41  1  0.303258  0.473502  0.898563  1
  O  O42  1  0.803258  0.973502  0.601437  1
  O  O43  1  0.196742  0.473502  0.398563  1
  O  O44  1  0.192045  0.028477  0.599927  1
  O  O45  1  0.807955  0.528477  0.400073  1
  O  O46  1  0.307955  0.028477  0.099927  1
  O  O47  1  0.692045  0.528477  0.900073  1
  O  O48  1  0.505143  0.129184  0.510107  1
  O  O49  1  0.494857  0.629184  0.489893  1
  O  O50  1  0.994857  0.129184  0.010107  1
  O  O51  1  0.005143  0.629184  0.989893  1
  O  O52  1  0.016808  0.872781  0.010932  1
  O  O53  1  0.983192  0.372781  0.989068  1
  O  O54  1  0.483192  0.872781  0.510932  1
  O  O55  1  0.516808  0.372781  0.489068  1
  O  O56  1  0.817169  0.270831  0.596629  1
  O  O57  1  0.182831  0.770831  0.403371  1
  O  O58  1  0.682831  0.270831  0.096629  1
  O  O59  1  0.317169  0.770831  0.903371  1
  O  O60  1  0.320863  0.725701  0.099641  1
  O  O61  1  0.679137  0.225701  0.900359  1
  O  O62  1  0.179137  0.725701  0.599641  1
  O  O63  1  0.696742  0.973502  0.101437  1
