# generated using pymatgen
data_BaCaV2O7
_symmetry_space_group_name_H-M   'P 1'
_cell_length_a   5.87194341
_cell_length_b   7.61504598
_cell_length_c   15.71346679
_cell_angle_alpha   90.00000000
_cell_angle_beta   90.00000000
_cell_angle_gamma   90.00000000
_symmetry_Int_Tables_number   1
_chemical_formula_structural   BaCaV2O7
_chemical_formula_sum   'Ba4 Ca4 V8 O28'
_cell_volume   702.62953835
_cell_formula_units_Z   4
loop_
 _symmetry_equiv_pos_site_id
 _symmetry_equiv_pos_as_xyz
  1  'x, y, z'
loop_
 _atom_site_type_symbol
 _atom_site_label
 _atom_site_symmetry_multiplicity
 _atom_site_fract_x
 _atom_site_fract_y
 _atom_site_fract_z
 _atom_site_occupancy
  Ba  Ba0  1  0.250000  0.362867  0.785257  1
  Ba  Ba1  1  0.750000  0.637133  0.214743  1
  Ba  Ba2  1  0.750000  0.862867  0.714743  1
  Ba  Ba3  1  0.250000  0.137133  0.285257  1
  Ca  Ca4  1  0.250000  0.112931  0.553344  1
  Ca  Ca5  1  0.250000  0.387069  0.053344  1
  Ca  Ca6  1  0.750000  0.612931  0.946656  1
  Ca  Ca7  1  0.750000  0.887069  0.446656  1
  V  V8  1  0.750000  0.161776  0.142102  1
  V  V9  1  0.250000  0.800404  0.060555  1
  V  V10  1  0.750000  0.338224  0.642102  1
  V  V11  1  0.250000  0.661776  0.357898  1
  V  V12  1  0.750000  0.300404  0.439445  1
  V  V13  1  0.250000  0.699596  0.560555  1
  V  V14  1  0.750000  0.199596  0.939445  1
  V  V15  1  0.250000  0.838224  0.857898  1
  O  O16  1  0.250000  0.919350  0.150223  1
  O  O17  1  0.750000  0.080650  0.849777  1
  O  O18  1  0.750000  0.419350  0.349777  1
  O  O19  1  0.250000  0.580650  0.650223  1
  O  O20  1  0.981489  0.344309  0.940336  1
  O  O21  1  0.481489  0.655691  0.059664  1
  O  O22  1  0.018511  0.844309  0.559664  1
  O  O23  1  0.518511  0.155691  0.440336  1
  O  O24  1  0.018511  0.655691  0.059664  1
  O  O25  1  0.518511  0.344309  0.940336  1
  O  O26  1  0.981489  0.155691  0.440336  1
  O  O27  1  0.481489  0.844309  0.559664  1
  O  O28  1  0.250000  0.936574  0.965210  1
  O  O29  1  0.750000  0.063426  0.034790  1
  O  O30  1  0.750000  0.436574  0.534790  1
  O  O31  1  0.250000  0.563426  0.465210  1
  O  O32  1  0.486098  0.795215  0.346364  1
  O  O33  1  0.986098  0.204785  0.653636  1
  O  O34  1  0.513902  0.295215  0.153636  1
  O  O35  1  0.013902  0.704785  0.846364  1
  O  O36  1  0.513902  0.204785  0.653636  1
  O  O37  1  0.013902  0.795215  0.346364  1
  O  O38  1  0.486098  0.704785  0.846364  1
  O  O39  1  0.986098  0.295215  0.153636  1
  O  O40  1  0.250000  0.510941  0.278977  1
  O  O41  1  0.750000  0.489059  0.721023  1
  O  O42  1  0.750000  0.010941  0.221023  1
  O  O43  1  0.250000  0.989059  0.778977  1
