# generated using pymatgen
data_SmSnF7
_symmetry_space_group_name_H-M   'P 1'
_cell_length_a   9.15795623
_cell_length_b   5.74959511
_cell_length_c   12.30934135
_cell_angle_alpha   90.00000000
_cell_angle_beta   117.76176562
_cell_angle_gamma   90.00000000
_symmetry_Int_Tables_number   1
_chemical_formula_structural   SmSnF7
_chemical_formula_sum   'Sm4 Sn4 F28'
_cell_volume   573.53630303
_cell_formula_units_Z   4
loop_
 _symmetry_equiv_pos_site_id
 _symmetry_equiv_pos_as_xyz
  1  'x, y, z'
loop_
 _atom_site_type_symbol
 _atom_site_label
 _atom_site_symmetry_multiplicity
 _atom_site_fract_x
 _atom_site_fract_y
 _atom_site_fract_z
 _atom_site_occupancy
  Sm  Sm0  1  0.812343  0.757969  0.734568  1
  Sm  Sm1  1  0.187657  0.257969  0.765432  1
  Sm  Sm2  1  0.187657  0.242031  0.265432  1
  Sm  Sm3  1  0.812343  0.742031  0.234568  1
  Sn  Sn4  1  0.727085  0.243993  0.457038  1
  Sn  Sn5  1  0.272915  0.743993  0.042962  1
  Sn  Sn6  1  0.272915  0.756007  0.542962  1
  Sn  Sn7  1  0.727085  0.256007  0.957038  1
  F  F8  1  0.716896  0.954916  0.545211  1
  F  F9  1  0.283104  0.454916  0.954789  1
  F  F10  1  0.283104  0.045084  0.454789  1
  F  F11  1  0.716896  0.545084  0.045211  1
  F  F12  1  0.708521  0.047693  0.080103  1
  F  F13  1  0.291479  0.547693  0.419897  1
  F  F14  1  0.291479  0.952307  0.919897  1
  F  F15  1  0.708521  0.452307  0.580103  1
  F  F16  1  0.518118  0.731364  0.140323  1
  F  F17  1  0.481882  0.231364  0.359677  1
  F  F18  1  0.481882  0.268636  0.859677  1
  F  F19  1  0.518118  0.768636  0.640323  1
  F  F20  1  0.027239  0.740180  0.946460  1
  F  F21  1  0.972761  0.240180  0.553540  1
  F  F22  1  0.972761  0.259820  0.053540  1
  F  F23  1  0.027239  0.759820  0.446460  1
  F  F24  1  0.744328  0.043738  0.329718  1
  F  F25  1  0.255672  0.543738  0.170282  1
  F  F26  1  0.255672  0.956262  0.670282  1
  F  F27  1  0.744328  0.456262  0.829718  1
  F  F28  1  0.269537  0.019366  0.141259  1
  F  F29  1  0.730463  0.519366  0.358741  1
  F  F30  1  0.730463  0.980634  0.858741  1
  F  F31  1  0.269537  0.480634  0.641259  1
  F  F32  1  0.969870  0.081062  0.766715  1
  F  F33  1  0.030130  0.581062  0.733285  1
  F  F34  1  0.030130  0.918938  0.233285  1
  F  F35  1  0.969870  0.418938  0.266715  1
