# generated using pymatgen
data_RbSbS2
_symmetry_space_group_name_H-M   'P 1'
_cell_length_a   6.68923107
_cell_length_b   6.73209685
_cell_length_c   12.28329790
_cell_angle_alpha   99.05034209
_cell_angle_beta   100.66654083
_cell_angle_gamma   104.43217444
_symmetry_Int_Tables_number   1
_chemical_formula_structural   RbSbS2
_chemical_formula_sum   'Rb4 Sb4 S8'
_cell_volume   514.26905945
_cell_formula_units_Z   4
loop_
 _symmetry_equiv_pos_site_id
 _symmetry_equiv_pos_as_xyz
  1  'x, y, z'
loop_
 _atom_site_type_symbol
 _atom_site_label
 _atom_site_symmetry_multiplicity
 _atom_site_fract_x
 _atom_site_fract_y
 _atom_site_fract_z
 _atom_site_occupancy
  Rb  Rb0  1  0.567615  0.324104  0.153578  1
  Rb  Rb1  1  0.432385  0.675896  0.846422  1
  Rb  Rb2  1  0.898481  0.721122  0.583146  1
  Rb  Rb3  1  0.101519  0.278878  0.416854  1
  Sb  Sb4  1  0.585624  0.181904  0.651410  1
  Sb  Sb5  1  0.994895  0.796029  0.089220  1
  Sb  Sb6  1  0.005105  0.203971  0.910780  1
  Sb  Sb7  1  0.414376  0.818096  0.348590  1
  S  S8  1  0.978342  0.831640  0.868809  1
  S  S9  1  0.021658  0.168360  0.131191  1
  S  S10  1  0.428374  0.803646  0.590092  1
  S  S11  1  0.371327  0.801830  0.125246  1
  S  S12  1  0.571626  0.196354  0.409908  1
  S  S13  1  0.027423  0.768039  0.319296  1
  S  S14  1  0.972577  0.231961  0.680704  1
  S  S15  1  0.628673  0.198170  0.874754  1
