# generated using pymatgen
data_AgAuF4
_symmetry_space_group_name_H-M   'P 1'
_cell_length_a   6.87928046
_cell_length_b   6.87928046
_cell_length_c   6.87928046
_cell_angle_alpha   129.42873328
_cell_angle_beta   129.42873328
_cell_angle_gamma   74.32169503
_symmetry_Int_Tables_number   1
_chemical_formula_structural   AgAuF4
_chemical_formula_sum   'Ag2 Au2 F8'
_cell_volume   189.33841349
_cell_formula_units_Z   2
loop_
 _symmetry_equiv_pos_site_id
 _symmetry_equiv_pos_as_xyz
  1  'x, y, z'
loop_
 _atom_site_type_symbol
 _atom_site_label
 _atom_site_symmetry_multiplicity
 _atom_site_fract_x
 _atom_site_fract_y
 _atom_site_fract_z
 _atom_site_occupancy
  Ag  Ag0  1  0.250000  0.250000  0.000000  1
  Ag  Ag1  1  0.750000  0.750000  0.000000  1
  Au  Au2  1  0.500000  0.000000  0.500000  1
  Au  Au3  1  0.000000  0.500000  0.500000  1
  F  F4  1  0.202381  0.702381  0.160100  1
  F  F5  1  0.457720  0.957720  0.160100  1
  F  F6  1  0.797619  0.297619  0.839900  1
  F  F7  1  0.297619  0.457720  0.500000  1
  F  F8  1  0.542280  0.042280  0.839900  1
  F  F9  1  0.042280  0.202381  0.500000  1
  F  F10  1  0.702381  0.542280  0.500000  1
  F  F11  1  0.957720  0.797619  0.500000  1
