# generated using pymatgen
data_CsPr(CO3)2
_symmetry_space_group_name_H-M   'P 1'
_cell_length_a   8.71498575
_cell_length_b   9.03950506
_cell_length_c   9.04298720
_cell_angle_alpha   98.93797373
_cell_angle_beta   114.64703351
_cell_angle_gamma   96.31818919
_symmetry_Int_Tables_number   1
_chemical_formula_structural   CsPr(CO3)2
_chemical_formula_sum   'Cs4 Pr4 C8 O24'
_cell_volume   627.38791890
_cell_formula_units_Z   4
loop_
 _symmetry_equiv_pos_site_id
 _symmetry_equiv_pos_as_xyz
  1  'x, y, z'
loop_
 _atom_site_type_symbol
 _atom_site_label
 _atom_site_symmetry_multiplicity
 _atom_site_fract_x
 _atom_site_fract_y
 _atom_site_fract_z
 _atom_site_occupancy
  Cs  Cs0  1  0.754714  0.970240  0.968606  1
  Cs  Cs1  1  0.245286  0.029760  0.031394  1
  Cs  Cs2  1  0.759307  0.473038  0.809928  1
  Cs  Cs3  1  0.240693  0.526962  0.190072  1
  Pr  Pr4  1  0.739785  0.952174  0.477955  1
  Pr  Pr5  1  0.260215  0.047826  0.522045  1
  Pr  Pr6  1  0.758672  0.459247  0.285451  1
  Pr  Pr7  1  0.241328  0.540753  0.714549  1
  C  C8  1  0.029892  0.289544  0.295358  1
  C  C9  1  0.970108  0.710456  0.704642  1
  C  C10  1  0.458652  0.258336  0.858447  1
  C  C11  1  0.002873  0.212241  0.725776  1
  C  C12  1  0.997127  0.787759  0.274224  1
  C  C13  1  0.541348  0.741664  0.141553  1
  C  C14  1  0.418200  0.768242  0.604417  1
  C  C15  1  0.581800  0.231758  0.395583  1
  O  O16  1  0.065411  0.400075  0.424946  1
  O  O17  1  0.503409  0.125991  0.436482  1
  O  O18  1  0.277223  0.791167  0.616615  1
  O  O19  1  0.722777  0.208833  0.383385  1
  O  O20  1  0.528919  0.356382  0.365854  1
  O  O21  1  0.471081  0.643618  0.634146  1
  O  O22  1  0.934589  0.599925  0.575054  1
  O  O23  1  0.496591  0.874009  0.563518  1
  O  O24  1  0.956590  0.882417  0.371831  1
  O  O25  1  0.043410  0.117583  0.628169  1
  O  O26  1  0.865359  0.164032  0.740614  1
  O  O27  1  0.134641  0.835968  0.259386  1
  O  O28  1  0.905373  0.652729  0.197181  1
  O  O29  1  0.094627  0.347271  0.802819  1
  O  O30  1  0.098573  0.705243  0.843165  1
  O  O31  1  0.881239  0.815325  0.695473  1
  O  O32  1  0.396544  0.320661  0.727856  1
  O  O33  1  0.603456  0.679339  0.272144  1
  O  O34  1  0.437577  0.110737  0.828382  1
  O  O35  1  0.562423  0.889263  0.171618  1
  O  O36  1  0.461739  0.658946  0.992906  1
  O  O37  1  0.538261  0.341054  0.007094  1
  O  O38  1  0.118761  0.184675  0.304527  1
  O  O39  1  0.901427  0.294757  0.156835  1
