# generated using pymatgen
data_Na2MgPO4F
_symmetry_space_group_name_H-M   'P 1'
_cell_length_a   5.27898000
_cell_length_b   11.80273397
_cell_length_c   13.87578387
_cell_angle_alpha   90.00000000
_cell_angle_beta   90.00000000
_cell_angle_gamma   90.00000000
_symmetry_Int_Tables_number   1
_chemical_formula_structural   Na2MgPO4F
_chemical_formula_sum   'Na16 Mg8 P8 O32 F8'
_cell_volume   864.55009256
_cell_formula_units_Z   8
loop_
 _symmetry_equiv_pos_site_id
 _symmetry_equiv_pos_as_xyz
  1  'x, y, z'
loop_
 _atom_site_type_symbol
 _atom_site_label
 _atom_site_symmetry_multiplicity
 _atom_site_fract_x
 _atom_site_fract_y
 _atom_site_fract_z
 _atom_site_occupancy
  Na  Na0  1  0.760069  0.328837  0.746631  1
  Na  Na1  1  0.260069  0.171163  0.246631  1
  Na  Na2  1  0.739931  0.328837  0.246631  1
  Na  Na3  1  0.239931  0.671163  0.253369  1
  Na  Na4  1  0.239931  0.171163  0.746631  1
  Na  Na5  1  0.739931  0.828837  0.753369  1
  Na  Na6  1  0.260069  0.671163  0.753369  1
  Na  Na7  1  0.760069  0.828837  0.253369  1
  Na  Na8  1  0.743584  0.080821  0.623215  1
  Na  Na9  1  0.243584  0.919179  0.876785  1
  Na  Na10  1  0.756416  0.580821  0.876785  1
  Na  Na11  1  0.743584  0.580821  0.376785  1
  Na  Na12  1  0.256416  0.919179  0.376785  1
  Na  Na13  1  0.756416  0.080821  0.123215  1
  Na  Na14  1  0.243584  0.419179  0.123215  1
  Na  Na15  1  0.256416  0.419179  0.623215  1
  Mg  Mg16  1  0.721382  0.324002  0.512823  1
  Mg  Mg17  1  0.221382  0.675998  0.987177  1
  Mg  Mg18  1  0.778618  0.824002  0.987177  1
  Mg  Mg19  1  0.278618  0.175998  0.512823  1
  Mg  Mg20  1  0.278618  0.675998  0.487177  1
  Mg  Mg21  1  0.778618  0.324002  0.012823  1
  Mg  Mg22  1  0.221382  0.175998  0.012823  1
  Mg  Mg23  1  0.721382  0.824002  0.487177  1
  P  P24  1  0.791903  0.087503  0.382473  1
  P  P25  1  0.291903  0.912497  0.117527  1
  P  P26  1  0.708097  0.587503  0.117527  1
  P  P27  1  0.208097  0.412497  0.382473  1
  P  P28  1  0.208097  0.912497  0.617527  1
  P  P29  1  0.708097  0.087503  0.882473  1
  P  P30  1  0.291903  0.412497  0.882473  1
  P  P31  1  0.791903  0.587503  0.617527  1
  O  O32  1  0.234288  0.541418  0.891357  1
  O  O33  1  0.210866  0.368787  0.782580  1
  O  O34  1  0.789134  0.131213  0.782580  1
  O  O35  1  0.289134  0.868787  0.717420  1
  O  O36  1  0.289134  0.368787  0.282580  1
  O  O37  1  0.789134  0.631213  0.217420  1
  O  O38  1  0.210866  0.868787  0.217420  1
  O  O39  1  0.710866  0.131213  0.282580  1
  O  O40  1  0.083186  0.607198  0.601456  1
  O  O41  1  0.583186  0.392802  0.898544  1
  O  O42  1  0.416814  0.107198  0.898544  1
  O  O43  1  0.916814  0.892802  0.601456  1
  O  O44  1  0.916814  0.392802  0.398544  1
  O  O45  1  0.416814  0.607198  0.101456  1
  O  O46  1  0.583186  0.892802  0.101456  1
  O  O47  1  0.083186  0.107198  0.398544  1
  O  O48  1  0.734288  0.458582  0.608643  1
  O  O49  1  0.710866  0.631213  0.717420  1
  O  O50  1  0.765712  0.958582  0.891357  1
  O  O51  1  0.645767  0.152465  0.463413  1
  O  O52  1  0.265712  0.541418  0.391357  1
  O  O53  1  0.765712  0.458582  0.108643  1
  O  O54  1  0.234288  0.041418  0.108643  1
  O  O55  1  0.734288  0.958582  0.391357  1
  O  O56  1  0.645767  0.652465  0.536587  1
  O  O57  1  0.145767  0.347535  0.963413  1
  O  O58  1  0.854233  0.152465  0.963413  1
  O  O59  1  0.354233  0.847535  0.536587  1
  O  O60  1  0.354233  0.347535  0.463413  1
  O  O61  1  0.854233  0.652465  0.036587  1
  O  O62  1  0.145767  0.847535  0.036587  1
  O  O63  1  0.265712  0.041418  0.608643  1
  F  F64  1  0.500000  0.750000  0.377224  1
  F  F65  1  0.000000  0.250000  0.122776  1
  F  F66  1  0.500000  0.250000  0.622776  1
  F  F67  1  0.000000  0.750000  0.877224  1
  F  F68  1  0.000000  0.750000  0.411873  1
  F  F69  1  0.500000  0.250000  0.088127  1
  F  F70  1  0.000000  0.250000  0.588127  1
  F  F71  1  0.500000  0.750000  0.911873  1
