# generated using pymatgen
data_LiErO2
_symmetry_space_group_name_H-M   'P 1'
_cell_length_a   6.13916320
_cell_length_b   6.16562453
_cell_length_c   6.20262413
_cell_angle_alpha   90.00000000
_cell_angle_beta   119.10933612
_cell_angle_gamma   90.00000000
_symmetry_Int_Tables_number   1
_chemical_formula_structural   LiErO2
_chemical_formula_sum   'Li4 Er4 O8'
_cell_volume   205.12592666
_cell_formula_units_Z   4
loop_
 _symmetry_equiv_pos_site_id
 _symmetry_equiv_pos_as_xyz
  1  'x, y, z'
loop_
 _atom_site_type_symbol
 _atom_site_label
 _atom_site_symmetry_multiplicity
 _atom_site_fract_x
 _atom_site_fract_y
 _atom_site_fract_z
 _atom_site_occupancy
  Li  Li0  1  0.215893  0.349176  0.447085  1
  Li  Li1  1  0.784107  0.849176  0.052915  1
  Li  Li2  1  0.784107  0.650824  0.552915  1
  Li  Li3  1  0.215893  0.150824  0.947085  1
  Er  Er4  1  0.263639  0.870722  0.517453  1
  Er  Er5  1  0.263639  0.629278  0.017453  1
  Er  Er6  1  0.736361  0.129278  0.482547  1
  Er  Er7  1  0.736361  0.370722  0.982547  1
  O  O8  1  0.504297  0.664411  0.833648  1
  O  O9  1  0.044620  0.610591  0.234816  1
  O  O10  1  0.495703  0.164411  0.666352  1
  O  O11  1  0.495703  0.335589  0.166352  1
  O  O12  1  0.955380  0.389409  0.765184  1
  O  O13  1  0.955380  0.110591  0.265184  1
  O  O14  1  0.044620  0.889409  0.734816  1
  O  O15  1  0.504297  0.835589  0.333648  1
