# generated using pymatgen
data_Li2TiGeO5
_symmetry_space_group_name_H-M   'P 1'
_cell_length_a   6.65929683
_cell_length_b   6.65929683
_cell_length_c   4.55250108
_cell_angle_alpha   90.00000000
_cell_angle_beta   90.00000000
_cell_angle_gamma   90.00000000
_symmetry_Int_Tables_number   1
_chemical_formula_structural   Li2TiGeO5
_chemical_formula_sum   'Li4 Ti2 Ge2 O10'
_cell_volume   201.88627941
_cell_formula_units_Z   2
loop_
 _symmetry_equiv_pos_site_id
 _symmetry_equiv_pos_as_xyz
  1  'x, y, z'
loop_
 _atom_site_type_symbol
 _atom_site_label
 _atom_site_symmetry_multiplicity
 _atom_site_fract_x
 _atom_site_fract_y
 _atom_site_fract_z
 _atom_site_occupancy
  Li  Li0  1  0.750000  0.250000  0.500000  1
  Li  Li1  1  0.250000  0.250000  0.500000  1
  Li  Li2  1  0.250000  0.750000  0.500000  1
  Li  Li3  1  0.750000  0.750000  0.500000  1
  Ti  Ti4  1  0.000000  0.500000  0.104363  1
  Ti  Ti5  1  0.500000  0.000000  0.895637  1
  Ge  Ge6  1  0.500000  0.500000  0.000000  1
  Ge  Ge7  1  0.000000  0.000000  0.000000  1
  O  O8  1  0.500000  0.713568  0.768500  1
  O  O9  1  0.500000  0.286432  0.768500  1
  O  O10  1  0.500000  0.000000  0.272607  1
  O  O11  1  0.000000  0.500000  0.727393  1
  O  O12  1  0.713568  0.500000  0.231500  1
  O  O13  1  0.000000  0.786432  0.231500  1
  O  O14  1  0.000000  0.213568  0.231500  1
  O  O15  1  0.286432  0.500000  0.231500  1
  O  O16  1  0.786432  0.000000  0.768500  1
  O  O17  1  0.213568  0.000000  0.768500  1
