# generated using pymatgen
data_SiO2
_symmetry_space_group_name_H-M   'P 1'
_cell_length_a   11.29919792
_cell_length_b   11.29919792
_cell_length_c   5.11937230
_cell_angle_alpha   90.00000000
_cell_angle_beta   90.00000000
_cell_angle_gamma   103.02140863
_symmetry_Int_Tables_number   1
_chemical_formula_structural   SiO2
_chemical_formula_sum   'Si12 O24'
_cell_volume   636.79315028
_cell_formula_units_Z   12
loop_
 _symmetry_equiv_pos_site_id
 _symmetry_equiv_pos_as_xyz
  1  'x, y, z'
loop_
 _atom_site_type_symbol
 _atom_site_label
 _atom_site_symmetry_multiplicity
 _atom_site_fract_x
 _atom_site_fract_y
 _atom_site_fract_z
 _atom_site_occupancy
  Si  Si0  1  0.416778  0.994718  0.509208  1
  Si  Si1  1  0.583222  0.005282  0.009208  1
  Si  Si2  1  0.005282  0.583222  0.509208  1
  Si  Si3  1  0.994718  0.416778  0.009208  1
  Si  Si4  1  0.656412  0.753589  0.084560  1
  Si  Si5  1  0.343588  0.246411  0.584560  1
  Si  Si6  1  0.246411  0.343588  0.084560  1
  Si  Si7  1  0.753589  0.656412  0.584560  1
  Si  Si8  1  0.274180  0.725820  0.607883  1
  Si  Si9  1  0.725820  0.274180  0.107883  1
  Si  Si10  1  0.377355  0.622645  0.107408  1
  Si  Si11  1  0.622645  0.377355  0.607408  1
  O  O12  1  0.350061  0.107222  0.524801  1
  O  O13  1  0.649939  0.892778  0.024801  1
  O  O14  1  0.892778  0.649939  0.524801  1
  O  O15  1  0.107222  0.350061  0.024801  1
  O  O16  1  0.522555  0.663537  0.059005  1
  O  O17  1  0.477445  0.336463  0.559005  1
  O  O18  1  0.336463  0.477445  0.059005  1
  O  O19  1  0.663537  0.522555  0.559005  1
  O  O20  1  0.306321  0.693679  0.905539  1
  O  O21  1  0.693679  0.306321  0.405539  1
  O  O22  1  0.314939  0.871389  0.565318  1
  O  O23  1  0.685061  0.128611  0.065318  1
  O  O24  1  0.654542  0.345458  0.905796  1
  O  O25  1  0.345458  0.654542  0.405796  1
  O  O26  1  0.987613  0.472000  0.717851  1
  O  O27  1  0.012387  0.528000  0.217851  1
  O  O28  1  0.528000  0.012387  0.717851  1
  O  O29  1  0.472000  0.987613  0.217851  1
  O  O30  1  0.747139  0.710144  0.877343  1
  O  O31  1  0.252861  0.289856  0.377343  1
  O  O32  1  0.289856  0.252861  0.877343  1
  O  O33  1  0.710144  0.747139  0.377343  1
  O  O34  1  0.871389  0.314939  0.065318  1
  O  O35  1  0.128611  0.685061  0.565318  1
