# generated using pymatgen
data_Na5Tb(MoO4)4
_symmetry_space_group_name_H-M   'P 1'
_cell_length_a   10.03091259
_cell_length_b   10.03091259
_cell_length_c   10.03091259
_cell_angle_alpha   109.40266419
_cell_angle_beta   109.40266419
_cell_angle_gamma   109.60842070
_symmetry_Int_Tables_number   1
_chemical_formula_structural   Na5Tb(MoO4)4
_chemical_formula_sum   'Na10 Tb2 Mo8 O32'
_cell_volume   776.95806418
_cell_formula_units_Z   2
loop_
 _symmetry_equiv_pos_site_id
 _symmetry_equiv_pos_as_xyz
  1  'x, y, z'
loop_
 _atom_site_type_symbol
 _atom_site_label
 _atom_site_symmetry_multiplicity
 _atom_site_fract_x
 _atom_site_fract_y
 _atom_site_fract_z
 _atom_site_occupancy
  Na  Na0  1  0.735824  0.153073  0.824684  1
  Na  Na1  1  0.161140  0.485824  0.082751  1
  Na  Na2  1  0.403073  0.078389  0.917249  1
  Na  Na3  1  0.328389  0.911140  0.175316  1
  Na  Na4  1  0.514176  0.596927  0.675316  1
  Na  Na5  1  0.088860  0.264176  0.417249  1
  Na  Na6  1  0.846927  0.671611  0.582751  1
  Na  Na7  1  0.921611  0.838860  0.324684  1
  Na  Na8  1  0.250000  0.750000  0.500000  1
  Na  Na9  1  0.000000  0.000000  0.000000  1
  Tb  Tb10  1  0.500000  0.500000  0.000000  1
  Tb  Tb11  1  0.750000  0.250000  0.500000  1
  Mo  Mo12  1  0.669910  0.944793  0.087458  1
  Mo  Mo13  1  0.832452  0.419910  0.225117  1
  Mo  Mo14  1  0.392665  0.167548  0.587458  1
  Mo  Mo15  1  0.055207  0.142665  0.725117  1
  Mo  Mo16  1  0.417548  0.330090  0.274883  1
  Mo  Mo17  1  0.580090  0.805207  0.412542  1
  Mo  Mo18  1  0.857335  0.582452  0.912542  1
  Mo  Mo19  1  0.194793  0.607335  0.774883  1
  O  O20  1  0.477607  0.381154  0.737371  1
  O  O21  1  0.990236  0.227607  0.596453  1
  O  O22  1  0.631154  0.393783  0.403547  1
  O  O23  1  0.643783  0.740236  0.262629  1
  O  O24  1  0.772393  0.368846  0.762629  1
  O  O25  1  0.259764  0.522393  0.903547  1
  O  O26  1  0.618846  0.356217  0.096453  1
  O  O27  1  0.606217  0.009764  0.237371  1
  O  O28  1  0.475102  0.146640  0.450809  1
  O  O29  1  0.274293  0.225102  0.828462  1
  O  O30  1  0.396640  0.445832  0.171538  1
  O  O31  1  0.695832  0.024293  0.549191  1
  O  O32  1  0.774898  0.603360  0.049191  1
  O  O33  1  0.975707  0.524898  0.671538  1
  O  O34  1  0.853360  0.304168  0.328462  1
  O  O35  1  0.554168  0.725707  0.950809  1
  O  O36  1  0.427341  0.046200  0.677640  1
  O  O37  1  0.999700  0.177341  0.881141  1
  O  O38  1  0.296200  0.118559  0.118859  1
  O  O39  1  0.368559  0.749700  0.322360  1
  O  O40  1  0.638504  0.032594  0.960867  1
  O  O41  1  0.927637  0.388504  0.105909  1
  O  O42  1  0.282594  0.821727  0.894091  1
  O  O43  1  0.071727  0.677637  0.039133  1
  O  O44  1  0.611496  0.717406  0.539133  1
  O  O45  1  0.322363  0.361496  0.394091  1
  O  O46  1  0.967406  0.928273  0.605909  1
  O  O47  1  0.178273  0.072363  0.460867  1
  O  O48  1  0.881441  0.000300  0.177640  1
  O  O49  1  0.953800  0.631441  0.381141  1
  O  O50  1  0.250300  0.572659  0.618859  1
  O  O51  1  0.822659  0.703800  0.822360  1
