# generated using pymatgen
data_Na3GeTe3
_symmetry_space_group_name_H-M   'P 1'
_cell_length_a   8.91336209
_cell_length_b   13.07218957
_cell_length_c   9.07031112
_cell_angle_alpha   90.00000000
_cell_angle_beta   119.76808443
_cell_angle_gamma   90.00000000
_symmetry_Int_Tables_number   1
_chemical_formula_structural   Na3GeTe3
_chemical_formula_sum   'Na12 Ge4 Te12'
_cell_volume   917.38763852
_cell_formula_units_Z   4
loop_
 _symmetry_equiv_pos_site_id
 _symmetry_equiv_pos_as_xyz
  1  'x, y, z'
loop_
 _atom_site_type_symbol
 _atom_site_label
 _atom_site_symmetry_multiplicity
 _atom_site_fract_x
 _atom_site_fract_y
 _atom_site_fract_z
 _atom_site_occupancy
  Na  Na0  1  0.006009  0.347535  0.523249  1
  Na  Na1  1  0.993991  0.847535  0.976751  1
  Na  Na2  1  0.993991  0.652465  0.476751  1
  Na  Na3  1  0.006009  0.152465  0.023249  1
  Na  Na4  1  0.770343  0.942723  0.470755  1
  Na  Na5  1  0.229657  0.442723  0.029245  1
  Na  Na6  1  0.229657  0.057277  0.529245  1
  Na  Na7  1  0.770343  0.557277  0.970755  1
  Na  Na8  1  0.528296  0.230912  0.269649  1
  Na  Na9  1  0.471704  0.730912  0.230351  1
  Na  Na10  1  0.471704  0.769088  0.730351  1
  Na  Na11  1  0.528296  0.269088  0.769649  1
  Ge  Ge12  1  0.653639  0.989995  0.034898  1
  Ge  Ge13  1  0.346361  0.489995  0.465102  1
  Ge  Ge14  1  0.346361  0.010005  0.965102  1
  Ge  Ge15  1  0.653639  0.510005  0.534898  1
  Te  Te16  1  0.751223  0.801681  0.135195  1
  Te  Te17  1  0.248777  0.301681  0.364805  1
  Te  Te18  1  0.248777  0.198319  0.864805  1
  Te  Te19  1  0.751223  0.698319  0.635195  1
  Te  Te20  1  0.657727  0.028732  0.754692  1
  Te  Te21  1  0.342273  0.528732  0.745308  1
  Te  Te22  1  0.342273  0.971268  0.245308  1
  Te  Te23  1  0.657727  0.471268  0.254692  1
  Te  Te24  1  0.842296  0.123737  0.268688  1
  Te  Te25  1  0.157704  0.623737  0.231312  1
  Te  Te26  1  0.157704  0.876263  0.731312  1
  Te  Te27  1  0.842296  0.376263  0.768688  1
