# generated using pymatgen
data_Rb2Ti(SiO3)3
_symmetry_space_group_name_H-M   'P 1'
_cell_length_a   7.00224811
_cell_length_b   7.00224811
_cell_length_c   10.10434420
_cell_angle_alpha   90.00000000
_cell_angle_beta   90.00000000
_cell_angle_gamma   120.00000000
_symmetry_Int_Tables_number   1
_chemical_formula_structural   Rb2Ti(SiO3)3
_chemical_formula_sum   'Rb4 Ti2 Si6 O18'
_cell_volume   429.05577671
_cell_formula_units_Z   2
loop_
 _symmetry_equiv_pos_site_id
 _symmetry_equiv_pos_as_xyz
  1  'x, y, z'
loop_
 _atom_site_type_symbol
 _atom_site_label
 _atom_site_symmetry_multiplicity
 _atom_site_fract_x
 _atom_site_fract_y
 _atom_site_fract_z
 _atom_site_occupancy
  Rb  Rb0  1  0.333333  0.666667  0.439995  1
  Rb  Rb1  1  0.666667  0.333333  0.939995  1
  Rb  Rb2  1  0.666667  0.333333  0.560005  1
  Rb  Rb3  1  0.333333  0.666667  0.060005  1
  Ti  Ti4  1  0.000000  0.000000  0.500000  1
  Ti  Ti5  1  0.000000  0.000000  0.000000  1
  Si  Si6  1  0.621098  0.761635  0.750000  1
  Si  Si7  1  0.859463  0.621098  0.250000  1
  Si  Si8  1  0.761635  0.140537  0.250000  1
  Si  Si9  1  0.238365  0.859463  0.750000  1
  Si  Si10  1  0.140537  0.378902  0.750000  1
  Si  Si11  1  0.378902  0.238365  0.250000  1
  O  O12  1  0.247514  0.207647  0.387032  1
  O  O13  1  0.039867  0.247514  0.887032  1
  O  O14  1  0.207647  0.960133  0.887032  1
  O  O15  1  0.792353  0.039867  0.387032  1
  O  O16  1  0.960133  0.752486  0.387032  1
  O  O17  1  0.752486  0.792353  0.887032  1
  O  O18  1  0.752486  0.792353  0.612968  1
  O  O19  1  0.960133  0.752486  0.112968  1
  O  O20  1  0.792353  0.039867  0.112968  1
  O  O21  1  0.207647  0.960133  0.612968  1
  O  O22  1  0.039867  0.247514  0.612968  1
  O  O23  1  0.247514  0.207647  0.112968  1
  O  O24  1  0.498828  0.084452  0.250000  1
  O  O25  1  0.414377  0.498828  0.750000  1
  O  O26  1  0.084452  0.585623  0.750000  1
  O  O27  1  0.915548  0.414377  0.250000  1
  O  O28  1  0.585623  0.501172  0.250000  1
  O  O29  1  0.501172  0.915548  0.750000  1
