# generated using pymatgen
data_K4GeO4
_symmetry_space_group_name_H-M   'P 1'
_cell_length_a   6.49395173
_cell_length_b   6.53932528
_cell_length_c   9.42961953
_cell_angle_alpha   72.43934763
_cell_angle_beta   80.57724744
_cell_angle_gamma   65.66888182
_symmetry_Int_Tables_number   1
_chemical_formula_structural   K4GeO4
_chemical_formula_sum   'K8 Ge2 O8'
_cell_volume   347.50986167
_cell_formula_units_Z   2
loop_
 _symmetry_equiv_pos_site_id
 _symmetry_equiv_pos_as_xyz
  1  'x, y, z'
loop_
 _atom_site_type_symbol
 _atom_site_label
 _atom_site_symmetry_multiplicity
 _atom_site_fract_x
 _atom_site_fract_y
 _atom_site_fract_z
 _atom_site_occupancy
  K  K0  1  0.739255  0.906386  0.347956  1
  K  K1  1  0.260745  0.093614  0.652044  1
  K  K2  1  0.274614  0.545040  0.876401  1
  K  K3  1  0.725386  0.454960  0.123599  1
  K  K4  1  0.773858  0.006765  0.938925  1
  K  K5  1  0.226142  0.993235  0.061075  1
  K  K6  1  0.246369  0.730895  0.468862  1
  K  K7  1  0.753631  0.269105  0.531138  1
  Ge  Ge8  1  0.240199  0.346826  0.250338  1
  Ge  Ge9  1  0.759801  0.653174  0.749662  1
  O  O10  1  0.393977  0.336428  0.396154  1
  O  O11  1  0.606023  0.663572  0.603846  1
  O  O12  1  0.930441  0.824684  0.683359  1
  O  O13  1  0.069559  0.175316  0.316641  1
  O  O14  1  0.544763  0.787638  0.878719  1
  O  O15  1  0.455237  0.212362  0.121281  1
  O  O16  1  0.937256  0.358682  0.839872  1
  O  O17  1  0.062744  0.641318  0.160128  1
