# generated using pymatgen
data_TlZnAsO4
_symmetry_space_group_name_H-M   'P 1'
_cell_length_a   9.11082896
_cell_length_b   5.73520112
_cell_length_c   9.17394860
_cell_angle_alpha   90.00000000
_cell_angle_beta   91.05618755
_cell_angle_gamma   90.00000000
_symmetry_Int_Tables_number   1
_chemical_formula_structural   TlZnAsO4
_chemical_formula_sum   'Tl4 Zn4 As4 O16'
_cell_volume   479.27972275
_cell_formula_units_Z   4
loop_
 _symmetry_equiv_pos_site_id
 _symmetry_equiv_pos_as_xyz
  1  'x, y, z'
loop_
 _atom_site_type_symbol
 _atom_site_label
 _atom_site_symmetry_multiplicity
 _atom_site_fract_x
 _atom_site_fract_y
 _atom_site_fract_z
 _atom_site_occupancy
  Tl  Tl0  1  0.497811  0.518083  0.680754  1
  Tl  Tl1  1  0.502189  0.018083  0.319246  1
  Tl  Tl2  1  0.003272  0.481932  0.815971  1
  Tl  Tl3  1  0.996728  0.981932  0.184029  1
  Zn  Zn4  1  0.822477  0.501052  0.402050  1
  Zn  Zn5  1  0.177523  0.001052  0.597950  1
  Zn  Zn6  1  0.672620  0.967673  0.924660  1
  Zn  Zn7  1  0.327380  0.467673  0.075340  1
  As  As8  1  0.691047  0.469007  0.065511  1
  As  As9  1  0.188873  0.499268  0.401457  1
  As  As10  1  0.308953  0.969007  0.934489  1
  As  As11  1  0.811127  0.999268  0.598543  1
  O  O12  1  0.325659  0.912547  0.750997  1
  O  O13  1  0.674341  0.412547  0.249003  1
  O  O14  1  0.776932  0.291856  0.566549  1
  O  O15  1  0.223068  0.791856  0.433451  1
  O  O16  1  0.788014  0.247442  0.982633  1
  O  O17  1  0.211986  0.747442  0.017367  1
  O  O18  1  0.678257  0.899123  0.715155  1
  O  O19  1  0.321743  0.399123  0.284845  1
  O  O20  1  0.205763  0.341703  0.561583  1
  O  O21  1  0.794237  0.841703  0.438417  1
  O  O22  1  0.786393  0.723761  0.034805  1
  O  O23  1  0.213607  0.223761  0.965195  1
  O  O24  1  0.019217  0.462171  0.317916  1
  O  O25  1  0.980783  0.962171  0.682084  1
  O  O26  1  0.479163  0.992684  0.019529  1
  O  O27  1  0.520837  0.492684  0.980471  1
