# generated using pymatgen
data_NaAlP2O7
_symmetry_space_group_name_H-M   'P 1'
_cell_length_a   7.28369677
_cell_length_b   7.81459674
_cell_length_c   9.41157148
_cell_angle_alpha   90.00000000
_cell_angle_beta   111.65722049
_cell_angle_gamma   90.00000000
_symmetry_Int_Tables_number   1
_chemical_formula_structural   NaAlP2O7
_chemical_formula_sum   'Na4 Al4 P8 O28'
_cell_volume   497.88284105
_cell_formula_units_Z   4
loop_
 _symmetry_equiv_pos_site_id
 _symmetry_equiv_pos_as_xyz
  1  'x, y, z'
loop_
 _atom_site_type_symbol
 _atom_site_label
 _atom_site_symmetry_multiplicity
 _atom_site_fract_x
 _atom_site_fract_y
 _atom_site_fract_z
 _atom_site_occupancy
  Na  Na0  1  0.709568  0.474103  0.202989  1
  Na  Na1  1  0.290432  0.974103  0.297011  1
  Na  Na2  1  0.290432  0.525897  0.797011  1
  Na  Na3  1  0.709568  0.025897  0.702989  1
  Al  Al4  1  0.260052  0.989648  0.747293  1
  Al  Al5  1  0.739948  0.489648  0.752707  1
  Al  Al6  1  0.739948  0.010352  0.252707  1
  Al  Al7  1  0.260052  0.510352  0.247293  1
  P  P8  1  0.071442  0.755525  0.450229  1
  P  P9  1  0.928558  0.255525  0.049771  1
  P  P10  1  0.928558  0.244475  0.549771  1
  P  P11  1  0.071442  0.744475  0.950229  1
  P  P12  1  0.669790  0.707072  0.452633  1
  P  P13  1  0.330210  0.207072  0.047367  1
  P  P14  1  0.330210  0.292928  0.547367  1
  P  P15  1  0.669790  0.792928  0.952633  1
  O  O16  1  0.685442  0.690865  0.618160  1
  O  O17  1  0.314558  0.190865  0.881840  1
  O  O18  1  0.314558  0.309135  0.381840  1
  O  O19  1  0.685442  0.809135  0.118160  1
  O  O20  1  0.190678  0.793233  0.617976  1
  O  O21  1  0.809322  0.293233  0.882024  1
  O  O22  1  0.809322  0.206767  0.382024  1
  O  O23  1  0.190678  0.706767  0.117976  1
  O  O24  1  0.642552  0.894929  0.399334  1
  O  O25  1  0.357448  0.394929  0.100666  1
  O  O26  1  0.357448  0.105071  0.600666  1
  O  O27  1  0.642552  0.605071  0.899334  1
  O  O28  1  0.998097  0.917343  0.353320  1
  O  O29  1  0.001903  0.417343  0.146680  1
  O  O30  1  0.001903  0.082657  0.646680  1
  O  O31  1  0.998097  0.582657  0.853320  1
  O  O32  1  0.877029  0.854343  0.939187  1
  O  O33  1  0.122971  0.354343  0.560813  1
  O  O34  1  0.122971  0.145657  0.060813  1
  O  O35  1  0.877029  0.645657  0.439187  1
  O  O36  1  0.523137  0.914100  0.841040  1
  O  O37  1  0.476863  0.414100  0.658960  1
  O  O38  1  0.476863  0.085900  0.158960  1
  O  O39  1  0.523137  0.585900  0.341040  1
  O  O40  1  0.185508  0.861889  0.885375  1
  O  O41  1  0.814492  0.361889  0.614625  1
  O  O42  1  0.814492  0.138111  0.114625  1
  O  O43  1  0.185508  0.638111  0.385375  1
