# generated using pymatgen
data_Tl2MoO4
_symmetry_space_group_name_H-M   'P 1'
_cell_length_a   6.36249972
_cell_length_b   6.36249972
_cell_length_c   8.26605708
_cell_angle_alpha   89.22146501
_cell_angle_beta   90.77853499
_cell_angle_gamma   116.88500094
_symmetry_Int_Tables_number   1
_chemical_formula_structural   Tl2MoO4
_chemical_formula_sum   'Tl4 Mo2 O8'
_cell_volume   298.41637907
_cell_formula_units_Z   2
loop_
 _symmetry_equiv_pos_site_id
 _symmetry_equiv_pos_as_xyz
  1  'x, y, z'
loop_
 _atom_site_type_symbol
 _atom_site_label
 _atom_site_symmetry_multiplicity
 _atom_site_fract_x
 _atom_site_fract_y
 _atom_site_fract_z
 _atom_site_occupancy
  Tl  Tl0  1  0.349155  0.667774  0.188437  1
  Tl  Tl1  1  0.667774  0.349155  0.811563  1
  Tl  Tl2  1  0.962286  0.962286  0.500000  1
  Tl  Tl3  1  0.990582  0.990582  0.000000  1
  Mo  Mo4  1  0.634957  0.315735  0.304176  1
  Mo  Mo5  1  0.315735  0.634957  0.695824  1
  O  O6  1  0.761472  0.596620  0.199261  1
  O  O7  1  0.596620  0.761472  0.800739  1
  O  O8  1  0.714037  0.109864  0.205763  1
  O  O9  1  0.109864  0.714037  0.794237  1
  O  O10  1  0.319879  0.207458  0.293083  1
  O  O11  1  0.207458  0.319879  0.706917  1
  O  O12  1  0.359554  0.740027  0.490380  1
  O  O13  1  0.740027  0.359554  0.509620  1
