# generated using pymatgen
data_DyTa7O19
_symmetry_space_group_name_H-M   'P 1'
_cell_length_a   6.26952786
_cell_length_b   6.26952786
_cell_length_c   20.07634181
_cell_angle_alpha   90.00000000
_cell_angle_beta   90.00000000
_cell_angle_gamma   120.00000000
_symmetry_Int_Tables_number   1
_chemical_formula_structural   DyTa7O19
_chemical_formula_sum   'Dy2 Ta14 O38'
_cell_volume   683.41559632
_cell_formula_units_Z   2
loop_
 _symmetry_equiv_pos_site_id
 _symmetry_equiv_pos_as_xyz
  1  'x, y, z'
loop_
 _atom_site_type_symbol
 _atom_site_label
 _atom_site_symmetry_multiplicity
 _atom_site_fract_x
 _atom_site_fract_y
 _atom_site_fract_z
 _atom_site_occupancy
  Dy  Dy0  1  0.000000  0.000000  0.500000  1
  Dy  Dy1  1  0.000000  0.000000  0.000000  1
  Ta  Ta2  1  0.307414  0.973861  0.655494  1
  Ta  Ta3  1  0.026139  0.692586  0.344506  1
  Ta  Ta4  1  0.026139  0.333552  0.655494  1
  Ta  Ta5  1  0.666448  0.692586  0.655494  1
  Ta  Ta6  1  0.026139  0.333552  0.844506  1
  Ta  Ta7  1  0.666448  0.692586  0.844506  1
  Ta  Ta8  1  0.307414  0.973861  0.844506  1
  Ta  Ta9  1  0.666448  0.973861  0.155494  1
  Ta  Ta10  1  0.307414  0.333552  0.155494  1
  Ta  Ta11  1  0.307414  0.333552  0.344506  1
  Ta  Ta12  1  0.666448  0.973861  0.344506  1
  Ta  Ta13  1  0.026139  0.692586  0.155494  1
  Ta  Ta14  1  0.333333  0.666667  0.500000  1
  Ta  Ta15  1  0.333333  0.666667  0.000000  1
  O  O16  1  0.000000  0.000000  0.631344  1
  O  O17  1  0.000000  0.000000  0.868656  1
  O  O18  1  0.000000  0.000000  0.368656  1
  O  O19  1  0.000000  0.000000  0.131344  1
  O  O20  1  0.333333  0.666667  0.665804  1
  O  O21  1  0.333333  0.666667  0.834196  1
  O  O22  1  0.333333  0.666667  0.334196  1
  O  O23  1  0.333333  0.666667  0.165804  1
  O  O24  1  0.421450  0.333554  0.652959  1
  O  O25  1  0.666446  0.578550  0.347041  1
  O  O26  1  0.666446  0.087896  0.652959  1
  O  O27  1  0.912104  0.578550  0.652959  1
  O  O28  1  0.666446  0.087896  0.847041  1
  O  O29  1  0.912104  0.578550  0.847041  1
  O  O30  1  0.421450  0.333554  0.847041  1
  O  O31  1  0.912104  0.333554  0.152959  1
  O  O32  1  0.043250  0.751228  0.250000  1
  O  O33  1  0.707978  0.956750  0.250000  1
  O  O34  1  0.248772  0.292022  0.250000  1
  O  O35  1  0.248772  0.956750  0.750000  1
  O  O36  1  0.707978  0.751228  0.750000  1
  O  O37  1  0.043250  0.292022  0.750000  1
  O  O38  1  0.096652  0.719389  0.055687  1
  O  O39  1  0.622737  0.903348  0.444313  1
  O  O40  1  0.280611  0.377263  0.444313  1
  O  O41  1  0.280611  0.377263  0.055687  1
  O  O42  1  0.622737  0.903348  0.055687  1
  O  O43  1  0.280611  0.903348  0.944313  1
  O  O44  1  0.622737  0.719389  0.944313  1
  O  O45  1  0.096652  0.377263  0.944313  1
  O  O46  1  0.622737  0.719389  0.555687  1
  O  O47  1  0.096652  0.377263  0.555687  1
  O  O48  1  0.096652  0.719389  0.444313  1
  O  O49  1  0.280611  0.903348  0.555687  1
  O  O50  1  0.666446  0.578550  0.152959  1
  O  O51  1  0.912104  0.333554  0.347041  1
  O  O52  1  0.421450  0.087896  0.347041  1
  O  O53  1  0.421450  0.087896  0.152959  1
