# generated using pymatgen
data_K4GeO4
_symmetry_space_group_name_H-M   'P 1'
_cell_length_a   10.60092902
_cell_length_b   6.65846398
_cell_length_c   10.66955981
_cell_angle_alpha   90.00000000
_cell_angle_beta   111.43265895
_cell_angle_gamma   90.00000000
_symmetry_Int_Tables_number   1
_chemical_formula_structural   K4GeO4
_chemical_formula_sum   'K16 Ge4 O16'
_cell_volume   701.04049511
_cell_formula_units_Z   4
loop_
 _symmetry_equiv_pos_site_id
 _symmetry_equiv_pos_as_xyz
  1  'x, y, z'
loop_
 _atom_site_type_symbol
 _atom_site_label
 _atom_site_symmetry_multiplicity
 _atom_site_fract_x
 _atom_site_fract_y
 _atom_site_fract_z
 _atom_site_occupancy
  K  K0  1  0.929423  0.193854  0.798173  1
  K  K1  1  0.929423  0.306146  0.298173  1
  K  K2  1  0.661341  0.605286  0.088355  1
  K  K3  1  0.443764  0.909222  0.808072  1
  K  K4  1  0.556236  0.409222  0.691928  1
  K  K5  1  0.556236  0.090778  0.191928  1
  K  K6  1  0.443764  0.590778  0.308072  1
  K  K7  1  0.134429  0.164271  0.610675  1
  K  K8  1  0.865571  0.664271  0.889325  1
  K  K9  1  0.865571  0.835729  0.389325  1
  K  K10  1  0.134429  0.335729  0.110675  1
  K  K11  1  0.661341  0.894714  0.588355  1
  K  K12  1  0.338659  0.394714  0.911645  1
  K  K13  1  0.338659  0.105286  0.411645  1
  K  K14  1  0.070577  0.693854  0.701827  1
  K  K15  1  0.070577  0.806146  0.201827  1
  Ge  Ge16  1  0.256971  0.633743  0.507624  1
  Ge  Ge17  1  0.743029  0.366257  0.492376  1
  Ge  Ge18  1  0.256971  0.866257  0.007624  1
  Ge  Ge19  1  0.743029  0.133743  0.992376  1
  O  O20  1  0.274232  0.002710  0.158177  1
  O  O21  1  0.580770  0.256139  0.466605  1
  O  O22  1  0.419230  0.756139  0.033395  1
  O  O23  1  0.200325  0.029451  0.862024  1
  O  O24  1  0.799675  0.529451  0.637976  1
  O  O25  1  0.799675  0.970549  0.137976  1
  O  O26  1  0.200325  0.470549  0.362024  1
  O  O27  1  0.134143  0.666963  0.978361  1
  O  O28  1  0.865857  0.166963  0.521639  1
  O  O29  1  0.865857  0.333037  0.021639  1
  O  O30  1  0.134143  0.833037  0.478361  1
  O  O31  1  0.274232  0.497290  0.658177  1
  O  O32  1  0.419230  0.743861  0.533395  1
  O  O33  1  0.725768  0.997290  0.841823  1
  O  O34  1  0.725768  0.502710  0.341823  1
  O  O35  1  0.580770  0.243861  0.966605  1
