# generated using pymatgen
data_LuCrO4
_symmetry_space_group_name_H-M   'P 1'
_cell_length_a   5.88612993
_cell_length_b   5.88612993
_cell_length_c   5.88612993
_cell_angle_alpha   106.15858798
_cell_angle_beta   106.15858798
_cell_angle_gamma   116.32140577
_symmetry_Int_Tables_number   1
_chemical_formula_structural   LuCrO4
_chemical_formula_sum   'Lu2 Cr2 O8'
_cell_volume   155.28599711
_cell_formula_units_Z   2
loop_
 _symmetry_equiv_pos_site_id
 _symmetry_equiv_pos_as_xyz
  1  'x, y, z'
loop_
 _atom_site_type_symbol
 _atom_site_label
 _atom_site_symmetry_multiplicity
 _atom_site_fract_x
 _atom_site_fract_y
 _atom_site_fract_z
 _atom_site_occupancy
  Lu  Lu0  1  0.750000  0.250000  0.500000  1
  Lu  Lu1  1  0.500000  0.500000  0.000000  1
  Cr  Cr2  1  0.250000  0.750000  0.500000  1
  Cr  Cr3  1  0.000000  0.000000  0.000000  1
  O  O4  1  0.364724  0.178039  0.186685  1
  O  O5  1  0.428039  0.741354  0.313315  1
  O  O6  1  0.428039  0.114724  0.686685  1
  O  O7  1  0.991354  0.178039  0.813315  1
  O  O8  1  0.821961  0.008646  0.186685  1
  O  O9  1  0.885276  0.571961  0.313315  1
  O  O10  1  0.258646  0.571961  0.686685  1
  O  O11  1  0.821961  0.635276  0.813315  1
