# generated using pymatgen
data_LiFeP2O7
_symmetry_space_group_name_H-M   'P 1'
_cell_length_a   4.90289053
_cell_length_b   8.23655179
_cell_length_c   7.03305278
_cell_angle_alpha   90.00000000
_cell_angle_beta   108.84998331
_cell_angle_gamma   90.00000000
_symmetry_Int_Tables_number   1
_chemical_formula_structural   LiFeP2O7
_chemical_formula_sum   'Li2 Fe2 P4 O14'
_cell_volume   268.78278238
_cell_formula_units_Z   2
loop_
 _symmetry_equiv_pos_site_id
 _symmetry_equiv_pos_as_xyz
  1  'x, y, z'
loop_
 _atom_site_type_symbol
 _atom_site_label
 _atom_site_symmetry_multiplicity
 _atom_site_fract_x
 _atom_site_fract_y
 _atom_site_fract_z
 _atom_site_occupancy
  Li  Li0  1  0.823005  0.861462  0.334151  1
  Li  Li1  1  0.176995  0.361462  0.665849  1
  Fe  Fe2  1  0.216605  0.002035  0.733627  1
  Fe  Fe3  1  0.783395  0.502035  0.266373  1
  P  P4  1  0.785205  0.786820  0.916178  1
  P  P5  1  0.214795  0.286820  0.083822  1
  P  P6  1  0.601009  0.182661  0.476388  1
  P  P7  1  0.398991  0.682661  0.523612  1
  O  O8  1  0.598174  0.654660  0.754835  1
  O  O9  1  0.051546  0.829594  0.861023  1
  O  O10  1  0.948454  0.329594  0.138977  1
  O  O11  1  0.860530  0.698048  0.118271  1
  O  O12  1  0.814355  0.040771  0.517297  1
  O  O13  1  0.753973  0.347048  0.487514  1
  O  O14  1  0.597420  0.681358  0.394703  1
  O  O15  1  0.185645  0.540771  0.482703  1
  O  O16  1  0.401826  0.154660  0.245165  1
  O  O17  1  0.402443  0.435703  0.084230  1
  O  O18  1  0.597557  0.935703  0.915770  1
  O  O19  1  0.402580  0.181358  0.605297  1
  O  O20  1  0.246027  0.847048  0.512486  1
  O  O21  1  0.139470  0.198048  0.881729  1
