# generated using pymatgen
data_BeCN2
_symmetry_space_group_name_H-M   'P 1'
_cell_length_a   4.39133862
_cell_length_b   4.39133862
_cell_length_c   4.39133862
_cell_angle_alpha   129.25106782
_cell_angle_beta   129.25106782
_cell_angle_gamma   74.60692914
_symmetry_Int_Tables_number   1
_chemical_formula_structural   BeCN2
_chemical_formula_sum   'Be2 C2 N4'
_cell_volume   49.47935614
_cell_formula_units_Z   2
loop_
 _symmetry_equiv_pos_site_id
 _symmetry_equiv_pos_as_xyz
  1  'x, y, z'
loop_
 _atom_site_type_symbol
 _atom_site_label
 _atom_site_symmetry_multiplicity
 _atom_site_fract_x
 _atom_site_fract_y
 _atom_site_fract_z
 _atom_site_occupancy
  Be  Be0  1  0.750000  0.250000  0.500000  1
  Be  Be1  1  1.000000  0.000000  0.000000  1
  C  C2  1  0.250000  0.750000  0.500000  1
  C  C3  1  0.500000  0.500000  0.000000  1
  N  N4  1  0.170386  0.125000  0.545386  1
  N  N5  1  0.875000  0.420386  0.045386  1
  N  N6  1  0.375000  0.829614  0.954614  1
  N  N7  1  0.579614  0.625000  0.454614  1
