# generated using pymatgen
data_Tl2TeS3
_symmetry_space_group_name_H-M   'P 1'
_cell_length_a   6.23882990
_cell_length_b   8.81875106
_cell_length_c   13.39413641
_cell_angle_alpha   90.00000000
_cell_angle_beta   90.00000000
_cell_angle_gamma   90.00000000
_symmetry_Int_Tables_number   1
_chemical_formula_structural   Tl2TeS3
_chemical_formula_sum   'Tl8 Te4 S12'
_cell_volume   736.92780941
_cell_formula_units_Z   4
loop_
 _symmetry_equiv_pos_site_id
 _symmetry_equiv_pos_as_xyz
  1  'x, y, z'
loop_
 _atom_site_type_symbol
 _atom_site_label
 _atom_site_symmetry_multiplicity
 _atom_site_fract_x
 _atom_site_fract_y
 _atom_site_fract_z
 _atom_site_occupancy
  Tl  Tl0  1  0.235690  0.842618  0.579216  1
  Tl  Tl1  1  0.764310  0.157382  0.079216  1
  Tl  Tl2  1  0.264310  0.342618  0.920784  1
  Tl  Tl3  1  0.735690  0.657382  0.420784  1
  Tl  Tl4  1  0.735690  0.657382  0.079216  1
  Tl  Tl5  1  0.235690  0.842618  0.920784  1
  Tl  Tl6  1  0.764310  0.157382  0.420784  1
  Tl  Tl7  1  0.264310  0.342618  0.579216  1
  Te  Te8  1  0.714587  0.573492  0.750000  1
  Te  Te9  1  0.785413  0.073492  0.750000  1
  Te  Te10  1  0.214587  0.926508  0.250000  1
  Te  Te11  1  0.285413  0.426508  0.250000  1
  S  S12  1  0.781907  0.412779  0.891194  1
  S  S13  1  0.281907  0.087221  0.108806  1
  S  S14  1  0.718093  0.912779  0.608806  1
  S  S15  1  0.218093  0.587221  0.391194  1
  S  S16  1  0.218093  0.587221  0.108806  1
  S  S17  1  0.718093  0.912779  0.891194  1
  S  S18  1  0.281907  0.087221  0.391194  1
  S  S19  1  0.327964  0.578896  0.750000  1
  S  S20  1  0.672036  0.421104  0.250000  1
  S  S21  1  0.172036  0.078896  0.750000  1
  S  S22  1  0.827964  0.921104  0.250000  1
  S  S23  1  0.781907  0.412779  0.608806  1
