# generated using pymatgen
data_Tb2Ti2S2O5
_symmetry_space_group_name_H-M   'P 1'
_cell_length_a   11.83613222
_cell_length_b   11.83613222
_cell_length_c   11.83613222
_cell_angle_alpha   161.50064638
_cell_angle_beta   161.50064638
_cell_angle_gamma   26.27826165
_symmetry_Int_Tables_number   1
_chemical_formula_structural   Tb2Ti2S2O5
_chemical_formula_sum   'Tb2 Ti2 S2 O5'
_cell_volume   166.87844102
_cell_formula_units_Z   1
loop_
 _symmetry_equiv_pos_site_id
 _symmetry_equiv_pos_as_xyz
  1  'x, y, z'
loop_
 _atom_site_type_symbol
 _atom_site_label
 _atom_site_symmetry_multiplicity
 _atom_site_fract_x
 _atom_site_fract_y
 _atom_site_fract_z
 _atom_site_occupancy
  Tb  Tb0  1  0.833346  0.833346  0.000000  1
  Tb  Tb1  1  0.166654  0.166654  0.000000  1
  Ti  Ti2  1  0.421270  0.421270  0.000000  1
  Ti  Ti3  1  0.578730  0.578730  0.000000  1
  S  S4  1  0.294945  0.294945  0.000000  1
  S  S5  1  0.705055  0.705055  0.000000  1
  O  O6  1  0.900583  0.400583  0.500000  1
  O  O7  1  0.400583  0.900583  0.500000  1
  O  O8  1  0.099417  0.599417  0.500000  1
  O  O9  1  0.599417  0.099417  0.500000  1
  O  O10  1  0.500000  0.500000  0.000000  1
