# generated using pymatgen
data_VCrMoO7
_symmetry_space_group_name_H-M   'P 1'
_cell_length_a   5.64009124
_cell_length_b   6.75485123
_cell_length_c   8.02104453
_cell_angle_alpha   96.01776738
_cell_angle_beta   90.03781718
_cell_angle_gamma   101.40602033
_symmetry_Int_Tables_number   1
_chemical_formula_structural   VCrMoO7
_chemical_formula_sum   'V2 Cr2 Mo2 O14'
_cell_volume   297.82794984
_cell_formula_units_Z   2
loop_
 _symmetry_equiv_pos_site_id
 _symmetry_equiv_pos_as_xyz
  1  'x, y, z'
loop_
 _atom_site_type_symbol
 _atom_site_label
 _atom_site_symmetry_multiplicity
 _atom_site_fract_x
 _atom_site_fract_y
 _atom_site_fract_z
 _atom_site_occupancy
  V  V0  1  0.691284  0.761257  0.336660  1
  V  V1  1  0.308716  0.238743  0.663340  1
  Cr  Cr2  1  0.170298  0.688038  0.595540  1
  Cr  Cr3  1  0.829702  0.311962  0.404460  1
  Mo  Mo4  1  0.702518  0.787154  0.890468  1
  Mo  Mo5  1  0.297482  0.212846  0.109532  1
  O  O6  1  0.777916  0.048750  0.899525  1
  O  O7  1  0.222084  0.951250  0.100475  1
  O  O8  1  0.427269  0.706014  0.768209  1
  O  O9  1  0.572731  0.293986  0.231791  1
  O  O10  1  0.932337  0.683035  0.780266  1
  O  O11  1  0.067663  0.316965  0.219734  1
  O  O12  1  0.203047  0.988080  0.612347  1
  O  O13  1  0.796953  0.011920  0.387653  1
  O  O14  1  0.105967  0.377306  0.576018  1
  O  O15  1  0.894033  0.622694  0.423982  1
  O  O16  1  0.334918  0.294136  0.891004  1
  O  O17  1  0.665082  0.705864  0.108996  1
  O  O18  1  0.586194  0.307196  0.582348  1
  O  O19  1  0.413806  0.692804  0.417652  1
