# generated using pymatgen
data_Cd4GeSe6
_symmetry_space_group_name_H-M   'P 1'
_cell_length_a   7.60393306
_cell_length_b   7.60393306
_cell_length_c   13.18728575
_cell_angle_alpha   72.87277853
_cell_angle_beta   107.12722147
_cell_angle_gamma   119.92042023
_symmetry_Int_Tables_number   1
_chemical_formula_structural   Cd4GeSe6
_chemical_formula_sum   'Cd8 Ge2 Se12'
_cell_volume   621.44552932
_cell_formula_units_Z   2
loop_
 _symmetry_equiv_pos_site_id
 _symmetry_equiv_pos_as_xyz
  1  'x, y, z'
loop_
 _atom_site_type_symbol
 _atom_site_label
 _atom_site_symmetry_multiplicity
 _atom_site_fract_x
 _atom_site_fract_y
 _atom_site_fract_z
 _atom_site_occupancy
  Cd  Cd0  1  0.283957  0.929028  0.493926  1
  Cd  Cd1  1  0.070972  0.716043  0.993926  1
  Cd  Cd2  1  0.806625  0.404706  0.305912  1
  Cd  Cd3  1  0.595294  0.193375  0.805912  1
  Cd  Cd4  1  0.431305  0.715473  0.300675  1
  Cd  Cd5  1  0.284527  0.568695  0.800675  1
  Cd  Cd6  1  0.197921  0.212138  0.143779  1
  Cd  Cd7  1  0.787862  0.802079  0.643779  1
  Ge  Ge8  1  0.197920  0.343628  0.557010  1
  Ge  Ge9  1  0.656372  0.802080  0.057010  1
  Se  Se10  1  0.928615  0.565315  0.808329  1
  Se  Se11  1  0.434685  0.071385  0.308329  1
  Se  Se12  1  0.994646  0.521598  0.502799  1
  Se  Se13  1  0.478402  0.005354  0.002799  1
  Se  Se14  1  0.079971  0.465267  0.186687  1
  Se  Se15  1  0.534733  0.920029  0.686687  1
  Se  Se16  1  0.775132  0.770925  0.245959  1
  Se  Se17  1  0.229075  0.224868  0.745959  1
  Se  Se18  1  0.480704  0.476772  0.003822  1
  Se  Se19  1  0.523228  0.519296  0.503822  1
  Se  Se20  1  0.956648  0.010594  0.976103  1
  Se  Se21  1  0.989406  0.043352  0.476103  1
