# generated using pymatgen
data_Pr4Si2S3O7
_symmetry_space_group_name_H-M   'P 1'
_cell_length_a   11.16533172
_cell_length_b   11.16533172
_cell_length_c   11.16533172
_cell_angle_alpha   114.32982574
_cell_angle_beta   114.32982574
_cell_angle_gamma   100.13816787
_symmetry_Int_Tables_number   1
_chemical_formula_structural   Pr4Si2S3O7
_chemical_formula_sum   'Pr16 Si8 S12 O28'
_cell_volume   1050.68662316
_cell_formula_units_Z   4
loop_
 _symmetry_equiv_pos_site_id
 _symmetry_equiv_pos_as_xyz
  1  'x, y, z'
loop_
 _atom_site_type_symbol
 _atom_site_label
 _atom_site_symmetry_multiplicity
 _atom_site_fract_x
 _atom_site_fract_y
 _atom_site_fract_z
 _atom_site_occupancy
  Pr  Pr0  1  0.171323  0.828677  0.000000  1
  Pr  Pr1  1  0.578677  0.078677  0.157353  1
  Pr  Pr2  1  0.921323  0.421323  0.842647  1
  Pr  Pr3  1  0.828677  0.171323  0.000000  1
  Pr  Pr4  1  0.578677  0.421323  0.500000  1
  Pr  Pr5  1  0.171323  0.171323  0.342647  1
  Pr  Pr6  1  0.828677  0.828677  0.657353  1
  Pr  Pr7  1  0.921323  0.078677  0.500000  1
  Pr  Pr8  1  0.044683  0.781674  0.263009  1
  Pr  Pr9  1  0.518666  0.781674  0.736991  1
  Pr  Pr10  1  0.218326  0.481334  0.263009  1
  Pr  Pr11  1  0.531674  0.294683  0.763009  1
  Pr  Pr12  1  0.531674  0.768666  0.236991  1
  Pr  Pr13  1  0.231334  0.468326  0.763009  1
  Pr  Pr14  1  0.705317  0.468326  0.236991  1
  Pr  Pr15  1  0.218326  0.955317  0.736991  1
  Si  Si16  1  0.651299  0.027282  0.624017  1
  Si  Si17  1  0.403265  0.027282  0.375983  1
  Si  Si18  1  0.972718  0.596735  0.624017  1
  Si  Si19  1  0.777282  0.901299  0.124017  1
  Si  Si20  1  0.777282  0.653265  0.875983  1
  Si  Si21  1  0.346735  0.222718  0.124017  1
  Si  Si22  1  0.098701  0.222718  0.875983  1
  Si  Si23  1  0.972718  0.348701  0.375983  1
  S  S24  1  0.750000  0.250000  0.500000  1
  S  S25  1  0.000000  0.000000  0.000000  1
  S  S26  1  0.500000  0.500000  0.000000  1
  S  S27  1  0.250000  0.750000  0.500000  1
  S  S28  1  0.225974  0.125000  0.600974  1
  S  S29  1  0.875000  0.774026  0.399026  1
  S  S30  1  0.375000  0.475974  0.600974  1
  S  S31  1  0.524026  0.625000  0.399026  1
  S  S32  1  0.524026  0.125000  0.899026  1
  S  S33  1  0.875000  0.475974  0.100974  1
  S  S34  1  0.375000  0.774026  0.899026  1
  S  S35  1  0.225974  0.625000  0.100974  1
  O  O36  1  0.020763  0.520763  0.500000  1
  O  O37  1  0.270763  0.270763  0.000000  1
  O  O38  1  0.729237  0.729237  0.000000  1
  O  O39  1  0.479237  0.979237  0.500000  1
  O  O40  1  0.224143  0.950300  0.273843  1
  O  O41  1  0.676457  0.950300  0.726157  1
  O  O42  1  0.049700  0.323543  0.273843  1
  O  O43  1  0.700300  0.474143  0.773843  1
  O  O44  1  0.700300  0.926457  0.226157  1
  O  O45  1  0.073543  0.299700  0.773843  1
  O  O46  1  0.525857  0.299700  0.226157  1
  O  O47  1  0.049700  0.775857  0.726157  1
  O  O48  1  0.309358  0.287323  0.259089  1
  O  O49  1  0.028234  0.050269  0.740911  1
  O  O50  1  0.949731  0.971766  0.259089  1
  O  O51  1  0.800269  0.559358  0.522035  1
  O  O52  1  0.037323  0.278234  0.477965  1
  O  O53  1  0.721766  0.962677  0.522035  1
  O  O54  1  0.440642  0.199731  0.477965  1
  O  O55  1  0.712677  0.690642  0.740911  1
  O  O56  1  0.440642  0.962677  0.240911  1
  O  O57  1  0.721766  0.199731  0.759089  1
  O  O58  1  0.800269  0.278234  0.240911  1
  O  O59  1  0.949731  0.690642  0.977965  1
  O  O60  1  0.712677  0.971766  0.022035  1
  O  O61  1  0.028234  0.287323  0.977965  1
  O  O62  1  0.309358  0.050269  0.022035  1
  O  O63  1  0.037323  0.559358  0.759089  1
