# generated using pymatgen
data_KPO3
_symmetry_space_group_name_H-M   'P 1'
_cell_length_a   4.50450679
_cell_length_b   5.93715273
_cell_length_c   12.80704400
_cell_angle_alpha   90.00000000
_cell_angle_beta   90.00000000
_cell_angle_gamma   90.00000000
_symmetry_Int_Tables_number   1
_chemical_formula_structural   KPO3
_chemical_formula_sum   'K4 P4 O12'
_cell_volume   342.51087760
_cell_formula_units_Z   4
loop_
 _symmetry_equiv_pos_site_id
 _symmetry_equiv_pos_as_xyz
  1  'x, y, z'
loop_
 _atom_site_type_symbol
 _atom_site_label
 _atom_site_symmetry_multiplicity
 _atom_site_fract_x
 _atom_site_fract_y
 _atom_site_fract_z
 _atom_site_occupancy
  K  K0  1  0.231056  0.750000  0.589496  1
  K  K1  1  0.731056  0.750000  0.910504  1
  K  K2  1  0.768944  0.250000  0.410504  1
  K  K3  1  0.268944  0.250000  0.089496  1
  P  P4  1  0.686064  0.250000  0.673424  1
  P  P5  1  0.186064  0.250000  0.826576  1
  P  P6  1  0.313936  0.750000  0.326576  1
  P  P7  1  0.813936  0.750000  0.173424  1
  O  O8  1  0.340374  0.250000  0.711556  1
  O  O9  1  0.840374  0.250000  0.788444  1
  O  O10  1  0.659626  0.750000  0.288444  1
  O  O11  1  0.159626  0.750000  0.211556  1
  O  O12  1  0.258029  0.532125  0.382656  1
  O  O13  1  0.758029  0.967875  0.117344  1
  O  O14  1  0.741971  0.032125  0.617344  1
  O  O15  1  0.241971  0.467875  0.882656  1
  O  O16  1  0.758029  0.532125  0.117344  1
  O  O17  1  0.258029  0.967875  0.382656  1
  O  O18  1  0.241971  0.032125  0.882656  1
  O  O19  1  0.741971  0.467875  0.617344  1
