# generated using pymatgen
data_MoS2
_symmetry_space_group_name_H-M   'P 1'
_cell_length_a   7.34095260
_cell_length_b   7.34095260
_cell_length_c   7.34095260
_cell_angle_alpha   25.10311908
_cell_angle_beta   25.10311908
_cell_angle_gamma   25.10311908
_symmetry_Int_Tables_number   1
_chemical_formula_structural   MoS2
_chemical_formula_sum   'Mo1 S2'
_cell_volume   62.64933332
_cell_formula_units_Z   1
loop_
 _symmetry_equiv_pos_site_id
 _symmetry_equiv_pos_as_xyz
  1  'x, y, z'
loop_
 _atom_site_type_symbol
 _atom_site_label
 _atom_site_symmetry_multiplicity
 _atom_site_fract_x
 _atom_site_fract_y
 _atom_site_fract_z
 _atom_site_occupancy
  Mo  Mo0  1  0.000223  0.000223  0.000223  1
  S  S1  1  0.593465  0.593465  0.593465  1
  S  S2  1  0.740312  0.740312  0.740312  1
