# generated using pymatgen
data_HoAgS2
_symmetry_space_group_name_H-M   'P 1'
_cell_length_a   7.61732398
_cell_length_b   7.61732398
_cell_length_c   12.64545387
_cell_angle_alpha   90.00000000
_cell_angle_beta   90.00000000
_cell_angle_gamma   90.00000000
_symmetry_Int_Tables_number   1
_chemical_formula_structural   HoAgS2
_chemical_formula_sum   'Ho8 Ag8 S16'
_cell_volume   733.73506794
_cell_formula_units_Z   8
loop_
 _symmetry_equiv_pos_site_id
 _symmetry_equiv_pos_as_xyz
  1  'x, y, z'
loop_
 _atom_site_type_symbol
 _atom_site_label
 _atom_site_symmetry_multiplicity
 _atom_site_fract_x
 _atom_site_fract_y
 _atom_site_fract_z
 _atom_site_occupancy
  Ho  Ho0  1  0.003317  0.746658  0.621290  1
  Ho  Ho1  1  0.496683  0.246658  0.628710  1
  Ho  Ho2  1  0.753342  0.503317  0.871290  1
  Ho  Ho3  1  0.746658  0.003317  0.378710  1
  Ho  Ho4  1  0.253342  0.996683  0.878710  1
  Ho  Ho5  1  0.246658  0.496683  0.371290  1
  Ho  Ho6  1  0.996683  0.253342  0.121290  1
  Ho  Ho7  1  0.503317  0.753342  0.128710  1
  Ag  Ag8  1  0.486069  0.238347  0.193637  1
  Ag  Ag9  1  0.261653  0.986069  0.443637  1
  Ag  Ag10  1  0.738347  0.013931  0.943637  1
  Ag  Ag11  1  0.761653  0.513931  0.306363  1
  Ag  Ag12  1  0.986069  0.261653  0.556363  1
  Ag  Ag13  1  0.513931  0.761653  0.693637  1
  Ag  Ag14  1  0.013931  0.738347  0.056363  1
  Ag  Ag15  1  0.238347  0.486069  0.806363  1
  S  S16  1  0.227621  0.472515  0.589071  1
  S  S17  1  0.272379  0.972515  0.660929  1
  S  S18  1  0.771564  0.017194  0.595081  1
  S  S19  1  0.728436  0.517194  0.654919  1
  S  S20  1  0.972515  0.272379  0.339071  1
  S  S21  1  0.527485  0.772379  0.910929  1
  S  S22  1  0.517194  0.728436  0.345081  1
  S  S23  1  0.982806  0.228436  0.904919  1
  S  S24  1  0.472515  0.227621  0.410929  1
  S  S25  1  0.027485  0.727621  0.839071  1
  S  S26  1  0.482806  0.271564  0.845081  1
  S  S27  1  0.727621  0.027485  0.160929  1
  S  S28  1  0.228436  0.982806  0.095081  1
  S  S29  1  0.271564  0.482806  0.154919  1
  S  S30  1  0.772379  0.527485  0.089071  1
  S  S31  1  0.017194  0.771564  0.404919  1
