# generated using pymatgen
data_Ho2SiSeO4
_symmetry_space_group_name_H-M   'P 1'
_cell_length_a   6.04202062
_cell_length_b   6.95092551
_cell_length_c   10.82142631
_cell_angle_alpha   90.00000000
_cell_angle_beta   90.00000000
_cell_angle_gamma   90.00000000
_symmetry_Int_Tables_number   1
_chemical_formula_structural   Ho2SiSeO4
_chemical_formula_sum   'Ho8 Si4 Se4 O16'
_cell_volume   454.47431515
_cell_formula_units_Z   4
loop_
 _symmetry_equiv_pos_site_id
 _symmetry_equiv_pos_as_xyz
  1  'x, y, z'
loop_
 _atom_site_type_symbol
 _atom_site_label
 _atom_site_symmetry_multiplicity
 _atom_site_fract_x
 _atom_site_fract_y
 _atom_site_fract_z
 _atom_site_occupancy
  Ho  Ho0  1  0.609402  0.250000  0.500000  1
  Ho  Ho1  1  0.609402  0.250000  0.000000  1
  Ho  Ho2  1  0.390598  0.750000  0.500000  1
  Ho  Ho3  1  0.390598  0.750000  0.000000  1
  Ho  Ho4  1  0.865879  0.527721  0.750000  1
  Ho  Ho5  1  0.865879  0.972279  0.250000  1
  Ho  Ho6  1  0.134121  0.027721  0.750000  1
  Ho  Ho7  1  0.134121  0.472279  0.250000  1
  Si  Si8  1  0.114658  0.250000  0.500000  1
  Si  Si9  1  0.885342  0.750000  0.500000  1
  Si  Si10  1  0.885342  0.750000  0.000000  1
  Si  Si11  1  0.114658  0.250000  0.000000  1
  Se  Se12  1  0.571000  0.868091  0.750000  1
  Se  Se13  1  0.571000  0.631909  0.250000  1
  Se  Se14  1  0.429000  0.368091  0.750000  1
  Se  Se15  1  0.429000  0.131909  0.250000  1
  O  O16  1  0.278400  0.432225  0.031436  1
  O  O17  1  0.278400  0.067775  0.968564  1
  O  O18  1  0.721600  0.932225  0.468564  1
  O  O19  1  0.721600  0.567775  0.531436  1
  O  O20  1  0.721600  0.567775  0.968564  1
  O  O21  1  0.721600  0.932225  0.031436  1
  O  O22  1  0.278400  0.067775  0.531436  1
  O  O23  1  0.278400  0.432225  0.468564  1
  O  O24  1  0.052454  0.740588  0.121013  1
  O  O25  1  0.052454  0.740588  0.378987  1
  O  O26  1  0.947546  0.240588  0.378987  1
  O  O27  1  0.947546  0.259412  0.621013  1
  O  O28  1  0.947546  0.259412  0.878987  1
  O  O29  1  0.947546  0.240588  0.121013  1
  O  O30  1  0.052454  0.759412  0.621013  1
  O  O31  1  0.052454  0.759412  0.878987  1
