# generated using pymatgen
data_Na4ReN3
_symmetry_space_group_name_H-M   'P 1'
_cell_length_a   6.28895422
_cell_length_b   6.28895422
_cell_length_c   8.93019552
_cell_angle_alpha   68.27536986
_cell_angle_beta   111.72463014
_cell_angle_gamma   122.00666924
_symmetry_Int_Tables_number   1
_chemical_formula_structural   Na4ReN3
_chemical_formula_sum   'Na8 Re2 N6'
_cell_volume   271.36483224
_cell_formula_units_Z   2
loop_
 _symmetry_equiv_pos_site_id
 _symmetry_equiv_pos_as_xyz
  1  'x, y, z'
loop_
 _atom_site_type_symbol
 _atom_site_label
 _atom_site_symmetry_multiplicity
 _atom_site_fract_x
 _atom_site_fract_y
 _atom_site_fract_z
 _atom_site_occupancy
  Na  Na0  1  0.374041  0.996938  0.135373  1
  Na  Na1  1  0.563984  0.794412  0.527045  1
  Na  Na2  1  0.467037  0.257357  0.456935  1
  Na  Na3  1  0.742643  0.532963  0.956935  1
  Na  Na4  1  0.631147  0.040122  0.861491  1
  Na  Na5  1  0.959878  0.368853  0.361491  1
  Na  Na6  1  0.205588  0.436016  0.027045  1
  Na  Na7  1  0.003062  0.625959  0.635373  1
  Re  Re8  1  0.155613  0.135823  0.750013  1
  Re  Re9  1  0.864177  0.844387  0.250013  1
  N  N10  1  0.454841  0.375912  0.688507  1
  N  N11  1  0.624088  0.545159  0.188507  1
  N  N12  1  0.860636  0.169080  0.645805  1
  N  N13  1  0.830920  0.139364  0.145805  1
  N  N14  1  0.147385  0.826638  0.866932  1
  N  N15  1  0.173362  0.852615  0.366932  1
