# generated using pymatgen
data_NaZnPO4
_symmetry_space_group_name_H-M   'P 1'
_cell_length_a   8.80176474
_cell_length_b   8.26870593
_cell_length_c   17.79117730
_cell_angle_alpha   90.00000000
_cell_angle_beta   119.39445257
_cell_angle_gamma   90.00000000
_symmetry_Int_Tables_number   1
_chemical_formula_structural   NaZnPO4
_chemical_formula_sum   'Na12 Zn12 P12 O48'
_cell_volume   1128.13333631
_cell_formula_units_Z   12
loop_
 _symmetry_equiv_pos_site_id
 _symmetry_equiv_pos_as_xyz
  1  'x, y, z'
loop_
 _atom_site_type_symbol
 _atom_site_label
 _atom_site_symmetry_multiplicity
 _atom_site_fract_x
 _atom_site_fract_y
 _atom_site_fract_z
 _atom_site_occupancy
  Na  Na0  1  0.793113  0.968910  0.565112  1
  Na  Na1  1  0.206887  0.468910  0.934888  1
  Na  Na2  1  0.206887  0.031090  0.434888  1
  Na  Na3  1  0.793113  0.531090  0.065112  1
  Na  Na4  1  0.144391  0.031605  0.908062  1
  Na  Na5  1  0.855609  0.531605  0.591938  1
  Na  Na6  1  0.855609  0.968395  0.091938  1
  Na  Na7  1  0.144391  0.468395  0.408062  1
  Na  Na8  1  0.506146  0.042715  0.747525  1
  Na  Na9  1  0.493854  0.542715  0.752475  1
  Na  Na10  1  0.493854  0.957285  0.252475  1
  Na  Na11  1  0.506146  0.457285  0.247525  1
  Zn  Zn12  1  0.179741  0.719301  0.765056  1
  Zn  Zn13  1  0.820259  0.219301  0.734944  1
  Zn  Zn14  1  0.820259  0.280699  0.234944  1
  Zn  Zn15  1  0.179741  0.780699  0.265056  1
  Zn  Zn16  1  0.530261  0.213426  0.921211  1
  Zn  Zn17  1  0.469739  0.713426  0.578789  1
  Zn  Zn18  1  0.469739  0.786574  0.078789  1
  Zn  Zn19  1  0.530261  0.286574  0.421211  1
  Zn  Zn20  1  0.845486  0.718045  0.907391  1
  Zn  Zn21  1  0.154514  0.218045  0.592609  1
  Zn  Zn22  1  0.154514  0.281955  0.092609  1
  Zn  Zn23  1  0.845486  0.781955  0.407391  1
  P  P24  1  0.190251  0.326716  0.766569  1
  P  P25  1  0.809749  0.826716  0.733431  1
  P  P26  1  0.809749  0.673284  0.233431  1
  P  P27  1  0.190251  0.173284  0.266569  1
  P  P28  1  0.523940  0.825103  0.921467  1
  P  P29  1  0.476060  0.325103  0.578533  1
  P  P30  1  0.476060  0.174897  0.078533  1
  P  P31  1  0.523940  0.674897  0.421467  1
  P  P32  1  0.849985  0.326412  0.908326  1
  P  P33  1  0.150015  0.826412  0.591674  1
  P  P34  1  0.150015  0.673588  0.091674  1
  P  P35  1  0.849985  0.173588  0.408326  1
  O  O36  1  0.907294  0.847443  0.833177  1
  O  O37  1  0.092706  0.347443  0.666823  1
  O  O38  1  0.092706  0.152557  0.166823  1
  O  O39  1  0.907294  0.652557  0.333177  1
  O  O40  1  0.925424  0.737864  0.702615  1
  O  O41  1  0.074576  0.237864  0.797385  1
  O  O42  1  0.074576  0.262136  0.297385  1
  O  O43  1  0.925424  0.762136  0.202615  1
  O  O44  1  0.637987  0.729644  0.703866  1
  O  O45  1  0.362013  0.229644  0.796134  1
  O  O46  1  0.362013  0.270356  0.296134  1
  O  O47  1  0.637987  0.770356  0.203866  1
  O  O48  1  0.759841  0.995421  0.689082  1
  O  O49  1  0.240159  0.495421  0.810918  1
  O  O50  1  0.240159  0.004579  0.310918  1
  O  O51  1  0.759841  0.504579  0.189082  1
  O  O52  1  0.591536  0.731422  0.867758  1
  O  O53  1  0.408464  0.231422  0.632242  1
  O  O54  1  0.408464  0.268578  0.132242  1
  O  O55  1  0.591536  0.768578  0.367758  1
  O  O56  1  0.256718  0.730985  0.677231  1
  O  O57  1  0.570225  0.726721  0.004958  1
  O  O58  1  0.429775  0.273279  0.995042  1
  O  O59  1  0.570225  0.773279  0.504958  1
  O  O60  1  0.323473  0.851959  0.866880  1
  O  O61  1  0.676527  0.351959  0.633120  1
  O  O62  1  0.676527  0.148041  0.133120  1
  O  O63  1  0.323473  0.648041  0.366880  1
  O  O64  1  0.619306  0.990669  0.948306  1
  O  O65  1  0.380694  0.490669  0.551694  1
  O  O66  1  0.380694  0.009331  0.051694  1
  O  O67  1  0.619306  0.509331  0.448306  1
  O  O68  1  0.262066  0.847857  0.546620  1
  O  O69  1  0.737934  0.347857  0.953380  1
  O  O70  1  0.737934  0.152143  0.453380  1
  O  O71  1  0.262066  0.652143  0.046620  1
  O  O72  1  0.899381  0.494704  0.887770  1
  O  O73  1  0.100619  0.994704  0.612230  1
  O  O74  1  0.100619  0.505296  0.112230  1
  O  O75  1  0.899381  0.005296  0.387770  1
  O  O76  1  0.977645  0.767119  0.031911  1
  O  O77  1  0.022355  0.267119  0.468089  1
  O  O78  1  0.022355  0.232881  0.968089  1
  O  O79  1  0.977645  0.732881  0.531911  1
  O  O80  1  0.256718  0.769015  0.177231  1
  O  O81  1  0.743282  0.269015  0.322769  1
  O  O82  1  0.743282  0.230985  0.822769  1
  O  O83  1  0.429775  0.226721  0.495042  1
