# generated using pymatgen
data_BaSm2O4
_symmetry_space_group_name_H-M   'P 1'
_cell_length_a   3.57912075
_cell_length_b   10.66366553
_cell_length_c   12.46490073
_cell_angle_alpha   90.00000000
_cell_angle_beta   90.00000000
_cell_angle_gamma   90.00000000
_symmetry_Int_Tables_number   1
_chemical_formula_structural   BaSm2O4
_chemical_formula_sum   'Ba4 Sm8 O16'
_cell_volume   475.74221420
_cell_formula_units_Z   4
loop_
 _symmetry_equiv_pos_site_id
 _symmetry_equiv_pos_as_xyz
  1  'x, y, z'
loop_
 _atom_site_type_symbol
 _atom_site_label
 _atom_site_symmetry_multiplicity
 _atom_site_fract_x
 _atom_site_fract_y
 _atom_site_fract_z
 _atom_site_occupancy
  Ba  Ba0  1  0.750000  0.752414  0.647719  1
  Ba  Ba1  1  0.250000  0.247586  0.352281  1
  Ba  Ba2  1  0.750000  0.252414  0.852281  1
  Ba  Ba3  1  0.250000  0.747586  0.147719  1
  Sm  Sm4  1  0.250000  0.076585  0.111340  1
  Sm  Sm5  1  0.750000  0.923415  0.888660  1
  Sm  Sm6  1  0.250000  0.576585  0.388660  1
  Sm  Sm7  1  0.750000  0.423415  0.611340  1
  Sm  Sm8  1  0.750000  0.423136  0.110996  1
  Sm  Sm9  1  0.250000  0.576864  0.889004  1
  Sm  Sm10  1  0.750000  0.923136  0.389004  1
  Sm  Sm11  1  0.250000  0.076864  0.610996  1
  O  O12  1  0.250000  0.071167  0.924745  1
  O  O13  1  0.750000  0.928833  0.075255  1
  O  O14  1  0.250000  0.571167  0.575255  1
  O  O15  1  0.750000  0.428833  0.424745  1
  O  O16  1  0.250000  0.982669  0.282754  1
  O  O17  1  0.750000  0.017331  0.717246  1
  O  O18  1  0.250000  0.482669  0.217246  1
  O  O19  1  0.750000  0.517331  0.782754  1
  O  O20  1  0.250000  0.381018  0.981108  1
  O  O21  1  0.750000  0.618982  0.018892  1
  O  O22  1  0.250000  0.881018  0.518892  1
  O  O23  1  0.750000  0.118982  0.481108  1
  O  O24  1  0.750000  0.210311  0.165344  1
  O  O25  1  0.250000  0.789689  0.834656  1
  O  O26  1  0.750000  0.710311  0.334656  1
  O  O27  1  0.250000  0.289689  0.665344  1
