# generated using pymatgen
data_HoP5O14
_symmetry_space_group_name_H-M   'P 1'
_cell_length_a   8.80743506
_cell_length_b   9.14260450
_cell_length_c   12.80690152
_cell_angle_alpha   90.00000000
_cell_angle_beta   90.00000000
_cell_angle_gamma   90.00000000
_symmetry_Int_Tables_number   1
_chemical_formula_structural   HoP5O14
_chemical_formula_sum   'Ho4 P20 O56'
_cell_volume   1031.24879166
_cell_formula_units_Z   4
loop_
 _symmetry_equiv_pos_site_id
 _symmetry_equiv_pos_as_xyz
  1  'x, y, z'
loop_
 _atom_site_type_symbol
 _atom_site_label
 _atom_site_symmetry_multiplicity
 _atom_site_fract_x
 _atom_site_fract_y
 _atom_site_fract_z
 _atom_site_occupancy
  Ho  Ho0  1  0.020704  0.056413  0.750000  1
  Ho  Ho1  1  0.520704  0.443587  0.750000  1
  Ho  Ho2  1  0.479296  0.556413  0.250000  1
  Ho  Ho3  1  0.979296  0.943587  0.250000  1
  P  P4  1  0.757006  0.227462  0.569902  1
  P  P5  1  0.257006  0.272538  0.930098  1
  P  P6  1  0.742994  0.727462  0.430098  1
  P  P7  1  0.242994  0.772538  0.069902  1
  P  P8  1  0.242994  0.772538  0.430098  1
  P  P9  1  0.742994  0.727462  0.069902  1
  P  P10  1  0.257006  0.272538  0.569902  1
  P  P11  1  0.757006  0.227462  0.930098  1
  P  P12  1  0.508924  0.204581  0.418163  1
  P  P13  1  0.008924  0.295419  0.081837  1
  P  P14  1  0.991076  0.704581  0.581837  1
  P  P15  1  0.491076  0.795419  0.918163  1
  P  P16  1  0.491076  0.795419  0.581837  1
  P  P17  1  0.991076  0.704581  0.918163  1
  P  P18  1  0.008924  0.295419  0.418163  1
  P  P19  1  0.508924  0.204581  0.081837  1
  P  P20  1  0.426902  0.004098  0.750000  1
  P  P21  1  0.926902  0.495902  0.750000  1
  P  P22  1  0.073098  0.504098  0.250000  1
  P  P23  1  0.573098  0.995902  0.250000  1
  O  O24  1  0.828938  0.105967  0.629056  1
  O  O25  1  0.328938  0.394033  0.870944  1
  O  O26  1  0.671062  0.605967  0.370944  1
  O  O27  1  0.171062  0.894033  0.129056  1
  O  O28  1  0.171062  0.894033  0.370944  1
  O  O29  1  0.671062  0.605967  0.129056  1
  O  O30  1  0.328938  0.394033  0.629056  1
  O  O31  1  0.828938  0.105967  0.870944  1
  O  O32  1  0.658041  0.339122  0.620287  1
  O  O33  1  0.158041  0.160878  0.879713  1
  O  O34  1  0.841959  0.839122  0.379713  1
  O  O35  1  0.341959  0.660878  0.120287  1
  O  O36  1  0.341959  0.660878  0.379713  1
  O  O37  1  0.841959  0.839122  0.120287  1
  O  O38  1  0.158041  0.160878  0.620287  1
  O  O39  1  0.658041  0.339122  0.879713  1
  O  O40  1  0.884880  0.318893  0.505262  1
  O  O41  1  0.384880  0.181107  0.994738  1
  O  O42  1  0.615120  0.818893  0.494738  1
  O  O43  1  0.662874  0.156562  0.472820  1
  O  O44  1  0.115120  0.681107  0.005262  1
  O  O45  1  0.615120  0.818893  0.005262  1
  O  O46  1  0.384880  0.181107  0.505262  1
  O  O47  1  0.884880  0.318893  0.994738  1
  O  O48  1  0.537749  0.837578  0.250000  1
  O  O49  1  0.037749  0.662422  0.250000  1
  O  O50  1  0.962251  0.337578  0.750000  1
  O  O51  1  0.462251  0.162422  0.750000  1
  O  O52  1  0.730202  0.058090  0.250000  1
  O  O53  1  0.230202  0.441910  0.250000  1
  O  O54  1  0.769798  0.558090  0.750000  1
  O  O55  1  0.269798  0.941910  0.750000  1
  O  O56  1  0.475872  0.068252  0.153332  1
  O  O57  1  0.975872  0.431748  0.346668  1
  O  O58  1  0.024128  0.568252  0.846668  1
  O  O59  1  0.524128  0.931748  0.653332  1
  O  O60  1  0.524128  0.931748  0.846668  1
  O  O61  1  0.024128  0.568252  0.653332  1
  O  O62  1  0.975872  0.431748  0.153332  1
  O  O63  1  0.475872  0.068252  0.346668  1
  O  O64  1  0.509033  0.347895  0.134884  1
  O  O65  1  0.009033  0.152105  0.365116  1
  O  O66  1  0.990967  0.847895  0.865116  1
  O  O67  1  0.490967  0.652105  0.634884  1
  O  O68  1  0.490967  0.652105  0.865116  1
  O  O69  1  0.990967  0.847895  0.634884  1
  O  O70  1  0.009033  0.152105  0.134884  1
  O  O71  1  0.509033  0.347895  0.365116  1
  O  O72  1  0.662874  0.156562  0.027180  1
  O  O73  1  0.162874  0.343438  0.472820  1
  O  O74  1  0.837126  0.656562  0.972820  1
  O  O75  1  0.337126  0.843438  0.527180  1
  O  O76  1  0.337126  0.843438  0.972820  1
  O  O77  1  0.837126  0.656562  0.527180  1
  O  O78  1  0.162874  0.343438  0.027180  1
  O  O79  1  0.115120  0.681107  0.494738  1
