# generated using pymatgen
data_Ba(AlS2)2
_symmetry_space_group_name_H-M   'P 1'
_cell_length_a   12.79680773
_cell_length_b   12.79680773
_cell_length_c   12.79680773
_cell_angle_alpha   90.00000000
_cell_angle_beta   90.00000000
_cell_angle_gamma   90.00000000
_symmetry_Int_Tables_number   1
_chemical_formula_structural   Ba(AlS2)2
_chemical_formula_sum   'Ba12 Al24 S48'
_cell_volume   2095.58332674
_cell_formula_units_Z   12
loop_
 _symmetry_equiv_pos_site_id
 _symmetry_equiv_pos_as_xyz
  1  'x, y, z'
loop_
 _atom_site_type_symbol
 _atom_site_label
 _atom_site_symmetry_multiplicity
 _atom_site_fract_x
 _atom_site_fract_y
 _atom_site_fract_z
 _atom_site_occupancy
  Ba  Ba0  1  0.372794  0.127206  0.872794  1
  Ba  Ba1  1  0.127206  0.872794  0.372794  1
  Ba  Ba2  1  0.872794  0.372794  0.127206  1
  Ba  Ba3  1  0.627206  0.627206  0.627206  1
  Ba  Ba4  1  0.627206  0.872794  0.127206  1
  Ba  Ba5  1  0.872794  0.127206  0.627206  1
  Ba  Ba6  1  0.127206  0.627206  0.872794  1
  Ba  Ba7  1  0.372794  0.372794  0.372794  1
  Ba  Ba8  1  0.000000  0.500000  0.500000  1
  Ba  Ba9  1  0.500000  0.500000  0.000000  1
  Ba  Ba10  1  0.500000  0.000000  0.500000  1
  Ba  Ba11  1  0.000000  0.000000  0.000000  1
  Al  Al12  1  0.643380  0.626465  0.304027  1
  Al  Al13  1  0.695973  0.356620  0.373535  1
  Al  Al14  1  0.195973  0.143380  0.626465  1
  Al  Al15  1  0.304027  0.856620  0.126465  1
  Al  Al16  1  0.143380  0.626465  0.195973  1
  Al  Al17  1  0.126465  0.304027  0.856620  1
  Al  Al18  1  0.626465  0.195973  0.143380  1
  Al  Al19  1  0.356620  0.373535  0.695973  1
  Al  Al20  1  0.373535  0.695973  0.356620  1
  Al  Al21  1  0.856620  0.126465  0.304027  1
  Al  Al22  1  0.643380  0.873535  0.804027  1
  Al  Al23  1  0.873535  0.804027  0.643380  1
  Al  Al24  1  0.195973  0.356620  0.126465  1
  Al  Al25  1  0.126465  0.195973  0.356620  1
  Al  Al26  1  0.356620  0.126465  0.195973  1
  Al  Al27  1  0.143380  0.873535  0.695973  1
  Al  Al28  1  0.626465  0.304027  0.643380  1
  Al  Al29  1  0.804027  0.643380  0.873535  1
  Al  Al30  1  0.373535  0.804027  0.856620  1
  Al  Al31  1  0.873535  0.695973  0.143380  1
  Al  Al32  1  0.856620  0.373535  0.804027  1
  Al  Al33  1  0.695973  0.143380  0.873535  1
  Al  Al34  1  0.804027  0.856620  0.373535  1
  Al  Al35  1  0.304027  0.643380  0.626465  1
  S  S36  1  0.727853  0.525182  0.420768  1
  S  S37  1  0.772147  0.474818  0.920768  1
  S  S38  1  0.920768  0.772147  0.474818  1
  S  S39  1  0.474818  0.920768  0.772147  1
  S  S40  1  0.025182  0.079232  0.272147  1
  S  S41  1  0.420768  0.727853  0.525182  1
  S  S42  1  0.525182  0.420768  0.727853  1
  S  S43  1  0.579232  0.227853  0.974818  1
  S  S44  1  0.079232  0.272147  0.025182  1
  S  S45  1  0.974818  0.579232  0.227853  1
  S  S46  1  0.272147  0.025182  0.079232  1
  S  S47  1  0.227853  0.974818  0.579232  1
  S  S48  1  0.359812  0.291004  0.128669  1
  S  S49  1  0.128669  0.359812  0.291004  1
  S  S50  1  0.291004  0.128669  0.359812  1
  S  S51  1  0.208996  0.871331  0.859812  1
  S  S52  1  0.628669  0.140188  0.708996  1
  S  S53  1  0.708996  0.628669  0.140188  1
  S  S54  1  0.371331  0.640188  0.791004  1
  S  S55  1  0.871331  0.859812  0.208996  1
  S  S56  1  0.791004  0.371331  0.640188  1
  S  S57  1  0.859812  0.208996  0.871331  1
  S  S58  1  0.640188  0.791004  0.371331  1
  S  S59  1  0.140188  0.708996  0.628669  1
  S  S60  1  0.640188  0.708996  0.871331  1
  S  S61  1  0.871331  0.640188  0.708996  1
  S  S62  1  0.708996  0.871331  0.640188  1
  S  S63  1  0.791004  0.128669  0.140188  1
  S  S64  1  0.371331  0.859812  0.291004  1
  S  S65  1  0.291004  0.371331  0.859812  1
  S  S66  1  0.628669  0.359812  0.208996  1
  S  S67  1  0.128669  0.140188  0.791004  1
  S  S68  1  0.208996  0.628669  0.359812  1
  S  S69  1  0.140188  0.791004  0.128669  1
  S  S70  1  0.359812  0.208996  0.628669  1
  S  S71  1  0.859812  0.291004  0.371331  1
  S  S72  1  0.227853  0.525182  0.079232  1
  S  S73  1  0.079232  0.227853  0.525182  1
  S  S74  1  0.525182  0.079232  0.227853  1
  S  S75  1  0.272147  0.474818  0.579232  1
  S  S76  1  0.579232  0.272147  0.474818  1
  S  S77  1  0.474818  0.579232  0.272147  1
  S  S78  1  0.420768  0.772147  0.025182  1
  S  S79  1  0.920768  0.727853  0.974818  1
  S  S80  1  0.025182  0.420768  0.772147  1
  S  S81  1  0.727853  0.974818  0.920768  1
  S  S82  1  0.772147  0.025182  0.420768  1
  S  S83  1  0.974818  0.920768  0.727853  1
