# generated using pymatgen
data_GeO2
_symmetry_space_group_name_H-M   'P 1'
_cell_length_a   4.37457278
_cell_length_b   4.83940126
_cell_length_c   5.40899706
_cell_angle_alpha   90.00000000
_cell_angle_beta   90.00000000
_cell_angle_gamma   90.00000000
_symmetry_Int_Tables_number   1
_chemical_formula_structural   GeO2
_chemical_formula_sum   'Ge4 O8'
_cell_volume   114.51016090
_cell_formula_units_Z   4
loop_
 _symmetry_equiv_pos_site_id
 _symmetry_equiv_pos_as_xyz
  1  'x, y, z'
loop_
 _atom_site_type_symbol
 _atom_site_label
 _atom_site_symmetry_multiplicity
 _atom_site_fract_x
 _atom_site_fract_y
 _atom_site_fract_z
 _atom_site_occupancy
  Ge  Ge0  1  0.500000  0.750000  0.658434  1
  Ge  Ge1  1  0.000000  0.250000  0.841566  1
  Ge  Ge2  1  0.500000  0.250000  0.341566  1
  Ge  Ge3  1  0.000000  0.750000  0.158434  1
  O  O4  1  0.768027  0.078517  0.112510  1
  O  O5  1  0.268027  0.921483  0.387490  1
  O  O6  1  0.731973  0.578517  0.387490  1
  O  O7  1  0.231973  0.421483  0.112510  1
  O  O8  1  0.768027  0.578517  0.887490  1
  O  O9  1  0.268027  0.421483  0.612510  1
  O  O10  1  0.731973  0.078517  0.612510  1
  O  O11  1  0.231973  0.921483  0.887490  1
