# generated using pymatgen
data_Sm10S19
_symmetry_space_group_name_H-M   'P 1'
_cell_length_a   8.84848352
_cell_length_b   8.84848352
_cell_length_c   16.07612035
_cell_angle_alpha   90.00000000
_cell_angle_beta   90.00000000
_cell_angle_gamma   90.00000000
_symmetry_Int_Tables_number   1
_chemical_formula_structural   Sm10S19
_chemical_formula_sum   'Sm20 S38'
_cell_volume   1258.69046275
_cell_formula_units_Z   2
loop_
 _symmetry_equiv_pos_site_id
 _symmetry_equiv_pos_as_xyz
  1  'x, y, z'
loop_
 _atom_site_type_symbol
 _atom_site_label
 _atom_site_symmetry_multiplicity
 _atom_site_fract_x
 _atom_site_fract_y
 _atom_site_fract_z
 _atom_site_occupancy
  Sm  Sm0  1  0.804928  0.104264  0.853330  1
  Sm  Sm1  1  0.395736  0.304928  0.353330  1
  Sm  Sm2  1  0.604264  0.695072  0.353330  1
  Sm  Sm3  1  0.195072  0.895736  0.853330  1
  Sm  Sm4  1  0.695072  0.395736  0.646670  1
  Sm  Sm5  1  0.104264  0.195072  0.146670  1
  Sm  Sm6  1  0.895736  0.804928  0.146670  1
  Sm  Sm7  1  0.304928  0.604264  0.646670  1
  Sm  Sm8  1  0.791093  0.097986  0.371781  1
  Sm  Sm9  1  0.402014  0.291093  0.871781  1
  Sm  Sm10  1  0.597986  0.708907  0.871781  1
  Sm  Sm11  1  0.208907  0.902014  0.371781  1
  Sm  Sm12  1  0.708907  0.402014  0.128219  1
  Sm  Sm13  1  0.097986  0.208907  0.628219  1
  Sm  Sm14  1  0.902014  0.791093  0.628219  1
  Sm  Sm15  1  0.291093  0.597986  0.128219  1
  Sm  Sm16  1  0.500000  0.000000  0.134913  1
  Sm  Sm17  1  0.500000  0.000000  0.634913  1
  Sm  Sm18  1  0.000000  0.500000  0.365087  1
  Sm  Sm19  1  0.000000  0.500000  0.865087  1
  S  S20  1  0.500000  0.500000  0.000000  1
  S  S21  1  0.000000  0.000000  0.500000  1
  S  S22  1  0.555666  0.219652  0.500772  1
  S  S23  1  0.280348  0.055666  0.000772  1
  S  S24  1  0.719652  0.944334  0.000772  1
  S  S25  1  0.444334  0.780348  0.500772  1
  S  S26  1  0.944334  0.280348  0.999228  1
  S  S27  1  0.219652  0.444334  0.499228  1
  S  S28  1  0.780348  0.555666  0.499228  1
  S  S29  1  0.055666  0.719652  0.999228  1
  S  S30  1  0.637881  0.175351  0.999848  1
  S  S31  1  0.324649  0.137881  0.499848  1
  S  S32  1  0.675351  0.862119  0.499848  1
  S  S33  1  0.362119  0.824649  0.999848  1
  S  S34  1  0.862119  0.324649  0.500152  1
  S  S35  1  0.175351  0.362119  0.000152  1
  S  S36  1  0.824649  0.637881  0.000152  1
  S  S37  1  0.137881  0.675351  0.500152  1
  S  S38  1  0.000000  0.500000  0.184873  1
  S  S39  1  0.000000  0.500000  0.684873  1
  S  S40  1  0.303196  0.601621  0.312184  1
  S  S41  1  0.898379  0.803196  0.812184  1
  S  S42  1  0.101621  0.196804  0.812184  1
  S  S43  1  0.696804  0.398379  0.312184  1
  S  S44  1  0.196804  0.898379  0.187816  1
  S  S45  1  0.601621  0.696804  0.687816  1
  S  S46  1  0.398379  0.303196  0.687816  1
  S  S47  1  0.803196  0.101621  0.187816  1
  S  S48  1  0.298925  0.598088  0.822983  1
  S  S49  1  0.901912  0.798925  0.322983  1
  S  S50  1  0.098088  0.201075  0.322983  1
  S  S51  1  0.701075  0.401912  0.822983  1
  S  S52  1  0.201075  0.901912  0.677017  1
  S  S53  1  0.598088  0.701075  0.177017  1
  S  S54  1  0.401912  0.298925  0.177017  1
  S  S55  1  0.798925  0.098088  0.677017  1
  S  S56  1  0.500000  0.000000  0.815127  1
  S  S57  1  0.500000  0.000000  0.315127  1
