# generated using pymatgen
data_In4Se3
_symmetry_space_group_name_H-M   'P 1'
_cell_length_a   4.17892750
_cell_length_b   12.57113038
_cell_length_c   15.59367881
_cell_angle_alpha   90.00000000
_cell_angle_beta   90.00000000
_cell_angle_gamma   90.00000000
_symmetry_Int_Tables_number   1
_chemical_formula_structural   In4Se3
_chemical_formula_sum   'In16 Se12'
_cell_volume   819.19586584
_cell_formula_units_Z   4
loop_
 _symmetry_equiv_pos_site_id
 _symmetry_equiv_pos_as_xyz
  1  'x, y, z'
loop_
 _atom_site_type_symbol
 _atom_site_label
 _atom_site_symmetry_multiplicity
 _atom_site_fract_x
 _atom_site_fract_y
 _atom_site_fract_z
 _atom_site_occupancy
  In  In0  1  0.000000  0.604582  0.576888  1
  In  In1  1  0.000000  0.395418  0.423112  1
  In  In2  1  0.500000  0.104582  0.923112  1
  In  In3  1  0.500000  0.895418  0.076888  1
  In  In4  1  0.500000  0.145432  0.531967  1
  In  In5  1  0.500000  0.854568  0.468033  1
  In  In6  1  0.000000  0.645432  0.968033  1
  In  In7  1  0.000000  0.354568  0.031967  1
  In  In8  1  0.500000  0.024604  0.684980  1
  In  In9  1  0.500000  0.975396  0.315020  1
  In  In10  1  0.000000  0.524604  0.815020  1
  In  In11  1  0.000000  0.475396  0.184980  1
  In  In12  1  0.500000  0.838173  0.789768  1
  In  In13  1  0.500000  0.161827  0.210232  1
  In  In14  1  0.000000  0.338173  0.710232  1
  In  In15  1  0.000000  0.661827  0.289768  1
  Se  Se16  1  0.500000  0.656298  0.075509  1
  Se  Se17  1  0.500000  0.343702  0.924491  1
  Se  Se18  1  0.000000  0.156298  0.424491  1
  Se  Se19  1  0.000000  0.843702  0.575509  1
  Se  Se20  1  0.500000  0.636980  0.730682  1
  Se  Se21  1  0.500000  0.363020  0.269318  1
  Se  Se22  1  0.000000  0.136980  0.769318  1
  Se  Se23  1  0.000000  0.863020  0.230682  1
  Se  Se24  1  0.500000  0.349184  0.596419  1
  Se  Se25  1  0.500000  0.650816  0.403581  1
  Se  Se26  1  0.000000  0.849184  0.903581  1
  Se  Se27  1  0.000000  0.150816  0.096419  1
