# generated using pymatgen
data_KB5O8
_symmetry_space_group_name_H-M   'P 1'
_cell_length_a   8.60486610
_cell_length_b   8.63880756
_cell_length_c   21.72114684
_cell_angle_alpha   90.00000000
_cell_angle_beta   90.00000000
_cell_angle_gamma   90.00000000
_symmetry_Int_Tables_number   1
_chemical_formula_structural   KB5O8
_chemical_formula_sum   'K8 B40 O64'
_cell_volume   1614.65844318
_cell_formula_units_Z   8
loop_
 _symmetry_equiv_pos_site_id
 _symmetry_equiv_pos_as_xyz
  1  'x, y, z'
loop_
 _atom_site_type_symbol
 _atom_site_label
 _atom_site_symmetry_multiplicity
 _atom_site_fract_x
 _atom_site_fract_y
 _atom_site_fract_z
 _atom_site_occupancy
  K  K0  1  0.604419  0.898577  0.123776  1
  K  K1  1  0.104419  0.601423  0.876224  1
  K  K2  1  0.395581  0.398577  0.376224  1
  K  K3  1  0.895581  0.101423  0.623776  1
  K  K4  1  0.395581  0.101423  0.876224  1
  K  K5  1  0.895581  0.398577  0.123776  1
  K  K6  1  0.604419  0.601423  0.623776  1
  K  K7  1  0.104419  0.898577  0.376224  1
  B  B8  1  0.533097  0.502529  0.201557  1
  B  B9  1  0.033097  0.997471  0.798443  1
  B  B10  1  0.466903  0.002529  0.298443  1
  B  B11  1  0.966903  0.497471  0.701557  1
  B  B12  1  0.466903  0.497471  0.798443  1
  B  B13  1  0.966903  0.002529  0.201557  1
  B  B14  1  0.533097  0.997471  0.701557  1
  B  B15  1  0.033097  0.502529  0.298443  1
  B  B16  1  0.532598  0.745279  0.266834  1
  B  B17  1  0.032598  0.754721  0.733166  1
  B  B18  1  0.467402  0.245279  0.233166  1
  B  B19  1  0.967402  0.254721  0.766834  1
  B  B20  1  0.467402  0.254721  0.733166  1
  B  B21  1  0.967402  0.245279  0.266834  1
  B  B22  1  0.532598  0.754721  0.766834  1
  B  B23  1  0.032598  0.745279  0.233166  1
  B  B24  1  0.960130  0.718948  0.016259  1
  B  B25  1  0.460130  0.781052  0.983741  1
  B  B26  1  0.039870  0.218948  0.483741  1
  B  B27  1  0.539870  0.281052  0.516259  1
  B  B28  1  0.039870  0.281052  0.983741  1
  B  B29  1  0.539870  0.218948  0.016259  1
  B  B30  1  0.960130  0.781052  0.516259  1
  B  B31  1  0.460130  0.718948  0.483741  1
  B  B32  1  0.714447  0.800651  0.453099  1
  B  B33  1  0.214447  0.699349  0.546901  1
  B  B34  1  0.285553  0.300651  0.046901  1
  B  B35  1  0.785553  0.199349  0.953099  1
  B  B36  1  0.285553  0.199349  0.546901  1
  B  B37  1  0.785553  0.300651  0.453099  1
  B  B38  1  0.714447  0.699349  0.953099  1
  B  B39  1  0.214447  0.800651  0.046901  1
  B  B40  1  0.502065  0.802681  0.375986  1
  B  B41  1  0.002065  0.697319  0.624014  1
  B  B42  1  0.497935  0.302681  0.124014  1
  B  B43  1  0.997935  0.197319  0.875986  1
  B  B44  1  0.497935  0.197319  0.624014  1
  B  B45  1  0.997935  0.302681  0.375986  1
  B  B46  1  0.502065  0.697319  0.875986  1
  B  B47  1  0.002065  0.802681  0.124014  1
  O  O48  1  0.559896  0.656487  0.214853  1
  O  O49  1  0.059896  0.843513  0.785147  1
  O  O50  1  0.440104  0.156487  0.285147  1
  O  O51  1  0.940104  0.343513  0.714853  1
  O  O52  1  0.440104  0.343513  0.785147  1
  O  O53  1  0.940104  0.156487  0.214853  1
  O  O54  1  0.559896  0.843513  0.714853  1
  O  O55  1  0.059896  0.656487  0.285147  1
  O  O56  1  0.530417  0.904471  0.254109  1
  O  O57  1  0.030417  0.595529  0.745891  1
  O  O58  1  0.469583  0.404471  0.245891  1
  O  O59  1  0.969583  0.095529  0.754109  1
  O  O60  1  0.469583  0.095529  0.745891  1
  O  O61  1  0.969583  0.404471  0.254109  1
  O  O62  1  0.530417  0.595529  0.754109  1
  O  O63  1  0.030417  0.904471  0.245891  1
  O  O64  1  0.616689  0.739415  0.498308  1
  O  O65  1  0.116689  0.760585  0.501692  1
  O  O66  1  0.383311  0.239415  0.001692  1
  O  O67  1  0.883311  0.260585  0.998308  1
  O  O68  1  0.383311  0.260585  0.501692  1
  O  O69  1  0.883311  0.239415  0.498308  1
  O  O70  1  0.616689  0.760585  0.998308  1
  O  O71  1  0.116689  0.739415  0.001692  1
  O  O72  1  0.870248  0.824714  0.466314  1
  O  O73  1  0.370248  0.675286  0.533686  1
  O  O74  1  0.129752  0.324714  0.033686  1
  O  O75  1  0.629752  0.175286  0.966314  1
  O  O76  1  0.129752  0.175286  0.533686  1
  O  O77  1  0.629752  0.324714  0.466314  1
  O  O78  1  0.870248  0.675286  0.966314  1
  O  O79  1  0.370248  0.824714  0.033686  1
  O  O80  1  0.928096  0.948968  0.144790  1
  O  O81  1  0.428096  0.551032  0.855210  1
  O  O82  1  0.071904  0.448968  0.355210  1
  O  O83  1  0.571904  0.051032  0.644790  1
  O  O84  1  0.071904  0.051032  0.855210  1
  O  O85  1  0.571904  0.448968  0.144790  1
  O  O86  1  0.928096  0.551032  0.644790  1
  O  O87  1  0.428096  0.948968  0.355210  1
  O  O88  1  0.905161  0.735607  0.074373  1
  O  O89  1  0.405161  0.764393  0.925627  1
  O  O90  1  0.094839  0.235607  0.425627  1
  O  O91  1  0.594839  0.264393  0.574373  1
  O  O92  1  0.094839  0.264393  0.925627  1
  O  O93  1  0.594839  0.235607  0.074373  1
  O  O94  1  0.905161  0.764393  0.574373  1
  O  O95  1  0.405161  0.735607  0.425627  1
  O  O96  1  0.508550  0.689524  0.324192  1
  O  O97  1  0.008550  0.810476  0.675808  1
  O  O98  1  0.491450  0.189524  0.175808  1
  O  O99  1  0.991450  0.310476  0.824192  1
  O  O100  1  0.491450  0.310476  0.675808  1
  O  O101  1  0.991450  0.189524  0.324192  1
  O  O102  1  0.508550  0.810476  0.824192  1
  O  O103  1  0.008550  0.689524  0.175808  1
  O  O104  1  0.661878  0.836324  0.396457  1
  O  O105  1  0.161878  0.663676  0.603543  1
  O  O106  1  0.338122  0.336324  0.103543  1
  O  O107  1  0.838122  0.163676  0.896457  1
  O  O108  1  0.338122  0.163676  0.603543  1
  O  O109  1  0.838122  0.336324  0.396457  1
  O  O110  1  0.661878  0.663676  0.896457  1
  O  O111  1  0.161878  0.836324  0.103543  1
