# generated using pymatgen
data_SrV4O9
_symmetry_space_group_name_H-M   'P 1'
_cell_length_a   8.46943612
_cell_length_b   8.46943612
_cell_length_c   5.55850684
_cell_angle_alpha   90.00000000
_cell_angle_beta   90.00000000
_cell_angle_gamma   90.00000000
_symmetry_Int_Tables_number   1
_chemical_formula_structural   SrV4O9
_chemical_formula_sum   'Sr2 V8 O18'
_cell_volume   398.71918956
_cell_formula_units_Z   2
loop_
 _symmetry_equiv_pos_site_id
 _symmetry_equiv_pos_as_xyz
  1  'x, y, z'
loop_
 _atom_site_type_symbol
 _atom_site_label
 _atom_site_symmetry_multiplicity
 _atom_site_fract_x
 _atom_site_fract_y
 _atom_site_fract_z
 _atom_site_occupancy
  Sr  Sr0  1  0.500000  0.000000  0.859405  1
  Sr  Sr1  1  0.000000  0.500000  0.140595  1
  V  V2  1  0.785248  0.909736  0.384078  1
  V  V3  1  0.409736  0.714752  0.384078  1
  V  V4  1  0.590264  0.285248  0.384078  1
  V  V5  1  0.214752  0.090264  0.384078  1
  V  V6  1  0.714752  0.590264  0.615922  1
  V  V7  1  0.090264  0.785248  0.615922  1
  V  V8  1  0.909736  0.214752  0.615922  1
  V  V9  1  0.285248  0.409736  0.615922  1
  O  O10  1  0.000000  0.000000  0.500000  1
  O  O11  1  0.500000  0.500000  0.500000  1
  O  O12  1  0.751539  0.927324  0.093228  1
  O  O13  1  0.427324  0.748461  0.093228  1
  O  O14  1  0.572676  0.251539  0.093228  1
  O  O15  1  0.248461  0.072676  0.093228  1
  O  O16  1  0.748461  0.572676  0.906772  1
  O  O17  1  0.072676  0.751539  0.906772  1
  O  O18  1  0.927324  0.248461  0.906772  1
  O  O19  1  0.251539  0.427324  0.906772  1
  O  O20  1  0.107512  0.291770  0.462293  1
  O  O21  1  0.791770  0.392488  0.462293  1
  O  O22  1  0.208230  0.607512  0.462293  1
  O  O23  1  0.892488  0.708230  0.462293  1
  O  O24  1  0.392488  0.208230  0.537707  1
  O  O25  1  0.708230  0.107512  0.537707  1
  O  O26  1  0.291770  0.892488  0.537707  1
  O  O27  1  0.607512  0.791770  0.537707  1
