# generated using pymatgen
data_RbSb
_symmetry_space_group_name_H-M   'P 1'
_cell_length_a   7.54166175
_cell_length_b   7.32044328
_cell_length_c   14.05412015
_cell_angle_alpha   90.00000000
_cell_angle_beta   114.15611115
_cell_angle_gamma   90.00000000
_symmetry_Int_Tables_number   1
_chemical_formula_structural   RbSb
_chemical_formula_sum   'Rb8 Sb8'
_cell_volume   707.96124053
_cell_formula_units_Z   8
loop_
 _symmetry_equiv_pos_site_id
 _symmetry_equiv_pos_as_xyz
  1  'x, y, z'
loop_
 _atom_site_type_symbol
 _atom_site_label
 _atom_site_symmetry_multiplicity
 _atom_site_fract_x
 _atom_site_fract_y
 _atom_site_fract_z
 _atom_site_occupancy
  Rb  Rb0  1  0.746240  0.831635  0.532749  1
  Rb  Rb1  1  0.253760  0.331635  0.967251  1
  Rb  Rb2  1  0.253760  0.168365  0.467251  1
  Rb  Rb3  1  0.746240  0.668365  0.032749  1
  Rb  Rb4  1  0.286262  0.598605  0.668774  1
  Rb  Rb5  1  0.713738  0.098605  0.831226  1
  Rb  Rb6  1  0.713738  0.401395  0.331226  1
  Rb  Rb7  1  0.286262  0.901395  0.168774  1
  Sb  Sb8  1  0.166140  0.831034  0.870111  1
  Sb  Sb9  1  0.833860  0.331034  0.629889  1
  Sb  Sb10  1  0.833860  0.168966  0.129889  1
  Sb  Sb11  1  0.166140  0.668966  0.370111  1
  Sb  Sb12  1  0.170726  0.095957  0.716085  1
  Sb  Sb13  1  0.829274  0.595957  0.783915  1
  Sb  Sb14  1  0.829274  0.904043  0.283915  1
  Sb  Sb15  1  0.170726  0.404043  0.216085  1
