# generated using pymatgen
data_CaB4O7
_symmetry_space_group_name_H-M   'P 1'
_cell_length_a   4.23541652
_cell_length_b   4.41472567
_cell_length_c   10.72126257
_cell_angle_alpha   90.00000000
_cell_angle_beta   90.00000000
_cell_angle_gamma   90.00000000
_symmetry_Int_Tables_number   1
_chemical_formula_structural   CaB4O7
_chemical_formula_sum   'Ca2 B8 O14'
_cell_volume   200.46833359
_cell_formula_units_Z   2
loop_
 _symmetry_equiv_pos_site_id
 _symmetry_equiv_pos_as_xyz
  1  'x, y, z'
loop_
 _atom_site_type_symbol
 _atom_site_label
 _atom_site_symmetry_multiplicity
 _atom_site_fract_x
 _atom_site_fract_y
 _atom_site_fract_z
 _atom_site_occupancy
  Ca  Ca0  1  0.586630  0.810395  0.500000  1
  Ca  Ca1  1  0.086630  0.189605  0.000000  1
  B  B2  1  0.615808  0.177538  0.749205  1
  B  B3  1  0.115808  0.822462  0.750795  1
  B  B4  1  0.591309  0.672963  0.879305  1
  B  B5  1  0.091309  0.327037  0.620695  1
  B  B6  1  0.091309  0.327037  0.379305  1
  B  B7  1  0.591309  0.672963  0.120695  1
  B  B8  1  0.115808  0.822462  0.249205  1
  B  B9  1  0.615808  0.177538  0.250795  1
  O  O10  1  0.167178  0.646626  0.361107  1
  O  O11  1  0.667178  0.353374  0.861107  1
  O  O12  1  0.167178  0.646626  0.638893  1
  O  O13  1  0.753049  0.273447  0.366010  1
  O  O14  1  0.753049  0.273447  0.633990  1
  O  O15  1  0.253049  0.726553  0.866010  1
  O  O16  1  0.701182  0.778339  0.000000  1
  O  O17  1  0.201182  0.221661  0.500000  1
  O  O18  1  0.757650  0.864724  0.776572  1
  O  O19  1  0.257650  0.135276  0.723428  1
  O  O20  1  0.257650  0.135276  0.276572  1
  O  O21  1  0.757650  0.864724  0.223428  1
  O  O22  1  0.253049  0.726553  0.133990  1
  O  O23  1  0.667178  0.353374  0.138893  1
