# generated using pymatgen
data_KBS2
_symmetry_space_group_name_H-M   'P 1'
_cell_length_a   9.55678355
_cell_length_b   9.55678355
_cell_length_c   9.55678355
_cell_angle_alpha   111.15156949
_cell_angle_beta   111.15156949
_cell_angle_gamma   111.15156949
_symmetry_Int_Tables_number   1
_chemical_formula_structural   KBS2
_chemical_formula_sum   'K6 B6 S12'
_cell_volume   626.64131375
_cell_formula_units_Z   6
loop_
 _symmetry_equiv_pos_site_id
 _symmetry_equiv_pos_as_xyz
  1  'x, y, z'
loop_
 _atom_site_type_symbol
 _atom_site_label
 _atom_site_symmetry_multiplicity
 _atom_site_fract_x
 _atom_site_fract_y
 _atom_site_fract_z
 _atom_site_occupancy
  K  K0  1  0.202477  0.297523  0.750000  1
  K  K1  1  0.750000  0.202477  0.297523  1
  K  K2  1  0.297523  0.750000  0.202477  1
  K  K3  1  0.797523  0.702477  0.250000  1
  K  K4  1  0.250000  0.797523  0.702477  1
  K  K5  1  0.702477  0.250000  0.797523  1
  B  B6  1  0.864299  0.635701  0.750000  1
  B  B7  1  0.750000  0.864299  0.635701  1
  B  B8  1  0.635701  0.750000  0.864299  1
  B  B9  1  0.135701  0.364299  0.250000  1
  B  B10  1  0.250000  0.135701  0.364299  1
  B  B11  1  0.364299  0.250000  0.135701  1
  S  S12  1  0.131410  0.250000  0.368590  1
  S  S13  1  0.250000  0.368590  0.131410  1
  S  S14  1  0.368590  0.131410  0.250000  1
  S  S15  1  0.868590  0.750000  0.631410  1
  S  S16  1  0.750000  0.631410  0.868590  1
  S  S17  1  0.631410  0.868590  0.750000  1
  S  S18  1  0.476955  0.250000  0.023045  1
  S  S19  1  0.250000  0.023045  0.476955  1
  S  S20  1  0.023045  0.476955  0.250000  1
  S  S21  1  0.523045  0.750000  0.976955  1
  S  S22  1  0.750000  0.976955  0.523045  1
  S  S23  1  0.976955  0.523045  0.750000  1
