# generated using pymatgen
data_SrCuF4
_symmetry_space_group_name_H-M   'P 1'
_cell_length_a   6.72131457
_cell_length_b   6.72131457
_cell_length_c   6.72131457
_cell_angle_alpha   129.29097800
_cell_angle_beta   129.29097800
_cell_angle_gamma   74.54282631
_symmetry_Int_Tables_number   1
_chemical_formula_structural   SrCuF4
_chemical_formula_sum   'Sr2 Cu2 F8'
_cell_volume   177.23226959
_cell_formula_units_Z   2
loop_
 _symmetry_equiv_pos_site_id
 _symmetry_equiv_pos_as_xyz
  1  'x, y, z'
loop_
 _atom_site_type_symbol
 _atom_site_label
 _atom_site_symmetry_multiplicity
 _atom_site_fract_x
 _atom_site_fract_y
 _atom_site_fract_z
 _atom_site_occupancy
  Sr  Sr0  1  0.750000  0.750000  0.000000  1
  Sr  Sr1  1  0.250000  0.250000  0.000000  1
  Cu  Cu2  1  0.000000  0.500000  0.500000  1
  Cu  Cu3  1  0.500000  0.000000  0.500000  1
  F  F4  1  0.455790  0.955790  0.161858  1
  F  F5  1  0.206068  0.706068  0.161858  1
  F  F6  1  0.544210  0.044210  0.838142  1
  F  F7  1  0.044210  0.206068  0.500000  1
  F  F8  1  0.793932  0.293932  0.838142  1
  F  F9  1  0.293932  0.455790  0.500000  1
  F  F10  1  0.955790  0.793932  0.500000  1
  F  F11  1  0.706068  0.544210  0.500000  1
