# generated using pymatgen
data_Nd4Si2S3O7
_symmetry_space_group_name_H-M   'P 1'
_cell_length_a   11.09115524
_cell_length_b   11.09115524
_cell_length_c   11.09115524
_cell_angle_alpha   114.26552577
_cell_angle_beta   114.26552577
_cell_angle_gamma   100.25725774
_symmetry_Int_Tables_number   1
_chemical_formula_structural   Nd4Si2S3O7
_chemical_formula_sum   'Nd16 Si8 S12 O28'
_cell_volume   1030.39484880
_cell_formula_units_Z   4
loop_
 _symmetry_equiv_pos_site_id
 _symmetry_equiv_pos_as_xyz
  1  'x, y, z'
loop_
 _atom_site_type_symbol
 _atom_site_label
 _atom_site_symmetry_multiplicity
 _atom_site_fract_x
 _atom_site_fract_y
 _atom_site_fract_z
 _atom_site_occupancy
  Nd  Nd0  1  0.171477  0.828523  0.000000  1
  Nd  Nd1  1  0.578523  0.078523  0.157046  1
  Nd  Nd2  1  0.921477  0.421477  0.842954  1
  Nd  Nd3  1  0.828523  0.171477  0.000000  1
  Nd  Nd4  1  0.578523  0.421477  0.500000  1
  Nd  Nd5  1  0.171477  0.171477  0.342954  1
  Nd  Nd6  1  0.828523  0.828523  0.657046  1
  Nd  Nd7  1  0.921477  0.078523  0.500000  1
  Nd  Nd8  1  0.045139  0.781890  0.263248  1
  Nd  Nd9  1  0.518642  0.781890  0.736752  1
  Nd  Nd10  1  0.218110  0.481358  0.263248  1
  Nd  Nd11  1  0.531890  0.295139  0.763248  1
  Nd  Nd12  1  0.531890  0.768642  0.236752  1
  Nd  Nd13  1  0.231358  0.468110  0.763248  1
  Nd  Nd14  1  0.704861  0.468110  0.236752  1
  Nd  Nd15  1  0.218110  0.954861  0.736752  1
  Si  Si16  1  0.651747  0.027505  0.624242  1
  Si  Si17  1  0.403263  0.027505  0.375758  1
  Si  Si18  1  0.972495  0.596737  0.624242  1
  Si  Si19  1  0.777505  0.901747  0.124242  1
  Si  Si20  1  0.777505  0.653263  0.875758  1
  Si  Si21  1  0.346737  0.222495  0.124242  1
  Si  Si22  1  0.098253  0.222495  0.875758  1
  Si  Si23  1  0.972495  0.348253  0.375758  1
  S  S24  1  0.750000  0.250000  0.500000  1
  S  S25  1  1.000000  1.000000  0.000000  1
  S  S26  1  0.500000  0.500000  0.000000  1
  S  S27  1  0.250000  0.750000  0.500000  1
  S  S28  1  0.226434  0.125000  0.601434  1
  S  S29  1  0.875000  0.773566  0.398566  1
  S  S30  1  0.375000  0.476434  0.601434  1
  S  S31  1  0.523566  0.625000  0.398566  1
  S  S32  1  0.523566  0.125000  0.898566  1
  S  S33  1  0.875000  0.476434  0.101434  1
  S  S34  1  0.375000  0.773566  0.898566  1
  S  S35  1  0.226434  0.625000  0.101434  1
  O  O36  1  0.021451  0.521451  0.500000  1
  O  O37  1  0.271451  0.271451  0.000000  1
  O  O38  1  0.728549  0.728549  0.000000  1
  O  O39  1  0.478549  0.978549  0.500000  1
  O  O40  1  0.222980  0.950347  0.272633  1
  O  O41  1  0.677713  0.950347  0.727367  1
  O  O42  1  0.049653  0.322287  0.272633  1
  O  O43  1  0.700347  0.472980  0.772633  1
  O  O44  1  0.700347  0.927713  0.227367  1
  O  O45  1  0.072287  0.299653  0.772633  1
  O  O46  1  0.527020  0.299653  0.227367  1
  O  O47  1  0.049653  0.777020  0.727367  1
  O  O48  1  0.309163  0.287844  0.260085  1
  O  O49  1  0.027759  0.049079  0.739915  1
  O  O50  1  0.950921  0.972241  0.260085  1
  O  O51  1  0.799079  0.559163  0.521319  1
  O  O52  1  0.037844  0.277759  0.478681  1
  O  O53  1  0.722241  0.962156  0.521319  1
  O  O54  1  0.440837  0.200921  0.478681  1
  O  O55  1  0.712156  0.690837  0.739915  1
  O  O56  1  0.440837  0.962156  0.239915  1
  O  O57  1  0.722241  0.200921  0.760085  1
  O  O58  1  0.799079  0.277759  0.239915  1
  O  O59  1  0.950921  0.690837  0.978681  1
  O  O60  1  0.712156  0.972241  0.021319  1
  O  O61  1  0.027759  0.287844  0.978681  1
  O  O62  1  0.309163  0.049079  0.021319  1
  O  O63  1  0.037844  0.559163  0.760085  1
