# generated using pymatgen
data_Na3Sc2(PO4)3
_symmetry_space_group_name_H-M   'P 1'
_cell_length_a   8.99237146
_cell_length_b   8.99237146
_cell_length_c   9.22010245
_cell_angle_alpha   61.55081359
_cell_angle_beta   118.44918641
_cell_angle_gamma   119.78414533
_symmetry_Int_Tables_number   1
_chemical_formula_structural   Na3Sc2(PO4)3
_chemical_formula_sum   'Na6 Sc4 P6 O24'
_cell_volume   540.12715651
_cell_formula_units_Z   2
loop_
 _symmetry_equiv_pos_site_id
 _symmetry_equiv_pos_as_xyz
  1  'x, y, z'
loop_
 _atom_site_type_symbol
 _atom_site_label
 _atom_site_symmetry_multiplicity
 _atom_site_fract_x
 _atom_site_fract_y
 _atom_site_fract_z
 _atom_site_occupancy
  Na  Na0  1  0.337307  0.959388  0.559951  1
  Na  Na1  1  0.040612  0.662693  0.059951  1
  Na  Na2  1  0.382570  0.396044  0.235520  1
  Na  Na3  1  0.603956  0.617430  0.735520  1
  Na  Na4  1  0.753930  0.097012  0.321252  1
  Na  Na5  1  0.902988  0.246070  0.821252  1
  Sc  Sc6  1  0.348453  0.145490  0.055475  1
  Sc  Sc7  1  0.854510  0.651547  0.555475  1
  Sc  Sc8  1  0.649392  0.845016  0.952647  1
  Sc  Sc9  1  0.154984  0.350608  0.452647  1
  P  P10  1  0.752080  0.467617  0.241411  1
  P  P11  1  0.532383  0.247920  0.741411  1
  P  P12  1  0.250068  0.530947  0.762208  1
  P  P13  1  0.469053  0.749932  0.262208  1
  P  P14  1  0.042229  0.046796  0.250646  1
  P  P15  1  0.953204  0.957771  0.750646  1
  O  O16  1  0.057643  0.219832  0.264712  1
  O  O17  1  0.780168  0.942357  0.764712  1
  O  O18  1  0.922797  0.775510  0.742185  1
  O  O19  1  0.224490  0.077203  0.242185  1
  O  O20  1  0.740669  0.624812  0.065869  1
  O  O21  1  0.375188  0.259331  0.565869  1
  O  O22  1  0.260956  0.372299  0.935124  1
  O  O23  1  0.627701  0.739044  0.435124  1
  O  O24  1  0.751865  0.514998  0.381467  1
  O  O25  1  0.485002  0.248135  0.881467  1
  O  O26  1  0.257443  0.486905  0.623239  1
  O  O27  1  0.513095  0.742557  0.123239  1
  O  O28  1  0.925320  0.431149  0.293993  1
  O  O29  1  0.568851  0.074680  0.793993  1
  O  O30  1  0.071208  0.558237  0.704614  1
  O  O31  1  0.441763  0.928792  0.204614  1
  O  O32  1  0.586087  0.293394  0.218034  1
  O  O33  1  0.706606  0.413913  0.718034  1
  O  O34  1  0.413505  0.706984  0.783221  1
  O  O35  1  0.293016  0.586495  0.283221  1
  O  O36  1  0.883494  0.010362  0.086715  1
  O  O37  1  0.989638  0.116506  0.586715  1
  O  O38  1  0.113661  0.988685  0.916518  1
  O  O39  1  0.011315  0.886339  0.416518  1
