# generated using pymatgen
data_PrSc3(BO3)4
_symmetry_space_group_name_H-M   'P 1'
_cell_length_a   6.30886927
_cell_length_b   6.30886927
_cell_length_c   12.15966690
_cell_angle_alpha   80.55853163
_cell_angle_beta   99.44146837
_cell_angle_gamma   76.37927463
_symmetry_Int_Tables_number   1
_chemical_formula_structural   PrSc3(BO3)4
_chemical_formula_sum   'Pr2 Sc6 B8 O24'
_cell_volume   453.50754969
_cell_formula_units_Z   2
loop_
 _symmetry_equiv_pos_site_id
 _symmetry_equiv_pos_as_xyz
  1  'x, y, z'
loop_
 _atom_site_type_symbol
 _atom_site_label
 _atom_site_symmetry_multiplicity
 _atom_site_fract_x
 _atom_site_fract_y
 _atom_site_fract_z
 _atom_site_occupancy
  Pr  Pr0  1  0.032140  0.032140  0.750000  1
  Pr  Pr1  1  0.967860  0.967860  0.250000  1
  Sc  Sc2  1  0.296969  0.202351  0.024476  1
  Sc  Sc3  1  0.202351  0.296969  0.475524  1
  Sc  Sc4  1  0.703031  0.797649  0.975524  1
  Sc  Sc5  1  0.797649  0.703031  0.524476  1
  Sc  Sc6  1  0.574198  0.574198  0.750000  1
  Sc  Sc7  1  0.425802  0.425802  0.250000  1
  B  B8  1  0.270324  0.778339  0.500413  1
  B  B9  1  0.778339  0.270324  0.999587  1
  B  B10  1  0.729676  0.221661  0.499587  1
  B  B11  1  0.221661  0.729676  0.000413  1
  B  B12  1  0.504987  0.101049  0.726241  1
  B  B13  1  0.101049  0.504987  0.773759  1
  B  B14  1  0.495013  0.898951  0.273759  1
  B  B15  1  0.898951  0.495013  0.226241  1
  O  O16  1  0.111017  0.431307  0.295263  1
  O  O17  1  0.431307  0.111017  0.204737  1
  O  O18  1  0.888983  0.568693  0.704737  1
  O  O19  1  0.568693  0.888983  0.795263  1
  O  O20  1  0.991053  0.186884  0.067732  1
  O  O21  1  0.186884  0.991053  0.432268  1
  O  O22  1  0.008947  0.813116  0.932268  1
  O  O23  1  0.813116  0.008947  0.567732  1
  O  O24  1  0.643406  0.239612  0.739084  1
  O  O25  1  0.239612  0.643406  0.760916  1
  O  O26  1  0.356594  0.760388  0.260916  1
  O  O27  1  0.760388  0.356594  0.239084  1
  O  O28  1  0.132872  0.636014  0.496374  1
  O  O29  1  0.636014  0.132872  0.003626  1
  O  O30  1  0.867128  0.363986  0.503626  1
  O  O31  1  0.363986  0.867128  0.996374  1
  O  O32  1  0.836757  0.696537  0.149106  1
  O  O33  1  0.696537  0.836757  0.350894  1
  O  O34  1  0.163243  0.303463  0.850894  1
  O  O35  1  0.303463  0.163243  0.649106  1
  O  O36  1  0.292284  0.516332  0.068153  1
  O  O37  1  0.516332  0.292284  0.431847  1
  O  O38  1  0.707716  0.483668  0.931847  1
  O  O39  1  0.483668  0.707716  0.568153  1
