# generated using pymatgen
data_Na4Mn2O5
_symmetry_space_group_name_H-M   'P 1'
_cell_length_a   11.04990868
_cell_length_b   10.36493890
_cell_length_c   5.63490430
_cell_angle_alpha   81.59031345
_cell_angle_beta   68.11370114
_cell_angle_gamma   30.29598541
_symmetry_Int_Tables_number   1
_chemical_formula_structural   Na4Mn2O5
_chemical_formula_sum   'Na8 Mn4 O10'
_cell_volume   280.04137565
_cell_formula_units_Z   2
loop_
 _symmetry_equiv_pos_site_id
 _symmetry_equiv_pos_as_xyz
  1  'x, y, z'
loop_
 _atom_site_type_symbol
 _atom_site_label
 _atom_site_symmetry_multiplicity
 _atom_site_fract_x
 _atom_site_fract_y
 _atom_site_fract_z
 _atom_site_occupancy
  Na  Na0  1  0.653781  0.166029  0.344476  1
  Na  Na1  1  0.083971  0.596219  0.414286  1
  Na  Na2  1  0.344476  0.835714  0.653781  1
  Na  Na3  1  0.166029  0.653781  0.835714  1
  Na  Na4  1  0.596219  0.083971  0.905524  1
  Na  Na5  1  0.414286  0.905524  0.083971  1
  Na  Na6  1  0.905524  0.414286  0.596219  1
  Na  Na7  1  0.835714  0.344476  0.166029  1
  Mn  Mn8  1  0.969731  0.530269  0.969731  1
  Mn  Mn9  1  0.719731  0.280269  0.719731  1
  Mn  Mn10  1  0.280269  0.719731  0.280269  1
  Mn  Mn11  1  0.530269  0.969731  0.530269  1
  O  O12  1  0.750000  0.750000  0.750000  1
  O  O13  1  0.315468  0.315468  0.684532  1
  O  O14  1  0.066861  0.066861  0.433139  1
  O  O15  1  0.433139  0.433139  0.066861  1
  O  O16  1  0.183139  0.183139  0.816861  1
  O  O17  1  0.816861  0.816861  0.183139  1
  O  O18  1  0.684532  0.684532  0.315468  1
  O  O19  1  0.934532  0.934532  0.565468  1
  O  O20  1  0.500000  0.500000  0.500000  1
  O  O21  1  0.565468  0.565468  0.934532  1
