# generated using pymatgen
data_Na3MnPCO7
_symmetry_space_group_name_H-M   'P 1'
_cell_length_a   5.20647216
_cell_length_b   6.82546976
_cell_length_c   10.48485549
_cell_angle_alpha   90.00000000
_cell_angle_beta   119.85468391
_cell_angle_gamma   90.00000000
_symmetry_Int_Tables_number   1
_chemical_formula_structural   Na3MnPCO7
_chemical_formula_sum   'Na6 Mn2 P2 C2 O14'
_cell_volume   323.14932699
_cell_formula_units_Z   2
loop_
 _symmetry_equiv_pos_site_id
 _symmetry_equiv_pos_as_xyz
  1  'x, y, z'
loop_
 _atom_site_type_symbol
 _atom_site_label
 _atom_site_symmetry_multiplicity
 _atom_site_fract_x
 _atom_site_fract_y
 _atom_site_fract_z
 _atom_site_occupancy
  Na  Na0  1  0.007074  0.497706  0.257071  1
  Na  Na1  1  0.992926  0.997706  0.742929  1
  Na  Na2  1  0.992926  0.502294  0.742929  1
  Na  Na3  1  0.007074  0.002294  0.257071  1
  Na  Na4  1  0.674718  0.750000  0.914453  1
  Na  Na5  1  0.325282  0.250000  0.085547  1
  Mn  Mn6  1  0.419248  0.250000  0.638626  1
  Mn  Mn7  1  0.580752  0.750000  0.361374  1
  P  P8  1  0.287739  0.750000  0.587052  1
  P  P9  1  0.712261  0.250000  0.412948  1
  C  C10  1  0.680322  0.250000  0.939233  1
  C  C11  1  0.319678  0.750000  0.060767  1
  O  O12  1  0.850173  0.250000  0.880652  1
  O  O13  1  0.149827  0.750000  0.119348  1
  O  O14  1  0.394166  0.250000  0.853008  1
  O  O15  1  0.605834  0.750000  0.146992  1
  O  O16  1  0.793393  0.250000  0.080713  1
  O  O17  1  0.206607  0.750000  0.919287  1
  O  O18  1  0.462730  0.932883  0.677945  1
  O  O19  1  0.537270  0.432883  0.322055  1
  O  O20  1  0.537270  0.067117  0.322055  1
  O  O21  1  0.462730  0.567117  0.677945  1
  O  O22  1  0.247903  0.750000  0.429969  1
  O  O23  1  0.752097  0.250000  0.570031  1
  O  O24  1  0.027434  0.250000  0.428640  1
  O  O25  1  0.972566  0.750000  0.571360  1
