# generated using pymatgen
data_BPO4
_symmetry_space_group_name_H-M   'P 1'
_cell_length_a   4.54783802
_cell_length_b   4.54783802
_cell_length_c   10.05601728
_cell_angle_alpha   90.00000000
_cell_angle_beta   90.00000000
_cell_angle_gamma   120.00000000
_symmetry_Int_Tables_number   1
_chemical_formula_structural   BPO4
_chemical_formula_sum   'B3 P3 O12'
_cell_volume   180.12194128
_cell_formula_units_Z   3
loop_
 _symmetry_equiv_pos_site_id
 _symmetry_equiv_pos_as_xyz
  1  'x, y, z'
loop_
 _atom_site_type_symbol
 _atom_site_label
 _atom_site_symmetry_multiplicity
 _atom_site_fract_x
 _atom_site_fract_y
 _atom_site_fract_z
 _atom_site_occupancy
  B  B0  1  0.470170  0.000000  0.333333  1
  B  B1  1  0.000000  0.470170  0.666667  1
  B  B2  1  0.529830  0.529830  0.000000  1
  P  P3  1  0.469183  0.000000  0.833333  1
  P  P4  1  0.530817  0.530817  0.500000  1
  P  P5  1  0.000000  0.469183  0.166667  1
  O  O6  1  0.736090  0.143943  0.721339  1
  O  O7  1  0.274771  0.406020  0.107317  1
  O  O8  1  0.593980  0.868751  0.440651  1
  O  O9  1  0.407853  0.263910  0.388005  1
  O  O10  1  0.143943  0.736090  0.278661  1
  O  O11  1  0.856057  0.592147  0.054672  1
  O  O12  1  0.263910  0.407853  0.611995  1
  O  O13  1  0.592147  0.856057  0.945328  1
  O  O14  1  0.868751  0.593980  0.559349  1
  O  O15  1  0.406020  0.274771  0.892683  1
  O  O16  1  0.725229  0.131249  0.226016  1
  O  O17  1  0.131249  0.725229  0.773984  1
