# generated using pymatgen
data_Sm3NbS3O4
_symmetry_space_group_name_H-M   'P 1'
_cell_length_a   6.73897764
_cell_length_b   7.72392513
_cell_length_c   14.36753937
_cell_angle_alpha   90.00000000
_cell_angle_beta   90.00000000
_cell_angle_gamma   90.00000000
_symmetry_Int_Tables_number   1
_chemical_formula_structural   Sm3NbS3O4
_chemical_formula_sum   'Sm12 Nb4 S12 O16'
_cell_volume   747.84994602
_cell_formula_units_Z   4
loop_
 _symmetry_equiv_pos_site_id
 _symmetry_equiv_pos_as_xyz
  1  'x, y, z'
loop_
 _atom_site_type_symbol
 _atom_site_label
 _atom_site_symmetry_multiplicity
 _atom_site_fract_x
 _atom_site_fract_y
 _atom_site_fract_z
 _atom_site_occupancy
  Sm  Sm0  1  0.728855  0.495241  0.830946  1
  Sm  Sm1  1  0.271145  0.995241  0.169054  1
  Sm  Sm2  1  0.771145  0.995241  0.330946  1
  Sm  Sm3  1  0.228855  0.495241  0.669054  1
  Sm  Sm4  1  0.716925  0.005857  0.844502  1
  Sm  Sm5  1  0.283075  0.505857  0.155498  1
  Sm  Sm6  1  0.783075  0.505857  0.344502  1
  Sm  Sm7  1  0.216925  0.005857  0.655498  1
  Sm  Sm8  1  0.278028  0.749497  0.917651  1
  Sm  Sm9  1  0.721972  0.249497  0.082349  1
  Sm  Sm10  1  0.221972  0.249497  0.417651  1
  Sm  Sm11  1  0.778028  0.749497  0.582349  1
  Nb  Nb12  1  0.321207  0.264708  0.926524  1
  Nb  Nb13  1  0.678793  0.764708  0.073476  1
  Nb  Nb14  1  0.178793  0.764708  0.426524  1
  Nb  Nb15  1  0.821207  0.264708  0.573476  1
  S  S16  1  0.502088  0.760646  0.727361  1
  S  S17  1  0.497912  0.260646  0.272639  1
  S  S18  1  0.997912  0.260646  0.227361  1
  S  S19  1  0.002088  0.760646  0.772639  1
  S  S20  1  0.549073  0.239498  0.701330  1
  S  S21  1  0.450927  0.739498  0.298670  1
  S  S22  1  0.950927  0.739498  0.201330  1
  S  S23  1  0.049073  0.239498  0.798670  1
  S  S24  1  0.467539  0.969649  0.491558  1
  S  S25  1  0.532461  0.469649  0.508442  1
  S  S26  1  0.032461  0.469649  0.991558  1
  S  S27  1  0.967539  0.969649  0.008442  1
  O  O28  1  0.634494  0.263584  0.926603  1
  O  O29  1  0.365506  0.763584  0.073397  1
  O  O30  1  0.865506  0.763584  0.426603  1
  O  O31  1  0.134494  0.263584  0.573397  1
  O  O32  1  0.381672  0.478908  0.861300  1
  O  O33  1  0.618328  0.978908  0.138700  1
  O  O34  1  0.118328  0.978908  0.361300  1
  O  O35  1  0.881672  0.478908  0.638700  1
  O  O36  1  0.375623  0.029925  0.887209  1
  O  O37  1  0.624378  0.529925  0.112791  1
  O  O38  1  0.124377  0.529925  0.387209  1
  O  O39  1  0.875622  0.029925  0.612791  1
  O  O40  1  0.358212  0.242689  0.062241  1
  O  O41  1  0.641788  0.742689  0.937759  1
  O  O42  1  0.141788  0.742689  0.562241  1
  O  O43  1  0.858212  0.242689  0.437759  1
