# generated using pymatgen
data_LiBF4
_symmetry_space_group_name_H-M   'P 1'
_cell_length_a   4.99485619
_cell_length_b   4.99485619
_cell_length_c   11.23342550
_cell_angle_alpha   90.00000000
_cell_angle_beta   90.00000000
_cell_angle_gamma   120.00000000
_symmetry_Int_Tables_number   1
_chemical_formula_structural   LiBF4
_chemical_formula_sum   'Li3 B3 F12'
_cell_volume   242.71064164
_cell_formula_units_Z   3
loop_
 _symmetry_equiv_pos_site_id
 _symmetry_equiv_pos_as_xyz
  1  'x, y, z'
loop_
 _atom_site_type_symbol
 _atom_site_label
 _atom_site_symmetry_multiplicity
 _atom_site_fract_x
 _atom_site_fract_y
 _atom_site_fract_z
 _atom_site_occupancy
  Li  Li0  1  0.000000  0.462848  0.666667  1
  Li  Li1  1  0.462848  0.000000  0.333333  1
  Li  Li2  1  0.537152  0.537152  0.000000  1
  B  B3  1  0.538689  0.538689  0.500000  1
  B  B4  1  0.000000  0.461311  0.166667  1
  B  B5  1  0.461311  0.000000  0.833333  1
  F  F6  1  0.574956  0.898882  0.928551  1
  F  F7  1  0.101118  0.676074  0.261884  1
  F  F8  1  0.323926  0.425044  0.595217  1
  F  F9  1  0.676074  0.101118  0.738116  1
  F  F10  1  0.425044  0.323926  0.404783  1
  F  F11  1  0.898882  0.574956  0.071449  1
  F  F12  1  0.246446  0.420477  0.127102  1
  F  F13  1  0.579523  0.825969  0.460435  1
  F  F14  1  0.174031  0.753554  0.793768  1
  F  F15  1  0.825969  0.579523  0.539565  1
  F  F16  1  0.753554  0.174031  0.206232  1
  F  F17  1  0.420477  0.246446  0.872898  1
