# generated using pymatgen
data_Ba4TiAs4
_symmetry_space_group_name_H-M   'P 1'
_cell_length_a   13.60651098
_cell_length_b   13.60651098
_cell_length_c   13.60651098
_cell_angle_alpha   90.00000000
_cell_angle_beta   90.00000000
_cell_angle_gamma   90.00000000
_symmetry_Int_Tables_number   1
_chemical_formula_structural   Ba4TiAs4
_chemical_formula_sum   'Ba32 Ti8 As32'
_cell_volume   2519.07054249
_cell_formula_units_Z   8
loop_
 _symmetry_equiv_pos_site_id
 _symmetry_equiv_pos_as_xyz
  1  'x, y, z'
loop_
 _atom_site_type_symbol
 _atom_site_label
 _atom_site_symmetry_multiplicity
 _atom_site_fract_x
 _atom_site_fract_y
 _atom_site_fract_z
 _atom_site_occupancy
  Ba  Ba0  1  0.148357  0.148357  0.148357  1
  Ba  Ba1  1  0.351643  0.648357  0.351643  1
  Ba  Ba2  1  0.648357  0.351643  0.351643  1
  Ba  Ba3  1  0.351643  0.351643  0.648357  1
  Ba  Ba4  1  0.148357  0.851643  0.851643  1
  Ba  Ba5  1  0.851643  0.851643  0.148357  1
  Ba  Ba6  1  0.851643  0.148357  0.851643  1
  Ba  Ba7  1  0.648357  0.648357  0.648357  1
  Ba  Ba8  1  0.907289  0.863572  0.648235  1
  Ba  Ba9  1  0.907289  0.136428  0.351765  1
  Ba  Ba10  1  0.863572  0.648235  0.907289  1
  Ba  Ba11  1  0.136428  0.648235  0.092711  1
  Ba  Ba12  1  0.648235  0.907289  0.863572  1
  Ba  Ba13  1  0.351765  0.092711  0.863572  1
  Ba  Ba14  1  0.592711  0.851765  0.363572  1
  Ba  Ba15  1  0.592711  0.148235  0.636428  1
  Ba  Ba16  1  0.407289  0.851765  0.636428  1
  Ba  Ba17  1  0.148235  0.636428  0.592711  1
  Ba  Ba18  1  0.636428  0.407289  0.851765  1
  Ba  Ba19  1  0.636428  0.592711  0.148235  1
  Ba  Ba20  1  0.851765  0.363572  0.592711  1
  Ba  Ba21  1  0.363572  0.592711  0.851765  1
  Ba  Ba22  1  0.851765  0.636428  0.407289  1
  Ba  Ba23  1  0.148235  0.363572  0.407289  1
  Ba  Ba24  1  0.363572  0.407289  0.148235  1
  Ba  Ba25  1  0.351765  0.907289  0.136428  1
  Ba  Ba26  1  0.648235  0.092711  0.136428  1
  Ba  Ba27  1  0.863572  0.351765  0.092711  1
  Ba  Ba28  1  0.136428  0.351765  0.907289  1
  Ba  Ba29  1  0.092711  0.136428  0.648235  1
  Ba  Ba30  1  0.092711  0.863572  0.351765  1
  Ba  Ba31  1  0.407289  0.148235  0.363572  1
  Ti  Ti32  1  0.000000  0.000000  0.000000  1
  Ti  Ti33  1  0.750000  0.000000  0.500000  1
  Ti  Ti34  1  0.500000  0.750000  0.000000  1
  Ti  Ti35  1  0.500000  0.250000  0.000000  1
  Ti  Ti36  1  0.000000  0.500000  0.250000  1
  Ti  Ti37  1  0.000000  0.500000  0.750000  1
  Ti  Ti38  1  0.250000  0.000000  0.500000  1
  Ti  Ti39  1  0.500000  0.500000  0.500000  1
  As  As40  1  0.604780  0.851356  0.111519  1
  As  As41  1  0.648644  0.104780  0.388481  1
  As  As42  1  0.895220  0.611519  0.648644  1
  As  As43  1  0.104780  0.611519  0.351356  1
  As  As44  1  0.611519  0.648644  0.895220  1
  As  As45  1  0.388481  0.351356  0.895220  1
  As  As46  1  0.851356  0.888481  0.395220  1
  As  As47  1  0.851356  0.111519  0.604780  1
  As  As48  1  0.148644  0.888481  0.604780  1
  As  As49  1  0.394193  0.394193  0.394193  1
  As  As50  1  0.604780  0.148644  0.888481  1
  As  As51  1  0.648644  0.895220  0.611519  1
  As  As52  1  0.888481  0.395220  0.851356  1
  As  As53  1  0.395220  0.851356  0.888481  1
  As  As54  1  0.888481  0.604780  0.148644  1
  As  As55  1  0.111519  0.395220  0.148644  1
  As  As56  1  0.395220  0.148644  0.111519  1
  As  As57  1  0.388481  0.648644  0.104780  1
  As  As58  1  0.611519  0.351356  0.104780  1
  As  As59  1  0.895220  0.388481  0.351356  1
  As  As60  1  0.104780  0.388481  0.648644  1
  As  As61  1  0.351356  0.104780  0.611519  1
  As  As62  1  0.351356  0.895220  0.388481  1
  As  As63  1  0.148644  0.111519  0.395220  1
  As  As64  1  0.105807  0.894193  0.105807  1
  As  As65  1  0.105807  0.105807  0.894193  1
  As  As66  1  0.894193  0.105807  0.105807  1
  As  As67  1  0.605807  0.605807  0.394193  1
  As  As68  1  0.394193  0.605807  0.605807  1
  As  As69  1  0.605807  0.394193  0.605807  1
  As  As70  1  0.894193  0.894193  0.894193  1
  As  As71  1  0.111519  0.604780  0.851356  1
