# generated using pymatgen
data_RbSm(PO3)4
_symmetry_space_group_name_H-M   'P 1'
_cell_length_a   7.65417458
_cell_length_b   7.65417458
_cell_length_c   10.74471861
_cell_angle_alpha   78.98153413
_cell_angle_beta   101.01846587
_cell_angle_gamma   63.27496905
_symmetry_Int_Tables_number   1
_chemical_formula_structural   RbSm(PO3)4
_chemical_formula_sum   'Rb2 Sm2 P8 O24'
_cell_volume   523.59735021
_cell_formula_units_Z   2
loop_
 _symmetry_equiv_pos_site_id
 _symmetry_equiv_pos_as_xyz
  1  'x, y, z'
loop_
 _atom_site_type_symbol
 _atom_site_label
 _atom_site_symmetry_multiplicity
 _atom_site_fract_x
 _atom_site_fract_y
 _atom_site_fract_z
 _atom_site_occupancy
  Rb  Rb0  1  0.807395  0.807395  0.750000  1
  Rb  Rb1  1  0.192605  0.192605  0.250000  1
  Sm  Sm2  1  0.122667  0.122667  0.750000  1
  Sm  Sm3  1  0.877333  0.877333  0.250000  1
  P  P4  1  0.304700  0.749187  0.550186  1
  P  P5  1  0.749187  0.304700  0.949814  1
  P  P6  1  0.695300  0.250813  0.449814  1
  P  P7  1  0.250813  0.695300  0.050186  1
  P  P8  1  0.380421  0.292817  0.987861  1
  P  P9  1  0.292817  0.380421  0.512139  1
  P  P10  1  0.619579  0.707183  0.012139  1
  P  P11  1  0.707183  0.619579  0.487861  1
  O  O12  1  0.308850  0.204565  0.613651  1
  O  O13  1  0.204565  0.308850  0.886349  1
  O  O14  1  0.691150  0.795435  0.386349  1
  O  O15  1  0.795435  0.691150  0.113651  1
  O  O16  1  0.484118  0.899950  0.895038  1
  O  O17  1  0.899950  0.484118  0.604962  1
  O  O18  1  0.515882  0.100050  0.104962  1
  O  O19  1  0.100050  0.515882  0.395038  1
  O  O20  1  0.139036  0.840722  0.909509  1
  O  O21  1  0.840722  0.139036  0.590491  1
  O  O22  1  0.860964  0.159278  0.090491  1
  O  O23  1  0.159278  0.860964  0.409509  1
  O  O24  1  0.275033  0.474153  0.052760  1
  O  O25  1  0.474153  0.275033  0.447240  1
  O  O26  1  0.724967  0.525847  0.947240  1
  O  O27  1  0.525847  0.724967  0.552760  1
  O  O28  1  0.640988  0.489460  0.408515  1
  O  O29  1  0.489460  0.640988  0.091485  1
  O  O30  1  0.359012  0.510540  0.591485  1
  O  O31  1  0.510540  0.359012  0.908515  1
  O  O32  1  0.169265  0.746242  0.161560  1
  O  O33  1  0.746242  0.169265  0.338440  1
  O  O34  1  0.830735  0.253758  0.838440  1
  O  O35  1  0.253758  0.830735  0.661560  1
