# generated using pymatgen
data_LiCoPO4
_symmetry_space_group_name_H-M   'P 1'
_cell_length_a   4.75786103
_cell_length_b   6.01891094
_cell_length_c   10.22220665
_cell_angle_alpha   90.00000000
_cell_angle_beta   90.00000000
_cell_angle_gamma   90.00000000
_symmetry_Int_Tables_number   1
_chemical_formula_structural   LiCoPO4
_chemical_formula_sum   'Li4 Co4 P4 O16'
_cell_volume   292.73478139
_cell_formula_units_Z   4
loop_
 _symmetry_equiv_pos_site_id
 _symmetry_equiv_pos_as_xyz
  1  'x, y, z'
loop_
 _atom_site_type_symbol
 _atom_site_label
 _atom_site_symmetry_multiplicity
 _atom_site_fract_x
 _atom_site_fract_y
 _atom_site_fract_z
 _atom_site_occupancy
  Li  Li0  1  0.500000  0.000000  0.500000  1
  Li  Li1  1  0.000000  0.500000  0.000000  1
  Li  Li2  1  0.500000  0.500000  0.500000  1
  Li  Li3  1  0.000000  0.000000  0.000000  1
  Co  Co4  1  0.021858  0.750000  0.277351  1
  Co  Co5  1  0.478142  0.750000  0.777351  1
  Co  Co6  1  0.978142  0.250000  0.722649  1
  Co  Co7  1  0.521858  0.250000  0.222649  1
  P  P8  1  0.590672  0.750000  0.094102  1
  P  P9  1  0.909328  0.750000  0.594102  1
  P  P10  1  0.409328  0.250000  0.905898  1
  P  P11  1  0.090672  0.250000  0.405898  1
  O  O12  1  0.268890  0.750000  0.101379  1
  O  O13  1  0.231110  0.750000  0.601379  1
  O  O14  1  0.731110  0.250000  0.898621  1
  O  O15  1  0.768890  0.250000  0.398621  1
  O  O16  1  0.794905  0.750000  0.450731  1
  O  O17  1  0.705095  0.750000  0.950731  1
  O  O18  1  0.205095  0.250000  0.549269  1
  O  O19  1  0.294905  0.250000  0.049269  1
  O  O20  1  0.767521  0.955821  0.662871  1
  O  O21  1  0.732479  0.544179  0.162871  1
  O  O22  1  0.232479  0.455821  0.337129  1
  O  O23  1  0.267521  0.044179  0.837129  1
  O  O24  1  0.232479  0.044179  0.337129  1
  O  O25  1  0.267521  0.455821  0.837129  1
  O  O26  1  0.767521  0.544179  0.662871  1
  O  O27  1  0.732479  0.955821  0.162871  1
