# generated using pymatgen
data_Ba2SnS3F2
_symmetry_space_group_name_H-M   'P 1'
_cell_length_a   6.30765208
_cell_length_b   6.43490858
_cell_length_c   19.59541427
_cell_angle_alpha   90.00000000
_cell_angle_beta   90.00000000
_cell_angle_gamma   90.00000000
_symmetry_Int_Tables_number   1
_chemical_formula_structural   Ba2SnS3F2
_chemical_formula_sum   'Ba8 Sn4 S12 F8'
_cell_volume   795.36149304
_cell_formula_units_Z   4
loop_
 _symmetry_equiv_pos_site_id
 _symmetry_equiv_pos_as_xyz
  1  'x, y, z'
loop_
 _atom_site_type_symbol
 _atom_site_label
 _atom_site_symmetry_multiplicity
 _atom_site_fract_x
 _atom_site_fract_y
 _atom_site_fract_z
 _atom_site_occupancy
  Ba  Ba0  1  0.747259  0.497633  0.423102  1
  Ba  Ba1  1  0.247259  0.002367  0.076898  1
  Ba  Ba2  1  0.752741  0.997633  0.576898  1
  Ba  Ba3  1  0.252741  0.502367  0.923102  1
  Ba  Ba4  1  0.252741  0.502367  0.576898  1
  Ba  Ba5  1  0.752741  0.997633  0.923102  1
  Ba  Ba6  1  0.247259  0.002367  0.423102  1
  Ba  Ba7  1  0.747259  0.497633  0.076898  1
  Sn  Sn8  1  0.657420  0.584822  0.750000  1
  Sn  Sn9  1  0.157420  0.915178  0.750000  1
  Sn  Sn10  1  0.842580  0.084822  0.250000  1
  Sn  Sn11  1  0.342580  0.415178  0.250000  1
  S  S12  1  0.244725  0.515573  0.137907  1
  S  S13  1  0.263456  0.542231  0.750000  1
  S  S14  1  0.236544  0.042231  0.250000  1
  S  S15  1  0.736544  0.457769  0.250000  1
  S  S16  1  0.744725  0.984427  0.362093  1
  S  S17  1  0.255275  0.015573  0.862093  1
  S  S18  1  0.755275  0.484427  0.637907  1
  S  S19  1  0.755275  0.484427  0.862093  1
  S  S20  1  0.244725  0.515573  0.362093  1
  S  S21  1  0.744725  0.984427  0.137907  1
  S  S22  1  0.763456  0.957769  0.750000  1
  S  S23  1  0.255275  0.015573  0.637907  1
  F  F24  1  0.999121  0.252472  0.999244  1
  F  F25  1  0.499121  0.247528  0.500756  1
  F  F26  1  0.000879  0.747528  0.499244  1
  F  F27  1  0.999121  0.252472  0.500756  1
  F  F28  1  0.499121  0.247528  0.999244  1
  F  F29  1  0.500879  0.752472  0.499244  1
  F  F30  1  0.000879  0.747528  0.000756  1
  F  F31  1  0.500879  0.752472  0.000756  1
