# generated using pymatgen
data_VFeMoO7
_symmetry_space_group_name_H-M   'P 1'
_cell_length_a   5.65362638
_cell_length_b   6.81231268
_cell_length_c   8.05014997
_cell_angle_alpha   95.73877440
_cell_angle_beta   90.17631595
_cell_angle_gamma   101.41300823
_symmetry_Int_Tables_number   1
_chemical_formula_structural   VFeMoO7
_chemical_formula_sum   'V2 Fe2 Mo2 O14'
_cell_volume   302.30861230
_cell_formula_units_Z   2
loop_
 _symmetry_equiv_pos_site_id
 _symmetry_equiv_pos_as_xyz
  1  'x, y, z'
loop_
 _atom_site_type_symbol
 _atom_site_label
 _atom_site_symmetry_multiplicity
 _atom_site_fract_x
 _atom_site_fract_y
 _atom_site_fract_z
 _atom_site_occupancy
  V  V0  1  0.691993  0.760966  0.335835  1
  V  V1  1  0.308007  0.239034  0.664165  1
  Fe  Fe2  1  0.171872  0.691580  0.595513  1
  Fe  Fe3  1  0.828128  0.308420  0.404487  1
  Mo  Mo4  1  0.703252  0.786187  0.890555  1
  Mo  Mo5  1  0.296748  0.213813  0.109445  1
  O  O6  1  0.778486  0.045289  0.896180  1
  O  O7  1  0.221514  0.954711  0.103820  1
  O  O8  1  0.427970  0.703692  0.769153  1
  O  O9  1  0.572030  0.296308  0.230847  1
  O  O10  1  0.932590  0.683205  0.781537  1
  O  O11  1  0.067410  0.316795  0.218463  1
  O  O12  1  0.204325  0.990010  0.612821  1
  O  O13  1  0.795675  0.009990  0.387179  1
  O  O14  1  0.107550  0.375845  0.576487  1
  O  O15  1  0.892450  0.624155  0.423513  1
  O  O16  1  0.415288  0.694483  0.417594  1
  O  O17  1  0.665193  0.707609  0.108928  1
  O  O18  1  0.584712  0.305517  0.582406  1
  O  O19  1  0.334807  0.292391  0.891072  1
