# generated using pymatgen
data_KTaP4O13
_symmetry_space_group_name_H-M   'P 1'
_cell_length_a   7.18496876
_cell_length_b   8.54390826
_cell_length_c   18.52335041
_cell_angle_alpha   90.00000000
_cell_angle_beta   90.00000000
_cell_angle_gamma   90.00000000
_symmetry_Int_Tables_number   1
_chemical_formula_structural   KTaP4O13
_chemical_formula_sum   'K4 Ta4 P16 O52'
_cell_volume   1137.10613611
_cell_formula_units_Z   4
loop_
 _symmetry_equiv_pos_site_id
 _symmetry_equiv_pos_as_xyz
  1  'x, y, z'
loop_
 _atom_site_type_symbol
 _atom_site_label
 _atom_site_symmetry_multiplicity
 _atom_site_fract_x
 _atom_site_fract_y
 _atom_site_fract_z
 _atom_site_occupancy
  K  K0  1  0.238926  0.792882  0.979467  1
  K  K1  1  0.738926  0.707118  0.020533  1
  K  K2  1  0.761074  0.292882  0.520533  1
  K  K3  1  0.261074  0.207118  0.479467  1
  Ta  Ta4  1  0.265317  0.781248  0.706912  1
  Ta  Ta5  1  0.765317  0.718752  0.293088  1
  Ta  Ta6  1  0.734683  0.281248  0.793088  1
  Ta  Ta7  1  0.234683  0.218752  0.206912  1
  P  P8  1  0.095362  0.160068  0.679079  1
  P  P9  1  0.595362  0.339932  0.320921  1
  P  P10  1  0.904638  0.660068  0.820921  1
  P  P11  1  0.404638  0.839932  0.179079  1
  P  P12  1  0.402231  0.398309  0.669640  1
  P  P13  1  0.902231  0.101691  0.330360  1
  P  P14  1  0.597769  0.898309  0.830360  1
  P  P15  1  0.097769  0.601691  0.169640  1
  P  P16  1  0.431627  0.792831  0.426180  1
  P  P17  1  0.931627  0.707169  0.573820  1
  P  P18  1  0.568373  0.292831  0.073820  1
  P  P19  1  0.068373  0.207169  0.926180  1
  P  P20  1  0.571902  0.887474  0.569855  1
  P  P21  1  0.071902  0.612526  0.430145  1
  P  P22  1  0.428098  0.387474  0.930145  1
  P  P23  1  0.928098  0.112526  0.069855  1
  O  O24  1  0.050152  0.164879  0.601358  1
  O  O25  1  0.550152  0.335121  0.398642  1
  O  O26  1  0.949848  0.664879  0.898642  1
  O  O27  1  0.449848  0.835121  0.101358  1
  O  O28  1  0.175221  0.001538  0.707047  1
  O  O29  1  0.675221  0.498462  0.292953  1
  O  O30  1  0.824779  0.501538  0.792953  1
  O  O31  1  0.324779  0.998462  0.207047  1
  O  O32  1  0.070136  0.703579  0.769866  1
  O  O33  1  0.570136  0.796421  0.230134  1
  O  O34  1  0.929864  0.203579  0.730134  1
  O  O35  1  0.429864  0.296421  0.269866  1
  O  O36  1  0.415387  0.389734  0.590367  1
  O  O37  1  0.915387  0.110266  0.409633  1
  O  O38  1  0.584613  0.889734  0.909633  1
  O  O39  1  0.084613  0.610266  0.090367  1
  O  O40  1  0.422650  0.837715  0.788361  1
  O  O41  1  0.922650  0.662285  0.211639  1
  O  O42  1  0.243628  0.288888  0.705127  1
  O  O43  1  0.577350  0.337715  0.711639  1
  O  O44  1  0.355599  0.562567  0.701527  1
  O  O45  1  0.855599  0.937433  0.298473  1
  O  O46  1  0.644401  0.062567  0.798473  1
  O  O47  1  0.144401  0.437433  0.201527  1
  O  O48  1  0.024469  0.170757  0.138877  1
  O  O49  1  0.524469  0.329243  0.861123  1
  O  O50  1  0.975531  0.670757  0.361123  1
  O  O51  1  0.475531  0.829243  0.638877  1
  O  O52  1  0.709541  0.146867  0.079925  1
  O  O53  1  0.209541  0.353133  0.920075  1
  O  O54  1  0.290459  0.646867  0.420075  1
  O  O55  1  0.790459  0.853133  0.579925  1
  O  O56  1  0.993717  0.233313  0.008037  1
  O  O57  1  0.493717  0.266687  0.991963  1
  O  O58  1  0.006283  0.733313  0.491963  1
  O  O59  1  0.506283  0.766687  0.508037  1
  O  O60  1  0.956809  0.946934  0.051448  1
  O  O61  1  0.456809  0.553066  0.948552  1
  O  O62  1  0.043191  0.446934  0.448552  1
  O  O63  1  0.543191  0.053066  0.551448  1
  O  O64  1  0.400599  0.245539  0.120430  1
  O  O65  1  0.900599  0.254461  0.879570  1
  O  O66  1  0.599401  0.745539  0.379570  1
  O  O67  1  0.099401  0.754461  0.620430  1
  O  O68  1  0.156637  0.055509  0.911553  1
  O  O69  1  0.656637  0.444491  0.088447  1
  O  O70  1  0.843363  0.555509  0.588447  1
  O  O71  1  0.343363  0.944491  0.411553  1
  O  O72  1  0.256372  0.711112  0.205127  1
  O  O73  1  0.756372  0.788888  0.794873  1
  O  O74  1  0.743628  0.211112  0.294873  1
  O  O75  1  0.077350  0.162285  0.288361  1
