# generated using pymatgen
data_K2GaP2
_symmetry_space_group_name_H-M   'P 1'
_cell_length_a   8.75215641
_cell_length_b   14.10197575
_cell_length_c   11.08110894
_cell_angle_alpha   90.00000000
_cell_angle_beta   118.59933693
_cell_angle_gamma   90.00000000
_symmetry_Int_Tables_number   1
_chemical_formula_structural   K2GaP2
_chemical_formula_sum   'K16 Ga8 P16'
_cell_volume   1200.79008540
_cell_formula_units_Z   8
loop_
 _symmetry_equiv_pos_site_id
 _symmetry_equiv_pos_as_xyz
  1  'x, y, z'
loop_
 _atom_site_type_symbol
 _atom_site_label
 _atom_site_symmetry_multiplicity
 _atom_site_fract_x
 _atom_site_fract_y
 _atom_site_fract_z
 _atom_site_occupancy
  K  K0  1  0.511703  0.117053  0.067978  1
  K  K1  1  0.511703  0.382947  0.567978  1
  K  K2  1  0.488297  0.882947  0.932022  1
  K  K3  1  0.211510  0.613988  0.026144  1
  K  K4  1  0.012397  0.628684  0.538219  1
  K  K5  1  0.788490  0.386012  0.973856  1
  K  K6  1  0.211510  0.886012  0.526144  1
  K  K7  1  0.578697  0.869385  0.401517  1
  K  K8  1  0.421303  0.369385  0.098483  1
  K  K9  1  0.421303  0.130615  0.598483  1
  K  K10  1  0.578697  0.630615  0.901517  1
  K  K11  1  0.012397  0.871316  0.038219  1
  K  K12  1  0.987603  0.371316  0.461781  1
  K  K13  1  0.987603  0.128684  0.961781  1
  K  K14  1  0.488297  0.617053  0.432022  1
  K  K15  1  0.788490  0.113988  0.473856  1
  Ga  Ga16  1  0.007912  0.558357  0.243055  1
  Ga  Ga17  1  0.992088  0.058357  0.256945  1
  Ga  Ga18  1  0.992088  0.441643  0.756945  1
  Ga  Ga19  1  0.853852  0.783051  0.245499  1
  Ga  Ga20  1  0.146148  0.283051  0.254501  1
  Ga  Ga21  1  0.146148  0.216949  0.754501  1
  Ga  Ga22  1  0.853852  0.716949  0.745499  1
  Ga  Ga23  1  0.007912  0.941643  0.743055  1
  P  P24  1  0.734962  0.535834  0.221831  1
  P  P25  1  0.366609  0.319020  0.782748  1
  P  P26  1  0.633391  0.819020  0.717252  1
  P  P27  1  0.109125  0.713959  0.275278  1
  P  P28  1  0.890875  0.213959  0.224722  1
  P  P29  1  0.890875  0.286041  0.724722  1
  P  P30  1  0.109125  0.786041  0.775278  1
  P  P31  1  0.790799  0.555444  0.742515  1
  P  P32  1  0.209201  0.055444  0.757485  1
  P  P33  1  0.209201  0.444556  0.257485  1
  P  P34  1  0.633391  0.680980  0.217252  1
  P  P35  1  0.790799  0.944556  0.242515  1
  P  P36  1  0.734962  0.964166  0.721831  1
  P  P37  1  0.265038  0.464166  0.778169  1
  P  P38  1  0.265038  0.035834  0.278169  1
  P  P39  1  0.366609  0.180980  0.282748  1
