# generated using pymatgen
data_Na2ZrNi(P2O7)2
_symmetry_space_group_name_H-M   'P 1'
_cell_length_a   6.59123554
_cell_length_b   6.61207696
_cell_length_c   7.01394427
_cell_angle_alpha   65.94545806
_cell_angle_beta   85.47961181
_cell_angle_gamma   81.85118943
_symmetry_Int_Tables_number   1
_chemical_formula_structural   Na2ZrNi(P2O7)2
_chemical_formula_sum   'Na2 Zr1 Ni1 P4 O14'
_cell_volume   276.24091688
_cell_formula_units_Z   1
loop_
 _symmetry_equiv_pos_site_id
 _symmetry_equiv_pos_as_xyz
  1  'x, y, z'
loop_
 _atom_site_type_symbol
 _atom_site_label
 _atom_site_symmetry_multiplicity
 _atom_site_fract_x
 _atom_site_fract_y
 _atom_site_fract_z
 _atom_site_occupancy
  Na  Na0  1  0.257331  0.182382  0.396882  1
  Na  Na1  1  0.541140  0.576644  0.089274  1
  Zr  Zr2  1  0.012262  0.972355  0.004474  1
  Ni  Ni3  1  0.697554  0.792449  0.454186  1
  P  P4  1  0.222472  0.678757  0.456087  1
  P  P5  1  0.970138  0.538881  0.859714  1
  P  P6  1  0.495749  0.119478  0.973847  1
  P  P7  1  0.733479  0.246050  0.559902  1
  O  O8  1  0.044486  0.671560  0.972042  1
  O  O9  1  0.748205  0.489180  0.417114  1
  O  O10  1  0.379791  0.814556  0.480436  1
  O  O11  1  0.296738  0.523009  0.353452  1
  O  O12  1  0.762507  0.643809  0.763523  1
  O  O13  1  0.138865  0.529707  0.687010  1
  O  O14  1  0.025951  0.841214  0.343439  1
  O  O15  1  0.558340  0.252726  0.735433  1
  O  O16  1  0.686988  0.950745  0.082491  1
  O  O17  1  0.328990  0.976190  0.966936  1
  O  O18  1  0.969991  0.292692  0.011542  1
  O  O19  1  0.932476  0.131734  0.689700  1
  O  O20  1  0.420602  0.280633  0.069030  1
  O  O21  1  0.668444  0.108847  0.452986  1
