# generated using pymatgen
data_PrGeBO5
_symmetry_space_group_name_H-M   'P 1'
_cell_length_a   7.03802561
_cell_length_b   7.03802561
_cell_length_c   6.85011296
_cell_angle_alpha   90.00000000
_cell_angle_beta   90.00000000
_cell_angle_gamma   120.00000000
_symmetry_Int_Tables_number   1
_chemical_formula_structural   PrGeBO5
_chemical_formula_sum   'Pr3 Ge3 B3 O15'
_cell_volume   293.85294711
_cell_formula_units_Z   3
loop_
 _symmetry_equiv_pos_site_id
 _symmetry_equiv_pos_as_xyz
  1  'x, y, z'
loop_
 _atom_site_type_symbol
 _atom_site_label
 _atom_site_symmetry_multiplicity
 _atom_site_fract_x
 _atom_site_fract_y
 _atom_site_fract_z
 _atom_site_occupancy
  Pr  Pr0  1  0.416141  0.413332  0.670605  1
  Pr  Pr1  1  0.997191  0.583859  0.337271  1
  Pr  Pr2  1  0.586668  0.002809  0.003938  1
  Ge  Ge3  1  0.416869  0.422920  0.170649  1
  Ge  Ge4  1  0.006050  0.583131  0.837315  1
  Ge  Ge5  1  0.577080  0.993950  0.503982  1
  B  B6  1  0.899992  0.883322  0.638041  1
  B  B7  1  0.983330  0.100008  0.304708  1
  B  B8  1  0.116678  0.016670  0.971374  1
  O  O9  1  0.157099  0.544304  0.656487  1
  O  O10  1  0.387205  0.842901  0.323154  1
  O  O11  1  0.455696  0.612795  0.989821  1
  O  O12  1  0.066161  0.044015  0.769460  1
  O  O13  1  0.955985  0.022146  0.102793  1
  O  O14  1  0.977854  0.933839  0.436127  1
  O  O15  1  0.351137  0.194862  0.011040  1
  O  O16  1  0.805138  0.156276  0.344373  1
  O  O17  1  0.843724  0.648863  0.677707  1
  O  O18  1  0.184422  0.325428  0.332078  1
  O  O19  1  0.674572  0.858994  0.665411  1
  O  O20  1  0.141006  0.815578  0.998745  1
  O  O21  1  0.612301  0.472495  0.347607  1
  O  O22  1  0.527505  0.139806  0.680940  1
  O  O23  1  0.860194  0.387699  0.014273  1
