# generated using pymatgen
data_K2RbTbV2O8
_symmetry_space_group_name_H-M   'P 1'
_cell_length_a   6.04626410
_cell_length_b   6.04626410
_cell_length_c   7.81289909
_cell_angle_alpha   90.00000000
_cell_angle_beta   90.00000000
_cell_angle_gamma   120.00000000
_symmetry_Int_Tables_number   1
_chemical_formula_structural   K2RbTbV2O8
_chemical_formula_sum   'K2 Rb1 Tb1 V2 O8'
_cell_volume   247.35293802
_cell_formula_units_Z   1
loop_
 _symmetry_equiv_pos_site_id
 _symmetry_equiv_pos_as_xyz
  1  'x, y, z'
loop_
 _atom_site_type_symbol
 _atom_site_label
 _atom_site_symmetry_multiplicity
 _atom_site_fract_x
 _atom_site_fract_y
 _atom_site_fract_z
 _atom_site_occupancy
  K  K0  1  0.666667  0.333333  0.802233  1
  K  K1  1  0.333333  0.666667  0.197767  1
  Rb  Rb2  1  0.000000  0.000000  0.500000  1
  Tb  Tb3  1  0.000000  0.000000  0.000000  1
  V  V4  1  0.666667  0.333333  0.251138  1
  V  V5  1  0.333333  0.666667  0.748862  1
  O  O6  1  0.824966  0.175034  0.172773  1
  O  O7  1  0.824966  0.649932  0.172773  1
  O  O8  1  0.350068  0.175034  0.172773  1
  O  O9  1  0.649932  0.824966  0.827227  1
  O  O10  1  0.175034  0.350068  0.827227  1
  O  O11  1  0.175034  0.824966  0.827227  1
  O  O12  1  0.333333  0.666667  0.533283  1
  O  O13  1  0.666667  0.333333  0.466717  1
