# generated using pymatgen
data_Dy2Si2O7
_symmetry_space_group_name_H-M   'P 1'
_cell_length_a   6.66054542
_cell_length_b   6.69432736
_cell_length_c   12.15420898
_cell_angle_alpha   94.32210917
_cell_angle_beta   91.31954496
_cell_angle_gamma   91.97282177
_symmetry_Int_Tables_number   1
_chemical_formula_structural   Dy2Si2O7
_chemical_formula_sum   'Dy8 Si8 O28'
_cell_volume   539.89028208
_cell_formula_units_Z   4
loop_
 _symmetry_equiv_pos_site_id
 _symmetry_equiv_pos_as_xyz
  1  'x, y, z'
loop_
 _atom_site_type_symbol
 _atom_site_label
 _atom_site_symmetry_multiplicity
 _atom_site_fract_x
 _atom_site_fract_y
 _atom_site_fract_z
 _atom_site_occupancy
  Dy  Dy0  1  0.673525  0.173126  0.890829  1
  Dy  Dy1  1  0.326475  0.826874  0.109171  1
  Dy  Dy2  1  0.367734  0.217073  0.633911  1
  Dy  Dy3  1  0.632266  0.782927  0.366089  1
  Dy  Dy4  1  0.881992  0.909946  0.643519  1
  Dy  Dy5  1  0.118008  0.090054  0.356481  1
  Dy  Dy6  1  0.949006  0.672539  0.885079  1
  Dy  Dy7  1  0.050994  0.327461  0.114921  1
  Si  Si8  1  0.144876  0.625784  0.378691  1
  Si  Si9  1  0.855124  0.374216  0.621309  1
  Si  Si10  1  0.376870  0.724859  0.594008  1
  Si  Si11  1  0.623130  0.275141  0.405992  1
  Si  Si12  1  0.487245  0.665620  0.824551  1
  Si  Si13  1  0.512755  0.334380  0.175449  1
  Si  Si14  1  0.154806  0.148371  0.884967  1
  Si  Si15  1  0.845194  0.851629  0.115033  1
  O  O16  1  0.000524  0.985850  0.814998  1
  O  O17  1  0.999476  0.014150  0.185002  1
  O  O18  1  0.999937  0.333151  0.918468  1
  O  O19  1  0.000063  0.666849  0.081532  1
  O  O20  1  0.348390  0.209424  0.814745  1
  O  O21  1  0.651610  0.790576  0.185255  1
  O  O22  1  0.230468  0.084129  0.005024  1
  O  O23  1  0.769532  0.915871  0.994976  1
  O  O24  1  0.076239  0.415755  0.310373  1
  O  O25  1  0.923761  0.584245  0.689627  1
  O  O26  1  0.962679  0.771828  0.419718  1
  O  O27  1  0.037321  0.228172  0.580282  1
  O  O28  1  0.289756  0.781942  0.312348  1
  O  O29  1  0.710244  0.218058  0.687652  1
  O  O30  1  0.283865  0.574370  0.488937  1
  O  O31  1  0.716135  0.425630  0.511063  1
  O  O32  1  0.355332  0.488655  0.126282  1
  O  O33  1  0.644668  0.511345  0.873718  1
  O  O34  1  0.382369  0.137362  0.211473  1
  O  O35  1  0.617631  0.862638  0.788527  1
  O  O36  1  0.700471  0.294042  0.094684  1
  O  O37  1  0.299529  0.705958  0.905316  1
  O  O38  1  0.599709  0.432044  0.305945  1
  O  O39  1  0.400291  0.567956  0.694055  1
  O  O40  1  0.413929  0.174135  0.447508  1
  O  O41  1  0.586071  0.825865  0.552492  1
  O  O42  1  0.773721  0.096253  0.377119  1
  O  O43  1  0.226279  0.903747  0.622881  1
