# generated using pymatgen
data_Ca2Sb2O7
_symmetry_space_group_name_H-M   'P 1'
_cell_length_a   7.40036268
_cell_length_b   7.40036268
_cell_length_c   7.40036268
_cell_angle_alpha   119.96019442
_cell_angle_beta   118.56269494
_cell_angle_gamma   91.28821371
_symmetry_Int_Tables_number   1
_chemical_formula_structural   Ca2Sb2O7
_chemical_formula_sum   'Ca4 Sb4 O14'
_cell_volume   289.64627178
_cell_formula_units_Z   2
loop_
 _symmetry_equiv_pos_site_id
 _symmetry_equiv_pos_as_xyz
  1  'x, y, z'
loop_
 _atom_site_type_symbol
 _atom_site_label
 _atom_site_symmetry_multiplicity
 _atom_site_fract_x
 _atom_site_fract_y
 _atom_site_fract_z
 _atom_site_occupancy
  Ca  Ca0  1  0.000000  0.000000  0.000000  1
  Ca  Ca1  1  0.000000  0.500000  0.500000  1
  Ca  Ca2  1  0.000000  0.500000  0.000000  1
  Ca  Ca3  1  0.500000  0.000000  0.000000  1
  Sb  Sb4  1  0.500000  0.000000  0.500000  1
  Sb  Sb5  1  0.500000  0.500000  0.000000  1
  Sb  Sb6  1  0.500000  0.500000  0.500000  1
  Sb  Sb7  1  0.000000  0.000000  0.500000  1
  O  O8  1  0.443758  0.171694  0.351816  1
  O  O9  1  0.556242  0.408059  0.227936  1
  O  O10  1  0.180123  0.328306  0.772064  1
  O  O11  1  0.819877  0.091941  0.648184  1
  O  O12  1  0.556242  0.828306  0.648184  1
  O  O13  1  0.443758  0.591941  0.772064  1
  O  O14  1  0.819877  0.671694  0.227936  1
  O  O15  1  0.180123  0.908059  0.351816  1
  O  O16  1  0.598623  0.250000  0.848623  1
  O  O17  1  0.401377  0.750000  0.151377  1
  O  O18  1  0.176683  0.405837  0.270846  1
  O  O19  1  0.823317  0.594163  0.729154  1
  O  O20  1  0.865009  0.094163  0.270846  1
  O  O21  1  0.134991  0.905837  0.729154  1
