# generated using pymatgen
data_TlV3O8
_symmetry_space_group_name_H-M   'P 1'
_cell_length_a   5.10101261
_cell_length_b   8.56023416
_cell_length_c   7.93266253
_cell_angle_alpha   90.00000000
_cell_angle_beta   97.26602044
_cell_angle_gamma   90.00000000
_symmetry_Int_Tables_number   1
_chemical_formula_structural   TlV3O8
_chemical_formula_sum   'Tl2 V6 O16'
_cell_volume   343.60493612
_cell_formula_units_Z   2
loop_
 _symmetry_equiv_pos_site_id
 _symmetry_equiv_pos_as_xyz
  1  'x, y, z'
loop_
 _atom_site_type_symbol
 _atom_site_label
 _atom_site_symmetry_multiplicity
 _atom_site_fract_x
 _atom_site_fract_y
 _atom_site_fract_z
 _atom_site_occupancy
  Tl  Tl0  1  0.542599  0.250000  0.939977  1
  Tl  Tl1  1  0.457401  0.750000  0.060023  1
  V  V2  1  0.939716  0.946209  0.682591  1
  V  V3  1  0.060284  0.446209  0.317409  1
  V  V4  1  0.572975  0.250000  0.421990  1
  V  V5  1  0.427025  0.750000  0.578010  1
  V  V6  1  0.060284  0.053791  0.317409  1
  V  V7  1  0.939716  0.553791  0.682591  1
  O  O8  1  0.385677  0.399638  0.270175  1
  O  O9  1  0.614323  0.600362  0.729825  1
  O  O10  1  0.385677  0.100362  0.270175  1
  O  O11  1  0.932461  0.935017  0.168469  1
  O  O12  1  0.616634  0.750000  0.426832  1
  O  O13  1  0.383366  0.250000  0.573168  1
  O  O14  1  0.182215  0.586989  0.506438  1
  O  O15  1  0.817785  0.413011  0.493562  1
  O  O16  1  0.817785  0.086989  0.493562  1
  O  O17  1  0.182215  0.913011  0.506438  1
  O  O18  1  0.067539  0.064983  0.831531  1
  O  O19  1  0.915861  0.250000  0.244304  1
  O  O20  1  0.932461  0.564983  0.168469  1
  O  O21  1  0.614323  0.899638  0.729825  1
  O  O22  1  0.067539  0.435017  0.831531  1
  O  O23  1  0.084139  0.750000  0.755696  1
