# generated using pymatgen
data_ZnP4O11
_symmetry_space_group_name_H-M   'P 1'
_cell_length_a   5.44408048
_cell_length_b   22.63470598
_cell_length_c   7.55228134
_cell_angle_alpha   90.00000000
_cell_angle_beta   110.53034297
_cell_angle_gamma   90.00000000
_symmetry_Int_Tables_number   1
_chemical_formula_structural   ZnP4O11
_chemical_formula_sum   'Zn4 P16 O44'
_cell_volume   871.52353394
_cell_formula_units_Z   4
loop_
 _symmetry_equiv_pos_site_id
 _symmetry_equiv_pos_as_xyz
  1  'x, y, z'
loop_
 _atom_site_type_symbol
 _atom_site_label
 _atom_site_symmetry_multiplicity
 _atom_site_fract_x
 _atom_site_fract_y
 _atom_site_fract_z
 _atom_site_occupancy
  Zn  Zn0  1  0.009433  0.885095  0.867844  1
  Zn  Zn1  1  0.990567  0.385095  0.632156  1
  Zn  Zn2  1  0.990567  0.114905  0.132156  1
  Zn  Zn3  1  0.009433  0.614905  0.367844  1
  P  P4  1  0.315212  0.178788  0.558278  1
  P  P5  1  0.684788  0.678788  0.941722  1
  P  P6  1  0.684788  0.821212  0.441722  1
  P  P7  1  0.315212  0.321212  0.058278  1
  P  P8  1  0.684096  0.072079  0.689826  1
  P  P9  1  0.315904  0.572079  0.810174  1
  P  P10  1  0.315904  0.927921  0.310174  1
  P  P11  1  0.684096  0.427921  0.189826  1
  P  P12  1  0.390729  0.195944  0.971581  1
  P  P13  1  0.609271  0.695944  0.528419  1
  P  P14  1  0.609271  0.804056  0.028419  1
  P  P15  1  0.390729  0.304056  0.471581  1
  P  P16  1  0.406459  0.962890  0.704794  1
  P  P17  1  0.593541  0.462890  0.795206  1
  P  P18  1  0.593541  0.037110  0.295206  1
  P  P19  1  0.406459  0.537110  0.204794  1
  O  O20  1  0.644148  0.335488  0.523245  1
  O  O21  1  0.355852  0.835488  0.976755  1
  O  O22  1  0.355852  0.664512  0.476755  1
  O  O23  1  0.644148  0.164512  0.023245  1
  O  O24  1  0.223375  0.547369  0.307485  1
  O  O25  1  0.776625  0.047369  0.192515  1
  O  O26  1  0.776625  0.452631  0.692515  1
  O  O27  1  0.223375  0.952631  0.807485  1
  O  O28  1  0.666726  0.565583  0.249617  1
  O  O29  1  0.333274  0.065583  0.250383  1
  O  O30  1  0.333274  0.434417  0.750383  1
  O  O31  1  0.666726  0.934417  0.749617  1
  O  O32  1  0.183868  0.317334  0.551961  1
  O  O33  1  0.816132  0.817334  0.948039  1
  O  O34  1  0.816132  0.682666  0.448039  1
  O  O35  1  0.183868  0.182666  0.051961  1
  O  O36  1  0.249037  0.305245  0.239439  1
  O  O37  1  0.237255  0.952182  0.478355  1
  O  O38  1  0.237255  0.547818  0.978355  1
  O  O39  1  0.762745  0.047818  0.521645  1
  O  O40  1  0.441542  0.464697  0.199606  1
  O  O41  1  0.558458  0.964697  0.300394  1
  O  O42  1  0.558458  0.535303  0.800394  1
  O  O43  1  0.441542  0.035303  0.699606  1
  O  O44  1  0.249037  0.194755  0.739439  1
  O  O45  1  0.750963  0.694755  0.760561  1
  O  O46  1  0.750963  0.805245  0.260561  1
  O  O47  1  0.457717  0.266660  0.005498  1
  O  O48  1  0.916243  0.424407  0.363458  1
  O  O49  1  0.083757  0.924407  0.136542  1
  O  O50  1  0.083757  0.575593  0.636542  1
  O  O51  1  0.916243  0.075593  0.863458  1
  O  O52  1  0.560606  0.364506  0.122921  1
  O  O53  1  0.439394  0.864506  0.377079  1
  O  O54  1  0.439394  0.635494  0.877079  1
  O  O55  1  0.560606  0.135494  0.622921  1
  O  O56  1  0.080396  0.343760  0.907107  1
  O  O57  1  0.919604  0.843760  0.592893  1
  O  O58  1  0.919604  0.656240  0.092893  1
  O  O59  1  0.080396  0.156240  0.407107  1
  O  O60  1  0.457717  0.233340  0.505498  1
  O  O61  1  0.542283  0.733340  0.994502  1
  O  O62  1  0.542283  0.766660  0.494502  1
  O  O63  1  0.762745  0.452182  0.021645  1
