# generated using pymatgen
data_CaGa4O7
_symmetry_space_group_name_H-M   'P 1'
_cell_length_a   8.08287424
_cell_length_b   8.08287424
_cell_length_c   5.68093525
_cell_angle_alpha   78.09238455
_cell_angle_beta   101.90761545
_cell_angle_gamma   110.45829549
_symmetry_Int_Tables_number   1
_chemical_formula_structural   CaGa4O7
_chemical_formula_sum   'Ca2 Ga8 O14'
_cell_volume   336.59298633
_cell_formula_units_Z   2
loop_
 _symmetry_equiv_pos_site_id
 _symmetry_equiv_pos_as_xyz
  1  'x, y, z'
loop_
 _atom_site_type_symbol
 _atom_site_label
 _atom_site_symmetry_multiplicity
 _atom_site_fract_x
 _atom_site_fract_y
 _atom_site_fract_z
 _atom_site_occupancy
  Ca  Ca0  1  0.707784  0.707784  0.750000  1
  Ca  Ca1  1  0.292216  0.292216  0.250000  1
  Ga  Ga2  1  0.255264  0.575261  0.685268  1
  Ga  Ga3  1  0.575261  0.255264  0.814732  1
  Ga  Ga4  1  0.943517  0.185385  0.754856  1
  Ga  Ga5  1  0.185385  0.943517  0.745144  1
  Ga  Ga6  1  0.056483  0.814615  0.245144  1
  Ga  Ga7  1  0.814615  0.056483  0.254856  1
  Ga  Ga8  1  0.424739  0.744736  0.185268  1
  Ga  Ga9  1  0.744736  0.424739  0.314732  1
  O  O10  1  0.035710  0.035710  0.250000  1
  O  O11  1  0.964290  0.964290  0.750000  1
  O  O12  1  0.137969  0.364090  0.864494  1
  O  O13  1  0.364090  0.137969  0.635506  1
  O  O14  1  0.862031  0.635910  0.135506  1
  O  O15  1  0.635910  0.862031  0.364494  1
  O  O16  1  0.680928  0.452786  0.595830  1
  O  O17  1  0.452786  0.680928  0.904170  1
  O  O18  1  0.319072  0.547214  0.404170  1
  O  O19  1  0.547214  0.319072  0.095830  1
  O  O20  1  0.746023  0.131634  0.920014  1
  O  O21  1  0.131634  0.746023  0.579986  1
  O  O22  1  0.253977  0.868366  0.079986  1
  O  O23  1  0.868366  0.253977  0.420014  1
