# generated using pymatgen
data_KNd(SO4)2
_symmetry_space_group_name_H-M   'P 1'
_cell_length_a   8.77436352
_cell_length_b   7.27941657
_cell_length_c   10.79501803
_cell_angle_alpha   90.00000000
_cell_angle_beta   92.64203101
_cell_angle_gamma   90.00000000
_symmetry_Int_Tables_number   1
_chemical_formula_structural   KNd(SO4)2
_chemical_formula_sum   'K4 Nd4 S8 O32'
_cell_volume   688.76913539
_cell_formula_units_Z   4
loop_
 _symmetry_equiv_pos_site_id
 _symmetry_equiv_pos_as_xyz
  1  'x, y, z'
loop_
 _atom_site_type_symbol
 _atom_site_label
 _atom_site_symmetry_multiplicity
 _atom_site_fract_x
 _atom_site_fract_y
 _atom_site_fract_z
 _atom_site_occupancy
  K  K0  1  0.439307  0.848862  0.154534  1
  K  K1  1  0.560693  0.348862  0.345466  1
  K  K2  1  0.560693  0.151138  0.845466  1
  K  K3  1  0.439307  0.651138  0.654534  1
  Nd  Nd4  1  0.943302  0.669018  0.150410  1
  Nd  Nd5  1  0.056698  0.169018  0.349590  1
  Nd  Nd6  1  0.056698  0.330982  0.849590  1
  Nd  Nd7  1  0.943302  0.830982  0.650410  1
  S  S8  1  0.726959  0.842453  0.408717  1
  S  S9  1  0.273041  0.342453  0.091283  1
  S  S10  1  0.273041  0.157547  0.591283  1
  S  S11  1  0.726959  0.657547  0.908717  1
  S  S12  1  0.181653  0.666433  0.390787  1
  S  S13  1  0.818347  0.166433  0.109213  1
  S  S14  1  0.818347  0.333567  0.609213  1
  S  S15  1  0.181653  0.833567  0.890787  1
  O  O16  1  0.606077  0.967388  0.367140  1
  O  O17  1  0.393923  0.467388  0.132860  1
  O  O18  1  0.393923  0.032612  0.632860  1
  O  O19  1  0.606077  0.532612  0.867140  1
  O  O20  1  0.699265  0.747568  0.030351  1
  O  O21  1  0.300735  0.247568  0.469649  1
  O  O22  1  0.300735  0.252432  0.969649  1
  O  O23  1  0.699265  0.752432  0.530351  1
  O  O24  1  0.754510  0.698673  0.312879  1
  O  O25  1  0.245490  0.198673  0.187121  1
  O  O26  1  0.245490  0.301327  0.687121  1
  O  O27  1  0.754510  0.801327  0.812879  1
  O  O28  1  0.123979  0.444715  0.062408  1
  O  O29  1  0.876021  0.944715  0.437592  1
  O  O30  1  0.876021  0.555285  0.937592  1
  O  O31  1  0.123979  0.055285  0.562408  1
  O  O32  1  0.125029  0.680389  0.517457  1
  O  O33  1  0.874971  0.180389  0.982543  1
  O  O34  1  0.874971  0.319611  0.482543  1
  O  O35  1  0.125029  0.819611  0.017457  1
  O  O36  1  0.346243  0.857295  0.893757  1
  O  O37  1  0.653757  0.357295  0.606243  1
  O  O38  1  0.653757  0.142705  0.106243  1
  O  O39  1  0.346243  0.642705  0.393757  1
  O  O40  1  0.135377  0.667967  0.811140  1
  O  O41  1  0.864623  0.167967  0.688860  1
  O  O42  1  0.864623  0.332033  0.188860  1
  O  O43  1  0.135377  0.832033  0.311140  1
  O  O44  1  0.096768  0.988853  0.823461  1
  O  O45  1  0.903232  0.488853  0.676539  1
  O  O46  1  0.903232  0.011147  0.176539  1
  O  O47  1  0.096768  0.511147  0.323461  1
