# generated using pymatgen
data_LiSbWO6
_symmetry_space_group_name_H-M   'P 1'
_cell_length_a   4.75928767
_cell_length_b   5.09390505
_cell_length_c   17.74070424
_cell_angle_alpha   90.00000000
_cell_angle_beta   90.00000000
_cell_angle_gamma   90.00000000
_symmetry_Int_Tables_number   1
_chemical_formula_structural   LiSbWO6
_chemical_formula_sum   'Li4 Sb4 W4 O24'
_cell_volume   430.09427061
_cell_formula_units_Z   4
loop_
 _symmetry_equiv_pos_site_id
 _symmetry_equiv_pos_as_xyz
  1  'x, y, z'
loop_
 _atom_site_type_symbol
 _atom_site_label
 _atom_site_symmetry_multiplicity
 _atom_site_fract_x
 _atom_site_fract_y
 _atom_site_fract_z
 _atom_site_occupancy
  Li  Li0  1  0.000000  0.750000  0.047929  1
  Li  Li1  1  0.500000  0.250000  0.452071  1
  Li  Li2  1  0.000000  0.250000  0.952071  1
  Li  Li3  1  0.500000  0.750000  0.547929  1
  Sb  Sb4  1  0.000000  0.750000  0.718463  1
  Sb  Sb5  1  0.000000  0.250000  0.281537  1
  Sb  Sb6  1  0.500000  0.750000  0.218463  1
  Sb  Sb7  1  0.500000  0.250000  0.781537  1
  W  W8  1  0.500000  0.250000  0.103237  1
  W  W9  1  0.000000  0.250000  0.603237  1
  W  W10  1  0.500000  0.750000  0.896763  1
  W  W11  1  0.000000  0.750000  0.396763  1
  O  O12  1  0.293829  0.560892  0.136153  1
  O  O13  1  0.739915  0.920205  0.793325  1
  O  O14  1  0.239915  0.079795  0.706675  1
  O  O15  1  0.760085  0.420205  0.706675  1
  O  O16  1  0.260085  0.579795  0.793325  1
  O  O17  1  0.260085  0.079795  0.206675  1
  O  O18  1  0.760085  0.920205  0.293325  1
  O  O19  1  0.239915  0.579795  0.293325  1
  O  O20  1  0.793829  0.439108  0.363847  1
  O  O21  1  0.293829  0.060892  0.863847  1
  O  O22  1  0.706171  0.939108  0.136153  1
  O  O23  1  0.206171  0.060892  0.363847  1
  O  O24  1  0.206171  0.560892  0.636153  1
  O  O25  1  0.706171  0.439108  0.863847  1
  O  O26  1  0.753840  0.393926  0.042393  1
  O  O27  1  0.793829  0.939108  0.636153  1
  O  O28  1  0.753840  0.893926  0.957607  1
  O  O29  1  0.253840  0.606074  0.457607  1
  O  O30  1  0.746160  0.893926  0.457607  1
  O  O31  1  0.246160  0.106074  0.042393  1
  O  O32  1  0.246160  0.606074  0.957607  1
  O  O33  1  0.746160  0.393926  0.542393  1
  O  O34  1  0.253840  0.106074  0.542393  1
  O  O35  1  0.739915  0.420205  0.206675  1
