# generated using pymatgen
data_TbVO4
_symmetry_space_group_name_H-M   'P 1'
_cell_length_a   6.03195081
_cell_length_b   6.03195081
_cell_length_c   6.03195081
_cell_angle_alpha   106.20131873
_cell_angle_beta   106.20131873
_cell_angle_gamma   116.22987149
_symmetry_Int_Tables_number   1
_chemical_formula_structural   TbVO4
_chemical_formula_sum   'Tb2 V2 O8'
_cell_volume   167.16411696
_cell_formula_units_Z   2
loop_
 _symmetry_equiv_pos_site_id
 _symmetry_equiv_pos_as_xyz
  1  'x, y, z'
loop_
 _atom_site_type_symbol
 _atom_site_label
 _atom_site_symmetry_multiplicity
 _atom_site_fract_x
 _atom_site_fract_y
 _atom_site_fract_z
 _atom_site_occupancy
  Tb  Tb0  1  1.000000  0.000000  0.000000  1
  Tb  Tb1  1  0.250000  0.750000  0.500000  1
  V  V2  1  0.750000  0.250000  0.500000  1
  V  V3  1  0.500000  0.500000  0.000000  1
  O  O4  1  0.859597  0.675492  0.184105  1
  O  O5  1  0.925492  0.241388  0.315895  1
  O  O6  1  0.925492  0.609597  0.684105  1
  O  O7  1  0.491388  0.675492  0.815895  1
  O  O8  1  0.324508  0.508612  0.184105  1
  O  O9  1  0.390403  0.074508  0.315895  1
  O  O10  1  0.758612  0.074508  0.684105  1
  O  O11  1  0.324508  0.140403  0.815895  1
