# generated using pymatgen
data_KEr(SO4)2
_symmetry_space_group_name_H-M   'P 1'
_cell_length_a   5.49625523
_cell_length_b   13.50114518
_cell_length_c   10.18016115
_cell_angle_alpha   90.00000000
_cell_angle_beta   119.29298551
_cell_angle_gamma   90.00000000
_symmetry_Int_Tables_number   1
_chemical_formula_structural   KEr(SO4)2
_chemical_formula_sum   'K4 Er4 S8 O32'
_cell_volume   658.82939709
_cell_formula_units_Z   4
loop_
 _symmetry_equiv_pos_site_id
 _symmetry_equiv_pos_as_xyz
  1  'x, y, z'
loop_
 _atom_site_type_symbol
 _atom_site_label
 _atom_site_symmetry_multiplicity
 _atom_site_fract_x
 _atom_site_fract_y
 _atom_site_fract_z
 _atom_site_occupancy
  K  K0  1  0.590253  0.088308  0.343881  1
  K  K1  1  0.409747  0.588308  0.156119  1
  K  K2  1  0.409747  0.911692  0.656119  1
  K  K3  1  0.590253  0.411692  0.843881  1
  Er  Er4  1  0.090297  0.348558  0.313105  1
  Er  Er5  1  0.909703  0.848558  0.186895  1
  Er  Er6  1  0.909703  0.651442  0.686895  1
  Er  Er7  1  0.090297  0.151442  0.813105  1
  S  S8  1  0.823247  0.116690  0.079933  1
  S  S9  1  0.176753  0.616690  0.420067  1
  S  S10  1  0.176753  0.883310  0.920067  1
  S  S11  1  0.823247  0.383310  0.579933  1
  S  S12  1  0.360190  0.337400  0.113046  1
  S  S13  1  0.639810  0.837400  0.386954  1
  S  S14  1  0.639810  0.662600  0.886954  1
  S  S15  1  0.360190  0.162600  0.613046  1
  O  O16  1  0.936112  0.033345  0.188834  1
  O  O17  1  0.063888  0.533345  0.311166  1
  O  O18  1  0.063888  0.966655  0.811166  1
  O  O19  1  0.936112  0.466655  0.688834  1
  O  O20  1  0.968700  0.378648  0.489770  1
  O  O21  1  0.031300  0.878648  0.010230  1
  O  O22  1  0.031300  0.621352  0.510230  1
  O  O23  1  0.968700  0.121352  0.989770  1
  O  O24  1  0.519998  0.101284  0.978405  1
  O  O25  1  0.480002  0.601284  0.521595  1
  O  O26  1  0.480002  0.898716  0.021595  1
  O  O27  1  0.519998  0.398716  0.478405  1
  O  O28  1  0.863711  0.211255  0.162673  1
  O  O29  1  0.136289  0.711255  0.337327  1
  O  O30  1  0.136289  0.788745  0.837327  1
  O  O31  1  0.863711  0.288745  0.662673  1
  O  O32  1  0.415759  0.233165  0.735925  1
  O  O33  1  0.584241  0.733165  0.764075  1
  O  O34  1  0.584241  0.766835  0.264075  1
  O  O35  1  0.415759  0.266835  0.235925  1
  O  O36  1  0.257944  0.290633  0.964177  1
  O  O37  1  0.742056  0.790633  0.535823  1
  O  O38  1  0.742056  0.709367  0.035823  1
  O  O39  1  0.257944  0.209367  0.464177  1
  O  O40  1  0.615302  0.103359  0.648174  1
  O  O41  1  0.384698  0.603359  0.851826  1
  O  O42  1  0.384698  0.896641  0.351826  1
  O  O43  1  0.615302  0.396641  0.148174  1
  O  O44  1  0.139246  0.093625  0.607489  1
  O  O45  1  0.860754  0.593625  0.892511  1
  O  O46  1  0.860754  0.906375  0.392511  1
  O  O47  1  0.139246  0.406375  0.107489  1
