# generated using pymatgen
data_Li3AlF6
_symmetry_space_group_name_H-M   'P 1'
_cell_length_a   8.39300491
_cell_length_b   8.39300491
_cell_length_c   10.04853080
_cell_angle_alpha   86.46428898
_cell_angle_beta   93.53571102
_cell_angle_gamma   118.91194776
_symmetry_Int_Tables_number   1
_chemical_formula_structural   Li3AlF6
_chemical_formula_sum   'Li18 Al6 F36'
_cell_volume   618.03030841
_cell_formula_units_Z   6
loop_
 _symmetry_equiv_pos_site_id
 _symmetry_equiv_pos_as_xyz
  1  'x, y, z'
loop_
 _atom_site_type_symbol
 _atom_site_label
 _atom_site_symmetry_multiplicity
 _atom_site_fract_x
 _atom_site_fract_y
 _atom_site_fract_z
 _atom_site_occupancy
  Li  Li0  1  0.808297  0.808297  0.750000  1
  Li  Li1  1  0.191703  0.191703  0.250000  1
  Li  Li2  1  0.343057  0.938655  0.431582  1
  Li  Li3  1  0.938655  0.343057  0.068418  1
  Li  Li4  1  0.656943  0.061345  0.568418  1
  Li  Li5  1  0.061345  0.656943  0.931582  1
  Li  Li6  1  0.450712  0.116991  0.054431  1
  Li  Li7  1  0.116991  0.450712  0.445569  1
  Li  Li8  1  0.549288  0.883009  0.945569  1
  Li  Li9  1  0.883009  0.549288  0.554431  1
  Li  Li10  1  0.623893  0.674316  0.455878  1
  Li  Li11  1  0.674316  0.623893  0.044122  1
  Li  Li12  1  0.376107  0.325684  0.544122  1
  Li  Li13  1  0.325684  0.376107  0.955878  1
  Li  Li14  1  0.004962  0.282228  0.732179  1
  Li  Li15  1  0.282228  0.004962  0.767821  1
  Li  Li16  1  0.995038  0.717772  0.267821  1
  Li  Li17  1  0.717772  0.995038  0.232179  1
  Al  Al18  1  0.000000  0.000000  0.000000  1
  Al  Al19  1  0.665677  0.338423  0.799486  1
  Al  Al20  1  0.338423  0.665677  0.700514  1
  Al  Al21  1  0.334323  0.661577  0.200514  1
  Al  Al22  1  0.661577  0.334323  0.299486  1
  Al  Al23  1  0.000000  1.000000  0.500000  1
  F  F24  1  0.443585  0.245557  0.205850  1
  F  F25  1  0.936655  0.072886  0.341886  1
  F  F26  1  0.072886  0.936655  0.158114  1
  F  F27  1  0.063345  0.927114  0.658114  1
  F  F28  1  0.927114  0.063345  0.841886  1
  F  F29  1  0.881597  0.414858  0.895943  1
  F  F30  1  0.556415  0.754443  0.794150  1
  F  F31  1  0.754443  0.556415  0.705850  1
  F  F32  1  0.770281  0.913023  0.561548  1
  F  F33  1  0.245557  0.443585  0.294150  1
  F  F34  1  0.426244  0.882977  0.109333  1
  F  F35  1  0.882977  0.426244  0.390667  1
  F  F36  1  0.573756  0.117023  0.890667  1
  F  F37  1  0.117023  0.573756  0.609333  1
  F  F38  1  0.547067  0.756747  0.299905  1
  F  F39  1  0.756747  0.547067  0.200095  1
  F  F40  1  0.452933  0.243253  0.700095  1
  F  F41  1  0.243253  0.452933  0.799905  1
  F  F42  1  0.735410  0.231141  0.174515  1
  F  F43  1  0.231141  0.735410  0.325485  1
  F  F44  1  0.264590  0.768859  0.825485  1
  F  F45  1  0.118403  0.585142  0.104057  1
  F  F46  1  0.770225  0.920437  0.061750  1
  F  F47  1  0.920437  0.770225  0.438250  1
  F  F48  1  0.229775  0.079563  0.938250  1
  F  F49  1  0.079563  0.229775  0.561750  1
  F  F50  1  0.913023  0.770281  0.938452  1
  F  F51  1  0.768859  0.264590  0.674515  1
  F  F52  1  0.086977  0.229719  0.061548  1
  F  F53  1  0.229719  0.086977  0.438452  1
  F  F54  1  0.586387  0.427867  0.427572  1
  F  F55  1  0.427867  0.586387  0.072428  1
  F  F56  1  0.413613  0.572133  0.572428  1
  F  F57  1  0.572133  0.413613  0.927572  1
  F  F58  1  0.585142  0.118403  0.395943  1
  F  F59  1  0.414858  0.881597  0.604057  1
