# generated using pymatgen
data_K2VO2F3
_symmetry_space_group_name_H-M   'P 1'
_cell_length_a   5.77548046
_cell_length_b   7.51780682
_cell_length_c   11.57112120
_cell_angle_alpha   90.00000000
_cell_angle_beta   90.00000000
_cell_angle_gamma   90.00000000
_symmetry_Int_Tables_number   1
_chemical_formula_structural   K2VO2F3
_chemical_formula_sum   'K8 V4 O8 F12'
_cell_volume   502.40589107
_cell_formula_units_Z   4
loop_
 _symmetry_equiv_pos_site_id
 _symmetry_equiv_pos_as_xyz
  1  'x, y, z'
loop_
 _atom_site_type_symbol
 _atom_site_label
 _atom_site_symmetry_multiplicity
 _atom_site_fract_x
 _atom_site_fract_y
 _atom_site_fract_z
 _atom_site_occupancy
  K  K0  1  0.250000  0.973269  0.216163  1
  K  K1  1  0.750000  0.026731  0.783837  1
  K  K2  1  0.250000  0.473269  0.283837  1
  K  K3  1  0.750000  0.526731  0.716163  1
  K  K4  1  0.250000  0.685860  0.912505  1
  K  K5  1  0.750000  0.314140  0.087495  1
  K  K6  1  0.250000  0.185860  0.587495  1
  K  K7  1  0.750000  0.814140  0.412505  1
  V  V8  1  0.250000  0.700070  0.569639  1
  V  V9  1  0.750000  0.299930  0.430361  1
  V  V10  1  0.250000  0.200070  0.930361  1
  V  V11  1  0.750000  0.799930  0.069639  1
  O  O12  1  0.022972  0.321747  0.888492  1
  O  O13  1  0.522972  0.678253  0.111508  1
  O  O14  1  0.977028  0.178253  0.388492  1
  O  O15  1  0.022972  0.821747  0.611508  1
  O  O16  1  0.522972  0.178253  0.388492  1
  O  O17  1  0.477028  0.321747  0.888492  1
  O  O18  1  0.977028  0.678253  0.111508  1
  O  O19  1  0.477028  0.821747  0.611508  1
  F  F20  1  0.750000  0.964334  0.193769  1
  F  F21  1  0.000000  0.500000  0.500000  1
  F  F22  1  0.500000  0.000000  0.000000  1
  F  F23  1  0.000000  0.000000  0.000000  1
  F  F24  1  0.250000  0.035666  0.806231  1
  F  F25  1  0.750000  0.464334  0.306231  1
  F  F26  1  0.250000  0.535666  0.693769  1
  F  F27  1  0.750000  0.731031  0.908965  1
  F  F28  1  0.250000  0.768969  0.408965  1
  F  F29  1  0.750000  0.231031  0.591035  1
  F  F30  1  0.500000  0.500000  0.500000  1
  F  F31  1  0.250000  0.268969  0.091035  1
