# generated using pymatgen
data_Ba2CoO4
_symmetry_space_group_name_H-M   'P 1'
_cell_length_a   5.95556534
_cell_length_b   7.70055268
_cell_length_c   10.66386960
_cell_angle_alpha   90.00000000
_cell_angle_beta   90.00000000
_cell_angle_gamma   90.00000000
_symmetry_Int_Tables_number   1
_chemical_formula_structural   Ba2CoO4
_chemical_formula_sum   'Ba8 Co4 O16'
_cell_volume   489.05726615
_cell_formula_units_Z   4
loop_
 _symmetry_equiv_pos_site_id
 _symmetry_equiv_pos_as_xyz
  1  'x, y, z'
loop_
 _atom_site_type_symbol
 _atom_site_label
 _atom_site_symmetry_multiplicity
 _atom_site_fract_x
 _atom_site_fract_y
 _atom_site_fract_z
 _atom_site_occupancy
  Ba  Ba0  1  0.250000  0.351768  0.074043  1
  Ba  Ba1  1  0.750000  0.648232  0.925957  1
  Ba  Ba2  1  0.250000  0.851768  0.425957  1
  Ba  Ba3  1  0.750000  0.148232  0.574043  1
  Ba  Ba4  1  0.250000  0.509225  0.690404  1
  Ba  Ba5  1  0.750000  0.490775  0.309596  1
  Ba  Ba6  1  0.250000  0.009225  0.809596  1
  Ba  Ba7  1  0.750000  0.990775  0.190404  1
  Co  Co8  1  0.250000  0.776159  0.077350  1
  Co  Co9  1  0.750000  0.223841  0.922650  1
  Co  Co10  1  0.250000  0.276159  0.422650  1
  Co  Co11  1  0.750000  0.723841  0.577350  1
  O  O12  1  0.002588  0.185007  0.352300  1
  O  O13  1  0.502588  0.814993  0.647700  1
  O  O14  1  0.497412  0.685007  0.147700  1
  O  O15  1  0.997412  0.314993  0.852300  1
  O  O16  1  0.997412  0.814993  0.647700  1
  O  O17  1  0.497412  0.185007  0.352300  1
  O  O18  1  0.502588  0.314993  0.852300  1
  O  O19  1  0.002588  0.685007  0.147700  1
  O  O20  1  0.250000  0.690665  0.917756  1
  O  O21  1  0.750000  0.309335  0.082244  1
  O  O22  1  0.250000  0.190665  0.582244  1
  O  O23  1  0.750000  0.809335  0.417756  1
  O  O24  1  0.750000  0.491934  0.581513  1
  O  O25  1  0.250000  0.508066  0.418487  1
  O  O26  1  0.750000  0.991934  0.918487  1
  O  O27  1  0.250000  0.008066  0.081513  1
