# generated using pymatgen
data_KNa2Li3Cr2(Si2O5)6
_symmetry_space_group_name_H-M   'P 1'
_cell_length_a   10.17075083
_cell_length_b   10.17075083
_cell_length_c   14.28953254
_cell_angle_alpha   90.00000000
_cell_angle_beta   90.00000000
_cell_angle_gamma   120.00000000
_symmetry_Int_Tables_number   1
_chemical_formula_structural   KNa2Li3Cr2(Si2O5)6
_chemical_formula_sum   'K2 Na4 Li6 Cr4 Si24 O60'
_cell_volume   1280.13179052
_cell_formula_units_Z   2
loop_
 _symmetry_equiv_pos_site_id
 _symmetry_equiv_pos_as_xyz
  1  'x, y, z'
loop_
 _atom_site_type_symbol
 _atom_site_label
 _atom_site_symmetry_multiplicity
 _atom_site_fract_x
 _atom_site_fract_y
 _atom_site_fract_z
 _atom_site_occupancy
  K  K0  1  0.000000  0.000000  0.250000  1
  K  K1  1  0.000000  0.000000  0.750000  1
  Na  Na2  1  0.666667  0.333333  0.500000  1
  Na  Na3  1  0.666667  0.333333  0.000000  1
  Na  Na4  1  0.333333  0.666667  0.000000  1
  Na  Na5  1  0.333333  0.666667  0.500000  1
  Li  Li6  1  0.500000  0.000000  0.250000  1
  Li  Li7  1  0.000000  0.500000  0.750000  1
  Li  Li8  1  0.500000  0.500000  0.750000  1
  Li  Li9  1  0.500000  0.000000  0.750000  1
  Li  Li10  1  0.000000  0.500000  0.250000  1
  Li  Li11  1  0.500000  0.500000  0.250000  1
  Cr  Cr12  1  0.333333  0.666667  0.750000  1
  Cr  Cr13  1  0.666667  0.333333  0.750000  1
  Cr  Cr14  1  0.666667  0.333333  0.250000  1
  Cr  Cr15  1  0.333333  0.666667  0.250000  1
  Si  Si16  1  0.356523  0.121137  0.387725  1
  Si  Si17  1  0.764614  0.643477  0.612275  1
  Si  Si18  1  0.356523  0.121137  0.612275  1
  Si  Si19  1  0.643477  0.764614  0.887725  1
  Si  Si20  1  0.121137  0.356523  0.887725  1
  Si  Si21  1  0.878863  0.643477  0.887725  1
  Si  Si22  1  0.356523  0.235386  0.887725  1
  Si  Si23  1  0.235386  0.878863  0.887725  1
  Si  Si24  1  0.764614  0.643477  0.387725  1
  Si  Si25  1  0.764614  0.121137  0.887725  1
  Si  Si26  1  0.878863  0.235386  0.387725  1
  Si  Si27  1  0.121137  0.764614  0.387725  1
  Si  Si28  1  0.235386  0.878863  0.112275  1
  Si  Si29  1  0.878863  0.235386  0.612275  1
  Si  Si30  1  0.643477  0.878863  0.387725  1
  Si  Si31  1  0.356523  0.235386  0.112275  1
  Si  Si32  1  0.878863  0.643477  0.112275  1
  Si  Si33  1  0.121137  0.356523  0.112275  1
  Si  Si34  1  0.643477  0.764614  0.112275  1
  Si  Si35  1  0.764614  0.121137  0.112275  1
  Si  Si36  1  0.121137  0.764614  0.612275  1
  Si  Si37  1  0.643477  0.878863  0.612275  1
  Si  Si38  1  0.235386  0.356523  0.612275  1
  Si  Si39  1  0.235386  0.356523  0.387725  1
  O  O40  1  0.141102  0.740093  0.500000  1
  O  O41  1  0.492488  0.657425  0.829777  1
  O  O42  1  0.164937  0.507512  0.829777  1
  O  O43  1  0.835063  0.492488  0.829777  1
  O  O44  1  0.342575  0.507512  0.670223  1
  O  O45  1  0.657425  0.492488  0.670223  1
  O  O46  1  0.657425  0.164937  0.829777  1
  O  O47  1  0.835063  0.342575  0.670223  1
  O  O48  1  0.164937  0.657425  0.670223  1
  O  O49  1  0.492488  0.835063  0.670223  1
  O  O50  1  0.507512  0.342575  0.829777  1
  O  O51  1  0.342575  0.835063  0.829777  1
  O  O52  1  0.657425  0.492488  0.329777  1
  O  O53  1  0.507512  0.164937  0.329777  1
  O  O54  1  0.835063  0.342575  0.329777  1
  O  O55  1  0.164937  0.657425  0.329777  1
  O  O56  1  0.342575  0.835063  0.170223  1
  O  O57  1  0.342575  0.507512  0.329777  1
  O  O58  1  0.492488  0.835063  0.329777  1
  O  O59  1  0.507512  0.342575  0.170223  1
  O  O60  1  0.835063  0.492488  0.170223  1
  O  O61  1  0.164937  0.507512  0.170223  1
  O  O62  1  0.492488  0.657425  0.170223  1
  O  O63  1  0.657425  0.164937  0.170223  1
  O  O64  1  0.276273  0.053321  0.864607  1
  O  O65  1  0.723727  0.777048  0.635393  1
  O  O66  1  0.222952  0.946679  0.635393  1
  O  O67  1  0.777048  0.053321  0.635393  1
  O  O68  1  0.946679  0.222952  0.864607  1
  O  O69  1  0.946679  0.723727  0.635393  1
  O  O70  1  0.276273  0.222952  0.635393  1
  O  O71  1  0.723727  0.946679  0.864607  1
  O  O72  1  0.222952  0.276273  0.864607  1
  O  O73  1  0.777048  0.723727  0.864607  1
  O  O74  1  0.740093  0.141102  0.000000  1
  O  O75  1  0.598991  0.740093  0.000000  1
  O  O76  1  0.141102  0.401009  0.000000  1
  O  O77  1  0.858898  0.598991  0.000000  1
  O  O78  1  0.401009  0.259907  0.000000  1
  O  O79  1  0.598991  0.858898  0.500000  1
  O  O80  1  0.259907  0.401009  0.500000  1
  O  O81  1  0.259907  0.858898  0.000000  1
  O  O82  1  0.507512  0.164937  0.670223  1
  O  O83  1  0.858898  0.259907  0.500000  1
  O  O84  1  0.401009  0.141102  0.500000  1
  O  O85  1  0.740093  0.598991  0.500000  1
  O  O86  1  0.946679  0.222952  0.135393  1
  O  O87  1  0.723727  0.946679  0.135393  1
  O  O88  1  0.222952  0.276273  0.135393  1
  O  O89  1  0.777048  0.723727  0.135393  1
  O  O90  1  0.276273  0.053321  0.135393  1
  O  O91  1  0.723727  0.777048  0.364607  1
  O  O92  1  0.053321  0.276273  0.364607  1
  O  O93  1  0.053321  0.777048  0.135393  1
  O  O94  1  0.222952  0.946679  0.364607  1
  O  O95  1  0.777048  0.053321  0.364607  1
  O  O96  1  0.276273  0.222952  0.364607  1
  O  O97  1  0.946679  0.723727  0.364607  1
  O  O98  1  0.053321  0.777048  0.864607  1
  O  O99  1  0.053321  0.276273  0.635393  1
