# generated using pymatgen
data_KV3O8
_symmetry_space_group_name_H-M   'P 1'
_cell_length_a   5.12065167
_cell_length_b   8.60335029
_cell_length_c   7.89042950
_cell_angle_alpha   90.00000000
_cell_angle_beta   98.73898656
_cell_angle_gamma   90.00000000
_symmetry_Int_Tables_number   1
_chemical_formula_structural   KV3O8
_chemical_formula_sum   'K2 V6 O16'
_cell_volume   343.57546984
_cell_formula_units_Z   2
loop_
 _symmetry_equiv_pos_site_id
 _symmetry_equiv_pos_as_xyz
  1  'x, y, z'
loop_
 _atom_site_type_symbol
 _atom_site_label
 _atom_site_symmetry_multiplicity
 _atom_site_fract_x
 _atom_site_fract_y
 _atom_site_fract_z
 _atom_site_occupancy
  K  K0  1  0.033315  0.250000  0.940667  1
  K  K1  1  0.966685  0.750000  0.059333  1
  V  V2  1  0.447086  0.555029  0.683724  1
  V  V3  1  0.447086  0.944971  0.683724  1
  V  V4  1  0.926089  0.750000  0.573881  1
  V  V5  1  0.552914  0.444971  0.316276  1
  V  V6  1  0.073911  0.250000  0.426119  1
  V  V7  1  0.552914  0.055029  0.316276  1
  O  O8  1  0.677930  0.588226  0.505769  1
  O  O9  1  0.322070  0.088226  0.494231  1
  O  O10  1  0.903299  0.250000  0.584383  1
  O  O11  1  0.122718  0.601445  0.725838  1
  O  O12  1  0.578674  0.436877  0.834535  1
  O  O13  1  0.322070  0.411774  0.494231  1
  O  O14  1  0.096701  0.750000  0.415617  1
  O  O15  1  0.421326  0.563123  0.165465  1
  O  O16  1  0.877282  0.398555  0.274162  1
  O  O17  1  0.593048  0.750000  0.757783  1
  O  O18  1  0.578674  0.063123  0.834535  1
  O  O19  1  0.877282  0.101445  0.274162  1
  O  O20  1  0.122718  0.898555  0.725838  1
  O  O21  1  0.406952  0.250000  0.242217  1
  O  O22  1  0.421326  0.936877  0.165465  1
  O  O23  1  0.677930  0.911774  0.505769  1
