# generated using pymatgen
data_KVO3
_symmetry_space_group_name_H-M   'P 1'
_cell_length_a   5.37268036
_cell_length_b   5.78657077
_cell_length_c   10.91278431
_cell_angle_alpha   90.00000000
_cell_angle_beta   90.00000000
_cell_angle_gamma   90.00000000
_symmetry_Int_Tables_number   1
_chemical_formula_structural   KVO3
_chemical_formula_sum   'K4 V4 O12'
_cell_volume   339.27186336
_cell_formula_units_Z   4
loop_
 _symmetry_equiv_pos_site_id
 _symmetry_equiv_pos_as_xyz
  1  'x, y, z'
loop_
 _atom_site_type_symbol
 _atom_site_label
 _atom_site_symmetry_multiplicity
 _atom_site_fract_x
 _atom_site_fract_y
 _atom_site_fract_z
 _atom_site_occupancy
  K  K0  1  0.057692  0.750000  0.894780  1
  K  K1  1  0.057692  0.250000  0.605220  1
  K  K2  1  0.942308  0.250000  0.105220  1
  K  K3  1  0.942308  0.750000  0.394780  1
  V  V4  1  0.482326  0.750000  0.161203  1
  V  V5  1  0.482326  0.250000  0.338797  1
  V  V6  1  0.517674  0.250000  0.838797  1
  V  V7  1  0.517674  0.750000  0.661203  1
  O  O8  1  0.381944  0.750000  0.523738  1
  O  O9  1  0.381944  0.250000  0.976262  1
  O  O10  1  0.618056  0.250000  0.476262  1
  O  O11  1  0.618056  0.750000  0.023738  1
  O  O12  1  0.829717  0.750000  0.647266  1
  O  O13  1  0.829717  0.250000  0.852734  1
  O  O14  1  0.170283  0.250000  0.352734  1
  O  O15  1  0.170283  0.750000  0.147266  1
  O  O16  1  0.590300  0.000000  0.250000  1
  O  O17  1  0.409700  0.500000  0.750000  1
  O  O18  1  0.409700  0.000000  0.750000  1
  O  O19  1  0.590300  0.500000  0.250000  1
