# generated using pymatgen
data_MnSiO3
_symmetry_space_group_name_H-M   'P 1'
_cell_length_a   6.81943092
_cell_length_b   7.70909982
_cell_length_c   16.26500933
_cell_angle_alpha   92.16420971
_cell_angle_beta   96.39317503
_cell_angle_gamma   94.87071637
_symmetry_Int_Tables_number   1
_chemical_formula_structural   MnSiO3
_chemical_formula_sum   'Mn14 Si14 O42'
_cell_volume   845.72934218
_cell_formula_units_Z   14
loop_
 _symmetry_equiv_pos_site_id
 _symmetry_equiv_pos_as_xyz
  1  'x, y, z'
loop_
 _atom_site_type_symbol
 _atom_site_label
 _atom_site_symmetry_multiplicity
 _atom_site_fract_x
 _atom_site_fract_y
 _atom_site_fract_z
 _atom_site_occupancy
  Mn  Mn0  1  0.620758  0.145814  0.291963  1
  Mn  Mn1  1  0.379242  0.854186  0.708037  1
  Mn  Mn2  1  0.796126  0.309820  0.482290  1
  Mn  Mn3  1  0.203874  0.690180  0.517710  1
  Mn  Mn4  1  0.265469  0.239651  0.007819  1
  Mn  Mn5  1  0.734531  0.760349  0.992181  1
  Mn  Mn6  1  0.159397  0.611744  0.307494  1
  Mn  Mn7  1  0.840603  0.388256  0.692506  1
  Mn  Mn8  1  0.067019  0.530810  0.107586  1
  Mn  Mn9  1  0.932981  0.469190  0.892414  1
  Mn  Mn10  1  0.173349  0.146683  0.812432  1
  Mn  Mn11  1  0.826651  0.853317  0.187568  1
  Mn  Mn12  1  0.043855  0.067585  0.604736  1
  Mn  Mn13  1  0.956145  0.932415  0.395264  1
  Si  Si14  1  0.493287  0.818585  0.410310  1
  Si  Si15  1  0.506713  0.181415  0.589690  1
  Si  Si16  1  0.677429  0.543753  0.309700  1
  Si  Si17  1  0.322571  0.456247  0.690300  1
  Si  Si18  1  0.578077  0.457955  0.119013  1
  Si  Si19  1  0.421923  0.542045  0.880987  1
  Si  Si20  1  0.781952  0.162695  0.029425  1
  Si  Si21  1  0.218048  0.837305  0.970575  1
  Si  Si22  1  0.315616  0.915529  0.163805  1
  Si  Si23  1  0.684384  0.084471  0.836195  1
  Si  Si24  1  0.118695  0.203830  0.253958  1
  Si  Si25  1  0.881305  0.796170  0.746042  1
  Si  Si26  1  0.237818  0.286819  0.436125  1
  Si  Si27  1  0.762182  0.713181  0.563875  1
  O  O28  1  0.554963  0.736318  0.502608  1
  O  O29  1  0.445037  0.263682  0.497392  1
  O  O30  1  0.494939  0.651675  0.340781  1
  O  O31  1  0.505061  0.348325  0.659219  1
  O  O32  1  0.588051  0.439291  0.220670  1
  O  O33  1  0.411949  0.560709  0.779330  1
  O  O34  1  0.618233  0.263346  0.078466  1
  O  O35  1  0.381767  0.736654  0.921534  1
  O  O36  1  0.332018  0.901418  0.063450  1
  O  O37  1  0.667982  0.098582  0.936550  1
  O  O38  1  0.235590  0.110264  0.183047  1
  O  O39  1  0.764410  0.889736  0.816953  1
  O  O40  1  0.278927  0.217056  0.341396  1
  O  O41  1  0.721073  0.782944  0.658604  1
  O  O42  1  0.719997  0.378737  0.365229  1
  O  O43  1  0.280003  0.621263  0.634771  1
  O  O44  1  0.354324  0.478693  0.079314  1
  O  O45  1  0.645676  0.521307  0.920686  1
  O  O46  1  0.827311  0.981561  0.072364  1
  O  O47  1  0.172689  0.018439  0.927636  1
  O  O48  1  0.536793  0.924426  0.212499  1
  O  O49  1  0.463207  0.075574  0.787501  1
  O  O50  1  0.071665  0.395338  0.225125  1
  O  O51  1  0.928335  0.604662  0.774875  1
  O  O52  1  0.178198  0.484473  0.429998  1
  O  O53  1  0.821802  0.515527  0.570002  1
  O  O54  1  0.256416  0.841522  0.406104  1
  O  O55  1  0.743584  0.158478  0.593896  1
  O  O56  1  0.944327  0.830446  0.527755  1
  O  O57  1  0.055673  0.169554  0.472245  1
  O  O58  1  0.927132  0.076141  0.275135  1
  O  O59  1  0.072868  0.923859  0.724865  1
  O  O60  1  0.847638  0.235063  0.810031  1
  O  O61  1  0.152362  0.764937  0.189969  1
  O  O62  1  0.969806  0.304927  0.021370  1
  O  O63  1  0.030194  0.695073  0.978630  1
  O  O64  1  0.749878  0.612385  0.105257  1
  O  O65  1  0.250122  0.387615  0.894743  1
  O  O66  1  0.862295  0.692292  0.307308  1
  O  O67  1  0.137705  0.307708  0.692692  1
  O  O68  1  0.647196  0.982848  0.396701  1
  O  O69  1  0.352804  0.017152  0.603299  1
