# generated using pymatgen
data_Tb4Si2S3O7
_symmetry_space_group_name_H-M   'P 1'
_cell_length_a   10.80139730
_cell_length_b   10.80139730
_cell_length_c   10.80139730
_cell_angle_alpha   113.95852844
_cell_angle_beta   113.95852844
_cell_angle_gamma   100.82730435
_symmetry_Int_Tables_number   1
_chemical_formula_structural   Tb4Si2S3O7
_chemical_formula_sum   'Tb16 Si8 S12 O28'
_cell_volume   953.90360906
_cell_formula_units_Z   4
loop_
 _symmetry_equiv_pos_site_id
 _symmetry_equiv_pos_as_xyz
  1  'x, y, z'
loop_
 _atom_site_type_symbol
 _atom_site_label
 _atom_site_symmetry_multiplicity
 _atom_site_fract_x
 _atom_site_fract_y
 _atom_site_fract_z
 _atom_site_occupancy
  Tb  Tb0  1  0.172131  0.827869  1.000000  1
  Tb  Tb1  1  0.577869  0.077869  0.155737  1
  Tb  Tb2  1  0.922131  0.422131  0.844263  1
  Tb  Tb3  1  0.827869  0.172131  0.000000  1
  Tb  Tb4  1  0.577869  0.422131  0.500000  1
  Tb  Tb5  1  0.172131  0.172131  0.344263  1
  Tb  Tb6  1  0.827869  0.827869  0.655737  1
  Tb  Tb7  1  0.922131  0.077869  0.500000  1
  Tb  Tb8  1  0.047308  0.783188  0.264120  1
  Tb  Tb9  1  0.519067  0.783188  0.735880  1
  Tb  Tb10  1  0.216812  0.480933  0.264120  1
  Tb  Tb11  1  0.533188  0.297308  0.764120  1
  Tb  Tb12  1  0.533188  0.769067  0.235880  1
  Tb  Tb13  1  0.230933  0.466812  0.764120  1
  Tb  Tb14  1  0.702692  0.466812  0.235880  1
  Tb  Tb15  1  0.216812  0.952692  0.735880  1
  Si  Si16  1  0.653695  0.028710  0.624985  1
  Si  Si17  1  0.403725  0.028710  0.375015  1
  Si  Si18  1  0.971290  0.596275  0.624985  1
  Si  Si19  1  0.778710  0.903695  0.124985  1
  Si  Si20  1  0.778710  0.653725  0.875015  1
  Si  Si21  1  0.346275  0.221290  0.124985  1
  Si  Si22  1  0.096305  0.221290  0.875015  1
  Si  Si23  1  0.971290  0.346305  0.375015  1
  S  S24  1  0.750000  0.250000  0.500000  1
  S  S25  1  0.000000  0.000000  0.000000  1
  S  S26  1  0.500000  0.500000  0.000000  1
  S  S27  1  0.250000  0.750000  0.500000  1
  S  S28  1  0.228433  0.125000  0.603433  1
  S  S29  1  0.875000  0.771567  0.396567  1
  S  S30  1  0.375000  0.478433  0.603433  1
  S  S31  1  0.521567  0.625000  0.396567  1
  S  S32  1  0.521567  0.125000  0.896567  1
  S  S33  1  0.875000  0.478433  0.103433  1
  S  S34  1  0.375000  0.771567  0.896567  1
  S  S35  1  0.228433  0.625000  0.103433  1
  O  O36  1  0.023940  0.523940  0.500000  1
  O  O37  1  0.273940  0.273940  0.000000  1
  O  O38  1  0.726060  0.726060  0.000000  1
  O  O39  1  0.476060  0.976060  0.500000  1
  O  O40  1  0.218815  0.950754  0.268060  1
  O  O41  1  0.682694  0.950754  0.731940  1
  O  O42  1  0.049246  0.317306  0.268060  1
  O  O43  1  0.700754  0.468815  0.768060  1
  O  O44  1  0.700754  0.932694  0.231940  1
  O  O45  1  0.067306  0.299246  0.768060  1
  O  O46  1  0.531185  0.299246  0.231940  1
  O  O47  1  0.049246  0.781185  0.731940  1
  O  O48  1  0.308165  0.289775  0.264076  1
  O  O49  1  0.025698  0.044088  0.735924  1
  O  O50  1  0.955912  0.974302  0.264076  1
  O  O51  1  0.794088  0.558165  0.518390  1
  O  O52  1  0.039775  0.275698  0.481610  1
  O  O53  1  0.724302  0.960225  0.518390  1
  O  O54  1  0.441835  0.205912  0.481610  1
  O  O55  1  0.710225  0.691835  0.735924  1
  O  O56  1  0.441835  0.960225  0.235924  1
  O  O57  1  0.724302  0.205912  0.764076  1
  O  O58  1  0.794088  0.275698  0.235924  1
  O  O59  1  0.955912  0.691835  0.981610  1
  O  O60  1  0.710225  0.974302  0.018390  1
  O  O61  1  0.025698  0.289775  0.981610  1
  O  O62  1  0.308165  0.044088  0.018390  1
  O  O63  1  0.039775  0.558165  0.764076  1
