# generated using pymatgen
data_NdCrO3
_symmetry_space_group_name_H-M   'P 1'
_cell_length_a   5.47874968
_cell_length_b   5.62400898
_cell_length_c   7.82071612
_cell_angle_alpha   90.00000000
_cell_angle_beta   90.00000000
_cell_angle_gamma   90.00000000
_symmetry_Int_Tables_number   1
_chemical_formula_structural   NdCrO3
_chemical_formula_sum   'Nd4 Cr4 O12'
_cell_volume   240.97610794
_cell_formula_units_Z   4
loop_
 _symmetry_equiv_pos_site_id
 _symmetry_equiv_pos_as_xyz
  1  'x, y, z'
loop_
 _atom_site_type_symbol
 _atom_site_label
 _atom_site_symmetry_multiplicity
 _atom_site_fract_x
 _atom_site_fract_y
 _atom_site_fract_z
 _atom_site_occupancy
  Nd  Nd0  1  0.513221  0.551193  0.250000  1
  Nd  Nd1  1  0.986779  0.051193  0.250000  1
  Nd  Nd2  1  0.486779  0.448807  0.750000  1
  Nd  Nd3  1  0.013221  0.948807  0.750000  1
  Cr  Cr4  1  0.000000  0.500000  0.000000  1
  Cr  Cr5  1  0.500000  0.000000  0.500000  1
  Cr  Cr6  1  0.000000  0.500000  0.500000  1
  Cr  Cr7  1  0.500000  0.000000  0.000000  1
  O  O8  1  0.408688  0.973728  0.250000  1
  O  O9  1  0.091312  0.473728  0.250000  1
  O  O10  1  0.591312  0.026272  0.750000  1
  O  O11  1  0.908688  0.526272  0.750000  1
  O  O12  1  0.792794  0.792197  0.048761  1
  O  O13  1  0.707206  0.292197  0.451239  1
  O  O14  1  0.207206  0.207803  0.548761  1
  O  O15  1  0.292794  0.707803  0.951239  1
  O  O16  1  0.207206  0.207803  0.951239  1
  O  O17  1  0.292794  0.707803  0.548761  1
  O  O18  1  0.792794  0.792197  0.451239  1
  O  O19  1  0.707206  0.292197  0.048761  1
