# generated using pymatgen
data_ZnAg(PO3)3
_symmetry_space_group_name_H-M   'P 1'
_cell_length_a   10.15163087
_cell_length_b   10.89338838
_cell_length_c   14.17462554
_cell_angle_alpha   90.00000000
_cell_angle_beta   90.00000000
_cell_angle_gamma   90.00000000
_symmetry_Int_Tables_number   1
_chemical_formula_structural   ZnAg(PO3)3
_chemical_formula_sum   'Zn8 Ag8 P24 O72'
_cell_volume   1567.51028880
_cell_formula_units_Z   8
loop_
 _symmetry_equiv_pos_site_id
 _symmetry_equiv_pos_as_xyz
  1  'x, y, z'
loop_
 _atom_site_type_symbol
 _atom_site_label
 _atom_site_symmetry_multiplicity
 _atom_site_fract_x
 _atom_site_fract_y
 _atom_site_fract_z
 _atom_site_occupancy
  Zn  Zn0  1  0.500000  0.000000  0.500000  1
  Zn  Zn1  1  0.500000  0.000000  0.000000  1
  Zn  Zn2  1  0.000000  0.000000  0.500000  1
  Zn  Zn3  1  0.000000  0.000000  0.000000  1
  Zn  Zn4  1  0.032679  0.500000  0.250000  1
  Zn  Zn5  1  0.467321  0.500000  0.750000  1
  Zn  Zn6  1  0.967321  0.500000  0.750000  1
  Zn  Zn7  1  0.532679  0.500000  0.250000  1
  Ag  Ag8  1  0.478244  0.751962  0.123630  1
  Ag  Ag9  1  0.478244  0.248038  0.376370  1
  Ag  Ag10  1  0.021756  0.751962  0.876370  1
  Ag  Ag11  1  0.021756  0.248038  0.623630  1
  Ag  Ag12  1  0.521756  0.248038  0.876370  1
  Ag  Ag13  1  0.521756  0.751962  0.623630  1
  Ag  Ag14  1  0.978244  0.248038  0.123630  1
  Ag  Ag15  1  0.978244  0.751962  0.376370  1
  P  P16  1  0.285022  0.528421  0.399016  1
  P  P17  1  0.285022  0.471579  0.100984  1
  P  P18  1  0.214978  0.528421  0.600984  1
  P  P19  1  0.214978  0.471579  0.899016  1
  P  P20  1  0.714978  0.471579  0.600984  1
  P  P21  1  0.714978  0.528421  0.899016  1
  P  P22  1  0.785022  0.471579  0.399016  1
  P  P23  1  0.785022  0.528421  0.100984  1
  P  P24  1  0.448986  0.748360  0.373952  1
  P  P25  1  0.448986  0.251640  0.126048  1
  P  P26  1  0.051014  0.748360  0.626048  1
  P  P27  1  0.051014  0.251640  0.873952  1
  P  P28  1  0.551014  0.251640  0.626048  1
  P  P29  1  0.551014  0.748360  0.873952  1
  P  P30  1  0.948986  0.251640  0.373952  1
  P  P31  1  0.948986  0.748360  0.126048  1
  P  P32  1  0.261915  0.954391  0.351364  1
  P  P33  1  0.261915  0.045609  0.148636  1
  P  P34  1  0.238085  0.954391  0.648636  1
  P  P35  1  0.238085  0.045609  0.851364  1
  P  P36  1  0.738085  0.045609  0.648636  1
  P  P37  1  0.738085  0.954391  0.851364  1
  P  P38  1  0.761915  0.045609  0.351364  1
  P  P39  1  0.761915  0.954391  0.148636  1
  O  O40  1  0.250000  0.531696  0.000000  1
  O  O41  1  0.250000  0.468304  0.500000  1
  O  O42  1  0.750000  0.468304  0.000000  1
  O  O43  1  0.750000  0.531696  0.500000  1
  O  O44  1  0.161088  0.566437  0.349740  1
  O  O45  1  0.161088  0.433563  0.150260  1
  O  O46  1  0.338912  0.566437  0.650260  1
  O  O47  1  0.338912  0.433563  0.849740  1
  O  O48  1  0.838912  0.433563  0.650260  1
  O  O49  1  0.838912  0.566437  0.849740  1
  O  O50  1  0.661088  0.433563  0.349740  1
  O  O51  1  0.661088  0.566437  0.150260  1
  O  O52  1  0.379302  0.556913  0.150260  1
  O  O53  1  0.379302  0.443087  0.349740  1
  O  O54  1  0.120698  0.556913  0.849740  1
  O  O55  1  0.120698  0.443087  0.650260  1
  O  O56  1  0.620698  0.443087  0.849740  1
  O  O57  1  0.620698  0.556913  0.650260  1
  O  O58  1  0.879302  0.443087  0.150260  1
  O  O59  1  0.879302  0.556913  0.349740  1
  O  O60  1  0.362264  0.651029  0.433434  1
  O  O61  1  0.362264  0.348971  0.066566  1
  O  O62  1  0.137736  0.651029  0.566566  1
  O  O63  1  0.137736  0.348971  0.933434  1
  O  O64  1  0.637736  0.348971  0.566566  1
  O  O65  1  0.637736  0.651029  0.933434  1
  O  O66  1  0.862264  0.348971  0.433434  1
  O  O67  1  0.975831  0.317090  0.797842  1
  O  O68  1  0.862264  0.651029  0.066566  1
  O  O69  1  0.523100  0.176653  0.054580  1
  O  O70  1  0.976900  0.823347  0.554580  1
  O  O71  1  0.976900  0.176653  0.945420  1
  O  O72  1  0.476900  0.176653  0.554580  1
  O  O73  1  0.476900  0.823347  0.945420  1
  O  O74  1  0.023100  0.176653  0.445420  1
  O  O75  1  0.023100  0.823347  0.054580  1
  O  O76  1  0.024169  0.682910  0.202158  1
  O  O77  1  0.024169  0.317090  0.297842  1
  O  O78  1  0.475831  0.682910  0.797842  1
  O  O79  1  0.475831  0.317090  0.702158  1
  O  O80  1  0.710161  0.000000  0.250000  1
  O  O81  1  0.789839  0.000000  0.750000  1
  O  O82  1  0.289839  0.000000  0.750000  1
  O  O83  1  0.210161  0.000000  0.250000  1
  O  O84  1  0.641308  0.918164  0.093539  1
  O  O85  1  0.641308  0.081836  0.406461  1
  O  O86  1  0.858692  0.918164  0.906461  1
  O  O87  1  0.858692  0.081836  0.593539  1
  O  O88  1  0.358692  0.081836  0.906461  1
  O  O89  1  0.358692  0.918164  0.593539  1
  O  O90  1  0.141308  0.081836  0.093539  1
  O  O91  1  0.141308  0.918164  0.406461  1
  O  O92  1  0.857659  0.955716  0.393892  1
  O  O93  1  0.857659  0.044284  0.106108  1
  O  O94  1  0.642341  0.955716  0.606108  1
  O  O95  1  0.642341  0.044284  0.893892  1
  O  O96  1  0.142341  0.044284  0.606108  1
  O  O97  1  0.142341  0.955716  0.893892  1
  O  O98  1  0.357659  0.044284  0.393892  1
  O  O99  1  0.357659  0.955716  0.106108  1
  O  O100  1  0.839625  0.830712  0.179761  1
  O  O101  1  0.839625  0.169288  0.320239  1
  O  O102  1  0.660375  0.830712  0.820239  1
  O  O103  1  0.660375  0.169288  0.679761  1
  O  O104  1  0.160375  0.169288  0.820239  1
  O  O105  1  0.160375  0.830712  0.679761  1
  O  O106  1  0.339625  0.169288  0.179761  1
  O  O107  1  0.339625  0.830712  0.320239  1
  O  O108  1  0.524169  0.682910  0.297842  1
  O  O109  1  0.524169  0.317090  0.202158  1
  O  O110  1  0.975831  0.682910  0.702158  1
  O  O111  1  0.523100  0.823347  0.445420  1
