# generated using pymatgen
data_BaNaNd(SiO3)3
_symmetry_space_group_name_H-M   'P 1'
_cell_length_a   5.73224336
_cell_length_b   11.69211515
_cell_length_c   12.76309952
_cell_angle_alpha   90.00000000
_cell_angle_beta   90.00000000
_cell_angle_gamma   90.00000000
_symmetry_Int_Tables_number   1
_chemical_formula_structural   BaNaNd(SiO3)3
_chemical_formula_sum   'Ba4 Na4 Nd4 Si12 O36'
_cell_volume   855.40908695
_cell_formula_units_Z   4
loop_
 _symmetry_equiv_pos_site_id
 _symmetry_equiv_pos_as_xyz
  1  'x, y, z'
loop_
 _atom_site_type_symbol
 _atom_site_label
 _atom_site_symmetry_multiplicity
 _atom_site_fract_x
 _atom_site_fract_y
 _atom_site_fract_z
 _atom_site_occupancy
  Ba  Ba0  1  0.104047  0.618474  0.079655  1
  Ba  Ba1  1  0.604047  0.881526  0.920345  1
  Ba  Ba2  1  0.895953  0.118474  0.420345  1
  Ba  Ba3  1  0.395953  0.381526  0.579655  1
  Na  Na4  1  0.065391  0.287221  0.103964  1
  Na  Na5  1  0.565391  0.212779  0.896036  1
  Na  Na6  1  0.434609  0.712779  0.603964  1
  Na  Na7  1  0.934609  0.787221  0.396036  1
  Nd  Nd8  1  0.386573  0.027775  0.639885  1
  Nd  Nd9  1  0.886573  0.472225  0.360115  1
  Nd  Nd10  1  0.613427  0.527775  0.860115  1
  Nd  Nd11  1  0.113427  0.972225  0.139885  1
  Si  Si12  1  0.101059  0.087352  0.876878  1
  Si  Si13  1  0.600988  0.803502  0.186965  1
  Si  Si14  1  0.899012  0.196498  0.686965  1
  Si  Si15  1  0.100988  0.696498  0.813035  1
  Si  Si16  1  0.405036  0.653519  0.356026  1
  Si  Si17  1  0.905036  0.846481  0.643974  1
  Si  Si18  1  0.594964  0.153519  0.143974  1
  Si  Si19  1  0.094964  0.346481  0.856026  1
  Si  Si20  1  0.398941  0.912648  0.376878  1
  Si  Si21  1  0.898941  0.587352  0.623122  1
  Si  Si22  1  0.399012  0.303502  0.313035  1
  Si  Si23  1  0.601059  0.412648  0.123122  1
  O  O24  1  0.147096  0.942040  0.325444  1
  O  O25  1  0.647096  0.557960  0.674556  1
  O  O26  1  0.852904  0.442040  0.174556  1
  O  O27  1  0.352904  0.057960  0.825444  1
  O  O28  1  0.343298  0.684194  0.876679  1
  O  O29  1  0.843298  0.815806  0.123321  1
  O  O30  1  0.656702  0.184194  0.623321  1
  O  O31  1  0.156702  0.315806  0.376679  1
  O  O32  1  0.505398  0.501106  0.036815  1
  O  O33  1  0.005398  0.998894  0.963185  1
  O  O34  1  0.494602  0.001106  0.463185  1
  O  O35  1  0.994602  0.498894  0.536815  1
  O  O36  1  0.392144  0.777881  0.425150  1
  O  O37  1  0.892144  0.722119  0.574850  1
  O  O38  1  0.089283  0.818446  0.743852  1
  O  O39  1  0.607856  0.277881  0.074850  1
  O  O40  1  0.373174  0.812259  0.112107  1
  O  O41  1  0.873174  0.687741  0.887893  1
  O  O42  1  0.626826  0.312259  0.387893  1
  O  O43  1  0.126826  0.187741  0.612107  1
  O  O44  1  0.098780  0.596281  0.718767  1
  O  O45  1  0.598780  0.903719  0.281233  1
  O  O46  1  0.901220  0.096281  0.781233  1
  O  O47  1  0.401220  0.403719  0.218767  1
  O  O48  1  0.357706  0.373463  0.815719  1
  O  O49  1  0.857706  0.126537  0.184281  1
  O  O50  1  0.642294  0.873463  0.684281  1
  O  O51  1  0.142294  0.626537  0.315719  1
  O  O52  1  0.964024  0.439851  0.927959  1
  O  O53  1  0.464024  0.060149  0.072041  1
  O  O54  1  0.035976  0.939851  0.572041  1
  O  O55  1  0.535976  0.560149  0.427959  1
  O  O56  1  0.410717  0.181554  0.243852  1
  O  O57  1  0.910717  0.318446  0.756148  1
  O  O58  1  0.589283  0.681554  0.256148  1
  O  O59  1  0.107856  0.222119  0.925150  1
