# generated using pymatgen
data_Yb2Be2Si2NiO10
_symmetry_space_group_name_H-M   'P 1'
_cell_length_a   4.65705829
_cell_length_b   7.48728089
_cell_length_c   10.08681975
_cell_angle_alpha   90.00000000
_cell_angle_beta   90.63361670
_cell_angle_gamma   90.00000000
_symmetry_Int_Tables_number   1
_chemical_formula_structural   Yb2Be2Si2NiO10
_chemical_formula_sum   'Yb4 Be4 Si4 Ni2 O20'
_cell_volume   351.69282172
_cell_formula_units_Z   2
loop_
 _symmetry_equiv_pos_site_id
 _symmetry_equiv_pos_as_xyz
  1  'x, y, z'
loop_
 _atom_site_type_symbol
 _atom_site_label
 _atom_site_symmetry_multiplicity
 _atom_site_fract_x
 _atom_site_fract_y
 _atom_site_fract_z
 _atom_site_occupancy
  Yb  Yb0  1  0.998398  0.384509  0.177348  1
  Yb  Yb1  1  0.001602  0.884509  0.322652  1
  Yb  Yb2  1  0.001602  0.615491  0.822652  1
  Yb  Yb3  1  0.998398  0.115491  0.677348  1
  Be  Be4  1  0.445814  0.917892  0.844522  1
  Be  Be5  1  0.554186  0.082108  0.155478  1
  Be  Be6  1  0.445814  0.582108  0.344522  1
  Be  Be7  1  0.554186  0.417892  0.655478  1
  Si  Si8  1  0.503826  0.221026  0.418108  1
  Si  Si9  1  0.496174  0.721026  0.081892  1
  Si  Si10  1  0.496174  0.778974  0.581892  1
  Si  Si11  1  0.503826  0.278974  0.918108  1
  Ni  Ni12  1  0.000000  0.500000  0.500000  1
  Ni  Ni13  1  0.000000  0.000000  0.000000  1
  O  O14  1  0.287000  0.383926  0.368526  1
  O  O15  1  0.713000  0.883926  0.131474  1
  O  O16  1  0.713000  0.616074  0.631474  1
  O  O17  1  0.287000  0.116074  0.868526  1
  O  O18  1  0.694568  0.157369  0.292450  1
  O  O19  1  0.305432  0.657369  0.207550  1
  O  O20  1  0.213424  0.419820  0.652706  1
  O  O21  1  0.213424  0.080180  0.152706  1
  O  O22  1  0.786576  0.919820  0.847294  1
  O  O23  1  0.786576  0.580180  0.347294  1
  O  O24  1  0.282601  0.430923  0.976843  1
  O  O25  1  0.717399  0.930923  0.523157  1
  O  O26  1  0.717399  0.569077  0.023157  1
  O  O27  1  0.282601  0.069077  0.476843  1
  O  O28  1  0.715162  0.300579  0.536479  1
  O  O29  1  0.284838  0.800579  0.963521  1
  O  O30  1  0.284838  0.699421  0.463521  1
  O  O31  1  0.715162  0.199421  0.036479  1
  O  O32  1  0.694568  0.342631  0.792450  1
  O  O33  1  0.305432  0.842631  0.707550  1
