# generated using pymatgen
data_Sr(PIr)2
_symmetry_space_group_name_H-M   'P 1'
_cell_length_a   6.78368513
_cell_length_b   6.78368513
_cell_length_c   7.14940739
_cell_angle_alpha   90.00000000
_cell_angle_beta   90.00000000
_cell_angle_gamma   120.00000000
_symmetry_Int_Tables_number   1
_chemical_formula_structural   Sr(PIr)2
_chemical_formula_sum   'Sr3 P6 Ir6'
_cell_volume   284.92597260
_cell_formula_units_Z   3
loop_
 _symmetry_equiv_pos_site_id
 _symmetry_equiv_pos_as_xyz
  1  'x, y, z'
loop_
 _atom_site_type_symbol
 _atom_site_label
 _atom_site_symmetry_multiplicity
 _atom_site_fract_x
 _atom_site_fract_y
 _atom_site_fract_z
 _atom_site_occupancy
  Sr  Sr0  1  0.000000  0.601263  0.833333  1
  Sr  Sr1  1  0.398737  0.398737  0.500000  1
  Sr  Sr2  1  0.601263  0.000000  0.166667  1
  P  P3  1  0.877207  0.216282  0.542488  1
  P  P4  1  0.216282  0.877207  0.457512  1
  P  P5  1  0.122793  0.339075  0.124178  1
  P  P6  1  0.783718  0.660925  0.209155  1
  P  P7  1  0.339075  0.122793  0.875822  1
  P  P8  1  0.660925  0.783718  0.790845  1
  Ir  Ir9  1  0.870265  0.870265  0.500000  1
  Ir  Ir10  1  0.129735  0.000000  0.166667  1
  Ir  Ir11  1  0.490023  0.490023  0.000000  1
  Ir  Ir12  1  0.000000  0.509977  0.333333  1
  Ir  Ir13  1  0.509977  0.000000  0.666667  1
  Ir  Ir14  1  0.000000  0.129735  0.833333  1
