# generated using pymatgen
data_SrLi4N2
_symmetry_space_group_name_H-M   'P 1'
_cell_length_a   13.80031470
_cell_length_b   13.80031470
_cell_length_c   13.80031470
_cell_angle_alpha   164.04843752
_cell_angle_beta   164.04843752
_cell_angle_gamma   22.63299650
_symmetry_Int_Tables_number   1
_chemical_formula_structural   SrLi4N2
_chemical_formula_sum   'Sr2 Li8 N4'
_cell_volume   198.46984046
_cell_formula_units_Z   2
loop_
 _symmetry_equiv_pos_site_id
 _symmetry_equiv_pos_as_xyz
  1  'x, y, z'
loop_
 _atom_site_type_symbol
 _atom_site_label
 _atom_site_symmetry_multiplicity
 _atom_site_fract_x
 _atom_site_fract_y
 _atom_site_fract_z
 _atom_site_occupancy
  Sr  Sr0  1  0.750000  0.250000  0.500000  1
  Sr  Sr1  1  1.000000  0.000000  0.000000  1
  Li  Li2  1  0.853722  0.353722  0.500000  1
  Li  Li3  1  0.103722  0.103722  0.000000  1
  Li  Li4  1  0.177829  0.677829  0.500000  1
  Li  Li5  1  0.427829  0.427829  0.000000  1
  Li  Li6  1  0.572171  0.572171  0.000000  1
  Li  Li7  1  0.896277  0.896278  0.000000  1
  Li  Li8  1  0.646277  0.146278  0.500000  1
  Li  Li9  1  0.322171  0.822171  0.500000  1
  N  N10  1  0.818029  0.818029  0.000000  1
  N  N11  1  0.568029  0.068029  0.500000  1
  N  N12  1  0.931971  0.431971  0.500000  1
  N  N13  1  0.181971  0.181971  0.000000  1
