# generated using pymatgen
data_Mn3TeO6
_symmetry_space_group_name_H-M   'P 1'
_cell_length_a   6.32582381
_cell_length_b   6.32582381
_cell_length_c   6.32582381
_cell_angle_alpha   90.54766939
_cell_angle_beta   90.54766939
_cell_angle_gamma   90.54766939
_symmetry_Int_Tables_number   1
_chemical_formula_structural   Mn3TeO6
_chemical_formula_sum   'Mn6 Te2 O12'
_cell_volume   253.09954766
_cell_formula_units_Z   2
loop_
 _symmetry_equiv_pos_site_id
 _symmetry_equiv_pos_as_xyz
  1  'x, y, z'
loop_
 _atom_site_type_symbol
 _atom_site_label
 _atom_site_symmetry_multiplicity
 _atom_site_fract_x
 _atom_site_fract_y
 _atom_site_fract_z
 _atom_site_occupancy
  Mn  Mn0  1  0.748145  0.050827  0.562187  1
  Mn  Mn1  1  0.562187  0.748145  0.050827  1
  Mn  Mn2  1  0.050827  0.562187  0.748145  1
  Mn  Mn3  1  0.251855  0.949173  0.437813  1
  Mn  Mn4  1  0.437813  0.251855  0.949173  1
  Mn  Mn5  1  0.949173  0.437813  0.251855  1
  Te  Te6  1  0.500000  0.500000  0.500000  1
  Te  Te7  1  0.000000  0.000000  0.000000  1
  O  O8  1  0.563588  0.795409  0.432142  1
  O  O9  1  0.432142  0.563588  0.795409  1
  O  O10  1  0.795409  0.432142  0.563588  1
  O  O11  1  0.436412  0.204591  0.567858  1
  O  O12  1  0.567858  0.436412  0.204591  1
  O  O13  1  0.204591  0.567858  0.436412  1
  O  O14  1  0.704963  0.045003  0.915829  1
  O  O15  1  0.915829  0.704963  0.045003  1
  O  O16  1  0.045003  0.915829  0.704963  1
  O  O17  1  0.295037  0.954997  0.084171  1
  O  O18  1  0.084171  0.295037  0.954997  1
  O  O19  1  0.954997  0.084171  0.295037  1
