# generated using pymatgen
data_BaNaAlF6
_symmetry_space_group_name_H-M   'P 1'
_cell_length_a   5.52503716
_cell_length_b   10.03262612
_cell_length_c   18.96049386
_cell_angle_alpha   90.00000000
_cell_angle_beta   90.00000000
_cell_angle_gamma   90.00000000
_symmetry_Int_Tables_number   1
_chemical_formula_structural   BaNaAlF6
_chemical_formula_sum   'Ba8 Na8 Al8 F48'
_cell_volume   1050.99216007
_cell_formula_units_Z   8
loop_
 _symmetry_equiv_pos_site_id
 _symmetry_equiv_pos_as_xyz
  1  'x, y, z'
loop_
 _atom_site_type_symbol
 _atom_site_label
 _atom_site_symmetry_multiplicity
 _atom_site_fract_x
 _atom_site_fract_y
 _atom_site_fract_z
 _atom_site_occupancy
  Ba  Ba0  1  0.736671  0.329203  0.862224  1
  Ba  Ba1  1  0.263329  0.829203  0.137776  1
  Ba  Ba2  1  0.763329  0.329203  0.362224  1
  Ba  Ba3  1  0.236671  0.829203  0.637776  1
  Ba  Ba4  1  0.241805  0.698379  0.888786  1
  Ba  Ba5  1  0.741805  0.198379  0.611214  1
  Ba  Ba6  1  0.258195  0.698379  0.388786  1
  Ba  Ba7  1  0.758195  0.198379  0.111214  1
  Na  Na8  1  0.240637  0.064581  0.813844  1
  Na  Na9  1  0.236107  0.462692  0.566794  1
  Na  Na10  1  0.763893  0.962692  0.433206  1
  Na  Na11  1  0.263893  0.462692  0.066794  1
  Na  Na12  1  0.736107  0.962692  0.933206  1
  Na  Na13  1  0.740637  0.564581  0.686156  1
  Na  Na14  1  0.259363  0.064581  0.313844  1
  Na  Na15  1  0.759363  0.564581  0.186156  1
  Al  Al16  1  0.251386  0.436415  0.742938  1
  Al  Al17  1  0.730811  0.589849  0.507794  1
  Al  Al18  1  0.269189  0.089849  0.492206  1
  Al  Al19  1  0.769189  0.589849  0.007794  1
  Al  Al20  1  0.230811  0.089849  0.992206  1
  Al  Al21  1  0.748614  0.936415  0.257062  1
  Al  Al22  1  0.248614  0.436415  0.242938  1
  Al  Al23  1  0.751386  0.936415  0.757062  1
  F  F24  1  0.011259  0.998751  0.530075  1
  F  F25  1  0.988741  0.498751  0.469925  1
  F  F26  1  0.488741  0.998751  0.030075  1
  F  F27  1  0.511259  0.498751  0.969925  1
  F  F28  1  0.453921  0.675348  0.536694  1
  F  F29  1  0.546079  0.175348  0.463306  1
  F  F30  1  0.046079  0.675348  0.036694  1
  F  F31  1  0.953921  0.175348  0.963306  1
  F  F32  1  0.206138  0.228469  0.551933  1
  F  F33  1  0.793862  0.728469  0.448067  1
  F  F34  1  0.293862  0.228469  0.051933  1
  F  F35  1  0.706138  0.728469  0.948067  1
  F  F36  1  0.460873  0.007797  0.559272  1
  F  F37  1  0.539127  0.507797  0.440728  1
  F  F38  1  0.039127  0.007797  0.059272  1
  F  F39  1  0.960873  0.507797  0.940728  1
  F  F40  1  0.922626  0.654983  0.577623  1
  F  F41  1  0.077374  0.154983  0.422377  1
  F  F42  1  0.047279  0.518813  0.307782  1
  F  F43  1  0.422626  0.154983  0.922377  1
  F  F44  1  0.660382  0.450106  0.567862  1
  F  F45  1  0.339618  0.950106  0.432138  1
  F  F46  1  0.839618  0.450106  0.067862  1
  F  F47  1  0.160382  0.950106  0.932138  1
  F  F48  1  0.696171  0.798649  0.696195  1
  F  F49  1  0.303829  0.298649  0.303805  1
  F  F50  1  0.803829  0.798649  0.196195  1
  F  F51  1  0.196171  0.298649  0.803805  1
  F  F52  1  0.952721  0.018813  0.692218  1
  F  F53  1  0.997148  0.527228  0.782357  1
  F  F54  1  0.547279  0.018813  0.192218  1
  F  F55  1  0.452721  0.518813  0.807782  1
  F  F56  1  0.053027  0.370644  0.675194  1
  F  F57  1  0.946973  0.870644  0.324806  1
  F  F58  1  0.446973  0.370644  0.175194  1
  F  F59  1  0.553027  0.870644  0.824806  1
  F  F60  1  0.314723  0.576133  0.682114  1
  F  F61  1  0.685277  0.076133  0.317886  1
  F  F62  1  0.185277  0.576133  0.182114  1
  F  F63  1  0.814723  0.076133  0.817886  1
  F  F64  1  0.523978  0.350509  0.711353  1
  F  F65  1  0.476022  0.850509  0.288647  1
  F  F66  1  0.976022  0.350509  0.211353  1
  F  F67  1  0.023978  0.850509  0.788647  1
  F  F68  1  0.497148  0.027228  0.717643  1
  F  F69  1  0.502852  0.527228  0.282357  1
  F  F70  1  0.002852  0.027228  0.217643  1
  F  F71  1  0.577374  0.654983  0.077623  1
