# generated using pymatgen
data_NaFeP2O7
_symmetry_space_group_name_H-M   'P 1'
_cell_length_a   7.42402068
_cell_length_b   8.04038607
_cell_length_c   9.69184993
_cell_angle_alpha   90.00000000
_cell_angle_beta   111.71638011
_cell_angle_gamma   90.00000000
_symmetry_Int_Tables_number   1
_chemical_formula_structural   NaFeP2O7
_chemical_formula_sum   'Na4 Fe4 P8 O28'
_cell_volume   537.46601971
_cell_formula_units_Z   4
loop_
 _symmetry_equiv_pos_site_id
 _symmetry_equiv_pos_as_xyz
  1  'x, y, z'
loop_
 _atom_site_type_symbol
 _atom_site_label
 _atom_site_symmetry_multiplicity
 _atom_site_fract_x
 _atom_site_fract_y
 _atom_site_fract_z
 _atom_site_occupancy
  Na  Na0  1  0.712469  0.524223  0.708818  1
  Na  Na1  1  0.287531  0.024223  0.791182  1
  Na  Na2  1  0.712469  0.975777  0.208818  1
  Na  Na3  1  0.287531  0.475777  0.291182  1
  Fe  Fe4  1  0.741133  0.991408  0.750143  1
  Fe  Fe5  1  0.258867  0.491408  0.749857  1
  Fe  Fe6  1  0.258867  0.008592  0.249857  1
  Fe  Fe7  1  0.741133  0.508592  0.250143  1
  P  P8  1  0.327857  0.788464  0.547166  1
  P  P9  1  0.927799  0.754911  0.045534  1
  P  P10  1  0.072201  0.245089  0.954466  1
  P  P11  1  0.927799  0.745089  0.545534  1
  P  P12  1  0.327857  0.711536  0.047166  1
  P  P13  1  0.672143  0.211536  0.452834  1
  P  P14  1  0.072201  0.254911  0.454466  1
  P  P15  1  0.672143  0.288464  0.952834  1
  O  O16  1  0.364631  0.892456  0.102982  1
  O  O17  1  0.635369  0.392456  0.397018  1
  O  O18  1  0.635369  0.107544  0.897018  1
  O  O19  1  0.364631  0.607544  0.602982  1
  O  O20  1  0.308504  0.700325  0.884970  1
  O  O21  1  0.691496  0.200325  0.615030  1
  O  O22  1  0.691496  0.299675  0.115030  1
  O  O23  1  0.308504  0.799675  0.384970  1
  O  O24  1  0.467404  0.587235  0.152008  1
  O  O25  1  0.532596  0.087235  0.347992  1
  O  O26  1  0.532596  0.412765  0.847992  1
  O  O27  1  0.467404  0.912765  0.652008  1
  O  O28  1  0.818548  0.635929  0.107565  1
  O  O29  1  0.181452  0.135929  0.392435  1
  O  O30  1  0.181452  0.364071  0.892435  1
  O  O31  1  0.818548  0.864071  0.607565  1
  O  O32  1  0.124287  0.845901  0.561551  1
  O  O33  1  0.875713  0.345901  0.938449  1
  O  O34  1  0.875713  0.154099  0.438449  1
  O  O35  1  0.124287  0.654099  0.061551  1
  O  O36  1  0.814574  0.714178  0.380395  1
  O  O37  1  0.185426  0.214178  0.119605  1
  O  O38  1  0.185426  0.285822  0.619605  1
  O  O39  1  0.814574  0.785822  0.880395  1
  O  O40  1  0.988874  0.585449  0.638515  1
  O  O41  1  0.011126  0.085449  0.861485  1
  O  O42  1  0.011126  0.414551  0.361485  1
  O  O43  1  0.988874  0.914551  0.138515  1
