# generated using pymatgen
data_RhPb2F7
_symmetry_space_group_name_H-M   'P 1'
_cell_length_a   5.69439964
_cell_length_b   12.02533399
_cell_length_c   9.03287805
_cell_angle_alpha   90.00000000
_cell_angle_beta   90.66320626
_cell_angle_gamma   90.00000000
_symmetry_Int_Tables_number   1
_chemical_formula_structural   RhPb2F7
_chemical_formula_sum   'Rh4 Pb8 F28'
_cell_volume   618.50347380
_cell_formula_units_Z   4
loop_
 _symmetry_equiv_pos_site_id
 _symmetry_equiv_pos_as_xyz
  1  'x, y, z'
loop_
 _atom_site_type_symbol
 _atom_site_label
 _atom_site_symmetry_multiplicity
 _atom_site_fract_x
 _atom_site_fract_y
 _atom_site_fract_z
 _atom_site_occupancy
  Rh  Rh0  1  0.302973  0.632089  0.687700  1
  Rh  Rh1  1  0.697027  0.132089  0.812300  1
  Rh  Rh2  1  0.697027  0.367911  0.312300  1
  Rh  Rh3  1  0.302973  0.867911  0.187700  1
  Pb  Pb4  1  0.232821  0.947088  0.649100  1
  Pb  Pb5  1  0.767179  0.447088  0.850900  1
  Pb  Pb6  1  0.767179  0.052912  0.350900  1
  Pb  Pb7  1  0.232821  0.552912  0.149100  1
  Pb  Pb8  1  0.789023  0.795104  0.955214  1
  Pb  Pb9  1  0.210977  0.295104  0.544786  1
  Pb  Pb10  1  0.210977  0.204896  0.044786  1
  Pb  Pb11  1  0.789023  0.704896  0.455214  1
  F  F12  1  0.006972  0.776693  0.225833  1
  F  F13  1  0.993028  0.276693  0.274167  1
  F  F14  1  0.993028  0.223307  0.774167  1
  F  F15  1  0.006972  0.723307  0.725833  1
  F  F16  1  0.504316  0.770746  0.690546  1
  F  F17  1  0.495684  0.270746  0.809454  1
  F  F18  1  0.495684  0.229254  0.309454  1
  F  F19  1  0.504316  0.729254  0.190546  1
  F  F20  1  0.791566  0.335635  0.522967  1
  F  F21  1  0.208434  0.835635  0.977033  1
  F  F22  1  0.208434  0.664365  0.477033  1
  F  F23  1  0.791566  0.164365  0.022967  1
  F  F24  1  0.104686  0.393969  0.006001  1
  F  F25  1  0.895314  0.893969  0.493999  1
  F  F26  1  0.895314  0.606031  0.993999  1
  F  F27  1  0.104686  0.106031  0.506001  1
  F  F28  1  0.115843  0.489002  0.685571  1
  F  F29  1  0.884157  0.989002  0.814429  1
  F  F30  1  0.884157  0.510998  0.314429  1
  F  F31  1  0.115843  0.010998  0.185571  1
  F  F32  1  0.402947  0.447134  0.368367  1
  F  F33  1  0.597053  0.947134  0.131633  1
  F  F34  1  0.597053  0.552866  0.631633  1
  F  F35  1  0.402947  0.052866  0.868367  1
  F  F36  1  0.585220  0.401825  0.103284  1
  F  F37  1  0.414780  0.901825  0.396716  1
  F  F38  1  0.414780  0.598175  0.896716  1
  F  F39  1  0.585220  0.098175  0.603284  1
