# generated using pymatgen
data_Rb5GeP3
_symmetry_space_group_name_H-M   'P 1'
_cell_length_a   5.49343313
_cell_length_b   14.98090591
_cell_length_c   15.71328435
_cell_angle_alpha   90.00000000
_cell_angle_beta   90.00000000
_cell_angle_gamma   90.00000000
_symmetry_Int_Tables_number   1
_chemical_formula_structural   Rb5GeP3
_chemical_formula_sum   'Rb20 Ge4 P12'
_cell_volume   1293.14995294
_cell_formula_units_Z   4
loop_
 _symmetry_equiv_pos_site_id
 _symmetry_equiv_pos_as_xyz
  1  'x, y, z'
loop_
 _atom_site_type_symbol
 _atom_site_label
 _atom_site_symmetry_multiplicity
 _atom_site_fract_x
 _atom_site_fract_y
 _atom_site_fract_z
 _atom_site_occupancy
  Rb  Rb0  1  0.250000  0.380625  0.015419  1
  Rb  Rb1  1  0.750000  0.619375  0.984581  1
  Rb  Rb2  1  0.250000  0.119375  0.515419  1
  Rb  Rb3  1  0.750000  0.880625  0.484581  1
  Rb  Rb4  1  0.750000  0.730208  0.234521  1
  Rb  Rb5  1  0.250000  0.269792  0.765479  1
  Rb  Rb6  1  0.750000  0.769792  0.734521  1
  Rb  Rb7  1  0.250000  0.230208  0.265479  1
  Rb  Rb8  1  0.750000  0.059724  0.695789  1
  Rb  Rb9  1  0.250000  0.940276  0.304211  1
  Rb  Rb10  1  0.750000  0.440276  0.195789  1
  Rb  Rb11  1  0.250000  0.559724  0.804211  1
  Rb  Rb12  1  0.750000  0.184277  0.915696  1
  Rb  Rb13  1  0.250000  0.815723  0.084304  1
  Rb  Rb14  1  0.750000  0.315723  0.415696  1
  Rb  Rb15  1  0.250000  0.684277  0.584304  1
  Rb  Rb16  1  0.750000  0.927940  0.932675  1
  Rb  Rb17  1  0.250000  0.072060  0.067325  1
  Rb  Rb18  1  0.750000  0.572060  0.432675  1
  Rb  Rb19  1  0.250000  0.427940  0.567325  1
  Ge  Ge20  1  0.750000  0.081156  0.219672  1
  Ge  Ge21  1  0.250000  0.918844  0.780328  1
  Ge  Ge22  1  0.750000  0.418844  0.719672  1
  Ge  Ge23  1  0.250000  0.581156  0.280328  1
  P  P24  1  0.750000  0.207940  0.136756  1
  P  P25  1  0.250000  0.792060  0.863244  1
  P  P26  1  0.750000  0.292060  0.636756  1
  P  P27  1  0.250000  0.707940  0.363244  1
  P  P28  1  0.750000  0.944398  0.155000  1
  P  P29  1  0.250000  0.055602  0.845000  1
  P  P30  1  0.750000  0.555602  0.655000  1
  P  P31  1  0.250000  0.444398  0.345000  1
  P  P32  1  0.750000  0.089020  0.366554  1
  P  P33  1  0.250000  0.910980  0.633446  1
  P  P34  1  0.750000  0.410980  0.866554  1
  P  P35  1  0.250000  0.589020  0.133446  1
