# generated using pymatgen
data_PrVO4
_symmetry_space_group_name_H-M   'P 1'
_cell_length_a   6.22087063
_cell_length_b   6.22087063
_cell_length_c   6.22087063
_cell_angle_alpha   106.03427067
_cell_angle_beta   106.03427067
_cell_angle_gamma   116.58823384
_symmetry_Int_Tables_number   1
_chemical_formula_structural   PrVO4
_chemical_formula_sum   'Pr2 V2 O8'
_cell_volume   183.15391479
_cell_formula_units_Z   2
loop_
 _symmetry_equiv_pos_site_id
 _symmetry_equiv_pos_as_xyz
  1  'x, y, z'
loop_
 _atom_site_type_symbol
 _atom_site_label
 _atom_site_symmetry_multiplicity
 _atom_site_fract_x
 _atom_site_fract_y
 _atom_site_fract_z
 _atom_site_occupancy
  Pr  Pr0  1  0.250000  0.750000  0.500000  1
  Pr  Pr1  1  0.000000  0.000000  0.000000  1
  V  V2  1  0.500000  0.500000  0.000000  1
  V  V3  1  0.750000  0.250000  0.500000  1
  O  O4  1  0.490902  0.670223  0.820679  1
  O  O5  1  0.849545  0.670223  0.179321  1
  O  O6  1  0.329777  0.509098  0.179321  1
  O  O7  1  0.400455  0.079777  0.320679  1
  O  O8  1  0.759098  0.079777  0.679321  1
  O  O9  1  0.329777  0.150455  0.820679  1
  O  O10  1  0.920223  0.599545  0.679321  1
  O  O11  1  0.920223  0.240902  0.320679  1
