# generated using pymatgen
data_Sr3YRhO6
_symmetry_space_group_name_H-M   'P 1'
_cell_length_a   6.86381015
_cell_length_b   6.86381015
_cell_length_c   6.86381015
_cell_angle_alpha   92.05698182
_cell_angle_beta   92.05698182
_cell_angle_gamma   92.05698182
_symmetry_Int_Tables_number   1
_chemical_formula_structural   Sr3YRhO6
_chemical_formula_sum   'Sr6 Y2 Rh2 O12'
_cell_volume   322.72657178
_cell_formula_units_Z   2
loop_
 _symmetry_equiv_pos_site_id
 _symmetry_equiv_pos_as_xyz
  1  'x, y, z'
loop_
 _atom_site_type_symbol
 _atom_site_label
 _atom_site_symmetry_multiplicity
 _atom_site_fract_x
 _atom_site_fract_y
 _atom_site_fract_z
 _atom_site_occupancy
  Sr  Sr0  1  0.618736  0.250000  0.881264  1
  Sr  Sr1  1  0.250000  0.881264  0.618736  1
  Sr  Sr2  1  0.381264  0.750000  0.118736  1
  Sr  Sr3  1  0.118736  0.381264  0.750000  1
  Sr  Sr4  1  0.750000  0.118736  0.381264  1
  Sr  Sr5  1  0.881264  0.618736  0.250000  1
  Y  Y6  1  0.750000  0.750000  0.750000  1
  Y  Y7  1  0.250000  0.250000  0.250000  1
  Rh  Rh8  1  0.500000  0.500000  0.500000  1
  Rh  Rh9  1  0.000000  0.000000  0.000000  1
  O  O10  1  0.455941  0.590287  0.791966  1
  O  O11  1  0.791966  0.455941  0.590287  1
  O  O12  1  0.590287  0.791966  0.455941  1
  O  O13  1  0.708034  0.909713  0.044059  1
  O  O14  1  0.044059  0.708034  0.909713  1
  O  O15  1  0.909713  0.044059  0.708034  1
  O  O16  1  0.544059  0.409713  0.208034  1
  O  O17  1  0.208034  0.544059  0.409713  1
  O  O18  1  0.409713  0.208034  0.544059  1
  O  O19  1  0.291966  0.090287  0.955941  1
  O  O20  1  0.090287  0.955941  0.291966  1
  O  O21  1  0.955941  0.291966  0.090287  1
