# generated using pymatgen
data_Nd2Si2O7
_symmetry_space_group_name_H-M   'P 1'
_cell_length_a   6.73739559
_cell_length_b   6.82261164
_cell_length_c   12.95245800
_cell_angle_alpha   90.00000000
_cell_angle_beta   108.88792524
_cell_angle_gamma   90.00000000
_symmetry_Int_Tables_number   1
_chemical_formula_structural   Nd2Si2O7
_chemical_formula_sum   'Nd8 Si8 O28'
_cell_volume   563.32177384
_cell_formula_units_Z   4
loop_
 _symmetry_equiv_pos_site_id
 _symmetry_equiv_pos_as_xyz
  1  'x, y, z'
loop_
 _atom_site_type_symbol
 _atom_site_label
 _atom_site_symmetry_multiplicity
 _atom_site_fract_x
 _atom_site_fract_y
 _atom_site_fract_z
 _atom_site_occupancy
  Nd  Nd0  1  0.143767  0.821967  0.844899  1
  Nd  Nd1  1  0.856233  0.321967  0.655101  1
  Nd  Nd2  1  0.856233  0.178033  0.155101  1
  Nd  Nd3  1  0.143767  0.678033  0.344899  1
  Nd  Nd4  1  0.470758  0.608249  0.138718  1
  Nd  Nd5  1  0.529242  0.108249  0.361282  1
  Nd  Nd6  1  0.529242  0.391751  0.861282  1
  Nd  Nd7  1  0.470758  0.891751  0.638718  1
  Si  Si8  1  0.706432  0.921293  0.892140  1
  Si  Si9  1  0.293568  0.421293  0.607860  1
  Si  Si10  1  0.293568  0.078707  0.107860  1
  Si  Si11  1  0.706432  0.578707  0.392140  1
  Si  Si12  1  0.895606  0.672481  0.085672  1
  Si  Si13  1  0.104394  0.172481  0.414328  1
  Si  Si14  1  0.104394  0.327519  0.914328  1
  Si  Si15  1  0.895606  0.827519  0.585672  1
  O  O16  1  0.662893  0.104912  0.961042  1
  O  O17  1  0.337107  0.604912  0.538958  1
  O  O18  1  0.337107  0.895088  0.038958  1
  O  O19  1  0.662893  0.395088  0.461042  1
  O  O20  1  0.798977  0.826294  0.153715  1
  O  O21  1  0.201023  0.326294  0.346285  1
  O  O22  1  0.201023  0.173706  0.846285  1
  O  O23  1  0.798977  0.673706  0.653715  1
  O  O24  1  0.123066  0.587855  0.158395  1
  O  O25  1  0.876934  0.087855  0.341605  1
  O  O26  1  0.876934  0.412145  0.841605  1
  O  O27  1  0.123066  0.912145  0.658395  1
  O  O28  1  0.791672  0.987469  0.792436  1
  O  O29  1  0.208328  0.487469  0.707564  1
  O  O30  1  0.208328  0.012531  0.207564  1
  O  O31  1  0.791672  0.512531  0.292436  1
  O  O32  1  0.901510  0.718537  0.470993  1
  O  O33  1  0.098490  0.218537  0.029007  1
  O  O34  1  0.098490  0.281463  0.529007  1
  O  O35  1  0.901510  0.781463  0.970993  1
  O  O36  1  0.724534  0.010297  0.550346  1
  O  O37  1  0.275466  0.510297  0.949654  1
  O  O38  1  0.275466  0.989703  0.449654  1
  O  O39  1  0.724534  0.489703  0.050346  1
  O  O40  1  0.500561  0.719910  0.334818  1
  O  O41  1  0.499439  0.219910  0.165182  1
  O  O42  1  0.499439  0.280090  0.665182  1
  O  O43  1  0.500561  0.780090  0.834818  1
