# generated using pymatgen
data_Pr2O3
_symmetry_space_group_name_H-M   'P 1'
_cell_length_a   9.77718310
_cell_length_b   9.77718310
_cell_length_c   9.77718310
_cell_angle_alpha   109.47122063
_cell_angle_beta   109.47122063
_cell_angle_gamma   109.47122063
_symmetry_Int_Tables_number   1
_chemical_formula_structural   Pr2O3
_chemical_formula_sum   'Pr16 O24'
_cell_volume   719.48104118
_cell_formula_units_Z   8
loop_
 _symmetry_equiv_pos_site_id
 _symmetry_equiv_pos_as_xyz
  1  'x, y, z'
loop_
 _atom_site_type_symbol
 _atom_site_label
 _atom_site_symmetry_multiplicity
 _atom_site_fract_x
 _atom_site_fract_y
 _atom_site_fract_z
 _atom_site_occupancy
  Pr  Pr0  1  0.250000  0.719516  0.469516  1
  Pr  Pr1  1  0.030484  0.750000  0.780484  1
  Pr  Pr2  1  0.780484  0.030484  0.750000  1
  Pr  Pr3  1  0.469516  0.250000  0.719516  1
  Pr  Pr4  1  0.719516  0.469516  0.250000  1
  Pr  Pr5  1  0.750000  0.780484  0.030484  1
  Pr  Pr6  1  0.750000  0.280484  0.530484  1
  Pr  Pr7  1  0.969516  0.250000  0.219516  1
  Pr  Pr8  1  0.219516  0.969516  0.250000  1
  Pr  Pr9  1  0.530484  0.750000  0.280484  1
  Pr  Pr10  1  0.280484  0.530484  0.750000  1
  Pr  Pr11  1  0.250000  0.219516  0.969516  1
  Pr  Pr12  1  1.000000  0.500000  0.000000  1
  Pr  Pr13  1  0.500000  1.000000  0.000000  1
  Pr  Pr14  1  1.000000  1.000000  0.500000  1
  Pr  Pr15  1  0.500000  0.500000  0.500000  1
  O  O16  1  0.027705  0.487997  0.758784  1
  O  O17  1  0.229213  0.268921  0.741216  1
  O  O18  1  0.270787  0.012003  0.039708  1
  O  O19  1  0.231079  0.460292  0.472295  1
  O  O20  1  0.460292  0.472295  0.231079  1
  O  O21  1  0.758784  0.027705  0.487997  1
  O  O22  1  0.268921  0.741216  0.229213  1
  O  O23  1  0.039708  0.270787  0.012003  1
  O  O24  1  0.487997  0.758784  0.027705  1
  O  O25  1  0.741216  0.229213  0.268921  1
  O  O26  1  0.012003  0.039708  0.270787  1
  O  O27  1  0.472295  0.231079  0.460292  1
  O  O28  1  0.972295  0.512003  0.241216  1
  O  O29  1  0.770787  0.731079  0.258784  1
  O  O30  1  0.729213  0.987997  0.960292  1
  O  O31  1  0.768921  0.539708  0.527705  1
  O  O32  1  0.527705  0.768921  0.539708  1
  O  O33  1  0.987997  0.960292  0.729213  1
  O  O34  1  0.258784  0.770787  0.731079  1
  O  O35  1  0.512003  0.241216  0.972295  1
  O  O36  1  0.960292  0.729213  0.987997  1
  O  O37  1  0.731079  0.258784  0.770787  1
  O  O38  1  0.241216  0.972295  0.512003  1
  O  O39  1  0.539708  0.527705  0.768921  1
