# generated using pymatgen
data_Ca5Sb3
_symmetry_space_group_name_H-M   'P 1'
_cell_length_a   8.31598274
_cell_length_b   9.58859709
_cell_length_c   12.64362028
_cell_angle_alpha   90.00000000
_cell_angle_beta   90.00000000
_cell_angle_gamma   90.00000000
_symmetry_Int_Tables_number   1
_chemical_formula_structural   Ca5Sb3
_chemical_formula_sum   'Ca20 Sb12'
_cell_volume   1008.18467996
_cell_formula_units_Z   4
loop_
 _symmetry_equiv_pos_site_id
 _symmetry_equiv_pos_as_xyz
  1  'x, y, z'
loop_
 _atom_site_type_symbol
 _atom_site_label
 _atom_site_symmetry_multiplicity
 _atom_site_fract_x
 _atom_site_fract_y
 _atom_site_fract_z
 _atom_site_occupancy
  Ca  Ca0  1  0.308402  0.958298  0.078095  1
  Ca  Ca1  1  0.808402  0.041702  0.421905  1
  Ca  Ca2  1  0.691598  0.458298  0.921905  1
  Ca  Ca3  1  0.191598  0.541702  0.578095  1
  Ca  Ca4  1  0.691598  0.041702  0.921905  1
  Ca  Ca5  1  0.191598  0.958298  0.578095  1
  Ca  Ca6  1  0.308402  0.541702  0.078095  1
  Ca  Ca7  1  0.808402  0.458298  0.421905  1
  Ca  Ca8  1  0.680893  0.750000  0.227635  1
  Ca  Ca9  1  0.180893  0.250000  0.272365  1
  Ca  Ca10  1  0.319107  0.250000  0.772365  1
  Ca  Ca11  1  0.819107  0.750000  0.727635  1
  Ca  Ca12  1  0.153673  0.750000  0.292903  1
  Ca  Ca13  1  0.653673  0.250000  0.207097  1
  Ca  Ca14  1  0.846327  0.250000  0.707097  1
  Ca  Ca15  1  0.346327  0.750000  0.792903  1
  Ca  Ca16  1  0.535582  0.750000  0.504675  1
  Ca  Ca17  1  0.035582  0.250000  0.995325  1
  Ca  Ca18  1  0.464418  0.250000  0.495325  1
  Ca  Ca19  1  0.964418  0.750000  0.004675  1
  Sb  Sb20  1  0.938349  0.011673  0.171005  1
  Sb  Sb21  1  0.438349  0.988327  0.328995  1
  Sb  Sb22  1  0.061651  0.511673  0.828995  1
  Sb  Sb23  1  0.561651  0.488327  0.671005  1
  Sb  Sb24  1  0.061651  0.988327  0.828995  1
  Sb  Sb25  1  0.561651  0.011673  0.671005  1
  Sb  Sb26  1  0.938349  0.488327  0.171005  1
  Sb  Sb27  1  0.438349  0.511673  0.328995  1
  Sb  Sb28  1  0.576845  0.750000  0.984623  1
  Sb  Sb29  1  0.076845  0.250000  0.515377  1
  Sb  Sb30  1  0.423155  0.250000  0.015377  1
  Sb  Sb31  1  0.923155  0.750000  0.484623  1
