# generated using pymatgen
data_HoAgSe2
_symmetry_space_group_name_H-M   'P 1'
_cell_length_a   4.26458580
_cell_length_b   6.82360674
_cell_length_c   13.78351305
_cell_angle_alpha   90.00000000
_cell_angle_beta   90.00000000
_cell_angle_gamma   90.00000000
_symmetry_Int_Tables_number   1
_chemical_formula_structural   HoAgSe2
_chemical_formula_sum   'Ho4 Ag4 Se8'
_cell_volume   401.09825056
_cell_formula_units_Z   4
loop_
 _symmetry_equiv_pos_site_id
 _symmetry_equiv_pos_as_xyz
  1  'x, y, z'
loop_
 _atom_site_type_symbol
 _atom_site_label
 _atom_site_symmetry_multiplicity
 _atom_site_fract_x
 _atom_site_fract_y
 _atom_site_fract_z
 _atom_site_occupancy
  Ho  Ho0  1  0.720496  0.293564  0.372623  1
  Ho  Ho1  1  0.220496  0.206436  0.627377  1
  Ho  Ho2  1  0.279504  0.793564  0.127377  1
  Ho  Ho3  1  0.779504  0.706436  0.872623  1
  Ag  Ag4  1  0.007386  0.706815  0.627150  1
  Ag  Ag5  1  0.992614  0.206815  0.872850  1
  Ag  Ag6  1  0.507386  0.793185  0.372850  1
  Ag  Ag7  1  0.492614  0.293185  0.127150  1
  Se  Se8  1  0.228277  0.489565  0.473309  1
  Se  Se9  1  0.728277  0.010435  0.526691  1
  Se  Se10  1  0.771723  0.989565  0.026691  1
  Se  Se11  1  0.271723  0.510435  0.973309  1
  Se  Se12  1  0.222805  0.088370  0.274342  1
  Se  Se13  1  0.277195  0.911630  0.774342  1
  Se  Se14  1  0.777195  0.588370  0.225658  1
  Se  Se15  1  0.722805  0.411630  0.725658  1
