# generated using pymatgen
data_K3Nb3(BO6)2
_symmetry_space_group_name_H-M   'P 1'
_cell_length_a   8.94319254
_cell_length_b   8.94319254
_cell_length_c   3.96600936
_cell_angle_alpha   90.00000000
_cell_angle_beta   90.00000000
_cell_angle_gamma   120.00000000
_symmetry_Int_Tables_number   1
_chemical_formula_structural   K3Nb3(BO6)2
_chemical_formula_sum   'K3 Nb3 B2 O12'
_cell_volume   274.70687484
_cell_formula_units_Z   1
loop_
 _symmetry_equiv_pos_site_id
 _symmetry_equiv_pos_as_xyz
  1  'x, y, z'
loop_
 _atom_site_type_symbol
 _atom_site_label
 _atom_site_symmetry_multiplicity
 _atom_site_fract_x
 _atom_site_fract_y
 _atom_site_fract_z
 _atom_site_occupancy
  K  K0  1  0.404145  0.000000  0.500000  1
  K  K1  1  0.595855  0.595855  0.500000  1
  K  K2  1  0.000000  0.404145  0.500000  1
  Nb  Nb3  1  0.752987  0.000000  0.000000  1
  Nb  Nb4  1  0.247013  0.247013  0.000000  1
  Nb  Nb5  1  0.000000  0.752987  0.000000  1
  B  B6  1  0.666667  0.333333  0.000000  1
  B  B7  1  0.333333  0.666667  0.000000  1
  O  O8  1  0.189633  0.685509  0.000000  1
  O  O9  1  0.685509  0.189633  0.000000  1
  O  O10  1  0.810367  0.495876  0.000000  1
  O  O11  1  0.504124  0.314491  0.000000  1
  O  O12  1  0.314491  0.504124  0.000000  1
  O  O13  1  0.495876  0.810367  0.000000  1
  O  O14  1  0.735636  0.000000  0.500000  1
  O  O15  1  0.264364  0.264364  0.500000  1
  O  O16  1  0.000000  0.735636  0.500000  1
  O  O17  1  0.177933  0.000000  0.000000  1
  O  O18  1  0.822067  0.822067  0.000000  1
  O  O19  1  0.000000  0.177933  0.000000  1
