# generated using pymatgen
data_Rb3TaS4
_symmetry_space_group_name_H-M   'P 1'
_cell_length_a   9.71423604
_cell_length_b   9.87259718
_cell_length_c   11.30675815
_cell_angle_alpha   90.00000000
_cell_angle_beta   90.00000000
_cell_angle_gamma   90.00000000
_symmetry_Int_Tables_number   1
_chemical_formula_structural   Rb3TaS4
_chemical_formula_sum   'Rb12 Ta4 S16'
_cell_volume   1084.37169309
_cell_formula_units_Z   4
loop_
 _symmetry_equiv_pos_site_id
 _symmetry_equiv_pos_as_xyz
  1  'x, y, z'
loop_
 _atom_site_type_symbol
 _atom_site_label
 _atom_site_symmetry_multiplicity
 _atom_site_fract_x
 _atom_site_fract_y
 _atom_site_fract_z
 _atom_site_occupancy
  Rb  Rb0  1  0.054394  0.288639  0.543787  1
  Rb  Rb1  1  0.860386  0.922893  0.750000  1
  Rb  Rb2  1  0.139614  0.077107  0.250000  1
  Rb  Rb3  1  0.639614  0.422893  0.250000  1
  Rb  Rb4  1  0.945606  0.711361  0.456213  1
  Rb  Rb5  1  0.445606  0.788639  0.043787  1
  Rb  Rb6  1  0.554394  0.211361  0.543787  1
  Rb  Rb7  1  0.054394  0.288639  0.956213  1
  Rb  Rb8  1  0.945606  0.711361  0.043787  1
  Rb  Rb9  1  0.554394  0.211361  0.956213  1
  Rb  Rb10  1  0.445606  0.788639  0.456213  1
  Rb  Rb11  1  0.360386  0.577107  0.750000  1
  Ta  Ta12  1  0.282286  0.013273  0.750000  1
  Ta  Ta13  1  0.782286  0.486727  0.750000  1
  Ta  Ta14  1  0.217714  0.513273  0.250000  1
  Ta  Ta15  1  0.717714  0.986727  0.250000  1
  S  S16  1  0.302666  0.244494  0.750000  1
  S  S17  1  0.802666  0.255506  0.750000  1
  S  S18  1  0.197334  0.744494  0.250000  1
  S  S19  1  0.697334  0.755506  0.250000  1
  S  S20  1  0.998081  0.580783  0.750000  1
  S  S21  1  0.498081  0.919217  0.750000  1
  S  S22  1  0.501919  0.080783  0.250000  1
  S  S23  1  0.001919  0.419217  0.250000  1
  S  S24  1  0.833124  0.050544  0.082868  1
  S  S25  1  0.333124  0.449456  0.417132  1
  S  S26  1  0.666876  0.550544  0.917132  1
  S  S27  1  0.166876  0.949456  0.582868  1
  S  S28  1  0.166876  0.949456  0.917132  1
  S  S29  1  0.833124  0.050544  0.417132  1
  S  S30  1  0.333124  0.449456  0.082868  1
  S  S31  1  0.666876  0.550544  0.582868  1
