# generated using pymatgen
data_CsTb(PO3)4
_symmetry_space_group_name_H-M   'P 1'
_cell_length_a   7.11061049
_cell_length_b   9.17285924
_cell_length_c   8.80939340
_cell_angle_alpha   90.00000000
_cell_angle_beta   99.98301551
_cell_angle_gamma   90.00000000
_symmetry_Int_Tables_number   1
_chemical_formula_structural   CsTb(PO3)4
_chemical_formula_sum   'Cs2 Tb2 P8 O24'
_cell_volume   565.88966494
_cell_formula_units_Z   2
loop_
 _symmetry_equiv_pos_site_id
 _symmetry_equiv_pos_as_xyz
  1  'x, y, z'
loop_
 _atom_site_type_symbol
 _atom_site_label
 _atom_site_symmetry_multiplicity
 _atom_site_fract_x
 _atom_site_fract_y
 _atom_site_fract_z
 _atom_site_occupancy
  Cs  Cs0  1  0.668934  0.665973  0.173696  1
  Cs  Cs1  1  0.331066  0.165973  0.826304  1
  Tb  Tb2  1  0.801409  0.501247  0.697349  1
  Tb  Tb3  1  0.198591  0.001247  0.302651  1
  P  P4  1  0.641505  0.133013  0.539697  1
  P  P5  1  0.358495  0.633013  0.460303  1
  P  P6  1  0.058645  0.391022  0.378696  1
  P  P7  1  0.941355  0.891022  0.621304  1
  P  P8  1  0.313062  0.575042  0.776871  1
  P  P9  1  0.686938  0.075042  0.223129  1
  P  P10  1  0.082722  0.775191  0.931406  1
  P  P11  1  0.917278  0.275191  0.068594  1
  O  O12  1  0.848917  0.744771  0.592880  1
  O  O13  1  0.151083  0.244771  0.407120  1
  O  O14  1  0.211656  0.517851  0.365938  1
  O  O15  1  0.788344  0.017851  0.634062  1
  O  O16  1  0.280639  0.667775  0.618046  1
  O  O17  1  0.719361  0.167775  0.381954  1
  O  O18  1  0.548463  0.558712  0.496743  1
  O  O19  1  0.451537  0.058712  0.503257  1
  O  O20  1  0.518251  0.528209  0.818460  1
  O  O21  1  0.481749  0.028209  0.181540  1
  O  O22  1  0.052115  0.900470  0.799776  1
  O  O23  1  0.947885  0.400470  0.200224  1
  O  O24  1  0.078499  0.167200  0.095892  1
  O  O25  1  0.921501  0.667200  0.904108  1
  O  O26  1  0.131948  0.849209  0.082919  1
  O  O27  1  0.868052  0.349209  0.917081  1
  O  O28  1  0.922107  0.445297  0.477249  1
  O  O29  1  0.077893  0.945297  0.522751  1
  O  O30  1  0.717997  0.200541  0.100572  1
  O  O31  1  0.282003  0.700541  0.899428  1
  O  O32  1  0.340651  0.770008  0.367050  1
  O  O33  1  0.659349  0.270008  0.632950  1
  O  O34  1  0.844149  0.964470  0.233423  1
  O  O35  1  0.155851  0.464470  0.766577  1
