# generated using pymatgen
data_NaVCdO4
_symmetry_space_group_name_H-M   'P 1'
_cell_length_a   5.52465713
_cell_length_b   5.52465713
_cell_length_c   7.13405347
_cell_angle_alpha   90.00000000
_cell_angle_beta   90.00000000
_cell_angle_gamma   114.84651249
_symmetry_Int_Tables_number   1
_chemical_formula_structural   NaVCdO4
_chemical_formula_sum   'Na2 V2 Cd2 O8'
_cell_volume   197.58926498
_cell_formula_units_Z   2
loop_
 _symmetry_equiv_pos_site_id
 _symmetry_equiv_pos_as_xyz
  1  'x, y, z'
loop_
 _atom_site_type_symbol
 _atom_site_label
 _atom_site_symmetry_multiplicity
 _atom_site_fract_x
 _atom_site_fract_y
 _atom_site_fract_z
 _atom_site_occupancy
  Na  Na0  1  0.680949  0.319051  0.750000  1
  Na  Na1  1  0.319051  0.680949  0.250000  1
  V  V2  1  0.650570  0.349430  0.250000  1
  V  V3  1  0.349430  0.650570  0.750000  1
  Cd  Cd4  1  0.000000  0.000000  0.500000  1
  Cd  Cd5  1  0.000000  0.000000  0.000000  1
  O  O6  1  0.703816  0.779505  0.750000  1
  O  O7  1  0.296184  0.220495  0.250000  1
  O  O8  1  0.779505  0.703816  0.250000  1
  O  O9  1  0.220495  0.296184  0.750000  1
  O  O10  1  0.758662  0.241338  0.444875  1
  O  O11  1  0.241338  0.758662  0.944875  1
  O  O12  1  0.758662  0.241338  0.055125  1
  O  O13  1  0.241338  0.758662  0.555125  1
