# generated using pymatgen
data_CsCuS4
_symmetry_space_group_name_H-M   'P 1'
_cell_length_a   5.27976223
_cell_length_b   9.07940653
_cell_length_c   13.95644313
_cell_angle_alpha   90.00000000
_cell_angle_beta   90.00000000
_cell_angle_gamma   90.00000000
_symmetry_Int_Tables_number   1
_chemical_formula_structural   CsCuS4
_chemical_formula_sum   'Cs4 Cu4 S16'
_cell_volume   669.03151698
_cell_formula_units_Z   4
loop_
 _symmetry_equiv_pos_site_id
 _symmetry_equiv_pos_as_xyz
  1  'x, y, z'
loop_
 _atom_site_type_symbol
 _atom_site_label
 _atom_site_symmetry_multiplicity
 _atom_site_fract_x
 _atom_site_fract_y
 _atom_site_fract_z
 _atom_site_occupancy
  Cs  Cs0  1  0.322305  0.581073  0.161882  1
  Cs  Cs1  1  0.822305  0.918927  0.838118  1
  Cs  Cs2  1  0.677695  0.081073  0.338118  1
  Cs  Cs3  1  0.177695  0.418927  0.661882  1
  Cu  Cu4  1  0.464996  0.644638  0.438442  1
  Cu  Cu5  1  0.964996  0.855362  0.561558  1
  Cu  Cu6  1  0.535004  0.144638  0.061558  1
  Cu  Cu7  1  0.035004  0.355362  0.938442  1
  S  S8  1  0.060183  0.938521  0.075494  1
  S  S9  1  0.560183  0.561479  0.924506  1
  S  S10  1  0.939817  0.438521  0.424506  1
  S  S11  1  0.439817  0.061479  0.575494  1
  S  S12  1  0.115865  0.790548  0.410751  1
  S  S13  1  0.615865  0.709452  0.589249  1
  S  S14  1  0.884135  0.290548  0.089249  1
  S  S15  1  0.384135  0.209452  0.910751  1
  S  S16  1  0.350200  0.858790  0.645868  1
  S  S17  1  0.850200  0.641210  0.354132  1
  S  S18  1  0.649800  0.358790  0.854132  1
  S  S19  1  0.149800  0.141210  0.145868  1
  S  S20  1  0.178865  0.587869  0.900966  1
  S  S21  1  0.678865  0.912131  0.099034  1
  S  S22  1  0.821135  0.087869  0.599034  1
  S  S23  1  0.321135  0.412131  0.400966  1
