# generated using pymatgen
data_KGa3
_symmetry_space_group_name_H-M   'P 1'
_cell_length_a   8.73039585
_cell_length_b   8.73039585
_cell_length_c   8.73039585
_cell_angle_alpha   137.28592881
_cell_angle_beta   137.28592881
_cell_angle_gamma   61.99841102
_symmetry_Int_Tables_number   1
_chemical_formula_structural   KGa3
_chemical_formula_sum   'K3 Ga9'
_cell_volume   302.59353391
_cell_formula_units_Z   3
loop_
 _symmetry_equiv_pos_site_id
 _symmetry_equiv_pos_as_xyz
  1  'x, y, z'
loop_
 _atom_site_type_symbol
 _atom_site_label
 _atom_site_symmetry_multiplicity
 _atom_site_fract_x
 _atom_site_fract_y
 _atom_site_fract_z
 _atom_site_occupancy
  K  K0  1  0.626662  0.126662  0.500000  1
  K  K1  1  0.873338  0.373338  0.500000  1
  K  K2  1  0.500000  0.500000  0.000000  1
  Ga  Ga3  1  0.278169  0.072330  0.794162  1
  Ga  Ga4  1  0.515993  0.721831  0.794162  1
  Ga  Ga5  1  0.197774  0.892377  0.305397  1
  Ga  Ga6  1  0.107623  0.413021  0.305397  1
  Ga  Ga7  1  0.107623  0.802226  0.694603  1
  Ga  Ga8  1  0.586979  0.892377  0.694603  1
  Ga  Ga9  1  0.278169  0.484007  0.205838  1
  Ga  Ga10  1  0.927670  0.721831  0.205838  1
  Ga  Ga11  1  0.000000  0.000000  0.000000  1
