# generated using pymatgen
data_Dy2CdS4
_symmetry_space_group_name_H-M   'P 1'
_cell_length_a   7.99214805
_cell_length_b   7.99214805
_cell_length_c   7.99214805
_cell_angle_alpha   60.00000000
_cell_angle_beta   60.00000000
_cell_angle_gamma   60.00000000
_symmetry_Int_Tables_number   1
_chemical_formula_structural   Dy2CdS4
_chemical_formula_sum   'Dy4 Cd2 S8'
_cell_volume   360.97370240
_cell_formula_units_Z   2
loop_
 _symmetry_equiv_pos_site_id
 _symmetry_equiv_pos_as_xyz
  1  'x, y, z'
loop_
 _atom_site_type_symbol
 _atom_site_label
 _atom_site_symmetry_multiplicity
 _atom_site_fract_x
 _atom_site_fract_y
 _atom_site_fract_z
 _atom_site_occupancy
  Dy  Dy0  1  0.125000  0.125000  0.125000  1
  Dy  Dy1  1  0.125000  0.625000  0.125000  1
  Dy  Dy2  1  0.125000  0.125000  0.625000  1
  Dy  Dy3  1  0.625000  0.125000  0.125000  1
  Cd  Cd4  1  0.750000  0.750000  0.750000  1
  Cd  Cd5  1  0.500000  0.500000  0.500000  1
  S  S6  1  0.882424  0.352728  0.882424  1
  S  S7  1  0.367576  0.367576  0.367576  1
  S  S8  1  0.897272  0.367576  0.367576  1
  S  S9  1  0.367576  0.367576  0.897272  1
  S  S10  1  0.352728  0.882424  0.882424  1
  S  S11  1  0.882424  0.882424  0.352728  1
  S  S12  1  0.367576  0.897272  0.367576  1
  S  S13  1  0.882424  0.882424  0.882424  1
