# generated using pymatgen
data_Al2O3
_symmetry_space_group_name_H-M   'P 1'
_cell_length_a   5.17795481
_cell_length_b   5.17795481
_cell_length_c   5.17795481
_cell_angle_alpha   55.28960900
_cell_angle_beta   55.28960900
_cell_angle_gamma   55.28960900
_symmetry_Int_Tables_number   1
_chemical_formula_structural   Al2O3
_chemical_formula_sum   'Al4 O6'
_cell_volume   87.42000540
_cell_formula_units_Z   2
loop_
 _symmetry_equiv_pos_site_id
 _symmetry_equiv_pos_as_xyz
  1  'x, y, z'
loop_
 _atom_site_type_symbol
 _atom_site_label
 _atom_site_symmetry_multiplicity
 _atom_site_fract_x
 _atom_site_fract_y
 _atom_site_fract_z
 _atom_site_occupancy
  Al  Al0  1  0.352096  0.352096  0.352096  1
  Al  Al1  1  0.147904  0.147904  0.147904  1
  Al  Al2  1  0.852096  0.852096  0.852096  1
  Al  Al3  1  0.647904  0.647904  0.647904  1
  O  O4  1  0.943854  0.250000  0.556146  1
  O  O5  1  0.750000  0.443854  0.056146  1
  O  O6  1  0.250000  0.556146  0.943854  1
  O  O7  1  0.556146  0.943854  0.250000  1
  O  O8  1  0.443854  0.056146  0.750000  1
  O  O9  1  0.056146  0.750000  0.443854  1
