# generated using pymatgen
data_LiMn(PO3)3
_symmetry_space_group_name_H-M   'P 1'
_cell_length_a   8.56562941
_cell_length_b   8.78370220
_cell_length_c   8.88668216
_cell_angle_alpha   90.00000000
_cell_angle_beta   90.00000000
_cell_angle_gamma   90.00000000
_symmetry_Int_Tables_number   1
_chemical_formula_structural   LiMn(PO3)3
_chemical_formula_sum   'Li4 Mn4 P12 O36'
_cell_volume   668.61564043
_cell_formula_units_Z   4
loop_
 _symmetry_equiv_pos_site_id
 _symmetry_equiv_pos_as_xyz
  1  'x, y, z'
loop_
 _atom_site_type_symbol
 _atom_site_label
 _atom_site_symmetry_multiplicity
 _atom_site_fract_x
 _atom_site_fract_y
 _atom_site_fract_z
 _atom_site_occupancy
  Li  Li0  1  0.153241  0.136423  0.385545  1
  Li  Li1  1  0.653241  0.363577  0.614455  1
  Li  Li2  1  0.846759  0.636423  0.114455  1
  Li  Li3  1  0.346759  0.863577  0.885545  1
  Mn  Mn4  1  0.372339  0.144249  0.663670  1
  Mn  Mn5  1  0.872339  0.355751  0.336330  1
  Mn  Mn6  1  0.627661  0.644249  0.836330  1
  Mn  Mn7  1  0.127661  0.855751  0.163670  1
  P  P8  1  0.471367  0.676185  0.181232  1
  P  P9  1  0.971367  0.823815  0.818768  1
  P  P10  1  0.528633  0.176185  0.318768  1
  P  P11  1  0.028633  0.323815  0.681232  1
  P  P12  1  0.190963  0.475809  0.188941  1
  P  P13  1  0.690963  0.024191  0.811059  1
  P  P14  1  0.809037  0.975809  0.311059  1
  P  P15  1  0.309037  0.524191  0.688941  1
  P  P16  1  0.301470  0.191536  0.064725  1
  P  P17  1  0.801470  0.308464  0.935275  1
  P  P18  1  0.698530  0.691536  0.435275  1
  P  P19  1  0.198530  0.808464  0.564725  1
  O  O20  1  0.370062  0.802122  0.120528  1
  O  O21  1  0.870062  0.697878  0.879472  1
  O  O22  1  0.629938  0.302122  0.379472  1
  O  O23  1  0.129938  0.197878  0.620528  1
  O  O24  1  0.602563  0.622730  0.082244  1
  O  O25  1  0.102563  0.877270  0.917756  1
  O  O26  1  0.397437  0.122730  0.417756  1
  O  O27  1  0.897437  0.377270  0.582244  1
  O  O28  1  0.907662  0.105900  0.366210  1
  O  O29  1  0.407662  0.394100  0.633790  1
  O  O30  1  0.092338  0.605900  0.133790  1
  O  O31  1  0.592338  0.894100  0.866210  1
  O  O32  1  0.156792  0.861912  0.410021  1
  O  O33  1  0.656792  0.638088  0.589979  1
  O  O34  1  0.843208  0.361912  0.089979  1
  O  O35  1  0.343208  0.138088  0.910021  1
  O  O36  1  0.306283  0.904524  0.659111  1
  O  O37  1  0.806283  0.595476  0.340889  1
  O  O38  1  0.693717  0.404524  0.840889  1
  O  O39  1  0.193717  0.095476  0.159111  1
  O  O40  1  0.267687  0.637292  0.550125  1
  O  O41  1  0.767687  0.862708  0.449875  1
  O  O42  1  0.732313  0.137292  0.949875  1
  O  O43  1  0.232313  0.362708  0.050125  1
  O  O44  1  0.038463  0.775269  0.656871  1
  O  O45  1  0.538463  0.724731  0.343129  1
  O  O46  1  0.961537  0.275269  0.843129  1
  O  O47  1  0.461537  0.224731  0.156871  1
  O  O48  1  0.372631  0.618835  0.816876  1
  O  O49  1  0.872631  0.881165  0.183124  1
  O  O50  1  0.627369  0.118835  0.683124  1
  O  O51  1  0.127369  0.381165  0.316876  1
  O  O52  1  0.137669  0.464521  0.734514  1
  O  O53  1  0.637669  0.035479  0.265486  1
  O  O54  1  0.862331  0.964521  0.765486  1
  O  O55  1  0.362331  0.535479  0.234514  1
