# generated using pymatgen
data_TlIn(PSe3)2
_symmetry_space_group_name_H-M   'P 1'
_cell_length_a   6.60561705
_cell_length_b   8.12034642
_cell_length_c   12.40746677
_cell_angle_alpha   102.34000452
_cell_angle_beta   93.42531569
_cell_angle_gamma   111.73381083
_symmetry_Int_Tables_number   1
_chemical_formula_structural   TlIn(PSe3)2
_chemical_formula_sum   'Tl2 In2 P4 Se12'
_cell_volume   596.82685035
_cell_formula_units_Z   2
loop_
 _symmetry_equiv_pos_site_id
 _symmetry_equiv_pos_as_xyz
  1  'x, y, z'
loop_
 _atom_site_type_symbol
 _atom_site_label
 _atom_site_symmetry_multiplicity
 _atom_site_fract_x
 _atom_site_fract_y
 _atom_site_fract_z
 _atom_site_occupancy
  Tl  Tl0  1  0.169507  0.824689  0.536924  1
  Tl  Tl1  1  0.830493  0.175311  0.463076  1
  In  In2  1  0.708124  0.429960  0.908537  1
  In  In3  1  0.291876  0.570040  0.091463  1
  P  P4  1  0.079265  0.170061  0.795021  1
  P  P5  1  0.920735  0.829939  0.204979  1
  P  P6  1  0.198549  0.442178  0.745974  1
  P  P7  1  0.801451  0.557822  0.254026  1
  Se  Se8  1  0.632832  0.903630  0.184593  1
  Se  Se9  1  0.367168  0.096370  0.815407  1
  Se  Se10  1  0.671734  0.588684  0.409182  1
  Se  Se11  1  0.328266  0.411316  0.590818  1
  Se  Se12  1  0.044099  0.769093  0.040006  1
  Se  Se13  1  0.955901  0.230907  0.959994  1
  Se  Se14  1  0.539280  0.357588  0.109994  1
  Se  Se15  1  0.460720  0.642412  0.890006  1
  Se  Se16  1  0.180752  0.035952  0.332810  1
  Se  Se17  1  0.819248  0.964048  0.667190  1
  Se  Se18  1  0.094700  0.489275  0.272992  1
  Se  Se19  1  0.905300  0.510725  0.727008  1
