# generated using pymatgen
data_BaCaAlF7
_symmetry_space_group_name_H-M   'P 1'
_cell_length_a   5.43845097
_cell_length_b   5.46624715
_cell_length_c   19.61875888
_cell_angle_alpha   90.00000000
_cell_angle_beta   103.66815892
_cell_angle_gamma   90.00000000
_symmetry_Int_Tables_number   1
_chemical_formula_structural   BaCaAlF7
_chemical_formula_sum   'Ba4 Ca4 Al4 F28'
_cell_volume   566.70825394
_cell_formula_units_Z   4
loop_
 _symmetry_equiv_pos_site_id
 _symmetry_equiv_pos_as_xyz
  1  'x, y, z'
loop_
 _atom_site_type_symbol
 _atom_site_label
 _atom_site_symmetry_multiplicity
 _atom_site_fract_x
 _atom_site_fract_y
 _atom_site_fract_z
 _atom_site_occupancy
  Ba  Ba0  1  0.184264  0.757417  0.432379  1
  Ba  Ba1  1  0.815736  0.757417  0.067621  1
  Ba  Ba2  1  0.815736  0.242583  0.567621  1
  Ba  Ba3  1  0.184264  0.242583  0.932379  1
  Ca  Ca4  1  0.000000  0.322084  0.250000  1
  Ca  Ca5  1  0.500000  0.792203  0.250000  1
  Ca  Ca6  1  0.000000  0.677916  0.750000  1
  Ca  Ca7  1  0.500000  0.207797  0.750000  1
  Al  Al8  1  0.320242  0.224755  0.119516  1
  Al  Al9  1  0.679758  0.224755  0.380484  1
  Al  Al10  1  0.320242  0.775245  0.619516  1
  Al  Al11  1  0.679758  0.775245  0.880484  1
  F  F12  1  0.656724  0.044162  0.934562  1
  F  F13  1  0.343276  0.044162  0.565438  1
  F  F14  1  0.343276  0.955838  0.065438  1
  F  F15  1  0.656724  0.955838  0.434562  1
  F  F16  1  0.159592  0.029203  0.175005  1
  F  F17  1  0.840408  0.029203  0.324995  1
  F  F18  1  0.840408  0.970797  0.824995  1
  F  F19  1  0.159592  0.970797  0.675005  1
  F  F20  1  0.008391  0.282251  0.060494  1
  F  F21  1  0.991609  0.282251  0.439506  1
  F  F22  1  0.991609  0.717749  0.939506  1
  F  F23  1  0.008391  0.717749  0.560494  1
  F  F24  1  0.465735  0.593223  0.564575  1
  F  F25  1  0.534265  0.593223  0.935425  1
  F  F26  1  0.534265  0.406777  0.435425  1
  F  F27  1  0.465735  0.406777  0.064575  1
  F  F28  1  0.616292  0.861898  0.681109  1
  F  F29  1  0.383708  0.861898  0.818891  1
  F  F30  1  0.383708  0.138102  0.318891  1
  F  F31  1  0.616292  0.138102  0.181109  1
  F  F32  1  0.737220  0.481053  0.325838  1
  F  F33  1  0.262780  0.481053  0.174162  1
  F  F34  1  0.262780  0.518947  0.674162  1
  F  F35  1  0.737220  0.518947  0.825838  1
  F  F36  1  0.776098  0.362649  0.692739  1
  F  F37  1  0.223902  0.362649  0.807261  1
  F  F38  1  0.223902  0.637351  0.307261  1
  F  F39  1  0.776098  0.637351  0.192739  1
