# generated using pymatgen
data_KNa2Li3Fe2(Si2O5)6
_symmetry_space_group_name_H-M   'P 1'
_cell_length_a   10.19476816
_cell_length_b   10.19476816
_cell_length_c   14.30264150
_cell_angle_alpha   90.00000000
_cell_angle_beta   90.00000000
_cell_angle_gamma   120.00000000
_symmetry_Int_Tables_number   1
_chemical_formula_structural   KNa2Li3Fe2(Si2O5)6
_chemical_formula_sum   'K2 Na4 Li6 Fe4 Si24 O60'
_cell_volume   1287.36468917
_cell_formula_units_Z   2
loop_
 _symmetry_equiv_pos_site_id
 _symmetry_equiv_pos_as_xyz
  1  'x, y, z'
loop_
 _atom_site_type_symbol
 _atom_site_label
 _atom_site_symmetry_multiplicity
 _atom_site_fract_x
 _atom_site_fract_y
 _atom_site_fract_z
 _atom_site_occupancy
  K  K0  1  0.000000  0.000000  0.250000  1
  K  K1  1  0.000000  0.000000  0.750000  1
  Na  Na2  1  0.666667  0.333333  0.500000  1
  Na  Na3  1  0.666667  0.333333  0.000000  1
  Na  Na4  1  0.333333  0.666667  0.000000  1
  Na  Na5  1  0.333333  0.666667  0.500000  1
  Li  Li6  1  0.500000  0.000000  0.250000  1
  Li  Li7  1  0.000000  0.500000  0.750000  1
  Li  Li8  1  0.500000  0.500000  0.750000  1
  Li  Li9  1  0.500000  0.000000  0.750000  1
  Li  Li10  1  0.000000  0.500000  0.250000  1
  Li  Li11  1  0.500000  0.500000  0.250000  1
  Fe  Fe12  1  0.333333  0.666667  0.750000  1
  Fe  Fe13  1  0.666667  0.333333  0.750000  1
  Fe  Fe14  1  0.666667  0.333333  0.250000  1
  Fe  Fe15  1  0.333333  0.666667  0.250000  1
  Si  Si16  1  0.355255  0.119577  0.387912  1
  Si  Si17  1  0.764323  0.644745  0.612088  1
  Si  Si18  1  0.355255  0.119577  0.612088  1
  Si  Si19  1  0.644745  0.764323  0.887912  1
  Si  Si20  1  0.119577  0.355255  0.887912  1
  Si  Si21  1  0.880423  0.644745  0.887912  1
  Si  Si22  1  0.355255  0.235677  0.887912  1
  Si  Si23  1  0.235677  0.880423  0.887912  1
  Si  Si24  1  0.764323  0.644745  0.387912  1
  Si  Si25  1  0.764323  0.119577  0.887912  1
  Si  Si26  1  0.880423  0.235677  0.387912  1
  Si  Si27  1  0.119577  0.764323  0.387912  1
  Si  Si28  1  0.235677  0.880423  0.112088  1
  Si  Si29  1  0.880423  0.235677  0.612088  1
  Si  Si30  1  0.644745  0.880423  0.387912  1
  Si  Si31  1  0.355255  0.235677  0.112088  1
  Si  Si32  1  0.880423  0.644745  0.112088  1
  Si  Si33  1  0.119577  0.355255  0.112088  1
  Si  Si34  1  0.644745  0.764323  0.112088  1
  Si  Si35  1  0.764323  0.119577  0.112088  1
  Si  Si36  1  0.119577  0.764323  0.612088  1
  Si  Si37  1  0.644745  0.880423  0.612088  1
  Si  Si38  1  0.235677  0.355255  0.612088  1
  Si  Si39  1  0.235677  0.355255  0.387912  1
  O  O40  1  0.139585  0.739547  0.500000  1
  O  O41  1  0.494111  0.658329  0.829740  1
  O  O42  1  0.164218  0.505889  0.829740  1
  O  O43  1  0.835782  0.494111  0.829740  1
  O  O44  1  0.341671  0.505889  0.670260  1
  O  O45  1  0.658329  0.494111  0.670260  1
  O  O46  1  0.658329  0.164218  0.829740  1
  O  O47  1  0.835782  0.341671  0.670260  1
  O  O48  1  0.164218  0.658329  0.670260  1
  O  O49  1  0.494111  0.835782  0.670260  1
  O  O50  1  0.505889  0.341671  0.829740  1
  O  O51  1  0.341671  0.835782  0.829740  1
  O  O52  1  0.658329  0.494111  0.329740  1
  O  O53  1  0.505889  0.164218  0.329740  1
  O  O54  1  0.835782  0.341671  0.329740  1
  O  O55  1  0.164218  0.658329  0.329740  1
  O  O56  1  0.341671  0.835782  0.170260  1
  O  O57  1  0.341671  0.505889  0.329740  1
  O  O58  1  0.494111  0.835782  0.329740  1
  O  O59  1  0.505889  0.341671  0.170260  1
  O  O60  1  0.835782  0.494111  0.170260  1
  O  O61  1  0.164218  0.505889  0.170260  1
  O  O62  1  0.494111  0.658329  0.170260  1
  O  O63  1  0.658329  0.164218  0.170260  1
  O  O64  1  0.275518  0.054086  0.864825  1
  O  O65  1  0.724482  0.778568  0.635175  1
  O  O66  1  0.221432  0.945914  0.635175  1
  O  O67  1  0.778568  0.054086  0.635175  1
  O  O68  1  0.945914  0.221432  0.864825  1
  O  O69  1  0.945914  0.724482  0.635175  1
  O  O70  1  0.275518  0.221432  0.635175  1
  O  O71  1  0.724482  0.945914  0.864825  1
  O  O72  1  0.221432  0.275518  0.864825  1
  O  O73  1  0.778568  0.724482  0.864825  1
  O  O74  1  0.739547  0.139585  0.000000  1
  O  O75  1  0.599963  0.739547  0.000000  1
  O  O76  1  0.139585  0.400037  0.000000  1
  O  O77  1  0.860415  0.599963  0.000000  1
  O  O78  1  0.400037  0.260453  0.000000  1
  O  O79  1  0.599963  0.860415  0.500000  1
  O  O80  1  0.260453  0.400037  0.500000  1
  O  O81  1  0.260453  0.860415  0.000000  1
  O  O82  1  0.505889  0.164218  0.670260  1
  O  O83  1  0.860415  0.260453  0.500000  1
  O  O84  1  0.400037  0.139585  0.500000  1
  O  O85  1  0.739547  0.599963  0.500000  1
  O  O86  1  0.945914  0.221432  0.135175  1
  O  O87  1  0.724482  0.945914  0.135175  1
  O  O88  1  0.221432  0.275518  0.135175  1
  O  O89  1  0.778568  0.724482  0.135175  1
  O  O90  1  0.275518  0.054086  0.135175  1
  O  O91  1  0.724482  0.778568  0.364825  1
  O  O92  1  0.054086  0.275518  0.364825  1
  O  O93  1  0.054086  0.778568  0.135175  1
  O  O94  1  0.221432  0.945914  0.364825  1
  O  O95  1  0.778568  0.054086  0.364825  1
  O  O96  1  0.275518  0.221432  0.364825  1
  O  O97  1  0.945914  0.724482  0.364825  1
  O  O98  1  0.054086  0.778568  0.864825  1
  O  O99  1  0.054086  0.275518  0.635175  1
