# generated using pymatgen
data_Mg4Ta2O9
_symmetry_space_group_name_H-M   'P 1'
_cell_length_a   5.21199218
_cell_length_b   5.21199218
_cell_length_c   14.18669441
_cell_angle_alpha   90.00000000
_cell_angle_beta   90.00000000
_cell_angle_gamma   120.00000000
_symmetry_Int_Tables_number   1
_chemical_formula_structural   Mg4Ta2O9
_chemical_formula_sum   'Mg8 Ta4 O18'
_cell_volume   333.74852596
_cell_formula_units_Z   2
loop_
 _symmetry_equiv_pos_site_id
 _symmetry_equiv_pos_as_xyz
  1  'x, y, z'
loop_
 _atom_site_type_symbol
 _atom_site_label
 _atom_site_symmetry_multiplicity
 _atom_site_fract_x
 _atom_site_fract_y
 _atom_site_fract_z
 _atom_site_occupancy
  Mg  Mg0  1  0.333333  0.666667  0.016510  1
  Mg  Mg1  1  0.666667  0.333333  0.483490  1
  Mg  Mg2  1  0.666667  0.333333  0.983490  1
  Mg  Mg3  1  0.333333  0.666667  0.516510  1
  Mg  Mg4  1  0.333333  0.666667  0.808926  1
  Mg  Mg5  1  0.666667  0.333333  0.691074  1
  Mg  Mg6  1  0.666667  0.333333  0.191074  1
  Mg  Mg7  1  0.333333  0.666667  0.308926  1
  Ta  Ta8  1  0.000000  0.000000  0.357116  1
  Ta  Ta9  1  0.000000  0.000000  0.142884  1
  Ta  Ta10  1  0.000000  0.000000  0.642884  1
  Ta  Ta11  1  0.000000  0.000000  0.857116  1
  O  O12  1  0.288149  0.288149  0.750000  1
  O  O13  1  0.000000  0.711851  0.750000  1
  O  O14  1  0.711851  0.000000  0.750000  1
  O  O15  1  0.711851  0.711851  0.250000  1
  O  O16  1  0.000000  0.288149  0.250000  1
  O  O17  1  0.288149  0.000000  0.250000  1
  O  O18  1  0.682923  0.654113  0.584722  1
  O  O19  1  0.345887  0.028809  0.584722  1
  O  O20  1  0.971191  0.317077  0.584722  1
  O  O21  1  0.028809  0.345887  0.915278  1
  O  O22  1  0.317077  0.971191  0.915278  1
  O  O23  1  0.654113  0.682923  0.915278  1
  O  O24  1  0.345887  0.317077  0.084722  1
  O  O25  1  0.682923  0.028809  0.084722  1
  O  O26  1  0.971191  0.654113  0.084722  1
  O  O27  1  0.028809  0.682923  0.415278  1
  O  O28  1  0.654113  0.971191  0.415278  1
  O  O29  1  0.317077  0.345887  0.415278  1
