# generated using pymatgen
data_TbCrO4
_symmetry_space_group_name_H-M   'P 1'
_cell_length_a   6.01568085
_cell_length_b   6.01568085
_cell_length_c   6.01568085
_cell_angle_alpha   105.96377767
_cell_angle_beta   105.96377767
_cell_angle_gamma   116.73988681
_symmetry_Int_Tables_number   1
_chemical_formula_structural   TbCrO4
_chemical_formula_sum   'Tb2 Cr2 O8'
_cell_volume   165.53672197
_cell_formula_units_Z   2
loop_
 _symmetry_equiv_pos_site_id
 _symmetry_equiv_pos_as_xyz
  1  'x, y, z'
loop_
 _atom_site_type_symbol
 _atom_site_label
 _atom_site_symmetry_multiplicity
 _atom_site_fract_x
 _atom_site_fract_y
 _atom_site_fract_z
 _atom_site_occupancy
  Tb  Tb0  1  0.000000  0.000000  0.000000  1
  Tb  Tb1  1  0.250000  0.750000  0.500000  1
  Cr  Cr2  1  0.750000  0.250000  0.500000  1
  Cr  Cr3  1  0.500000  0.500000  0.000000  1
  O  O4  1  0.857475  0.673885  0.183590  1
  O  O5  1  0.923885  0.240295  0.316410  1
  O  O6  1  0.923885  0.607475  0.683590  1
  O  O7  1  0.490295  0.673885  0.816410  1
  O  O8  1  0.326115  0.509705  0.183590  1
  O  O9  1  0.392525  0.076115  0.316410  1
  O  O10  1  0.759705  0.076115  0.683590  1
  O  O11  1  0.326115  0.142525  0.816410  1
