# generated using pymatgen
data_NaCd4(PO4)3
_symmetry_space_group_name_H-M   'P 1'
_cell_length_a   6.78568402
_cell_length_b   10.30602909
_cell_length_c   15.29403734
_cell_angle_alpha   90.00000000
_cell_angle_beta   90.00000000
_cell_angle_gamma   90.00000000
_symmetry_Int_Tables_number   1
_chemical_formula_structural   NaCd4(PO4)3
_chemical_formula_sum   'Na4 Cd16 P12 O48'
_cell_volume   1069.56490123
_cell_formula_units_Z   4
loop_
 _symmetry_equiv_pos_site_id
 _symmetry_equiv_pos_as_xyz
  1  'x, y, z'
loop_
 _atom_site_type_symbol
 _atom_site_label
 _atom_site_symmetry_multiplicity
 _atom_site_fract_x
 _atom_site_fract_y
 _atom_site_fract_z
 _atom_site_occupancy
  Na  Na0  1  0.549116  0.723833  0.750000  1
  Na  Na1  1  0.049116  0.776167  0.750000  1
  Na  Na2  1  0.950884  0.223833  0.250000  1
  Na  Na3  1  0.450884  0.276167  0.250000  1
  Cd  Cd4  1  0.852886  0.559518  0.905247  1
  Cd  Cd5  1  0.352886  0.940482  0.594753  1
  Cd  Cd6  1  0.647114  0.059518  0.094753  1
  Cd  Cd7  1  0.147114  0.440482  0.405247  1
  Cd  Cd8  1  0.147114  0.440482  0.094753  1
  Cd  Cd9  1  0.647114  0.059518  0.405247  1
  Cd  Cd10  1  0.352886  0.940482  0.905247  1
  Cd  Cd11  1  0.852886  0.559518  0.594753  1
  Cd  Cd12  1  0.660816  0.659557  0.109153  1
  Cd  Cd13  1  0.160816  0.840443  0.390847  1
  Cd  Cd14  1  0.839184  0.159557  0.890847  1
  Cd  Cd15  1  0.339184  0.340443  0.609153  1
  Cd  Cd16  1  0.339184  0.340443  0.890847  1
  Cd  Cd17  1  0.839184  0.159557  0.609153  1
  Cd  Cd18  1  0.160816  0.840443  0.109153  1
  Cd  Cd19  1  0.660816  0.659557  0.390847  1
  P  P20  1  0.152076  0.133627  0.067164  1
  P  P21  1  0.652076  0.366373  0.432836  1
  P  P22  1  0.347924  0.633627  0.932836  1
  P  P23  1  0.847924  0.866373  0.567164  1
  P  P24  1  0.003417  0.412046  0.750000  1
  P  P25  1  0.503417  0.087954  0.750000  1
  P  P26  1  0.496583  0.912046  0.250000  1
  P  P27  1  0.996583  0.587954  0.250000  1
  P  P28  1  0.152076  0.133627  0.432836  1
  P  P29  1  0.652076  0.366373  0.067164  1
  P  P30  1  0.347924  0.633627  0.567164  1
  P  P31  1  0.847924  0.866373  0.932836  1
  O  O32  1  0.231653  0.390942  0.750000  1
  O  O33  1  0.731653  0.109058  0.750000  1
  O  O34  1  0.268347  0.890942  0.250000  1
  O  O35  1  0.768347  0.609058  0.250000  1
  O  O36  1  0.944808  0.557770  0.750000  1
  O  O37  1  0.444808  0.942230  0.750000  1
  O  O38  1  0.555192  0.057770  0.250000  1
  O  O39  1  0.055192  0.442230  0.250000  1
  O  O40  1  0.082498  0.645823  0.336096  1
  O  O41  1  0.582498  0.854177  0.163904  1
  O  O42  1  0.417502  0.145823  0.663904  1
  O  O43  1  0.917502  0.354177  0.836096  1
  O  O44  1  0.917502  0.354177  0.663904  1
  O  O45  1  0.417502  0.145823  0.836096  1
  O  O46  1  0.582498  0.854177  0.336096  1
  O  O47  1  0.082498  0.645823  0.163904  1
  O  O48  1  0.899788  0.787041  0.016911  1
  O  O49  1  0.399788  0.712959  0.483089  1
  O  O50  1  0.600212  0.287041  0.983089  1
  O  O51  1  0.675550  0.966746  0.952390  1
  O  O52  1  0.100212  0.212959  0.516911  1
  O  O53  1  0.600212  0.287041  0.516911  1
  O  O54  1  0.399788  0.712959  0.016911  1
  O  O55  1  0.899788  0.787041  0.483089  1
  O  O56  1  0.785727  0.769327  0.861193  1
  O  O57  1  0.285727  0.730673  0.638807  1
  O  O58  1  0.714273  0.269327  0.138807  1
  O  O59  1  0.214273  0.230673  0.361193  1
  O  O60  1  0.214273  0.230673  0.138807  1
  O  O61  1  0.714273  0.269327  0.361193  1
  O  O62  1  0.285727  0.730673  0.861193  1
  O  O63  1  0.785727  0.769327  0.638807  1
  O  O64  1  0.018785  0.954774  0.600142  1
  O  O65  1  0.518785  0.545226  0.899858  1
  O  O66  1  0.481215  0.454774  0.399858  1
  O  O67  1  0.981215  0.045226  0.100142  1
  O  O68  1  0.981215  0.045226  0.399858  1
  O  O69  1  0.481215  0.454774  0.100142  1
  O  O70  1  0.518785  0.545226  0.600142  1
  O  O71  1  0.018785  0.954774  0.899858  1
  O  O72  1  0.675550  0.966746  0.547610  1
  O  O73  1  0.175550  0.533254  0.952390  1
  O  O74  1  0.824450  0.466746  0.452390  1
  O  O75  1  0.324450  0.033254  0.047610  1
  O  O76  1  0.324450  0.033254  0.452390  1
  O  O77  1  0.824450  0.466746  0.047610  1
  O  O78  1  0.175550  0.533254  0.547610  1
  O  O79  1  0.100212  0.212959  0.983089  1
