# generated using pymatgen
data_Sr2Mg(BO3)2
_symmetry_space_group_name_H-M   'P 1'
_cell_length_a   5.25210386
_cell_length_b   5.25210386
_cell_length_c   6.19854032
_cell_angle_alpha   65.29687098
_cell_angle_beta   114.70312902
_cell_angle_gamma   120.73213449
_symmetry_Int_Tables_number   1
_chemical_formula_structural   Sr2Mg(BO3)2
_chemical_formula_sum   'Sr2 Mg1 B2 O6'
_cell_volume   128.86927494
_cell_formula_units_Z   1
loop_
 _symmetry_equiv_pos_site_id
 _symmetry_equiv_pos_as_xyz
  1  'x, y, z'
loop_
 _atom_site_type_symbol
 _atom_site_label
 _atom_site_symmetry_multiplicity
 _atom_site_fract_x
 _atom_site_fract_y
 _atom_site_fract_z
 _atom_site_occupancy
  Sr  Sr0  1  0.709319  0.290681  0.185263  1
  Sr  Sr1  1  0.290681  0.709319  0.814737  1
  Mg  Mg2  1  0.500000  0.500000  0.500000  1
  B  B3  1  0.937648  0.062352  0.735520  1
  B  B4  1  0.062352  0.937648  0.264480  1
  O  O5  1  0.768698  0.231302  0.661287  1
  O  O6  1  0.206589  0.255438  0.231719  1
  O  O7  1  0.255438  0.206589  0.768281  1
  O  O8  1  0.793411  0.744562  0.768281  1
  O  O9  1  0.744562  0.793411  0.231719  1
  O  O10  1  0.231302  0.768698  0.338713  1
