# generated using pymatgen
data_RbNd(PO3)4
_symmetry_space_group_name_H-M   'P 1'
_cell_length_a   7.68878777
_cell_length_b   7.68878777
_cell_length_c   10.82154867
_cell_angle_alpha   79.09533690
_cell_angle_beta   100.90466310
_cell_angle_gamma   63.27597054
_symmetry_Int_Tables_number   1
_chemical_formula_structural   RbNd(PO3)4
_chemical_formula_sum   'Rb2 Nd2 P8 O24'
_cell_volume   532.95358440
_cell_formula_units_Z   2
loop_
 _symmetry_equiv_pos_site_id
 _symmetry_equiv_pos_as_xyz
  1  'x, y, z'
loop_
 _atom_site_type_symbol
 _atom_site_label
 _atom_site_symmetry_multiplicity
 _atom_site_fract_x
 _atom_site_fract_y
 _atom_site_fract_z
 _atom_site_occupancy
  Rb  Rb0  1  0.307489  0.307489  0.250000  1
  Rb  Rb1  1  0.692511  0.692511  0.750000  1
  Nd  Nd2  1  0.622798  0.622798  0.250000  1
  Nd  Nd3  1  0.377202  0.377202  0.750000  1
  P  P4  1  0.805489  0.248046  0.049498  1
  P  P5  1  0.248046  0.805489  0.450502  1
  P  P6  1  0.194511  0.751954  0.950503  1
  P  P7  1  0.751954  0.194511  0.549498  1
  P  P8  1  0.206769  0.119326  0.988984  1
  P  P9  1  0.119326  0.206769  0.511016  1
  P  P10  1  0.793231  0.880674  0.011016  1
  P  P11  1  0.880674  0.793231  0.488984  1
  O  O12  1  0.640808  0.335921  0.409381  1
  O  O13  1  0.335921  0.640808  0.090619  1
  O  O14  1  0.359192  0.664079  0.590619  1
  O  O15  1  0.664079  0.359192  0.909381  1
  O  O16  1  0.330304  0.751538  0.340669  1
  O  O17  1  0.751538  0.330304  0.159331  1
  O  O18  1  0.669696  0.248462  0.659331  1
  O  O19  1  0.248462  0.669696  0.840669  1
  O  O20  1  0.011182  0.857599  0.410221  1
  O  O21  1  0.857599  0.011182  0.089779  1
  O  O22  1  0.988818  0.142401  0.589779  1
  O  O23  1  0.142401  0.988818  0.910221  1
  O  O24  1  0.295010  0.189127  0.611877  1
  O  O25  1  0.189127  0.295010  0.888123  1
  O  O26  1  0.704990  0.810873  0.388123  1
  O  O27  1  0.810873  0.704990  0.111877  1
  O  O28  1  0.014162  0.600787  0.604401  1
  O  O29  1  0.600787  0.014162  0.895599  1
  O  O30  1  0.985838  0.399213  0.395599  1
  O  O31  1  0.399213  0.985838  0.104401  1
  O  O32  1  0.778602  0.972620  0.555073  1
  O  O33  1  0.972620  0.778602  0.944927  1
  O  O34  1  0.221398  0.027380  0.444927  1
  O  O35  1  0.027380  0.221398  0.055073  1
