# generated using pymatgen
data_NaCr3O8
_symmetry_space_group_name_H-M   'P 1'
_cell_length_a   5.16313241
_cell_length_b   5.16313241
_cell_length_c   7.02568525
_cell_angle_alpha   89.91587707
_cell_angle_beta   90.08412293
_cell_angle_gamma   115.01313969
_symmetry_Int_Tables_number   1
_chemical_formula_structural   NaCr3O8
_chemical_formula_sum   'Na1 Cr3 O8'
_cell_volume   169.72421591
_cell_formula_units_Z   1
loop_
 _symmetry_equiv_pos_site_id
 _symmetry_equiv_pos_as_xyz
  1  'x, y, z'
loop_
 _atom_site_type_symbol
 _atom_site_label
 _atom_site_symmetry_multiplicity
 _atom_site_fract_x
 _atom_site_fract_y
 _atom_site_fract_z
 _atom_site_occupancy
  Na  Na0  1  0.000000  0.000000  0.000000  1
  Cr  Cr1  1  0.357264  0.642736  0.275716  1
  Cr  Cr2  1  0.000000  1.000000  0.500000  1
  Cr  Cr3  1  0.642736  0.357264  0.724284  1
  O  O4  1  0.719749  0.784942  0.295548  1
  O  O5  1  0.784942  0.719749  0.704452  1
  O  O6  1  0.280251  0.215058  0.704452  1
  O  O7  1  0.215058  0.280251  0.295548  1
  O  O8  1  0.776343  0.223657  0.556276  1
  O  O9  1  0.223657  0.776343  0.443724  1
  O  O10  1  0.278313  0.721687  0.067689  1
  O  O11  1  0.721687  0.278313  0.932311  1
