# generated using pymatgen
data_CaGeO3
_symmetry_space_group_name_H-M   'P 1'
_cell_length_a   7.38223341
_cell_length_b   7.63253017
_cell_length_c   8.25030150
_cell_angle_alpha   103.50140557
_cell_angle_beta   95.00802461
_cell_angle_gamma   90.14422712
_symmetry_Int_Tables_number   1
_chemical_formula_structural   CaGeO3
_chemical_formula_sum   'Ca6 Ge6 O18'
_cell_volume   450.16591027
_cell_formula_units_Z   6
loop_
 _symmetry_equiv_pos_site_id
 _symmetry_equiv_pos_as_xyz
  1  'x, y, z'
loop_
 _atom_site_type_symbol
 _atom_site_label
 _atom_site_symmetry_multiplicity
 _atom_site_fract_x
 _atom_site_fract_y
 _atom_site_fract_z
 _atom_site_occupancy
  Ca  Ca0  1  0.968698  0.247346  0.989660  1
  Ca  Ca1  1  0.031302  0.752654  0.010340  1
  Ca  Ca2  1  0.261027  0.926668  0.709393  1
  Ca  Ca3  1  0.738973  0.073332  0.290607  1
  Ca  Ca4  1  0.257863  0.427273  0.704930  1
  Ca  Ca5  1  0.742137  0.572727  0.295070  1
  Ge  Ge6  1  0.222386  0.055250  0.322685  1
  Ge  Ge7  1  0.777614  0.944750  0.677315  1
  Ge  Ge8  1  0.223915  0.607336  0.318814  1
  Ge  Ge9  1  0.776085  0.392664  0.681186  1
  Ge  Ge10  1  0.445343  0.274740  0.096694  1
  Ge  Ge11  1  0.554657  0.725260  0.903306  1
  O  O12  1  0.742560  0.181289  0.733628  1
  O  O13  1  0.257440  0.818711  0.266372  1
  O  O14  1  0.771888  0.370669  0.468281  1
  O  O15  1  0.228112  0.629331  0.531719  1
  O  O16  1  0.771821  0.864252  0.462040  1
  O  O17  1  0.228179  0.135748  0.537960  1
  O  O18  1  0.580326  0.871164  0.760039  1
  O  O19  1  0.419674  0.128836  0.239961  1
  O  O20  1  0.974464  0.925838  0.807145  1
  O  O21  1  0.025536  0.074162  0.192855  1
  O  O22  1  0.578551  0.502157  0.770109  1
  O  O23  1  0.421449  0.497843  0.229891  1
  O  O24  1  0.682445  0.272830  0.099554  1
  O  O25  1  0.317555  0.727170  0.900446  1
  O  O26  1  0.287618  0.226738  0.921599  1
  O  O27  1  0.712382  0.773262  0.078401  1
  O  O28  1  0.026064  0.524315  0.188714  1
  O  O29  1  0.973936  0.475685  0.811286  1
