# generated using pymatgen
data_RbSm2CuS4
_symmetry_space_group_name_H-M   'P 1'
_cell_length_a   7.29533706
_cell_length_b   7.29533706
_cell_length_c   13.97038128
_cell_angle_alpha   90.00000000
_cell_angle_beta   90.00000000
_cell_angle_gamma   147.74542238
_symmetry_Int_Tables_number   1
_chemical_formula_structural   RbSm2CuS4
_chemical_formula_sum   'Rb2 Sm4 Cu2 S8'
_cell_volume   396.80908406
_cell_formula_units_Z   2
loop_
 _symmetry_equiv_pos_site_id
 _symmetry_equiv_pos_as_xyz
  1  'x, y, z'
loop_
 _atom_site_type_symbol
 _atom_site_label
 _atom_site_symmetry_multiplicity
 _atom_site_fract_x
 _atom_site_fract_y
 _atom_site_fract_z
 _atom_site_occupancy
  Rb  Rb0  1  0.106434  0.893566  0.250000  1
  Rb  Rb1  1  0.893566  0.106434  0.750000  1
  Sm  Sm2  1  0.634376  0.365624  0.938246  1
  Sm  Sm3  1  0.365624  0.634376  0.438246  1
  Sm  Sm4  1  0.634376  0.365624  0.561754  1
  Sm  Sm5  1  0.365624  0.634376  0.061754  1
  Cu  Cu6  1  0.164759  0.835241  0.750000  1
  Cu  Cu7  1  0.835241  0.164759  0.250000  1
  S  S8  1  0.000000  0.000000  0.500000  1
  S  S9  1  0.000000  0.000000  0.000000  1
  S  S10  1  0.424473  0.575527  0.250000  1
  S  S11  1  0.575527  0.424473  0.750000  1
  S  S12  1  0.740084  0.259916  0.388745  1
  S  S13  1  0.259916  0.740084  0.888745  1
  S  S14  1  0.259916  0.740084  0.611255  1
  S  S15  1  0.740084  0.259916  0.111255  1
