# generated using pymatgen
data_TbCu(BO2)5
_symmetry_space_group_name_H-M   'P 1'
_cell_length_a   8.32588360
_cell_length_b   8.32588360
_cell_length_c   8.32588360
_cell_angle_alpha   134.83010491
_cell_angle_beta   118.25055585
_cell_angle_gamma   79.72719769
_symmetry_Int_Tables_number   1
_chemical_formula_structural   TbCu(BO2)5
_chemical_formula_sum   'Tb2 Cu2 B10 O20'
_cell_volume   349.23386057
_cell_formula_units_Z   2
loop_
 _symmetry_equiv_pos_site_id
 _symmetry_equiv_pos_as_xyz
  1  'x, y, z'
loop_
 _atom_site_type_symbol
 _atom_site_label
 _atom_site_symmetry_multiplicity
 _atom_site_fract_x
 _atom_site_fract_y
 _atom_site_fract_z
 _atom_site_occupancy
  Tb  Tb0  1  0.250000  0.750000  0.500000  1
  Tb  Tb1  1  0.750000  0.250000  0.500000  1
  Cu  Cu2  1  0.000000  0.500000  0.500000  1
  Cu  Cu3  1  0.500000  0.000000  0.500000  1
  B  B4  1  0.250000  0.250000  0.000000  1
  B  B5  1  0.750000  0.750000  0.000000  1
  B  B6  1  0.908822  0.212617  0.924999  1
  B  B7  1  0.287618  0.983823  0.075001  1
  B  B8  1  0.591178  0.516177  0.303795  1
  B  B9  1  0.212382  0.287383  0.696205  1
  B  B10  1  0.091178  0.787383  0.075001  1
  B  B11  1  0.712382  0.016177  0.924999  1
  B  B12  1  0.408822  0.483823  0.696205  1
  B  B13  1  0.787618  0.712617  0.303795  1
  O  O14  1  0.908162  0.667517  0.946647  1
  O  O15  1  0.408162  0.461515  0.240645  1
  O  O16  1  0.622681  0.648541  0.271222  1
  O  O17  1  0.377319  0.351459  0.728778  1
  O  O18  1  0.220870  0.167517  0.759355  1
  O  O19  1  0.877319  0.148541  0.025860  1
  O  O20  1  0.779130  0.832483  0.240645  1
  O  O21  1  0.591838  0.538485  0.759355  1
  O  O22  1  0.279130  0.038485  0.946647  1
  O  O23  1  0.091838  0.332483  0.053353  1
  O  O24  1  0.951566  0.668889  0.399516  1
  O  O25  1  0.269372  0.552050  0.600484  1
  O  O26  1  0.451566  0.052050  0.282678  1
  O  O27  1  0.769372  0.168889  0.717322  1
  O  O28  1  0.730628  0.447950  0.399516  1
  O  O29  1  0.048434  0.331111  0.600484  1
  O  O30  1  0.230628  0.831111  0.282678  1
  O  O31  1  0.548434  0.947950  0.717322  1
  O  O32  1  0.122681  0.851459  0.974140  1
  O  O33  1  0.720870  0.961515  0.053353  1
