# generated using pymatgen
data_Na5SiAs3
_symmetry_space_group_name_H-M   'P 1'
_cell_length_a   8.26063684
_cell_length_b   7.57475755
_cell_length_c   15.79008244
_cell_angle_alpha   90.00000000
_cell_angle_beta   121.08042395
_cell_angle_gamma   90.00000000
_symmetry_Int_Tables_number   1
_chemical_formula_structural   Na5SiAs3
_chemical_formula_sum   'Na20 Si4 As12'
_cell_volume   846.18513167
_cell_formula_units_Z   4
loop_
 _symmetry_equiv_pos_site_id
 _symmetry_equiv_pos_as_xyz
  1  'x, y, z'
loop_
 _atom_site_type_symbol
 _atom_site_label
 _atom_site_symmetry_multiplicity
 _atom_site_fract_x
 _atom_site_fract_y
 _atom_site_fract_z
 _atom_site_occupancy
  Na  Na0  1  0.560789  0.505973  0.243331  1
  Na  Na1  1  0.439211  0.005973  0.256669  1
  Na  Na2  1  0.439211  0.494027  0.756669  1
  Na  Na3  1  0.560789  0.994027  0.743331  1
  Na  Na4  1  0.251653  0.967377  0.416383  1
  Na  Na5  1  0.748347  0.467377  0.083617  1
  Na  Na6  1  0.748347  0.032623  0.583617  1
  Na  Na7  1  0.251653  0.532623  0.916383  1
  Na  Na8  1  0.088110  0.482007  0.413433  1
  Na  Na9  1  0.911890  0.982007  0.086567  1
  Na  Na10  1  0.911890  0.517993  0.586567  1
  Na  Na11  1  0.088110  0.017993  0.913433  1
  Na  Na12  1  0.158034  0.337062  0.081281  1
  Na  Na13  1  0.841966  0.837062  0.418719  1
  Na  Na14  1  0.841966  0.662938  0.918719  1
  Na  Na15  1  0.158034  0.162938  0.581281  1
  Na  Na16  1  0.833732  0.150359  0.258479  1
  Na  Na17  1  0.166268  0.650359  0.241521  1
  Na  Na18  1  0.166268  0.849641  0.741521  1
  Na  Na19  1  0.833732  0.349641  0.758479  1
  Si  Si20  1  0.485701  0.140374  0.915355  1
  Si  Si21  1  0.514299  0.640374  0.584645  1
  Si  Si22  1  0.514299  0.859626  0.084645  1
  Si  Si23  1  0.485701  0.359626  0.415355  1
  As  As24  1  0.759569  0.238311  0.419781  1
  As  As25  1  0.240431  0.738311  0.080219  1
  As  As26  1  0.240431  0.761689  0.580219  1
  As  As27  1  0.759569  0.261689  0.919781  1
  As  As28  1  0.193091  0.265293  0.275830  1
  As  As29  1  0.806909  0.765293  0.224170  1
  As  As30  1  0.806909  0.734707  0.724170  1
  As  As31  1  0.193091  0.234707  0.775830  1
  As  As32  1  0.477227  0.183398  0.066208  1
  As  As33  1  0.522773  0.683398  0.433792  1
  As  As34  1  0.522773  0.816602  0.933792  1
  As  As35  1  0.477227  0.316602  0.566208  1
