# generated using pymatgen
data_Ba3Er4O9
_symmetry_space_group_name_H-M   'P 1'
_cell_length_a   9.16862361
_cell_length_b   9.16862361
_cell_length_c   9.16862361
_cell_angle_alpha   38.88120094
_cell_angle_beta   38.88120094
_cell_angle_gamma   38.88120094
_symmetry_Int_Tables_number   1
_chemical_formula_structural   Ba3Er4O9
_chemical_formula_sum   'Ba3 Er4 O9'
_cell_volume   273.05025783
_cell_formula_units_Z   1
loop_
 _symmetry_equiv_pos_site_id
 _symmetry_equiv_pos_as_xyz
  1  'x, y, z'
loop_
 _atom_site_type_symbol
 _atom_site_label
 _atom_site_symmetry_multiplicity
 _atom_site_fract_x
 _atom_site_fract_y
 _atom_site_fract_z
 _atom_site_occupancy
  Ba  Ba0  1  0.999852  0.999852  0.999852  1
  Ba  Ba1  1  0.834820  0.834820  0.834820  1
  Ba  Ba2  1  0.421553  0.421553  0.421553  1
  Er  Er3  1  0.573822  0.573822  0.573822  1
  Er  Er4  1  0.135164  0.135164  0.135164  1
  Er  Er5  1  0.260622  0.260622  0.260622  1
  Er  Er6  1  0.698763  0.698763  0.698763  1
  O  O7  1  0.421943  0.957633  0.537679  1
  O  O8  1  0.957633  0.537679  0.421943  1
  O  O9  1  0.537679  0.421943  0.957633  1
  O  O10  1  0.305108  0.872302  0.403101  1
  O  O11  1  0.872302  0.403101  0.305108  1
  O  O12  1  0.403101  0.305108  0.872302  1
  O  O13  1  0.418304  0.859955  0.973180  1
  O  O14  1  0.973180  0.418304  0.859955  1
  O  O15  1  0.859955  0.973180  0.418304  1
