# generated using pymatgen
data_DyCrO4
_symmetry_space_group_name_H-M   'P 1'
_cell_length_a   5.99283733
_cell_length_b   5.99283733
_cell_length_c   5.99283733
_cell_angle_alpha   105.98812991
_cell_angle_beta   105.98812991
_cell_angle_gamma   116.68746851
_symmetry_Int_Tables_number   1
_chemical_formula_structural   DyCrO4
_chemical_formula_sum   'Dy2 Cr2 O8'
_cell_volume   163.68729967
_cell_formula_units_Z   2
loop_
 _symmetry_equiv_pos_site_id
 _symmetry_equiv_pos_as_xyz
  1  'x, y, z'
loop_
 _atom_site_type_symbol
 _atom_site_label
 _atom_site_symmetry_multiplicity
 _atom_site_fract_x
 _atom_site_fract_y
 _atom_site_fract_z
 _atom_site_occupancy
  Dy  Dy0  1  0.750000  0.250000  0.500000  1
  Dy  Dy1  1  0.500000  0.500000  0.000000  1
  Cr  Cr2  1  0.250000  0.750000  0.500000  1
  Cr  Cr3  1  0.000000  0.000000  0.000000  1
  O  O4  1  0.358816  0.174749  0.184066  1
  O  O5  1  0.424749  0.740683  0.315934  1
  O  O6  1  0.424749  0.108816  0.684066  1
  O  O7  1  0.990683  0.174749  0.815934  1
  O  O8  1  0.825251  0.009317  0.184066  1
  O  O9  1  0.891184  0.575251  0.315934  1
  O  O10  1  0.259317  0.575251  0.684066  1
  O  O11  1  0.825251  0.641184  0.815934  1
