# generated using pymatgen
data_CaZn2(PO4)2
_symmetry_space_group_name_H-M   'P 1'
_cell_length_a   5.04255695
_cell_length_b   8.53745980
_cell_length_c   9.08796753
_cell_angle_alpha   113.47630334
_cell_angle_beta   102.21131927
_cell_angle_gamma   94.09643329
_symmetry_Int_Tables_number   1
_chemical_formula_structural   CaZn2(PO4)2
_chemical_formula_sum   'Ca2 Zn4 P4 O16'
_cell_volume   345.40772784
_cell_formula_units_Z   2
loop_
 _symmetry_equiv_pos_site_id
 _symmetry_equiv_pos_as_xyz
  1  'x, y, z'
loop_
 _atom_site_type_symbol
 _atom_site_label
 _atom_site_symmetry_multiplicity
 _atom_site_fract_x
 _atom_site_fract_y
 _atom_site_fract_z
 _atom_site_occupancy
  Ca  Ca0  1  0.775140  0.267456  0.947546  1
  Ca  Ca1  1  0.224860  0.732544  0.052454  1
  Zn  Zn2  1  0.617366  0.389883  0.588697  1
  Zn  Zn3  1  0.382634  0.610117  0.411303  1
  Zn  Zn4  1  0.842512  0.083310  0.288067  1
  Zn  Zn5  1  0.157488  0.916690  0.711933  1
  P  P6  1  0.890255  0.719160  0.302535  1
  P  P7  1  0.109745  0.280840  0.697465  1
  P  P8  1  0.320488  0.208740  0.182425  1
  P  P9  1  0.679512  0.791260  0.817575  1
  O  O10  1  0.039773  0.438935  0.832270  1
  O  O11  1  0.960227  0.561065  0.167730  1
  O  O12  1  0.441775  0.052156  0.199628  1
  O  O13  1  0.558225  0.947844  0.800372  1
  O  O14  1  0.061062  0.727468  0.474436  1
  O  O15  1  0.938938  0.272532  0.525564  1
  O  O16  1  0.996310  0.117587  0.715401  1
  O  O17  1  0.003690  0.882413  0.284599  1
  O  O18  1  0.432680  0.367177  0.358414  1
  O  O19  1  0.567320  0.632823  0.641586  1
  O  O20  1  0.608039  0.743257  0.950183  1
  O  O21  1  0.391961  0.256743  0.049817  1
  O  O22  1  0.421034  0.288332  0.704752  1
  O  O23  1  0.578966  0.711668  0.295248  1
  O  O24  1  0.999442  0.829354  0.851946  1
  O  O25  1  0.000558  0.170646  0.148054  1
