# generated using pymatgen
data_TlPO4
_symmetry_space_group_name_H-M   'P 1'
_cell_length_a   4.96573705
_cell_length_b   4.96573705
_cell_length_c   7.25969767
_cell_angle_alpha   90.00000000
_cell_angle_beta   90.00000000
_cell_angle_gamma   112.76390645
_symmetry_Int_Tables_number   1
_chemical_formula_structural   TlPO4
_chemical_formula_sum   'Tl2 P2 O8'
_cell_volume   165.06968847
_cell_formula_units_Z   2
loop_
 _symmetry_equiv_pos_site_id
 _symmetry_equiv_pos_as_xyz
  1  'x, y, z'
loop_
 _atom_site_type_symbol
 _atom_site_label
 _atom_site_symmetry_multiplicity
 _atom_site_fract_x
 _atom_site_fract_y
 _atom_site_fract_z
 _atom_site_occupancy
  Tl  Tl0  1  0.000000  0.000000  0.500000  1
  Tl  Tl1  1  0.000000  0.000000  0.000000  1
  P  P2  1  0.350481  0.649519  0.750000  1
  P  P3  1  0.649519  0.350481  0.250000  1
  O  O4  1  0.745012  0.254988  0.431631  1
  O  O5  1  0.254988  0.745012  0.931631  1
  O  O6  1  0.254988  0.745012  0.568369  1
  O  O7  1  0.745012  0.254988  0.068369  1
  O  O8  1  0.770300  0.694888  0.250000  1
  O  O9  1  0.229700  0.305112  0.750000  1
  O  O10  1  0.694888  0.770300  0.750000  1
  O  O11  1  0.305112  0.229700  0.250000  1
