# generated using pymatgen
data_BaMn2V2O8
_symmetry_space_group_name_H-M   'P 1'
_cell_length_a   10.08841019
_cell_length_b   10.08841019
_cell_length_c   10.08841019
_cell_angle_alpha   101.09306196
_cell_angle_beta   101.09306196
_cell_angle_gamma   127.96599785
_symmetry_Int_Tables_number   1
_chemical_formula_structural   BaMn2V2O8
_chemical_formula_sum   'Ba4 Mn8 V8 O32'
_cell_volume   727.44286891
_cell_formula_units_Z   4
loop_
 _symmetry_equiv_pos_site_id
 _symmetry_equiv_pos_as_xyz
  1  'x, y, z'
loop_
 _atom_site_type_symbol
 _atom_site_label
 _atom_site_symmetry_multiplicity
 _atom_site_fract_x
 _atom_site_fract_y
 _atom_site_fract_z
 _atom_site_occupancy
  Ba  Ba0  1  0.750000  0.250000  0.500000  1
  Ba  Ba1  1  0.500000  0.500000  0.000000  1
  Ba  Ba2  1  0.250000  0.750000  0.500000  1
  Ba  Ba3  1  0.000000  0.000000  0.000000  1
  Mn  Mn4  1  0.582278  0.917722  0.000000  1
  Mn  Mn5  1  0.832278  0.332278  0.164557  1
  Mn  Mn6  1  0.167722  0.667722  0.835443  1
  Mn  Mn7  1  0.917722  0.582278  1.000000  1
  Mn  Mn8  1  0.667722  0.832278  0.500000  1
  Mn  Mn9  1  0.417722  0.417722  0.335443  1
  Mn  Mn10  1  0.082278  0.082278  0.664557  1
  Mn  Mn11  1  0.332278  0.167722  0.500000  1
  V  V12  1  0.875000  0.204793  0.829793  1
  V  V13  1  0.295207  0.625000  0.170207  1
  V  V14  1  0.454793  0.125000  0.829793  1
  V  V15  1  0.375000  0.045207  0.170207  1
  V  V16  1  0.375000  0.545207  0.670207  1
  V  V17  1  0.954793  0.125000  0.329793  1
  V  V18  1  0.795207  0.625000  0.670207  1
  V  V19  1  0.875000  0.704793  0.329793  1
  O  O20  1  0.375331  0.215871  0.162176  1
  O  O21  1  0.053694  0.213155  0.837824  1
  O  O22  1  0.463155  0.125331  0.659460  1
  O  O23  1  0.465871  0.803694  0.340540  1
  O  O24  1  0.696306  0.034129  0.659460  1
  O  O25  1  0.286845  0.446306  0.162176  1
  O  O26  1  0.284129  0.124669  0.837824  1
  O  O27  1  0.374669  0.036845  0.340540  1
  O  O28  1  0.874669  0.534129  0.337824  1
  O  O29  1  0.196306  0.536845  0.662176  1
  O  O30  1  0.786845  0.624669  0.840540  1
  O  O31  1  0.784129  0.946306  0.159460  1
  O  O32  1  0.553694  0.715871  0.840540  1
  O  O33  1  0.963155  0.303694  0.337824  1
  O  O34  1  0.965871  0.625331  0.662176  1
  O  O35  1  0.875331  0.713155  0.159460  1
  O  O36  1  0.172248  0.837555  0.023375  1
  O  O37  1  0.814180  0.148873  0.976625  1
  O  O38  1  0.398873  0.922248  0.834693  1
  O  O39  1  0.087555  0.564180  0.165307  1
  O  O40  1  0.672248  0.648873  0.334693  1
  O  O41  1  0.587555  0.422248  0.523375  1
  O  O42  1  0.898873  0.064180  0.476625  1
  O  O43  1  0.314180  0.337555  0.665307  1
  O  O44  1  0.162445  0.185820  0.334693  1
  O  O45  1  0.851127  0.827752  0.665307  1
  O  O46  1  0.435820  0.601127  0.523375  1
  O  O47  1  0.077752  0.912445  0.476625  1
  O  O48  1  0.577752  0.101127  0.165307  1
  O  O49  1  0.662445  0.327752  0.976625  1
  O  O50  1  0.351127  0.685820  0.023375  1
  O  O51  1  0.935820  0.412445  0.834693  1
