# generated using pymatgen
data_NaYb(PS3)2
_symmetry_space_group_name_H-M   'P 1'
_cell_length_a   7.32236704
_cell_length_b   7.34485264
_cell_length_c   9.87572312
_cell_angle_alpha   87.28203744
_cell_angle_beta   75.24000764
_cell_angle_gamma   87.97242896
_symmetry_Int_Tables_number   1
_chemical_formula_structural   NaYb(PS3)2
_chemical_formula_sum   'Na2 Yb2 P4 S12'
_cell_volume   512.87960545
_cell_formula_units_Z   2
loop_
 _symmetry_equiv_pos_site_id
 _symmetry_equiv_pos_as_xyz
  1  'x, y, z'
loop_
 _atom_site_type_symbol
 _atom_site_label
 _atom_site_symmetry_multiplicity
 _atom_site_fract_x
 _atom_site_fract_y
 _atom_site_fract_z
 _atom_site_occupancy
  Na  Na0  1  0.523887  0.372506  0.329649  1
  Na  Na1  1  0.476113  0.627494  0.670351  1
  Yb  Yb2  1  0.950890  0.117002  0.717508  1
  Yb  Yb3  1  0.049110  0.882998  0.282492  1
  P  P4  1  0.734713  0.030085  0.059939  1
  P  P5  1  0.265287  0.969915  0.940061  1
  P  P6  1  0.053920  0.605220  0.558952  1
  P  P7  1  0.946080  0.394780  0.441048  1
  S  S8  1  0.668518  0.003106  0.266190  1
  S  S9  1  0.670621  0.255521  0.967536  1
  S  S10  1  0.912678  0.516202  0.261436  1
  S  S11  1  0.331482  0.996894  0.733810  1
  S  S12  1  0.849926  0.808473  0.575504  1
  S  S13  1  0.087322  0.483798  0.738564  1
  S  S14  1  0.150074  0.191527  0.424496  1
  S  S15  1  0.855906  0.827679  0.945153  1
  S  S16  1  0.299048  0.696973  0.426692  1
  S  S17  1  0.700952  0.303027  0.573308  1
  S  S18  1  0.144094  0.172321  0.054847  1
  S  S19  1  0.329379  0.744479  0.032464  1
