# generated using pymatgen
data_Na6Sn2Se7
_symmetry_space_group_name_H-M   'P 1'
_cell_length_a   7.50481090
_cell_length_b   7.50481090
_cell_length_c   16.23140669
_cell_angle_alpha   80.56137238
_cell_angle_beta   99.43862762
_cell_angle_gamma   81.81420051
_symmetry_Int_Tables_number   1
_chemical_formula_structural   Na6Sn2Se7
_chemical_formula_sum   'Na12 Sn4 Se14'
_cell_volume   876.03977169
_cell_formula_units_Z   2
loop_
 _symmetry_equiv_pos_site_id
 _symmetry_equiv_pos_as_xyz
  1  'x, y, z'
loop_
 _atom_site_type_symbol
 _atom_site_label
 _atom_site_symmetry_multiplicity
 _atom_site_fract_x
 _atom_site_fract_y
 _atom_site_fract_z
 _atom_site_occupancy
  Na  Na0  1  0.572728  0.572728  0.250000  1
  Na  Na1  1  0.751247  0.957845  0.929334  1
  Na  Na2  1  0.957845  0.751247  0.570666  1
  Na  Na3  1  0.500363  0.041884  0.361198  1
  Na  Na4  1  0.041884  0.500363  0.138802  1
  Na  Na5  1  0.499637  0.958116  0.638802  1
  Na  Na6  1  0.958116  0.499637  0.861198  1
  Na  Na7  1  0.500000  0.500000  0.500000  1
  Na  Na8  1  0.500000  0.500000  0.000000  1
  Na  Na9  1  0.248753  0.042155  0.070666  1
  Na  Na10  1  0.427272  0.427272  0.750000  1
  Na  Na11  1  0.042155  0.248753  0.429334  1
  Sn  Sn12  1  0.752789  0.072788  0.137344  1
  Sn  Sn13  1  0.072788  0.752789  0.362656  1
  Sn  Sn14  1  0.927212  0.247211  0.637344  1
  Sn  Sn15  1  0.247211  0.927212  0.862656  1
  Se  Se16  1  0.685705  0.769320  0.102795  1
  Se  Se17  1  0.048606  0.048606  0.250000  1
  Se  Se18  1  0.769320  0.685705  0.397205  1
  Se  Se19  1  0.751934  0.520386  0.680888  1
  Se  Se20  1  0.230680  0.314295  0.602795  1
  Se  Se21  1  0.863906  0.269253  0.018271  1
  Se  Se22  1  0.269253  0.863906  0.481729  1
  Se  Se23  1  0.136094  0.730747  0.981729  1
  Se  Se24  1  0.730747  0.136094  0.518271  1
  Se  Se25  1  0.479614  0.248066  0.180888  1
  Se  Se26  1  0.248066  0.479614  0.319112  1
  Se  Se27  1  0.520386  0.751934  0.819112  1
  Se  Se28  1  0.951394  0.951394  0.750000  1
  Se  Se29  1  0.314295  0.230680  0.897205  1
