# generated using pymatgen
data_Ba3P4
_symmetry_space_group_name_H-M   'P 1'
_cell_length_a   11.88555529
_cell_length_b   9.72635779
_cell_length_c   8.13218249
_cell_angle_alpha   82.93098250
_cell_angle_beta   54.30297803
_cell_angle_gamma   42.76603947
_symmetry_Int_Tables_number   1
_chemical_formula_structural   Ba3P4
_chemical_formula_sum   'Ba6 P8'
_cell_volume   431.69908576
_cell_formula_units_Z   2
loop_
 _symmetry_equiv_pos_site_id
 _symmetry_equiv_pos_as_xyz
  1  'x, y, z'
loop_
 _atom_site_type_symbol
 _atom_site_label
 _atom_site_symmetry_multiplicity
 _atom_site_fract_x
 _atom_site_fract_y
 _atom_site_fract_z
 _atom_site_occupancy
  Ba  Ba0  1  0.080415  0.582411  0.928706  1
  Ba  Ba1  1  0.408468  0.928706  0.582411  1
  Ba  Ba2  1  0.321294  0.841532  0.169585  1
  Ba  Ba3  1  0.667589  0.169585  0.841532  1
  Ba  Ba4  1  0.996381  0.503619  0.503619  1
  Ba  Ba5  1  0.746381  0.253619  0.253619  1
  P  P6  1  0.430470  0.075615  0.914030  1
  P  P7  1  0.579885  0.914030  0.075615  1
  P  P8  1  0.335970  0.670115  0.819530  1
  P  P9  1  0.174385  0.819530  0.670115  1
  P  P10  1  0.805853  0.542493  0.000487  1
  P  P11  1  0.651168  0.000487  0.542493  1
  P  P12  1  0.707507  0.444147  0.598832  1
  P  P13  1  0.249513  0.598832  0.444147  1
