# generated using pymatgen
data_YGaO3
_symmetry_space_group_name_H-M   'P 1'
_cell_length_a   6.13362259
_cell_length_b   6.13362259
_cell_length_c   11.73154421
_cell_angle_alpha   90.00000000
_cell_angle_beta   90.00000000
_cell_angle_gamma   120.00000000
_symmetry_Int_Tables_number   1
_chemical_formula_structural   YGaO3
_chemical_formula_sum   'Y6 Ga6 O18'
_cell_volume   382.22572455
_cell_formula_units_Z   6
loop_
 _symmetry_equiv_pos_site_id
 _symmetry_equiv_pos_as_xyz
  1  'x, y, z'
loop_
 _atom_site_type_symbol
 _atom_site_label
 _atom_site_symmetry_multiplicity
 _atom_site_fract_x
 _atom_site_fract_y
 _atom_site_fract_z
 _atom_site_occupancy
  Y  Y0  1  0.666667  0.333333  0.230015  1
  Y  Y1  1  0.333333  0.666667  0.730015  1
  Y  Y2  1  0.666667  0.333333  0.730015  1
  Y  Y3  1  0.333333  0.666667  0.230015  1
  Y  Y4  1  0.000000  0.000000  0.770874  1
  Y  Y5  1  0.000000  0.000000  0.270874  1
  Ga  Ga6  1  0.665716  0.000000  0.496740  1
  Ga  Ga7  1  0.665716  0.665716  0.996741  1
  Ga  Ga8  1  0.000000  0.334284  0.996741  1
  Ga  Ga9  1  0.000000  0.665716  0.496740  1
  Ga  Ga10  1  0.334284  0.334284  0.496740  1
  Ga  Ga11  1  0.334284  0.000000  0.996741  1
  O  O12  1  0.666667  0.333333  0.015836  1
  O  O13  1  0.333333  0.666667  0.515836  1
  O  O14  1  0.666667  0.333333  0.515836  1
  O  O15  1  0.333333  0.666667  0.015836  1
  O  O16  1  0.000000  0.000000  0.974406  1
  O  O17  1  0.000000  0.000000  0.474406  1
  O  O18  1  0.358848  0.000000  0.835357  1
  O  O19  1  0.358848  0.358848  0.335357  1
  O  O20  1  0.000000  0.641152  0.335357  1
  O  O21  1  0.000000  0.358848  0.835357  1
  O  O22  1  0.641152  0.641152  0.835357  1
  O  O23  1  0.641152  0.000000  0.335357  1
  O  O24  1  0.307379  0.000000  0.159242  1
  O  O25  1  0.307379  0.307379  0.659242  1
  O  O26  1  0.000000  0.692621  0.659242  1
  O  O27  1  0.000000  0.307379  0.159242  1
  O  O28  1  0.692621  0.692621  0.159242  1
  O  O29  1  0.692621  0.000000  0.659242  1
