# generated using pymatgen
data_Cd3TeO6
_symmetry_space_group_name_H-M   'P 1'
_cell_length_a   5.59132426
_cell_length_b   5.73240452
_cell_length_c   9.93018818
_cell_angle_alpha   90.00000000
_cell_angle_beta   124.11559033
_cell_angle_gamma   90.00000000
_symmetry_Int_Tables_number   1
_chemical_formula_structural   Cd3TeO6
_chemical_formula_sum   'Cd6 Te2 O12'
_cell_volume   263.50626019
_cell_formula_units_Z   2
loop_
 _symmetry_equiv_pos_site_id
 _symmetry_equiv_pos_as_xyz
  1  'x, y, z'
loop_
 _atom_site_type_symbol
 _atom_site_label
 _atom_site_symmetry_multiplicity
 _atom_site_fract_x
 _atom_site_fract_y
 _atom_site_fract_z
 _atom_site_occupancy
  Cd  Cd0  1  0.752595  0.455037  0.740538  1
  Cd  Cd1  1  0.247405  0.955037  0.759462  1
  Cd  Cd2  1  0.247405  0.544963  0.259462  1
  Cd  Cd3  1  0.752595  0.044963  0.240538  1
  Cd  Cd4  1  0.500000  0.500000  0.000000  1
  Cd  Cd5  1  0.500000  0.000000  0.500000  1
  Te  Te6  1  0.000000  0.500000  0.500000  1
  Te  Te7  1  0.000000  0.000000  0.000000  1
  O  O8  1  0.084080  0.778008  0.416994  1
  O  O9  1  0.915920  0.278008  0.083006  1
  O  O10  1  0.915920  0.221992  0.583006  1
  O  O11  1  0.084080  0.721992  0.916994  1
  O  O12  1  0.761179  0.677156  0.550084  1
  O  O13  1  0.238821  0.177156  0.949916  1
  O  O14  1  0.238821  0.322844  0.449916  1
  O  O15  1  0.761179  0.822844  0.050084  1
  O  O16  1  0.340559  0.924445  0.220380  1
  O  O17  1  0.659441  0.424445  0.279620  1
  O  O18  1  0.659441  0.075555  0.779620  1
  O  O19  1  0.340559  0.575555  0.720380  1
