# generated using pymatgen
data_K2RbPdF5
_symmetry_space_group_name_H-M   'P 1'
_cell_length_a   7.35296434
_cell_length_b   7.35296434
_cell_length_c   6.35872981
_cell_angle_alpha   90.00000000
_cell_angle_beta   90.00000000
_cell_angle_gamma   90.00000000
_symmetry_Int_Tables_number   1
_chemical_formula_structural   K2RbPdF5
_chemical_formula_sum   'K4 Rb2 Pd2 F10'
_cell_volume   343.79162376
_cell_formula_units_Z   2
loop_
 _symmetry_equiv_pos_site_id
 _symmetry_equiv_pos_as_xyz
  1  'x, y, z'
loop_
 _atom_site_type_symbol
 _atom_site_label
 _atom_site_symmetry_multiplicity
 _atom_site_fract_x
 _atom_site_fract_y
 _atom_site_fract_z
 _atom_site_occupancy
  K  K0  1  0.176537  0.323463  0.500000  1
  K  K1  1  0.676537  0.176537  0.500000  1
  K  K2  1  0.323463  0.823463  0.500000  1
  K  K3  1  0.823463  0.676537  0.500000  1
  Rb  Rb4  1  0.000000  0.000000  0.000000  1
  Rb  Rb5  1  0.500000  0.500000  0.000000  1
  Pd  Pd6  1  0.500000  0.000000  0.000000  1
  Pd  Pd7  1  0.000000  0.500000  0.000000  1
  F  F8  1  0.134795  0.634795  0.778226  1
  F  F9  1  0.865205  0.365205  0.778226  1
  F  F10  1  0.365205  0.134795  0.778226  1
  F  F11  1  0.634795  0.865205  0.778226  1
  F  F12  1  0.134795  0.634795  0.221774  1
  F  F13  1  0.634795  0.865205  0.221774  1
  F  F14  1  0.365205  0.134795  0.221774  1
  F  F15  1  0.865205  0.365205  0.221774  1
  F  F16  1  0.000000  0.000000  0.500000  1
  F  F17  1  0.500000  0.500000  0.500000  1
