# generated using pymatgen
data_K2MnSO4F3
_symmetry_space_group_name_H-M   'P 1'
_cell_length_a   7.40239533
_cell_length_b   11.02287493
_cell_length_c   8.61656514
_cell_angle_alpha   90.00000000
_cell_angle_beta   92.41797086
_cell_angle_gamma   90.00000000
_symmetry_Int_Tables_number   1
_chemical_formula_structural   K2MnSO4F3
_chemical_formula_sum   'K8 Mn4 S4 O16 F12'
_cell_volume   702.44848894
_cell_formula_units_Z   4
loop_
 _symmetry_equiv_pos_site_id
 _symmetry_equiv_pos_as_xyz
  1  'x, y, z'
loop_
 _atom_site_type_symbol
 _atom_site_label
 _atom_site_symmetry_multiplicity
 _atom_site_fract_x
 _atom_site_fract_y
 _atom_site_fract_z
 _atom_site_occupancy
  K  K0  1  0.683686  0.807003  0.335085  1
  K  K1  1  0.187711  0.807371  0.667270  1
  K  K2  1  0.316314  0.307003  0.164915  1
  K  K3  1  0.316314  0.192997  0.664915  1
  K  K4  1  0.812289  0.192629  0.332730  1
  K  K5  1  0.812289  0.307371  0.832730  1
  K  K6  1  0.187711  0.692629  0.167270  1
  K  K7  1  0.683686  0.692997  0.835085  1
  Mn  Mn8  1  0.500000  0.500000  0.500000  1
  Mn  Mn9  1  0.000000  0.000000  0.000000  1
  Mn  Mn10  1  0.000000  0.500000  0.500000  1
  Mn  Mn11  1  0.500000  0.000000  0.000000  1
  S  S12  1  0.247687  0.499552  0.811283  1
  S  S13  1  0.752313  0.999552  0.688717  1
  S  S14  1  0.752313  0.500448  0.188717  1
  S  S15  1  0.247687  0.000448  0.311283  1
  O  O16  1  0.328541  0.599567  0.903094  1
  O  O17  1  0.671459  0.099567  0.596906  1
  O  O18  1  0.671459  0.400433  0.096906  1
  O  O19  1  0.328541  0.900433  0.403094  1
  O  O20  1  0.158824  0.408027  0.905477  1
  O  O21  1  0.841176  0.908027  0.594523  1
  O  O22  1  0.841176  0.591973  0.094523  1
  O  O23  1  0.158824  0.091973  0.405477  1
  O  O24  1  0.106045  0.559877  0.699599  1
  O  O25  1  0.893955  0.059877  0.800401  1
  O  O26  1  0.893955  0.440123  0.300401  1
  O  O27  1  0.106045  0.940123  0.199599  1
  O  O28  1  0.614107  0.938833  0.784836  1
  O  O29  1  0.614107  0.561167  0.284836  1
  O  O30  1  0.385893  0.438833  0.715164  1
  O  O31  1  0.385893  0.061167  0.215164  1
  F  F32  1  0.476935  0.836998  0.053703  1
  F  F33  1  0.523065  0.336998  0.446297  1
  F  F34  1  0.523065  0.163002  0.946297  1
  F  F35  1  0.476935  0.663002  0.553703  1
  F  F36  1  0.737173  0.000478  0.110280  1
  F  F37  1  0.262827  0.500478  0.389720  1
  F  F38  1  0.262827  0.999522  0.889720  1
  F  F39  1  0.737173  0.499522  0.610280  1
  F  F40  1  0.022812  0.163064  0.061246  1
  F  F41  1  0.977188  0.836936  0.938754  1
  F  F42  1  0.022812  0.336936  0.561246  1
  F  F43  1  0.977188  0.663064  0.438754  1
