# generated using pymatgen
data_Li2WO4
_symmetry_space_group_name_H-M   'P 1'
_cell_length_a   9.07346055
_cell_length_b   9.07346055
_cell_length_c   9.07346055
_cell_angle_alpha   107.85401625
_cell_angle_beta   107.85401625
_cell_angle_gamma   107.85401625
_symmetry_Int_Tables_number   1
_chemical_formula_structural   Li2WO4
_chemical_formula_sum   'Li12 W6 O24'
_cell_volume   607.03040390
_cell_formula_units_Z   6
loop_
 _symmetry_equiv_pos_site_id
 _symmetry_equiv_pos_as_xyz
  1  'x, y, z'
loop_
 _atom_site_type_symbol
 _atom_site_label
 _atom_site_symmetry_multiplicity
 _atom_site_fract_x
 _atom_site_fract_y
 _atom_site_fract_z
 _atom_site_occupancy
  Li  Li0  1  0.722923  0.127069  0.892381  1
  Li  Li1  1  0.872931  0.107619  0.277077  1
  Li  Li2  1  0.203541  0.433415  0.609174  1
  Li  Li3  1  0.796459  0.566585  0.390826  1
  Li  Li4  1  0.433415  0.609174  0.203541  1
  Li  Li5  1  0.107619  0.277077  0.872931  1
  Li  Li6  1  0.390826  0.796459  0.566585  1
  Li  Li7  1  0.127069  0.892381  0.722923  1
  Li  Li8  1  0.892381  0.722923  0.127069  1
  Li  Li9  1  0.609174  0.203541  0.433415  1
  Li  Li10  1  0.566585  0.390826  0.796459  1
  Li  Li11  1  0.277077  0.872931  0.107619  1
  W  W12  1  0.945470  0.536958  0.768326  1
  W  W13  1  0.768326  0.945470  0.536958  1
  W  W14  1  0.536958  0.768326  0.945470  1
  W  W15  1  0.054530  0.463042  0.231674  1
  W  W16  1  0.463042  0.231674  0.054530  1
  W  W17  1  0.231674  0.054530  0.463042  1
  O  O18  1  0.008488  0.971236  0.307064  1
  O  O19  1  0.382864  0.683050  0.721699  1
  O  O20  1  0.991512  0.028764  0.692936  1
  O  O21  1  0.363396  0.042103  0.348155  1
  O  O22  1  0.721699  0.382864  0.683050  1
  O  O23  1  0.921964  0.576337  0.246451  1
  O  O24  1  0.576337  0.246451  0.921964  1
  O  O25  1  0.042103  0.348155  0.363396  1
  O  O26  1  0.692936  0.991512  0.028764  1
  O  O27  1  0.651845  0.636604  0.957897  1
  O  O28  1  0.278301  0.617136  0.316950  1
  O  O29  1  0.957897  0.651845  0.636604  1
  O  O30  1  0.316950  0.278301  0.617136  1
  O  O31  1  0.246451  0.921964  0.576337  1
  O  O32  1  0.683050  0.721699  0.382864  1
  O  O33  1  0.753549  0.078036  0.423663  1
  O  O34  1  0.348155  0.363396  0.042103  1
  O  O35  1  0.636604  0.957897  0.651845  1
  O  O36  1  0.971236  0.307064  0.008488  1
  O  O37  1  0.423663  0.753549  0.078036  1
  O  O38  1  0.078036  0.423663  0.753549  1
  O  O39  1  0.617136  0.316950  0.278301  1
  O  O40  1  0.307064  0.008488  0.971236  1
  O  O41  1  0.028764  0.692936  0.991512  1
