# generated using pymatgen
data_K3Sb
_symmetry_space_group_name_H-M   'P 1'
_cell_length_a   6.12772702
_cell_length_b   6.12772702
_cell_length_c   10.87737485
_cell_angle_alpha   90.00000000
_cell_angle_beta   90.00000000
_cell_angle_gamma   120.00000000
_symmetry_Int_Tables_number   1
_chemical_formula_structural   K3Sb
_chemical_formula_sum   'K6 Sb2'
_cell_volume   353.71505675
_cell_formula_units_Z   2
loop_
 _symmetry_equiv_pos_site_id
 _symmetry_equiv_pos_as_xyz
  1  'x, y, z'
loop_
 _atom_site_type_symbol
 _atom_site_label
 _atom_site_symmetry_multiplicity
 _atom_site_fract_x
 _atom_site_fract_y
 _atom_site_fract_z
 _atom_site_occupancy
  K  K0  1  0.333333  0.666667  0.919055  1
  K  K1  1  0.666667  0.333333  0.419055  1
  K  K2  1  0.000000  0.000000  0.250000  1
  K  K3  1  0.000000  0.000000  0.750000  1
  K  K4  1  0.333333  0.666667  0.580945  1
  K  K5  1  0.666667  0.333333  0.080945  1
  Sb  Sb6  1  0.666667  0.333333  0.750000  1
  Sb  Sb7  1  0.333333  0.666667  0.250000  1
