# generated using pymatgen
data_KSb
_symmetry_space_group_name_H-M   'P 1'
_cell_length_a   7.30612696
_cell_length_b   7.08454063
_cell_length_c   13.59663984
_cell_angle_alpha   90.00000000
_cell_angle_beta   115.04466493
_cell_angle_gamma   90.00000000
_symmetry_Int_Tables_number   1
_chemical_formula_structural   KSb
_chemical_formula_sum   'K8 Sb8'
_cell_volume   637.59981753
_cell_formula_units_Z   8
loop_
 _symmetry_equiv_pos_site_id
 _symmetry_equiv_pos_as_xyz
  1  'x, y, z'
loop_
 _atom_site_type_symbol
 _atom_site_label
 _atom_site_symmetry_multiplicity
 _atom_site_fract_x
 _atom_site_fract_y
 _atom_site_fract_z
 _atom_site_occupancy
  K  K0  1  0.218640  0.601676  0.330221  1
  K  K1  1  0.781360  0.101676  0.169779  1
  K  K2  1  0.781360  0.398324  0.669779  1
  K  K3  1  0.218640  0.898324  0.830221  1
  K  K4  1  0.243540  0.333944  0.034439  1
  K  K5  1  0.756460  0.833944  0.465561  1
  K  K6  1  0.756460  0.666056  0.965561  1
  K  K7  1  0.243540  0.166056  0.534439  1
  Sb  Sb8  1  0.322540  0.101271  0.286792  1
  Sb  Sb9  1  0.677460  0.601271  0.213208  1
  Sb  Sb10  1  0.677460  0.898729  0.713208  1
  Sb  Sb11  1  0.322540  0.398729  0.786792  1
  Sb  Sb12  1  0.321031  0.834414  0.123554  1
  Sb  Sb13  1  0.678969  0.334414  0.376446  1
  Sb  Sb14  1  0.678969  0.165586  0.876446  1
  Sb  Sb15  1  0.321031  0.665586  0.623554  1
