# generated using pymatgen
data_LiZnPO4
_symmetry_space_group_name_H-M   'P 1'
_cell_length_a   8.58166027
_cell_length_b   8.58166027
_cell_length_c   8.58166027
_cell_angle_alpha   107.89095560
_cell_angle_beta   107.89095560
_cell_angle_gamma   107.89095560
_symmetry_Int_Tables_number   1
_chemical_formula_structural   LiZnPO4
_chemical_formula_sum   'Li6 Zn6 P6 O24'
_cell_volume   513.00243065
_cell_formula_units_Z   6
loop_
 _symmetry_equiv_pos_site_id
 _symmetry_equiv_pos_as_xyz
  1  'x, y, z'
loop_
 _atom_site_type_symbol
 _atom_site_label
 _atom_site_symmetry_multiplicity
 _atom_site_fract_x
 _atom_site_fract_y
 _atom_site_fract_z
 _atom_site_occupancy
  Li  Li0  1  0.210456  0.612091  0.429292  1
  Li  Li1  1  0.893929  0.126937  0.721844  1
  Li  Li2  1  0.721844  0.893929  0.126937  1
  Li  Li3  1  0.126937  0.721844  0.893929  1
  Li  Li4  1  0.429292  0.210456  0.612091  1
  Li  Li5  1  0.612091  0.429292  0.210456  1
  Zn  Zn6  1  0.455393  0.052989  0.236278  1
  Zn  Zn7  1  0.236278  0.455393  0.052989  1
  Zn  Zn8  1  0.052989  0.236278  0.455393  1
  Zn  Zn9  1  0.537356  0.942497  0.769564  1
  Zn  Zn10  1  0.769564  0.537356  0.942497  1
  Zn  Zn11  1  0.942497  0.769564  0.537356  1
  P  P12  1  0.282031  0.094168  0.875809  1
  P  P13  1  0.875809  0.282031  0.094168  1
  P  P14  1  0.094168  0.875809  0.282031  1
  P  P15  1  0.568529  0.791441  0.385404  1
  P  P16  1  0.385404  0.568529  0.791441  1
  P  P17  1  0.791441  0.385404  0.568529  1
  O  O18  1  0.367950  0.688555  0.689120  1
  O  O19  1  0.646723  0.308908  0.368350  1
  O  O20  1  0.308908  0.368350  0.646723  1
  O  O21  1  0.743880  0.076409  0.020201  1
  O  O22  1  0.020201  0.743880  0.076409  1
  O  O23  1  0.076409  0.020201  0.743880  1
  O  O24  1  0.976560  0.301431  0.972714  1
  O  O25  1  0.972714  0.976560  0.301431  1
  O  O26  1  0.301431  0.972714  0.976560  1
  O  O27  1  0.368350  0.646723  0.308908  1
  O  O28  1  0.688555  0.689120  0.367950  1
  O  O29  1  0.689120  0.367950  0.688555  1
  O  O30  1  0.924736  0.589305  0.640379  1
  O  O31  1  0.589305  0.640379  0.924736  1
  O  O32  1  0.640379  0.924736  0.589305  1
  O  O33  1  0.019988  0.356655  0.293236  1
  O  O34  1  0.356655  0.293236  0.019988  1
  O  O35  1  0.293236  0.019988  0.356655  1
  O  O36  1  0.085573  0.764650  0.394701  1
  O  O37  1  0.764650  0.394701  0.085573  1
  O  O38  1  0.394701  0.085573  0.764650  1
  O  O39  1  0.900250  0.270992  0.581600  1
  O  O40  1  0.270992  0.581600  0.900250  1
  O  O41  1  0.581600  0.900250  0.270992  1
