# generated using pymatgen
data_KFe(MoO4)2
_symmetry_space_group_name_H-M   'P 1'
_cell_length_a   5.77998322
_cell_length_b   5.77998322
_cell_length_c   7.42429211
_cell_angle_alpha   90.00000000
_cell_angle_beta   90.00000000
_cell_angle_gamma   120.00000000
_symmetry_Int_Tables_number   1
_chemical_formula_structural   KFe(MoO4)2
_chemical_formula_sum   'K1 Fe1 Mo2 O8'
_cell_volume   214.80225571
_cell_formula_units_Z   1
loop_
 _symmetry_equiv_pos_site_id
 _symmetry_equiv_pos_as_xyz
  1  'x, y, z'
loop_
 _atom_site_type_symbol
 _atom_site_label
 _atom_site_symmetry_multiplicity
 _atom_site_fract_x
 _atom_site_fract_y
 _atom_site_fract_z
 _atom_site_occupancy
  K  K0  1  0.000000  0.000000  0.000000  1
  Fe  Fe1  1  0.000000  0.000000  0.500000  1
  Mo  Mo2  1  0.333333  0.666667  0.736144  1
  Mo  Mo3  1  0.666667  0.333333  0.263856  1
  O  O4  1  0.333333  0.666667  0.971909  1
  O  O5  1  0.666667  0.333333  0.028091  1
  O  O6  1  0.677774  0.838887  0.662032  1
  O  O7  1  0.161113  0.838887  0.662032  1
  O  O8  1  0.838887  0.677774  0.337968  1
  O  O9  1  0.322226  0.161113  0.337968  1
  O  O10  1  0.161113  0.322226  0.662032  1
  O  O11  1  0.838887  0.161113  0.337968  1
