# generated using pymatgen
data_Na2CoPO4F
_symmetry_space_group_name_H-M   'P 1'
_cell_length_a   5.29693160
_cell_length_b   11.79895107
_cell_length_c   13.93875968
_cell_angle_alpha   90.00000000
_cell_angle_beta   90.00000000
_cell_angle_gamma   90.00000000
_symmetry_Int_Tables_number   1
_chemical_formula_structural   Na2CoPO4F
_chemical_formula_sum   'Na16 Co8 P8 O32 F8'
_cell_volume   871.14790275
_cell_formula_units_Z   8
loop_
 _symmetry_equiv_pos_site_id
 _symmetry_equiv_pos_as_xyz
  1  'x, y, z'
loop_
 _atom_site_type_symbol
 _atom_site_label
 _atom_site_symmetry_multiplicity
 _atom_site_fract_x
 _atom_site_fract_y
 _atom_site_fract_z
 _atom_site_occupancy
  Na  Na0  1  0.736468  0.828705  0.745724  1
  Na  Na1  1  0.236468  0.171295  0.754276  1
  Na  Na2  1  0.763532  0.328705  0.754276  1
  Na  Na3  1  0.263532  0.671295  0.745724  1
  Na  Na4  1  0.263532  0.171295  0.254276  1
  Na  Na5  1  0.763532  0.828705  0.245724  1
  Na  Na6  1  0.236468  0.671295  0.245724  1
  Na  Na7  1  0.736468  0.328705  0.254276  1
  Na  Na8  1  0.757456  0.083528  0.376003  1
  Na  Na9  1  0.257456  0.916472  0.123997  1
  Na  Na10  1  0.742544  0.583528  0.123997  1
  Na  Na11  1  0.242544  0.416472  0.376003  1
  Na  Na12  1  0.242544  0.916472  0.623997  1
  Na  Na13  1  0.742544  0.083528  0.876003  1
  Na  Na14  1  0.257456  0.416472  0.876003  1
  Na  Na15  1  0.757456  0.583528  0.623997  1
  Co  Co16  1  0.780043  0.826579  0.511193  1
  Co  Co17  1  0.280043  0.173421  0.988807  1
  Co  Co18  1  0.719957  0.326579  0.988807  1
  Co  Co19  1  0.219957  0.673421  0.511193  1
  Co  Co20  1  0.219957  0.173421  0.488807  1
  Co  Co21  1  0.719957  0.826579  0.011193  1
  Co  Co22  1  0.280043  0.673421  0.011193  1
  Co  Co23  1  0.780043  0.326579  0.488807  1
  P  P24  1  0.293359  0.911947  0.382297  1
  P  P25  1  0.793359  0.088053  0.117703  1
  P  P26  1  0.206641  0.411947  0.117703  1
  P  P27  1  0.706641  0.588053  0.382297  1
  P  P28  1  0.706641  0.088053  0.617703  1
  P  P29  1  0.206641  0.911947  0.882297  1
  P  P30  1  0.793359  0.588053  0.882297  1
  P  P31  1  0.293359  0.411947  0.617703  1
  O  O32  1  0.769480  0.959409  0.609680  1
  O  O33  1  0.269480  0.040591  0.890320  1
  O  O34  1  0.730520  0.459409  0.890320  1
  O  O35  1  0.230520  0.540591  0.609680  1
  O  O36  1  0.230520  0.040591  0.390320  1
  O  O37  1  0.730520  0.959409  0.109680  1
  O  O38  1  0.269480  0.540591  0.109680  1
  O  O39  1  0.769480  0.459409  0.390320  1
  O  O40  1  0.585632  0.894388  0.396112  1
  O  O41  1  0.085632  0.105612  0.103888  1
  O  O42  1  0.914368  0.394388  0.103888  1
  O  O43  1  0.414368  0.605612  0.396112  1
  O  O44  1  0.414368  0.105612  0.603888  1
  O  O45  1  0.914368  0.894388  0.896112  1
  O  O46  1  0.085632  0.605612  0.896112  1
  O  O47  1  0.585632  0.394388  0.603888  1
  O  O48  1  0.209235  0.867669  0.283769  1
  O  O49  1  0.709235  0.132331  0.216231  1
  O  O50  1  0.290765  0.367669  0.216231  1
  O  O51  1  0.790765  0.632331  0.283769  1
  O  O52  1  0.790765  0.132331  0.716231  1
  O  O53  1  0.290765  0.867669  0.783769  1
  O  O54  1  0.709235  0.632331  0.783769  1
  O  O55  1  0.209235  0.367669  0.716231  1
  O  O56  1  0.154746  0.846465  0.464878  1
  O  O57  1  0.654746  0.153535  0.035122  1
  O  O58  1  0.345254  0.346465  0.035122  1
  O  O59  1  0.845254  0.653535  0.464878  1
  O  O60  1  0.845254  0.153535  0.535122  1
  O  O61  1  0.345254  0.846465  0.964878  1
  O  O62  1  0.654746  0.653535  0.964878  1
  O  O63  1  0.154746  0.346465  0.535122  1
  F  F64  1  0.500000  0.250000  0.873314  1
  F  F65  1  0.000000  0.750000  0.626686  1
  F  F66  1  0.500000  0.750000  0.126686  1
  F  F67  1  0.000000  0.250000  0.373314  1
  F  F68  1  0.000000  0.250000  0.905276  1
  F  F69  1  0.500000  0.750000  0.594724  1
  F  F70  1  0.000000  0.750000  0.094724  1
  F  F71  1  0.500000  0.250000  0.405276  1
