# generated using pymatgen
data_Rb2SiF6
_symmetry_space_group_name_H-M   'P 1'
_cell_length_a   6.08936892
_cell_length_b   6.08936892
_cell_length_c   6.08936892
_cell_angle_alpha   60.00000000
_cell_angle_beta   60.00000000
_cell_angle_gamma   60.00000000
_symmetry_Int_Tables_number   1
_chemical_formula_structural   Rb2SiF6
_chemical_formula_sum   'Rb2 Si1 F6'
_cell_volume   159.66210858
_cell_formula_units_Z   1
loop_
 _symmetry_equiv_pos_site_id
 _symmetry_equiv_pos_as_xyz
  1  'x, y, z'
loop_
 _atom_site_type_symbol
 _atom_site_label
 _atom_site_symmetry_multiplicity
 _atom_site_fract_x
 _atom_site_fract_y
 _atom_site_fract_z
 _atom_site_occupancy
  Rb  Rb0  1  0.250000  0.250000  0.250000  1
  Rb  Rb1  1  0.750000  0.750000  0.750000  1
  Si  Si2  1  0.000000  0.000000  0.000000  1
  F  F3  1  0.200031  0.799969  0.799969  1
  F  F4  1  0.200031  0.200031  0.799969  1
  F  F5  1  0.799969  0.799969  0.200031  1
  F  F6  1  0.799969  0.200031  0.200031  1
  F  F7  1  0.200031  0.799969  0.200031  1
  F  F8  1  0.799969  0.200031  0.799969  1
