# generated using pymatgen
data_Rb7NaGe8
_symmetry_space_group_name_H-M   'P 1'
_cell_length_a   13.36431349
_cell_length_b   13.36431349
_cell_length_c   13.36431349
_cell_angle_alpha   90.00000000
_cell_angle_beta   90.00000000
_cell_angle_gamma   90.00000000
_symmetry_Int_Tables_number   1
_chemical_formula_structural   Rb7NaGe8
_chemical_formula_sum   'Rb28 Na4 Ge32'
_cell_volume   2386.93154113
_cell_formula_units_Z   4
loop_
 _symmetry_equiv_pos_site_id
 _symmetry_equiv_pos_as_xyz
  1  'x, y, z'
loop_
 _atom_site_type_symbol
 _atom_site_label
 _atom_site_symmetry_multiplicity
 _atom_site_fract_x
 _atom_site_fract_y
 _atom_site_fract_z
 _atom_site_occupancy
  Rb  Rb0  1  0.813244  0.458530  0.772905  1
  Rb  Rb1  1  0.772905  0.813244  0.458530  1
  Rb  Rb2  1  0.186756  0.958530  0.727095  1
  Rb  Rb3  1  0.686756  0.541470  0.272905  1
  Rb  Rb4  1  0.727095  0.186756  0.958530  1
  Rb  Rb5  1  0.541470  0.272905  0.686756  1
  Rb  Rb6  1  0.958530  0.727095  0.186756  1
  Rb  Rb7  1  0.458530  0.772905  0.813244  1
  Rb  Rb8  1  0.958530  0.772905  0.686756  1
  Rb  Rb9  1  0.686756  0.958530  0.772905  1
  Rb  Rb10  1  0.772905  0.686756  0.958530  1
  Rb  Rb11  1  0.727095  0.313244  0.458530  1
  Rb  Rb12  1  0.272905  0.686756  0.541470  1
  Rb  Rb13  1  0.227095  0.186756  0.541470  1
  Rb  Rb14  1  0.813244  0.041470  0.272905  1
  Rb  Rb15  1  0.313244  0.458530  0.727095  1
  Rb  Rb16  1  0.272905  0.813244  0.041470  1
  Rb  Rb17  1  0.458530  0.727095  0.313244  1
  Rb  Rb18  1  0.041470  0.272905  0.813244  1
  Rb  Rb19  1  0.541470  0.227095  0.186756  1
  Rb  Rb20  1  0.000000  0.000000  0.000000  1
  Rb  Rb21  1  0.500000  0.000000  0.500000  1
  Rb  Rb22  1  0.500000  0.500000  0.000000  1
  Rb  Rb23  1  0.000000  0.500000  0.500000  1
  Rb  Rb24  1  0.227095  0.313244  0.041470  1
  Rb  Rb25  1  0.313244  0.041470  0.227095  1
  Rb  Rb26  1  0.041470  0.227095  0.313244  1
  Rb  Rb27  1  0.186756  0.541470  0.227095  1
  Na  Na28  1  0.500000  0.000000  0.000000  1
  Na  Na29  1  0.000000  0.500000  0.000000  1
  Na  Na30  1  0.000000  0.000000  0.500000  1
  Na  Na31  1  0.500000  0.500000  0.500000  1
  Ge  Ge32  1  0.701380  0.701380  0.701380  1
  Ge  Ge33  1  0.798620  0.298620  0.201380  1
  Ge  Ge34  1  0.201380  0.798620  0.298620  1
  Ge  Ge35  1  0.298620  0.201380  0.798620  1
  Ge  Ge36  1  0.205379  0.925720  0.443240  1
  Ge  Ge37  1  0.443240  0.205379  0.925720  1
  Ge  Ge38  1  0.925720  0.443240  0.205379  1
  Ge  Ge39  1  0.574280  0.556760  0.705379  1
  Ge  Ge40  1  0.943240  0.294621  0.074280  1
  Ge  Ge41  1  0.074280  0.943240  0.294621  1
  Ge  Ge42  1  0.056760  0.794621  0.425720  1
  Ge  Ge43  1  0.556760  0.705379  0.574280  1
  Ge  Ge44  1  0.425720  0.056760  0.794621  1
  Ge  Ge45  1  0.701380  0.798620  0.201380  1
  Ge  Ge46  1  0.794621  0.425720  0.056760  1
  Ge  Ge47  1  0.294621  0.074280  0.943240  1
  Ge  Ge48  1  0.794621  0.074280  0.556760  1
  Ge  Ge49  1  0.556760  0.794621  0.074280  1
  Ge  Ge50  1  0.074280  0.556760  0.794621  1
  Ge  Ge51  1  0.425720  0.443240  0.294621  1
  Ge  Ge52  1  0.056760  0.705379  0.925720  1
  Ge  Ge53  1  0.925720  0.056760  0.705379  1
  Ge  Ge54  1  0.943240  0.205379  0.574280  1
  Ge  Ge55  1  0.443240  0.294621  0.425720  1
  Ge  Ge56  1  0.574280  0.943240  0.205379  1
  Ge  Ge57  1  0.294621  0.425720  0.443240  1
  Ge  Ge58  1  0.205379  0.574280  0.943240  1
  Ge  Ge59  1  0.705379  0.925720  0.056760  1
  Ge  Ge60  1  0.798620  0.201380  0.701380  1
  Ge  Ge61  1  0.201380  0.701380  0.798620  1
  Ge  Ge62  1  0.705379  0.574280  0.556760  1
  Ge  Ge63  1  0.298620  0.298620  0.298620  1
