# generated using pymatgen
data_Na2LiFe(Si2O5)3
_symmetry_space_group_name_H-M   'P 1'
_cell_length_a   11.30659438
_cell_length_b   11.30659438
_cell_length_c   10.21743950
_cell_angle_alpha   90.00000000
_cell_angle_beta   90.00000000
_cell_angle_gamma   101.77021653
_symmetry_Int_Tables_number   1
_chemical_formula_structural   Na2LiFe(Si2O5)3
_chemical_formula_sum   'Na8 Li4 Fe4 Si24 O60'
_cell_volume   1278.72354119
_cell_formula_units_Z   4
loop_
 _symmetry_equiv_pos_site_id
 _symmetry_equiv_pos_as_xyz
  1  'x, y, z'
loop_
 _atom_site_type_symbol
 _atom_site_label
 _atom_site_symmetry_multiplicity
 _atom_site_fract_x
 _atom_site_fract_y
 _atom_site_fract_z
 _atom_site_occupancy
  Na  Na0  1  0.084274  0.915726  0.251575  1
  Na  Na1  1  0.415726  0.584274  0.751575  1
  Na  Na2  1  0.915726  0.084274  0.748425  1
  Na  Na3  1  0.584274  0.415726  0.248425  1
  Na  Na4  1  0.525739  0.974261  0.250000  1
  Na  Na5  1  0.974261  0.525739  0.750000  1
  Na  Na6  1  0.474261  0.025739  0.750000  1
  Na  Na7  1  0.025739  0.474261  0.250000  1
  Li  Li8  1  0.747940  0.747940  1.000000  1
  Li  Li9  1  0.247940  0.247940  0.500000  1
  Li  Li10  1  0.252060  0.252060  1.000000  1
  Li  Li11  1  0.752060  0.752060  0.500000  1
  Fe  Fe12  1  0.336457  0.163543  0.250000  1
  Fe  Fe13  1  0.163543  0.336457  0.750000  1
  Fe  Fe14  1  0.663543  0.836457  0.750000  1
  Fe  Fe15  1  0.836457  0.663543  0.250000  1
  Si  Si16  1  0.756119  0.019488  0.013024  1
  Si  Si17  1  0.540944  0.685070  0.193011  1
  Si  Si18  1  0.814930  0.959056  0.306989  1
  Si  Si19  1  0.685070  0.540944  0.806989  1
  Si  Si20  1  0.040944  0.185070  0.306989  1
  Si  Si21  1  0.459056  0.314930  0.806989  1
  Si  Si22  1  0.185070  0.040944  0.693011  1
  Si  Si23  1  0.314930  0.459056  0.193011  1
  Si  Si24  1  0.019488  0.756119  0.986976  1
  Si  Si25  1  0.480512  0.743881  0.486976  1
  Si  Si26  1  0.959056  0.814930  0.693011  1
  Si  Si27  1  0.743881  0.480512  0.513024  1
  Si  Si28  1  0.980512  0.243881  0.013024  1
  Si  Si29  1  0.519488  0.256119  0.513024  1
  Si  Si30  1  0.801584  0.423187  0.041887  1
  Si  Si31  1  0.256119  0.519488  0.486976  1
  Si  Si32  1  0.198416  0.576813  0.958113  1
  Si  Si33  1  0.301584  0.923187  0.458113  1
  Si  Si34  1  0.576813  0.198416  0.041887  1
  Si  Si35  1  0.923187  0.301584  0.541887  1
  Si  Si36  1  0.076813  0.698416  0.458113  1
  Si  Si37  1  0.423187  0.801584  0.958113  1
  Si  Si38  1  0.698416  0.076813  0.541887  1
  Si  Si39  1  0.243881  0.980512  0.986976  1
  O  O40  1  0.909723  0.355640  0.994805  1
  O  O41  1  0.552949  0.447051  0.809657  1
  O  O42  1  0.052949  0.947051  0.690343  1
  O  O43  1  0.447051  0.552949  0.190343  1
  O  O44  1  0.675875  0.324125  0.070593  1
  O  O45  1  0.175875  0.824125  0.429407  1
  O  O46  1  0.324125  0.675875  0.929407  1
  O  O47  1  0.824125  0.175875  0.570593  1
  O  O48  1  0.883814  0.116186  0.984506  1
  O  O49  1  0.616186  0.383814  0.484506  1
  O  O50  1  0.116186  0.883814  0.015494  1
  O  O51  1  0.383814  0.616186  0.515494  1
  O  O52  1  0.663671  0.001479  0.673514  1
  O  O53  1  0.836329  0.498521  0.173514  1
  O  O54  1  0.001479  0.663671  0.326486  1
  O  O55  1  0.498521  0.836329  0.826486  1
  O  O56  1  0.336329  0.998521  0.326486  1
  O  O57  1  0.163671  0.501479  0.826486  1
  O  O58  1  0.998521  0.336329  0.673514  1
  O  O59  1  0.501479  0.163671  0.173514  1
  O  O60  1  0.279584  0.002253  0.587163  1
  O  O61  1  0.220416  0.497747  0.087163  1
  O  O62  1  0.002253  0.279584  0.412837  1
  O  O63  1  0.497747  0.220416  0.912837  1
  O  O64  1  0.250995  0.024744  0.833351  1
  O  O65  1  0.779584  0.502253  0.912837  1
  O  O66  1  0.997747  0.720416  0.587163  1
  O  O67  1  0.502253  0.779584  0.087163  1
  O  O68  1  0.663605  0.673488  0.837173  1
  O  O69  1  0.836395  0.826512  0.337173  1
  O  O70  1  0.673488  0.663605  0.162827  1
  O  O71  1  0.826512  0.836395  0.662827  1
  O  O72  1  0.336395  0.326512  0.162827  1
  O  O73  1  0.163605  0.173488  0.662827  1
  O  O74  1  0.326512  0.336395  0.837173  1
  O  O75  1  0.173488  0.163605  0.337173  1
  O  O76  1  0.644360  0.090277  0.994805  1
  O  O77  1  0.855640  0.409723  0.494805  1
  O  O78  1  0.090277  0.644360  0.005195  1
  O  O79  1  0.409723  0.855640  0.505195  1
  O  O80  1  0.355640  0.909723  0.005195  1
  O  O81  1  0.144360  0.590277  0.505195  1
  O  O82  1  0.947051  0.052949  0.309657  1
  O  O83  1  0.590277  0.144360  0.494805  1
  O  O84  1  0.408118  0.249175  0.415280  1
  O  O85  1  0.091882  0.250825  0.915280  1
  O  O86  1  0.249175  0.408118  0.584720  1
  O  O87  1  0.250825  0.091882  0.084720  1
  O  O88  1  0.591882  0.750825  0.584720  1
  O  O89  1  0.908118  0.749175  0.084720  1
  O  O90  1  0.750825  0.591882  0.415280  1
  O  O91  1  0.749175  0.908118  0.915280  1
  O  O92  1  0.524744  0.750995  0.333351  1
  O  O93  1  0.975256  0.749005  0.833351  1
  O  O94  1  0.750995  0.524744  0.666649  1
  O  O95  1  0.749005  0.975256  0.166649  1
  O  O96  1  0.475256  0.249005  0.666649  1
  O  O97  1  0.024744  0.250995  0.166649  1
  O  O98  1  0.249005  0.475256  0.333351  1
  O  O99  1  0.720416  0.997747  0.412837  1
