# generated using pymatgen
data_YVO4
_symmetry_space_group_name_H-M   'P 1'
_cell_length_a   6.02160764
_cell_length_b   6.02160764
_cell_length_c   6.02160764
_cell_angle_alpha   106.23201567
_cell_angle_beta   106.23201567
_cell_angle_gamma   116.16417172
_symmetry_Int_Tables_number   1
_chemical_formula_structural   YVO4
_chemical_formula_sum   'Y2 V2 O8'
_cell_volume   166.34014060
_cell_formula_units_Z   2
loop_
 _symmetry_equiv_pos_site_id
 _symmetry_equiv_pos_as_xyz
  1  'x, y, z'
loop_
 _atom_site_type_symbol
 _atom_site_label
 _atom_site_symmetry_multiplicity
 _atom_site_fract_x
 _atom_site_fract_y
 _atom_site_fract_z
 _atom_site_occupancy
  Y  Y0  1  0.000000  0.000000  0.000000  1
  Y  Y1  1  0.250000  0.750000  0.500000  1
  V  V2  1  0.500000  0.500000  0.000000  1
  V  V3  1  0.750000  0.250000  0.500000  1
  O  O4  1  0.925425  0.610034  0.684609  1
  O  O5  1  0.860034  0.675425  0.184609  1
  O  O6  1  0.490816  0.675425  0.815391  1
  O  O7  1  0.925425  0.240816  0.315391  1
  O  O8  1  0.759184  0.074575  0.684609  1
  O  O9  1  0.324575  0.509184  0.184609  1
  O  O10  1  0.324575  0.139966  0.815391  1
  O  O11  1  0.389966  0.074575  0.315391  1
