# generated using pymatgen
data_BaNi2(AsO4)2
_symmetry_space_group_name_H-M   'P 1'
_cell_length_a   8.55675395
_cell_length_b   8.55675395
_cell_length_c   8.55675395
_cell_angle_alpha   34.14911912
_cell_angle_beta   34.14911912
_cell_angle_gamma   34.14911912
_symmetry_Int_Tables_number   1
_chemical_formula_structural   BaNi2(AsO4)2
_chemical_formula_sum   'Ba1 Ni2 As2 O8'
_cell_volume   176.01980449
_cell_formula_units_Z   1
loop_
 _symmetry_equiv_pos_site_id
 _symmetry_equiv_pos_as_xyz
  1  'x, y, z'
loop_
 _atom_site_type_symbol
 _atom_site_label
 _atom_site_symmetry_multiplicity
 _atom_site_fract_x
 _atom_site_fract_y
 _atom_site_fract_z
 _atom_site_occupancy
  Ba  Ba0  1  0.000000  0.000000  0.000000  1
  Ni  Ni1  1  0.168824  0.168824  0.168824  1
  Ni  Ni2  1  0.831176  0.831176  0.831176  1
  As  As3  1  0.427701  0.427701  0.427701  1
  As  As4  1  0.572299  0.572299  0.572299  1
  O  O5  1  0.784707  0.440390  0.123478  1
  O  O6  1  0.440390  0.123478  0.784707  1
  O  O7  1  0.123478  0.784707  0.440390  1
  O  O8  1  0.215293  0.559610  0.876522  1
  O  O9  1  0.559610  0.876522  0.215293  1
  O  O10  1  0.642447  0.642447  0.642447  1
  O  O11  1  0.357553  0.357553  0.357553  1
  O  O12  1  0.876522  0.215293  0.559610  1
