# generated using pymatgen
data_K3AlTe3
_symmetry_space_group_name_H-M   'P 1'
_cell_length_a   8.76482079
_cell_length_b   14.25181248
_cell_length_c   11.25627031
_cell_angle_alpha   90.00000000
_cell_angle_beta   127.59348632
_cell_angle_gamma   90.00000000
_symmetry_Int_Tables_number   1
_chemical_formula_structural   K3AlTe3
_chemical_formula_sum   'K12 Al4 Te12'
_cell_volume   1114.11404912
_cell_formula_units_Z   4
loop_
 _symmetry_equiv_pos_site_id
 _symmetry_equiv_pos_as_xyz
  1  'x, y, z'
loop_
 _atom_site_type_symbol
 _atom_site_label
 _atom_site_symmetry_multiplicity
 _atom_site_fract_x
 _atom_site_fract_y
 _atom_site_fract_z
 _atom_site_occupancy
  K  K0  1  0.148026  0.311265  0.927182  1
  K  K1  1  0.851974  0.688735  0.072818  1
  K  K2  1  0.851974  0.811265  0.572818  1
  K  K3  1  0.317165  0.894534  0.596835  1
  K  K4  1  0.362206  0.612867  0.526295  1
  K  K5  1  0.637794  0.112867  0.973705  1
  K  K6  1  0.637794  0.387133  0.473705  1
  K  K7  1  0.362206  0.887133  0.026295  1
  K  K8  1  0.317165  0.605466  0.096835  1
  K  K9  1  0.682835  0.105466  0.403165  1
  K  K10  1  0.682835  0.394534  0.903165  1
  K  K11  1  0.148026  0.188735  0.427182  1
  Al  Al12  1  0.945674  0.066058  0.841416  1
  Al  Al13  1  0.054326  0.566058  0.658584  1
  Al  Al14  1  0.945674  0.433942  0.341416  1
  Al  Al15  1  0.054326  0.933942  0.158584  1
  Te  Te16  1  0.178401  0.398701  0.639851  1
  Te  Te17  1  0.821599  0.898701  0.860149  1
  Te  Te18  1  0.821599  0.601299  0.360149  1
  Te  Te19  1  0.178401  0.101299  0.139851  1
  Te  Te20  1  0.327601  0.693353  0.803078  1
  Te  Te21  1  0.672399  0.193353  0.696922  1
  Te  Te22  1  0.672399  0.306647  0.196922  1
  Te  Te23  1  0.327601  0.806647  0.303078  1
  Te  Te24  1  0.861317  0.553241  0.765067  1
  Te  Te25  1  0.138683  0.053241  0.734933  1
  Te  Te26  1  0.138683  0.446759  0.234933  1
  Te  Te27  1  0.861317  0.946759  0.265067  1
