# generated using pymatgen
data_AgMo3P3O16
_symmetry_space_group_name_H-M   'P 1'
_cell_length_a   6.51604171
_cell_length_b   7.90236198
_cell_length_c   13.02542394
_cell_angle_alpha   80.11601279
_cell_angle_beta   79.56652938
_cell_angle_gamma   82.60645025
_symmetry_Int_Tables_number   1
_chemical_formula_structural   AgMo3P3O16
_chemical_formula_sum   'Ag2 Mo6 P6 O32'
_cell_volume   646.52120754
_cell_formula_units_Z   2
loop_
 _symmetry_equiv_pos_site_id
 _symmetry_equiv_pos_as_xyz
  1  'x, y, z'
loop_
 _atom_site_type_symbol
 _atom_site_label
 _atom_site_symmetry_multiplicity
 _atom_site_fract_x
 _atom_site_fract_y
 _atom_site_fract_z
 _atom_site_occupancy
  Ag  Ag0  1  0.407482  0.624425  0.670114  1
  Ag  Ag1  1  0.592518  0.375575  0.329886  1
  Mo  Mo2  1  0.801560  0.784892  0.457535  1
  Mo  Mo3  1  0.198440  0.215108  0.542465  1
  Mo  Mo4  1  0.939120  0.789331  0.858439  1
  Mo  Mo5  1  0.060880  0.210669  0.141561  1
  Mo  Mo6  1  0.598206  0.233228  0.835359  1
  Mo  Mo7  1  0.401794  0.766772  0.164641  1
  P  P8  1  0.934956  0.511608  0.684946  1
  P  P9  1  0.065044  0.488392  0.315054  1
  P  P10  1  0.693813  0.144452  0.576649  1
  P  P11  1  0.306187  0.855548  0.423351  1
  P  P12  1  0.424152  0.833997  0.899822  1
  P  P13  1  0.575848  0.166003  0.100178  1
  O  O14  1  0.423847  0.029490  0.895994  1
  O  O15  1  0.576153  0.970510  0.104006  1
  O  O16  1  0.636937  0.149956  0.695452  1
  O  O17  1  0.363063  0.850044  0.304548  1
  O  O18  1  0.837188  0.383269  0.778041  1
  O  O19  1  0.162812  0.616731  0.221959  1
  O  O20  1  0.627982  0.257436  0.985767  1
  O  O21  1  0.372018  0.742564  0.014233  1
  O  O22  1  0.397959  0.392706  0.816593  1
  O  O23  1  0.602041  0.607294  0.183407  1
  O  O24  1  0.639870  0.756308  0.843983  1
  O  O25  1  0.360130  0.243692  0.156017  1
  O  O26  1  0.865516  0.011215  0.860684  1
  O  O27  1  0.134484  0.988785  0.139316  1
  O  O28  1  0.190256  0.057704  0.649736  1
  O  O29  1  0.809744  0.942296  0.350264  1
  O  O30  1  0.892032  0.234002  0.525651  1
  O  O31  1  0.107968  0.765998  0.474349  1
  O  O32  1  0.515591  0.249056  0.519827  1
  O  O33  1  0.484409  0.750944  0.480173  1
  O  O34  1  0.279871  0.047610  0.434633  1
  O  O35  1  0.720129  0.952390  0.565367  1
  O  O36  1  0.136614  0.425032  0.623189  1
  O  O37  1  0.863386  0.574968  0.376811  1
  O  O38  1  0.220323  0.404669  0.389745  1
  O  O39  1  0.779677  0.595331  0.610255  1
  O  O40  1  0.083637  0.307525  0.013651  1
  O  O41  1  0.916363  0.692475  0.986349  1
  O  O42  1  0.984973  0.345108  0.265106  1
  O  O43  1  0.015027  0.654892  0.734894  1
  O  O44  1  0.744884  0.203305  0.162682  1
  O  O45  1  0.255116  0.796695  0.837318  1
