# generated using pymatgen
data_SbO2
_symmetry_space_group_name_H-M   'P 1'
_cell_length_a   6.57781861
_cell_length_b   6.57781861
_cell_length_c   5.51001794
_cell_angle_alpha   77.41636744
_cell_angle_beta   102.58363256
_cell_angle_gamma   136.03169403
_symmetry_Int_Tables_number   1
_chemical_formula_structural   SbO2
_chemical_formula_sum   'Sb4 O8'
_cell_volume   160.88255769
_cell_formula_units_Z   4
loop_
 _symmetry_equiv_pos_site_id
 _symmetry_equiv_pos_as_xyz
  1  'x, y, z'
loop_
 _atom_site_type_symbol
 _atom_site_label
 _atom_site_symmetry_multiplicity
 _atom_site_fract_x
 _atom_site_fract_y
 _atom_site_fract_z
 _atom_site_occupancy
  Sb  Sb0  1  0.286465  0.286465  0.250000  1
  Sb  Sb1  1  0.713535  0.713535  0.750000  1
  Sb  Sb2  1  0.000000  0.500000  0.500000  1
  Sb  Sb3  1  0.500000  0.000000  0.000000  1
  O  O4  1  0.320485  0.508509  0.533610  1
  O  O5  1  0.508509  0.320485  0.966390  1
  O  O6  1  0.679515  0.491491  0.466390  1
  O  O7  1  0.491491  0.679515  0.033610  1
  O  O8  1  0.772378  0.149380  0.313774  1
  O  O9  1  0.149380  0.772378  0.186226  1
  O  O10  1  0.227622  0.850620  0.686226  1
  O  O11  1  0.850620  0.227622  0.813774  1
