# generated using pymatgen
data_KZrPdF7
_symmetry_space_group_name_H-M   'P 1'
_cell_length_a   6.53202055
_cell_length_b   8.13593631
_cell_length_c   11.60789034
_cell_angle_alpha   90.00000000
_cell_angle_beta   90.00000000
_cell_angle_gamma   90.00000000
_symmetry_Int_Tables_number   1
_chemical_formula_structural   KZrPdF7
_chemical_formula_sum   'K4 Zr4 Pd4 F28'
_cell_volume   616.89092182
_cell_formula_units_Z   4
loop_
 _symmetry_equiv_pos_site_id
 _symmetry_equiv_pos_as_xyz
  1  'x, y, z'
loop_
 _atom_site_type_symbol
 _atom_site_label
 _atom_site_symmetry_multiplicity
 _atom_site_fract_x
 _atom_site_fract_y
 _atom_site_fract_z
 _atom_site_occupancy
  K  K0  1  0.268449  0.000000  0.250000  1
  K  K1  1  0.731551  0.000000  0.750000  1
  K  K2  1  0.231551  0.500000  0.250000  1
  K  K3  1  0.768449  0.500000  0.750000  1
  Zr  Zr4  1  0.750000  0.250000  0.092084  1
  Zr  Zr5  1  0.250000  0.250000  0.592084  1
  Zr  Zr6  1  0.250000  0.750000  0.907916  1
  Zr  Zr7  1  0.750000  0.750000  0.407916  1
  Pd  Pd8  1  0.750000  0.750000  0.099161  1
  Pd  Pd9  1  0.250000  0.250000  0.900839  1
  Pd  Pd10  1  0.250000  0.750000  0.599161  1
  Pd  Pd11  1  0.750000  0.250000  0.400839  1
  F  F12  1  0.948328  0.180555  0.545947  1
  F  F13  1  0.948328  0.819445  0.954053  1
  F  F14  1  0.551672  0.680555  0.954053  1
  F  F15  1  0.551672  0.319445  0.545947  1
  F  F16  1  0.051672  0.819445  0.454053  1
  F  F17  1  0.051672  0.180555  0.045947  1
  F  F18  1  0.448328  0.319445  0.045947  1
  F  F19  1  0.448328  0.680555  0.454053  1
  F  F20  1  0.250000  0.750000  0.082394  1
  F  F21  1  0.250000  0.250000  0.417606  1
  F  F22  1  0.750000  0.250000  0.917606  1
  F  F23  1  0.750000  0.750000  0.582394  1
  F  F24  1  0.933330  0.793749  0.254827  1
  F  F25  1  0.933330  0.206251  0.245173  1
  F  F26  1  0.566670  0.293749  0.245173  1
  F  F27  1  0.566670  0.706251  0.254827  1
  F  F28  1  0.066670  0.206251  0.745173  1
  F  F29  1  0.066670  0.793749  0.754827  1
  F  F30  1  0.433330  0.706251  0.754827  1
  F  F31  1  0.433330  0.293749  0.745173  1
  F  F32  1  0.647810  0.010834  0.105432  1
  F  F33  1  0.647810  0.989166  0.394568  1
  F  F34  1  0.852190  0.510834  0.394568  1
  F  F35  1  0.852190  0.489166  0.105432  1
  F  F36  1  0.352190  0.989166  0.894568  1
  F  F37  1  0.352190  0.010834  0.605432  1
  F  F38  1  0.147810  0.489166  0.605432  1
  F  F39  1  0.147810  0.510834  0.894568  1
