# generated using pymatgen
data_Rb2Ti(Si2O5)3
_symmetry_space_group_name_H-M   'P 1'
_cell_length_a   7.47886816
_cell_length_b   7.47886816
_cell_length_c   15.37896457
_cell_angle_alpha   76.80592115
_cell_angle_beta   103.19407885
_cell_angle_gamma   119.87786611
_symmetry_Int_Tables_number   1
_chemical_formula_structural   Rb2Ti(Si2O5)3
_chemical_formula_sum   'Rb4 Ti2 Si12 O30'
_cell_volume   719.46422247
_cell_formula_units_Z   2
loop_
 _symmetry_equiv_pos_site_id
 _symmetry_equiv_pos_as_xyz
  1  'x, y, z'
loop_
 _atom_site_type_symbol
 _atom_site_label
 _atom_site_symmetry_multiplicity
 _atom_site_fract_x
 _atom_site_fract_y
 _atom_site_fract_z
 _atom_site_occupancy
  Rb  Rb0  1  0.413541  0.858019  0.310887  1
  Rb  Rb1  1  0.141981  0.586459  0.810887  1
  Rb  Rb2  1  0.634434  0.118134  0.978955  1
  Rb  Rb3  1  0.881866  0.365566  0.478955  1
  Ti  Ti4  1  0.781960  0.697630  0.903549  1
  Ti  Ti5  1  0.302370  0.218040  0.403549  1
  Si  Si6  1  0.547515  0.583325  0.541632  1
  Si  Si7  1  0.416675  0.452485  0.041632  1
  Si  Si8  1  0.640201  0.004169  0.743840  1
  Si  Si9  1  0.995831  0.359799  0.243840  1
  Si  Si10  1  0.360190  0.850266  0.554998  1
  Si  Si11  1  0.149734  0.639810  0.054998  1
  Si  Si12  1  0.528669  0.359097  0.745868  1
  Si  Si13  1  0.640903  0.471331  0.245868  1
  Si  Si14  1  0.077040  0.983496  0.065428  1
  Si  Si15  1  0.016504  0.922960  0.565428  1
  Si  Si16  1  0.066417  0.073908  0.752872  1
  Si  Si17  1  0.926092  0.933583  0.252872  1
  O  O18  1  0.956862  0.566103  0.975711  1
  O  O19  1  0.433897  0.043138  0.475711  1
  O  O20  1  0.703810  0.512135  0.814526  1
  O  O21  1  0.487865  0.296190  0.314526  1
  O  O22  1  0.030686  0.910246  0.843594  1
  O  O23  1  0.089754  0.969314  0.343594  1
  O  O24  1  0.543821  0.488268  0.962849  1
  O  O25  1  0.511732  0.456179  0.462849  1
  O  O26  1  0.765466  0.803217  0.533845  1
  O  O27  1  0.196783  0.234534  0.033845  1
  O  O28  1  0.616356  0.826380  0.828969  1
  O  O29  1  0.173620  0.383644  0.328969  1
  O  O30  1  0.886775  0.154708  0.727116  1
  O  O31  1  0.845292  0.113225  0.227116  1
  O  O32  1  0.360382  0.647929  0.529268  1
  O  O33  1  0.352071  0.639618  0.029268  1
  O  O34  1  0.506732  0.903066  0.651947  1
  O  O35  1  0.096934  0.493268  0.151947  1
  O  O36  1  0.865815  0.876141  0.997987  1
  O  O37  1  0.123859  0.134185  0.497987  1
  O  O38  1  0.709191  0.710625  0.260121  1
  O  O39  1  0.289375  0.290809  0.760121  1
  O  O40  1  0.545830  0.436370  0.141227  1
  O  O41  1  0.563630  0.454170  0.641227  1
  O  O42  1  0.034930  0.943398  0.169735  1
  O  O43  1  0.056602  0.965070  0.669735  1
  O  O44  1  0.115705  0.764959  0.569359  1
  O  O45  1  0.235041  0.884295  0.069359  1
  O  O46  1  0.856825  0.451564  0.266815  1
  O  O47  1  0.548436  0.143175  0.766815  1
