# generated using pymatgen
data_KY2CuS4
_symmetry_space_group_name_H-M   'P 1'
_cell_length_a   7.05305551
_cell_length_b   7.05305551
_cell_length_c   13.75467726
_cell_angle_alpha   90.00000000
_cell_angle_beta   90.00000000
_cell_angle_gamma   147.37311381
_symmetry_Int_Tables_number   1
_chemical_formula_structural   KY2CuS4
_chemical_formula_sum   'K2 Y4 Cu2 S8'
_cell_volume   368.91604587
_cell_formula_units_Z   2
loop_
 _symmetry_equiv_pos_site_id
 _symmetry_equiv_pos_as_xyz
  1  'x, y, z'
loop_
 _atom_site_type_symbol
 _atom_site_label
 _atom_site_symmetry_multiplicity
 _atom_site_fract_x
 _atom_site_fract_y
 _atom_site_fract_z
 _atom_site_occupancy
  K  K0  1  0.109461  0.890539  0.250000  1
  K  K1  1  0.890539  0.109461  0.750000  1
  Y  Y2  1  0.634286  0.365714  0.936983  1
  Y  Y3  1  0.365714  0.634286  0.436983  1
  Y  Y4  1  0.634286  0.365714  0.563017  1
  Y  Y5  1  0.365714  0.634286  0.063017  1
  Cu  Cu6  1  0.162551  0.837449  0.750000  1
  Cu  Cu7  1  0.837449  0.162551  0.250000  1
  S  S8  1  0.000000  0.000000  0.500000  1
  S  S9  1  0.000000  0.000000  0.000000  1
  S  S10  1  0.737257  0.262743  0.111198  1
  S  S11  1  0.262743  0.737257  0.888802  1
  S  S12  1  0.569011  0.430989  0.750000  1
  S  S13  1  0.737257  0.262743  0.388802  1
  S  S14  1  0.430989  0.569011  0.250000  1
  S  S15  1  0.262743  0.737257  0.611198  1
