# generated using pymatgen
data_LiTbSe2
_symmetry_space_group_name_H-M   'P 1'
_cell_length_a   6.92314269
_cell_length_b   6.92314269
_cell_length_c   6.92314269
_cell_angle_alpha   34.34041506
_cell_angle_beta   34.34041506
_cell_angle_gamma   34.34041506
_symmetry_Int_Tables_number   1
_chemical_formula_structural   LiTbSe2
_chemical_formula_sum   'Li1 Tb1 Se2'
_cell_volume   94.17670375
_cell_formula_units_Z   1
loop_
 _symmetry_equiv_pos_site_id
 _symmetry_equiv_pos_as_xyz
  1  'x, y, z'
loop_
 _atom_site_type_symbol
 _atom_site_label
 _atom_site_symmetry_multiplicity
 _atom_site_fract_x
 _atom_site_fract_y
 _atom_site_fract_z
 _atom_site_occupancy
  Li  Li0  1  0.500000  0.500000  0.500000  1
  Tb  Tb1  1  0.000000  0.000000  0.000000  1
  Se  Se2  1  0.751267  0.751267  0.751267  1
  Se  Se3  1  0.248733  0.248733  0.248733  1
