# generated using pymatgen
data_Y3Si3O10F
_symmetry_space_group_name_H-M   'P 1'
_cell_length_a   7.40423868
_cell_length_b   11.29627335
_cell_length_c   12.05977692
_cell_angle_alpha   90.00000000
_cell_angle_beta   120.26915844
_cell_angle_gamma   90.00000000
_symmetry_Int_Tables_number   1
_chemical_formula_structural   Y3Si3O10F
_chemical_formula_sum   'Y12 Si12 O40 F4'
_cell_volume   871.16657988
_cell_formula_units_Z   4
loop_
 _symmetry_equiv_pos_site_id
 _symmetry_equiv_pos_as_xyz
  1  'x, y, z'
loop_
 _atom_site_type_symbol
 _atom_site_label
 _atom_site_symmetry_multiplicity
 _atom_site_fract_x
 _atom_site_fract_y
 _atom_site_fract_z
 _atom_site_occupancy
  Y  Y0  1  0.744092  0.469251  0.981688  1
  Y  Y1  1  0.255908  0.969251  0.518312  1
  Y  Y2  1  0.255908  0.530749  0.018312  1
  Y  Y3  1  0.744092  0.030749  0.481688  1
  Y  Y4  1  0.594928  0.229981  0.688925  1
  Y  Y5  1  0.405072  0.729981  0.811075  1
  Y  Y6  1  0.405072  0.770019  0.311075  1
  Y  Y7  1  0.594928  0.270019  0.188925  1
  Y  Y8  1  0.805083  0.098223  0.003019  1
  Y  Y9  1  0.194917  0.598223  0.496981  1
  Y  Y10  1  0.194917  0.901777  0.996981  1
  Y  Y11  1  0.805083  0.401777  0.503019  1
  Si  Si12  1  0.285906  0.462347  0.291427  1
  Si  Si13  1  0.876174  0.755100  0.110892  1
  Si  Si14  1  0.876174  0.744900  0.610892  1
  Si  Si15  1  0.123826  0.244900  0.889108  1
  Si  Si16  1  0.284390  0.414224  0.759637  1
  Si  Si17  1  0.715610  0.914224  0.740363  1
  Si  Si18  1  0.715610  0.585776  0.240363  1
  Si  Si19  1  0.284390  0.085776  0.259637  1
  Si  Si20  1  0.285906  0.037653  0.791427  1
  Si  Si21  1  0.714094  0.537653  0.708573  1
  Si  Si22  1  0.123826  0.255100  0.389108  1
  Si  Si23  1  0.714094  0.962347  0.208573  1
  O  O24  1  0.658101  0.088736  0.130370  1
  O  O25  1  0.341899  0.588736  0.369630  1
  O  O26  1  0.341899  0.911264  0.869630  1
  O  O27  1  0.658101  0.411264  0.630370  1
  O  O28  1  0.105111  0.477571  0.138618  1
  O  O29  1  0.894889  0.977571  0.361382  1
  O  O30  1  0.894889  0.522429  0.861382  1
  O  O31  1  0.105111  0.022429  0.638618  1
  O  O32  1  0.494678  0.104058  0.808064  1
  O  O33  1  0.505322  0.604058  0.691936  1
  O  O34  1  0.505322  0.895942  0.191936  1
  O  O35  1  0.494678  0.395942  0.308064  1
  O  O36  1  0.198942  0.390444  0.377157  1
  O  O37  1  0.801058  0.890444  0.122843  1
  O  O38  1  0.801058  0.609556  0.622843  1
  O  O39  1  0.198942  0.109556  0.877157  1
  O  O40  1  0.512090  0.357002  0.802587  1
  O  O41  1  0.897489  0.273539  0.378754  1
  O  O42  1  0.102511  0.726461  0.621246  1
  O  O43  1  0.897489  0.226461  0.878754  1
  O  O44  1  0.286917  0.181485  0.517305  1
  O  O45  1  0.713083  0.681485  0.982695  1
  O  O46  1  0.713083  0.818515  0.482695  1
  O  O47  1  0.286917  0.318515  0.017305  1
  O  O48  1  0.115531  0.177343  0.269437  1
  O  O49  1  0.884469  0.677343  0.230563  1
  O  O50  1  0.884469  0.822657  0.730563  1
  O  O51  1  0.115531  0.322657  0.769437  1
  O  O52  1  0.649802  0.024489  0.637119  1
  O  O53  1  0.350198  0.524489  0.862881  1
  O  O54  1  0.350198  0.975511  0.362881  1
  O  O55  1  0.649802  0.475511  0.137119  1
  O  O56  1  0.148666  0.049488  0.108769  1
  O  O57  1  0.851334  0.549488  0.391231  1
  O  O58  1  0.851334  0.950512  0.891231  1
  O  O59  1  0.148666  0.450512  0.608769  1
  O  O60  1  0.512090  0.142998  0.302587  1
  O  O61  1  0.487910  0.642998  0.197413  1
  O  O62  1  0.487910  0.857002  0.697413  1
  O  O63  1  0.102511  0.773539  0.121246  1
  F  F64  1  0.244428  0.714992  0.940691  1
  F  F65  1  0.755572  0.214992  0.559309  1
  F  F66  1  0.244428  0.785008  0.440691  1
  F  F67  1  0.755572  0.285008  0.059309  1
