# generated using pymatgen
data_Ca3Si2SnO9
_symmetry_space_group_name_H-M   'P 1'
_cell_length_a   7.41559373
_cell_length_b   10.20129019
_cell_length_c   10.53477580
_cell_angle_alpha   90.00000000
_cell_angle_beta   91.19631137
_cell_angle_gamma   90.00000000
_symmetry_Int_Tables_number   1
_chemical_formula_structural   Ca3Si2SnO9
_chemical_formula_sum   'Ca12 Si8 Sn4 O36'
_cell_volume   796.76757936
_cell_formula_units_Z   4
loop_
 _symmetry_equiv_pos_site_id
 _symmetry_equiv_pos_as_xyz
  1  'x, y, z'
loop_
 _atom_site_type_symbol
 _atom_site_label
 _atom_site_symmetry_multiplicity
 _atom_site_fract_x
 _atom_site_fract_y
 _atom_site_fract_z
 _atom_site_occupancy
  Ca  Ca0  1  0.863826  0.920676  0.888676  1
  Ca  Ca1  1  0.136174  0.420676  0.611324  1
  Ca  Ca2  1  0.136174  0.079324  0.111324  1
  Ca  Ca3  1  0.863826  0.579324  0.388676  1
  Ca  Ca4  1  0.380644  0.333347  0.916487  1
  Ca  Ca5  1  0.619356  0.833347  0.583513  1
  Ca  Ca6  1  0.619356  0.666653  0.083513  1
  Ca  Ca7  1  0.380644  0.166653  0.416487  1
  Ca  Ca8  1  0.871881  0.304274  0.904364  1
  Ca  Ca9  1  0.128119  0.804274  0.595636  1
  Ca  Ca10  1  0.128119  0.695726  0.095636  1
  Ca  Ca11  1  0.871881  0.195726  0.404364  1
  Si  Si12  1  0.098821  0.136777  0.694717  1
  Si  Si13  1  0.901179  0.636777  0.805283  1
  Si  Si14  1  0.901179  0.863223  0.305283  1
  Si  Si15  1  0.098821  0.363223  0.194717  1
  Si  Si16  1  0.667017  0.125485  0.684157  1
  Si  Si17  1  0.332983  0.625485  0.815843  1
  Si  Si18  1  0.332983  0.874515  0.315843  1
  Si  Si19  1  0.667017  0.374515  0.184157  1
  Sn  Sn20  1  0.379787  0.558476  0.382096  1
  Sn  Sn21  1  0.620213  0.058476  0.117904  1
  Sn  Sn22  1  0.620213  0.441524  0.617904  1
  Sn  Sn23  1  0.379787  0.941524  0.882096  1
  O  O24  1  0.840861  0.391513  0.517284  1
  O  O25  1  0.159139  0.891513  0.982716  1
  O  O26  1  0.159139  0.608487  0.482716  1
  O  O27  1  0.840861  0.108487  0.017284  1
  O  O28  1  0.409105  0.116721  0.991716  1
  O  O29  1  0.590895  0.616721  0.508284  1
  O  O30  1  0.590895  0.883279  0.008284  1
  O  O31  1  0.409105  0.383279  0.491716  1
  O  O32  1  0.119406  0.168975  0.545066  1
  O  O33  1  0.880594  0.668975  0.954934  1
  O  O34  1  0.880594  0.831025  0.454934  1
  O  O35  1  0.119406  0.331025  0.045066  1
  O  O36  1  0.195549  0.998987  0.736772  1
  O  O37  1  0.804451  0.498987  0.763228  1
  O  O38  1  0.355754  0.890855  0.467500  1
  O  O39  1  0.804451  0.001013  0.263228  1
  O  O40  1  0.145372  0.233190  0.279502  1
  O  O41  1  0.854628  0.733190  0.220498  1
  O  O42  1  0.854628  0.766810  0.720498  1
  O  O43  1  0.145372  0.266810  0.779502  1
  O  O44  1  0.396381  0.768756  0.760972  1
  O  O45  1  0.603619  0.268756  0.739028  1
  O  O46  1  0.603619  0.231244  0.239028  1
  O  O47  1  0.396381  0.731244  0.260972  1
  O  O48  1  0.882784  0.392744  0.230480  1
  O  O49  1  0.117216  0.892744  0.269520  1
  O  O50  1  0.117216  0.607256  0.769520  1
  O  O51  1  0.882784  0.107256  0.730480  1
  O  O52  1  0.415838  0.002363  0.242499  1
  O  O53  1  0.584162  0.502363  0.257501  1
  O  O54  1  0.584162  0.997637  0.757501  1
  O  O55  1  0.415838  0.497637  0.742499  1
  O  O56  1  0.355754  0.609145  0.967500  1
  O  O57  1  0.644246  0.109145  0.532500  1
  O  O58  1  0.644246  0.390855  0.032500  1
  O  O59  1  0.195549  0.501013  0.236772  1
