# generated using pymatgen
data_Cr2O3
_symmetry_space_group_name_H-M   'P 1'
_cell_length_a   5.45448001
_cell_length_b   5.45448001
_cell_length_c   5.45448001
_cell_angle_alpha   55.67662769
_cell_angle_beta   55.67662769
_cell_angle_gamma   55.67662769
_symmetry_Int_Tables_number   1
_chemical_formula_structural   Cr2O3
_chemical_formula_sum   'Cr4 O6'
_cell_volume   103.23830275
_cell_formula_units_Z   2
loop_
 _symmetry_equiv_pos_site_id
 _symmetry_equiv_pos_as_xyz
  1  'x, y, z'
loop_
 _atom_site_type_symbol
 _atom_site_label
 _atom_site_symmetry_multiplicity
 _atom_site_fract_x
 _atom_site_fract_y
 _atom_site_fract_z
 _atom_site_occupancy
  Cr  Cr0  1  0.349731  0.349731  0.349731  1
  Cr  Cr1  1  0.849731  0.849731  0.849731  1
  Cr  Cr2  1  0.650269  0.650269  0.650269  1
  Cr  Cr3  1  0.150269  0.150269  0.150269  1
  O  O4  1  0.949358  0.550642  0.250000  1
  O  O5  1  0.250000  0.949358  0.550642  1
  O  O6  1  0.550642  0.250000  0.949358  1
  O  O7  1  0.750000  0.050642  0.449358  1
  O  O8  1  0.449358  0.750000  0.050642  1
  O  O9  1  0.050642  0.449358  0.750000  1
