# generated using pymatgen
data_K3SbO4
_symmetry_space_group_name_H-M   'P 1'
_cell_length_a   5.78026948
_cell_length_b   7.47660121
_cell_length_c   6.63620242
_cell_angle_alpha   90.00000000
_cell_angle_beta   108.48442400
_cell_angle_gamma   90.00000000
_symmetry_Int_Tables_number   1
_chemical_formula_structural   K3SbO4
_chemical_formula_sum   'K6 Sb2 O8'
_cell_volume   271.99943182
_cell_formula_units_Z   2
loop_
 _symmetry_equiv_pos_site_id
 _symmetry_equiv_pos_as_xyz
  1  'x, y, z'
loop_
 _atom_site_type_symbol
 _atom_site_label
 _atom_site_symmetry_multiplicity
 _atom_site_fract_x
 _atom_site_fract_y
 _atom_site_fract_z
 _atom_site_occupancy
  K  K0  1  0.250000  0.625396  0.500000  1
  K  K1  1  0.750000  0.374604  0.500000  1
  K  K2  1  0.750000  0.611316  0.000000  1
  K  K3  1  0.250000  0.388684  0.000000  1
  K  K4  1  0.750000  0.891203  0.500000  1
  K  K5  1  0.250000  0.108797  0.500000  1
  Sb  Sb6  1  0.250000  0.886651  0.000000  1
  Sb  Sb7  1  0.750000  0.113349  0.000000  1
  O  O8  1  0.005653  0.087258  0.831465  1
  O  O9  1  0.494347  0.087258  0.168535  1
  O  O10  1  0.428469  0.704335  0.208505  1
  O  O11  1  0.071531  0.704335  0.791495  1
  O  O12  1  0.571531  0.295665  0.791495  1
  O  O13  1  0.928469  0.295665  0.208505  1
  O  O14  1  0.994347  0.912742  0.168535  1
  O  O15  1  0.505653  0.912742  0.831465  1
