# generated using pymatgen
data_CsCuSe4
_symmetry_space_group_name_H-M   'P 1'
_cell_length_a   5.59027835
_cell_length_b   9.23335248
_cell_length_c   14.53673972
_cell_angle_alpha   90.00000000
_cell_angle_beta   90.00000000
_cell_angle_gamma   90.00000000
_symmetry_Int_Tables_number   1
_chemical_formula_structural   CsCuSe4
_chemical_formula_sum   'Cs4 Cu4 Se16'
_cell_volume   750.34304628
_cell_formula_units_Z   4
loop_
 _symmetry_equiv_pos_site_id
 _symmetry_equiv_pos_as_xyz
  1  'x, y, z'
loop_
 _atom_site_type_symbol
 _atom_site_label
 _atom_site_symmetry_multiplicity
 _atom_site_fract_x
 _atom_site_fract_y
 _atom_site_fract_z
 _atom_site_occupancy
  Cs  Cs0  1  0.684531  0.937596  0.171841  1
  Cs  Cs1  1  0.184531  0.562404  0.828159  1
  Cs  Cs2  1  0.315469  0.437596  0.328159  1
  Cs  Cs3  1  0.815469  0.062404  0.671841  1
  Cu  Cu4  1  0.964638  0.135727  0.940772  1
  Cu  Cu5  1  0.535362  0.864273  0.440772  1
  Cu  Cu6  1  0.035362  0.635727  0.559228  1
  Cu  Cu7  1  0.464638  0.364273  0.059228  1
  Se  Se8  1  0.580902  0.412704  0.560221  1
  Se  Se9  1  0.919098  0.587296  0.060221  1
  Se  Se10  1  0.419098  0.912704  0.939779  1
  Se  Se11  1  0.080902  0.087296  0.439779  1
  Se  Se12  1  0.836478  0.370435  0.151070  1
  Se  Se13  1  0.336478  0.129565  0.848930  1
  Se  Se14  1  0.163522  0.870435  0.348930  1
  Se  Se15  1  0.663522  0.629565  0.651070  1
  Se  Se16  1  0.660840  0.112735  0.411603  1
  Se  Se17  1  0.160840  0.387265  0.588397  1
  Se  Se18  1  0.339160  0.612735  0.088397  1
  Se  Se19  1  0.839160  0.887265  0.911603  1
  Se  Se20  1  0.133007  0.203637  0.091043  1
  Se  Se21  1  0.633007  0.296363  0.908957  1
  Se  Se22  1  0.866993  0.703637  0.408957  1
  Se  Se23  1  0.366993  0.796363  0.591043  1
