# generated using pymatgen
data_NdZn(BO2)5
_symmetry_space_group_name_H-M   'P 1'
_cell_length_a   8.78238431
_cell_length_b   7.69381808
_cell_length_c   12.64667269
_cell_angle_alpha   90.00000000
_cell_angle_beta   131.16965059
_cell_angle_gamma   90.00000000
_symmetry_Int_Tables_number   1
_chemical_formula_structural   NdZn(BO2)5
_chemical_formula_sum   'Nd4 Zn4 B20 O40'
_cell_volume   643.26408306
_cell_formula_units_Z   4
loop_
 _symmetry_equiv_pos_site_id
 _symmetry_equiv_pos_as_xyz
  1  'x, y, z'
loop_
 _atom_site_type_symbol
 _atom_site_label
 _atom_site_symmetry_multiplicity
 _atom_site_fract_x
 _atom_site_fract_y
 _atom_site_fract_z
 _atom_site_occupancy
  Nd  Nd0  1  0.446756  0.183970  0.763291  1
  Nd  Nd1  1  0.553244  0.683970  0.736709  1
  Nd  Nd2  1  0.553244  0.816030  0.236709  1
  Nd  Nd3  1  0.446756  0.316030  0.263291  1
  Zn  Zn4  1  0.986221  0.411275  0.876566  1
  Zn  Zn5  1  0.013779  0.911275  0.623434  1
  Zn  Zn6  1  0.013779  0.588725  0.123434  1
  Zn  Zn7  1  0.986221  0.088725  0.376566  1
  B  B8  1  0.152505  0.578681  0.738212  1
  B  B9  1  0.015850  0.185571  0.085695  1
  B  B10  1  0.984150  0.685571  0.414305  1
  B  B11  1  0.984150  0.814429  0.914305  1
  B  B12  1  0.015850  0.314429  0.585695  1
  B  B13  1  0.346613  0.901600  0.499821  1
  B  B14  1  0.653387  0.401600  0.000179  1
  B  B15  1  0.653387  0.098400  0.500179  1
  B  B16  1  0.346613  0.598400  0.999821  1
  B  B17  1  0.847495  0.078681  0.761788  1
  B  B18  1  0.847495  0.421319  0.261788  1
  B  B19  1  0.152505  0.921319  0.238212  1
  B  B20  1  0.591788  0.326106  0.607428  1
  B  B21  1  0.408212  0.826106  0.892572  1
  B  B22  1  0.408212  0.673894  0.392572  1
  B  B23  1  0.591788  0.173894  0.107428  1
  B  B24  1  0.773227  0.532134  0.554260  1
  B  B25  1  0.226773  0.032134  0.945740  1
  B  B26  1  0.226773  0.467866  0.445740  1
  B  B27  1  0.773227  0.967866  0.054260  1
  O  O28  1  0.703017  0.212146  0.733670  1
  O  O29  1  0.931349  0.653813  0.931338  1
  O  O30  1  0.068651  0.153813  0.568662  1
  O  O31  1  0.068651  0.346187  0.068662  1
  O  O32  1  0.931349  0.846187  0.431338  1
  O  O33  1  0.616811  0.453533  0.883360  1
  O  O34  1  0.383189  0.953533  0.616640  1
  O  O35  1  0.383189  0.546467  0.116640  1
  O  O36  1  0.296983  0.712146  0.766330  1
  O  O37  1  0.616811  0.046467  0.383360  1
  O  O38  1  0.703017  0.287854  0.233670  1
  O  O39  1  0.296983  0.787854  0.266330  1
  O  O40  1  0.186753  0.534959  0.868402  1
  O  O41  1  0.813247  0.034959  0.631598  1
  O  O42  1  0.813247  0.465041  0.131598  1
  O  O43  1  0.186753  0.965041  0.368402  1
  O  O44  1  0.179099  0.414370  0.691575  1
  O  O45  1  0.820901  0.914370  0.808425  1
  O  O46  1  0.820901  0.585630  0.308425  1
  O  O47  1  0.179099  0.085630  0.191575  1
  O  O48  1  0.947321  0.650254  0.632426  1
  O  O49  1  0.052679  0.150254  0.867574  1
  O  O50  1  0.052679  0.349746  0.367574  1
  O  O51  1  0.947321  0.849746  0.132426  1
  O  O52  1  0.732536  0.473008  0.646741  1
  O  O53  1  0.267464  0.973008  0.853259  1
  O  O54  1  0.267464  0.526992  0.353259  1
  O  O55  1  0.732536  0.026992  0.146741  1
  O  O56  1  0.411619  0.393636  0.582683  1
  O  O57  1  0.588381  0.893636  0.917317  1
  O  O58  1  0.588381  0.606364  0.417317  1
  O  O59  1  0.821987  0.125430  0.009334  1
  O  O60  1  0.527722  0.226076  0.485339  1
  O  O61  1  0.472278  0.726076  0.014661  1
  O  O62  1  0.472278  0.773924  0.514661  1
  O  O63  1  0.527722  0.273924  0.985339  1
  O  O64  1  0.821987  0.374570  0.509334  1
  O  O65  1  0.178013  0.874570  0.990666  1
  O  O66  1  0.178013  0.625430  0.490666  1
  O  O67  1  0.411619  0.106364  0.082683  1
