# generated using pymatgen
data_Ba2SiSe4
_symmetry_space_group_name_H-M   'P 1'
_cell_length_a   7.07032915
_cell_length_b   7.12572773
_cell_length_c   9.30405179
_cell_angle_alpha   90.00000000
_cell_angle_beta   108.40863462
_cell_angle_gamma   90.00000000
_symmetry_Int_Tables_number   1
_chemical_formula_structural   Ba2SiSe4
_chemical_formula_sum   'Ba4 Si2 Se8'
_cell_volume   444.76301495
_cell_formula_units_Z   2
loop_
 _symmetry_equiv_pos_site_id
 _symmetry_equiv_pos_as_xyz
  1  'x, y, z'
loop_
 _atom_site_type_symbol
 _atom_site_label
 _atom_site_symmetry_multiplicity
 _atom_site_fract_x
 _atom_site_fract_y
 _atom_site_fract_z
 _atom_site_occupancy
  Ba  Ba0  1  0.718434  0.750000  0.927107  1
  Ba  Ba1  1  0.281566  0.250000  0.072893  1
  Ba  Ba2  1  0.784663  0.750000  0.455618  1
  Ba  Ba3  1  0.215337  0.250000  0.544382  1
  Si  Si4  1  0.205127  0.750000  0.288869  1
  Si  Si5  1  0.794873  0.250000  0.711131  1
  Se  Se6  1  0.997152  0.003619  0.228405  1
  Se  Se7  1  0.002848  0.503619  0.771595  1
  Se  Se8  1  0.642503  0.250000  0.453528  1
  Se  Se9  1  0.357497  0.750000  0.546472  1
  Se  Se10  1  0.589296  0.250000  0.859783  1
  Se  Se11  1  0.410704  0.750000  0.140217  1
  Se  Se12  1  0.997152  0.496381  0.228405  1
  Se  Se13  1  0.002848  0.996381  0.771595  1
