# generated using pymatgen
data_Rb3TiF7
_symmetry_space_group_name_H-M   'P 1'
_cell_length_a   8.29405288
_cell_length_b   8.29405288
_cell_length_c   6.04505157
_cell_angle_alpha   90.00000000
_cell_angle_beta   90.00000000
_cell_angle_gamma   90.00000000
_symmetry_Int_Tables_number   1
_chemical_formula_structural   Rb3TiF7
_chemical_formula_sum   'Rb6 Ti2 F14'
_cell_volume   415.84703572
_cell_formula_units_Z   2
loop_
 _symmetry_equiv_pos_site_id
 _symmetry_equiv_pos_as_xyz
  1  'x, y, z'
loop_
 _atom_site_type_symbol
 _atom_site_label
 _atom_site_symmetry_multiplicity
 _atom_site_fract_x
 _atom_site_fract_y
 _atom_site_fract_z
 _atom_site_occupancy
  Rb  Rb0  1  0.192931  0.692931  0.500000  1
  Rb  Rb1  1  0.692931  0.807069  0.500000  1
  Rb  Rb2  1  0.307069  0.192931  0.500000  1
  Rb  Rb3  1  0.807069  0.307069  0.500000  1
  Rb  Rb4  1  0.500000  0.500000  0.000000  1
  Rb  Rb5  1  0.000000  0.000000  0.000000  1
  Ti  Ti6  1  0.000000  0.500000  0.000000  1
  Ti  Ti7  1  0.500000  0.000000  0.000000  1
  F  F8  1  0.387934  0.887934  0.774799  1
  F  F9  1  0.612066  0.112066  0.774799  1
  F  F10  1  0.112066  0.387934  0.774799  1
  F  F11  1  0.887934  0.612066  0.774799  1
  F  F12  1  0.387934  0.887934  0.225201  1
  F  F13  1  0.887934  0.612066  0.225201  1
  F  F14  1  0.112066  0.387934  0.225201  1
  F  F15  1  0.612066  0.112066  0.225201  1
  F  F16  1  0.000000  0.000000  0.500000  1
  F  F17  1  0.500000  0.500000  0.500000  1
  F  F18  1  0.838657  0.338657  0.000000  1
  F  F19  1  0.338657  0.161343  0.000000  1
  F  F20  1  0.661343  0.838657  0.000000  1
  F  F21  1  0.161343  0.661343  0.000000  1
