# generated using pymatgen
data_Cs3P6N11
_symmetry_space_group_name_H-M   'P 1'
_cell_length_a   10.76828219
_cell_length_b   10.76828219
_cell_length_c   10.76828219
_cell_angle_alpha   90.00000000
_cell_angle_beta   90.00000000
_cell_angle_gamma   90.00000000
_symmetry_Int_Tables_number   1
_chemical_formula_structural   Cs3P6N11
_chemical_formula_sum   'Cs12 P24 N44'
_cell_volume   1248.64586705
_cell_formula_units_Z   4
loop_
 _symmetry_equiv_pos_site_id
 _symmetry_equiv_pos_as_xyz
  1  'x, y, z'
loop_
 _atom_site_type_symbol
 _atom_site_label
 _atom_site_symmetry_multiplicity
 _atom_site_fract_x
 _atom_site_fract_y
 _atom_site_fract_z
 _atom_site_occupancy
  Cs  Cs0  1  0.980213  0.980213  0.980213  1
  Cs  Cs1  1  0.230213  0.269787  0.730213  1
  Cs  Cs2  1  0.269787  0.730213  0.230213  1
  Cs  Cs3  1  0.730213  0.230213  0.269787  1
  Cs  Cs4  1  0.480213  0.519787  0.019787  1
  Cs  Cs5  1  0.519787  0.019787  0.480213  1
  Cs  Cs6  1  0.019787  0.480213  0.519787  1
  Cs  Cs7  1  0.769787  0.769787  0.769787  1
  Cs  Cs8  1  0.875000  0.125000  0.625000  1
  Cs  Cs9  1  0.125000  0.625000  0.875000  1
  Cs  Cs10  1  0.625000  0.875000  0.125000  1
  Cs  Cs11  1  0.375000  0.375000  0.375000  1
  P  P12  1  0.681616  0.457967  0.550861  1
  P  P13  1  0.181616  0.042033  0.449139  1
  P  P14  1  0.457967  0.550861  0.681616  1
  P  P15  1  0.542033  0.050861  0.818384  1
  P  P16  1  0.550861  0.681616  0.457967  1
  P  P17  1  0.949139  0.318384  0.957967  1
  P  P18  1  0.431616  0.800861  0.792033  1
  P  P19  1  0.931616  0.699139  0.207967  1
  P  P20  1  0.568384  0.300861  0.707967  1
  P  P21  1  0.699139  0.207967  0.931616  1
  P  P22  1  0.707967  0.568384  0.300861  1
  P  P23  1  0.207967  0.931616  0.699139  1
  P  P24  1  0.800861  0.792033  0.431616  1
  P  P25  1  0.792033  0.431616  0.800861  1
  P  P26  1  0.300861  0.707967  0.568384  1
  P  P27  1  0.199139  0.292033  0.068384  1
  P  P28  1  0.292033  0.068384  0.199139  1
  P  P29  1  0.449139  0.181616  0.042033  1
  P  P30  1  0.050861  0.818384  0.542033  1
  P  P31  1  0.957967  0.949139  0.318384  1
  P  P32  1  0.042033  0.449139  0.181616  1
  P  P33  1  0.818384  0.542033  0.050861  1
  P  P34  1  0.318384  0.957967  0.949139  1
  P  P35  1  0.068384  0.199139  0.292033  1
  N  N36  1  0.557814  0.557814  0.557814  1
  N  N37  1  0.807814  0.692186  0.307814  1
  N  N38  1  0.692186  0.307814  0.807814  1
  N  N39  1  0.307814  0.807814  0.692186  1
  N  N40  1  0.057814  0.942186  0.442186  1
  N  N41  1  0.942186  0.442186  0.057814  1
  N  N42  1  0.442186  0.057814  0.942186  1
  N  N43  1  0.192186  0.192186  0.192186  1
  N  N44  1  0.625000  0.317694  0.567694  1
  N  N45  1  0.682306  0.067694  0.875000  1
  N  N46  1  0.567694  0.625000  0.317694  1
  N  N47  1  0.932306  0.375000  0.817694  1
  N  N48  1  0.317694  0.567694  0.625000  1
  N  N49  1  0.432306  0.125000  0.182306  1
  N  N50  1  0.067694  0.875000  0.682306  1
  N  N51  1  0.817694  0.932306  0.375000  1
  N  N52  1  0.182306  0.432306  0.125000  1
  N  N53  1  0.875000  0.682306  0.067694  1
  N  N54  1  0.375000  0.817694  0.932306  1
  N  N55  1  0.274689  0.007627  0.334295  1
  N  N56  1  0.125000  0.182306  0.432306  1
  N  N57  1  0.242373  0.024689  0.584295  1
  N  N58  1  0.475311  0.415705  0.742373  1
  N  N59  1  0.524689  0.915705  0.757627  1
  N  N60  1  0.415705  0.742373  0.475311  1
  N  N61  1  0.084295  0.257627  0.975311  1
  N  N62  1  0.492373  0.665705  0.774689  1
  N  N63  1  0.992373  0.834295  0.225311  1
  N  N64  1  0.507627  0.165705  0.725311  1
  N  N65  1  0.834295  0.225311  0.992373  1
  N  N66  1  0.725311  0.507627  0.165705  1
  N  N67  1  0.225311  0.992373  0.834295  1
  N  N68  1  0.665705  0.774689  0.492373  1
  N  N69  1  0.774689  0.492373  0.665705  1
  N  N70  1  0.165705  0.725311  0.507627  1
  N  N71  1  0.334295  0.274689  0.007627  1
  N  N72  1  0.007627  0.334295  0.274689  1
  N  N73  1  0.257627  0.975311  0.084295  1
  N  N74  1  0.757627  0.524689  0.915705  1
  N  N75  1  0.024689  0.584295  0.242373  1
  N  N76  1  0.975311  0.084295  0.257627  1
  N  N77  1  0.915705  0.757627  0.524689  1
  N  N78  1  0.584295  0.242373  0.024689  1
  N  N79  1  0.742373  0.475311  0.415705  1
