# generated using pymatgen
data_CaTi4(PO4)6
_symmetry_space_group_name_H-M   'P 1'
_cell_length_a   8.87169714
_cell_length_b   8.87169714
_cell_length_c   8.87169714
_cell_angle_alpha   57.70203526
_cell_angle_beta   57.70203526
_cell_angle_gamma   57.70203526
_symmetry_Int_Tables_number   1
_chemical_formula_structural   CaTi4(PO4)6
_chemical_formula_sum   'Ca1 Ti4 P6 O24'
_cell_volume   467.67966740
_cell_formula_units_Z   1
loop_
 _symmetry_equiv_pos_site_id
 _symmetry_equiv_pos_as_xyz
  1  'x, y, z'
loop_
 _atom_site_type_symbol
 _atom_site_label
 _atom_site_symmetry_multiplicity
 _atom_site_fract_x
 _atom_site_fract_y
 _atom_site_fract_z
 _atom_site_occupancy
  Ca  Ca0  1  0.000000  0.000000  0.000000  1
  Ti  Ti1  1  0.360009  0.360009  0.360009  1
  Ti  Ti2  1  0.148430  0.148430  0.148430  1
  Ti  Ti3  1  0.851570  0.851570  0.851570  1
  Ti  Ti4  1  0.639991  0.639991  0.639991  1
  P  P5  1  0.246946  0.539996  0.970057  1
  P  P6  1  0.539996  0.970057  0.246946  1
  P  P7  1  0.970057  0.246946  0.539996  1
  P  P8  1  0.753054  0.460004  0.029943  1
  P  P9  1  0.460004  0.029943  0.753054  1
  P  P10  1  0.029943  0.753054  0.460004  1
  O  O11  1  0.538564  0.802682  0.436782  1
  O  O12  1  0.802682  0.436782  0.538564  1
  O  O13  1  0.436782  0.538564  0.802682  1
  O  O14  1  0.461436  0.197318  0.563218  1
  O  O15  1  0.197318  0.563218  0.461436  1
  O  O16  1  0.563218  0.461436  0.197318  1
  O  O17  1  0.910542  0.265191  0.082492  1
  O  O18  1  0.265191  0.082492  0.910542  1
  O  O19  1  0.082492  0.910542  0.265191  1
  O  O20  1  0.089458  0.734809  0.917508  1
  O  O21  1  0.734809  0.917508  0.089458  1
  O  O22  1  0.995364  0.803405  0.621335  1
  O  O23  1  0.621335  0.995364  0.803405  1
  O  O24  1  0.803405  0.621335  0.995364  1
  O  O25  1  0.004636  0.196595  0.378665  1
  O  O26  1  0.378665  0.004636  0.196595  1
  O  O27  1  0.196595  0.378665  0.004636  1
  O  O28  1  0.514957  0.151227  0.254219  1
  O  O29  1  0.254219  0.514957  0.151227  1
  O  O30  1  0.151227  0.254219  0.514957  1
  O  O31  1  0.485043  0.848773  0.745781  1
  O  O32  1  0.745781  0.485043  0.848773  1
  O  O33  1  0.848773  0.745781  0.485043  1
  O  O34  1  0.917508  0.089458  0.734809  1
