# generated using pymatgen
data_NaYGeO4
_symmetry_space_group_name_H-M   'P 1'
_cell_length_a   5.33502402
_cell_length_b   6.52651437
_cell_length_c   11.53200209
_cell_angle_alpha   90.00000000
_cell_angle_beta   90.00000000
_cell_angle_gamma   90.00000000
_symmetry_Int_Tables_number   1
_chemical_formula_structural   NaYGeO4
_chemical_formula_sum   'Na4 Y4 Ge4 O16'
_cell_volume   401.53406003
_cell_formula_units_Z   4
loop_
 _symmetry_equiv_pos_site_id
 _symmetry_equiv_pos_as_xyz
  1  'x, y, z'
loop_
 _atom_site_type_symbol
 _atom_site_label
 _atom_site_symmetry_multiplicity
 _atom_site_fract_x
 _atom_site_fract_y
 _atom_site_fract_z
 _atom_site_occupancy
  Na  Na0  1  0.000000  0.000000  0.000000  1
  Na  Na1  1  0.000000  0.500000  0.000000  1
  Na  Na2  1  0.500000  0.000000  0.500000  1
  Na  Na3  1  0.500000  0.500000  0.500000  1
  Y  Y4  1  0.003942  0.750000  0.277667  1
  Y  Y5  1  0.996058  0.250000  0.722333  1
  Y  Y6  1  0.496058  0.750000  0.777667  1
  Y  Y7  1  0.503942  0.250000  0.222333  1
  Ge  Ge8  1  0.945685  0.250000  0.402721  1
  Ge  Ge9  1  0.554315  0.250000  0.902721  1
  Ge  Ge10  1  0.054315  0.750000  0.597279  1
  Ge  Ge11  1  0.445685  0.750000  0.097279  1
  O  O12  1  0.792331  0.457204  0.326058  1
  O  O13  1  0.292331  0.542796  0.173942  1
  O  O14  1  0.207669  0.957204  0.673942  1
  O  O15  1  0.707669  0.042796  0.826058  1
  O  O16  1  0.207669  0.542796  0.673942  1
  O  O17  1  0.707669  0.457204  0.826058  1
  O  O18  1  0.792331  0.042796  0.326058  1
  O  O19  1  0.292331  0.957204  0.173942  1
  O  O20  1  0.174172  0.750000  0.454715  1
  O  O21  1  0.674172  0.250000  0.045285  1
  O  O22  1  0.825828  0.250000  0.545285  1
  O  O23  1  0.325828  0.750000  0.954715  1
  O  O24  1  0.728033  0.750000  0.610524  1
  O  O25  1  0.228033  0.250000  0.889476  1
  O  O26  1  0.271967  0.250000  0.389476  1
  O  O27  1  0.771967  0.750000  0.110524  1
