# generated using pymatgen
data_Na4CrO4
_symmetry_space_group_name_H-M   'P 1'
_cell_length_a   5.76200042
_cell_length_b   5.76940882
_cell_length_c   8.74029901
_cell_angle_alpha   81.43624954
_cell_angle_beta   71.35358257
_cell_angle_gamma   68.39712106
_symmetry_Int_Tables_number   1
_chemical_formula_structural   Na4CrO4
_chemical_formula_sum   'Na8 Cr2 O8'
_cell_volume   255.80675749
_cell_formula_units_Z   2
loop_
 _symmetry_equiv_pos_site_id
 _symmetry_equiv_pos_as_xyz
  1  'x, y, z'
loop_
 _atom_site_type_symbol
 _atom_site_label
 _atom_site_symmetry_multiplicity
 _atom_site_fract_x
 _atom_site_fract_y
 _atom_site_fract_z
 _atom_site_occupancy
  Na  Na0  1  0.946373  0.243442  0.600552  1
  Na  Na1  1  0.520772  0.264775  0.432787  1
  Na  Na2  1  0.607375  0.731667  0.182486  1
  Na  Na3  1  0.241314  0.754026  0.988020  1
  Na  Na4  1  0.758686  0.245974  0.011980  1
  Na  Na5  1  0.479228  0.735225  0.567213  1
  Na  Na6  1  0.053627  0.756558  0.399448  1
  Na  Na7  1  0.392625  0.268333  0.817514  1
  Cr  Cr8  1  0.843765  0.720895  0.757726  1
  Cr  Cr9  1  0.156235  0.279105  0.242274  1
  O  O10  1  0.850365  0.845719  0.931337  1
  O  O11  1  0.704545  0.972786  0.624138  1
  O  O12  1  0.295455  0.027214  0.375862  1
  O  O13  1  0.362317  0.470927  0.196206  1
  O  O14  1  0.637683  0.529073  0.803794  1
  O  O15  1  0.163673  0.528343  0.638600  1
  O  O16  1  0.149635  0.154281  0.068663  1
  O  O17  1  0.836327  0.471657  0.361400  1
