# generated using pymatgen
data_BaZnCO3F2
_symmetry_space_group_name_H-M   'P 1'
_cell_length_a   4.92015307
_cell_length_b   4.92015307
_cell_length_c   10.13364395
_cell_angle_alpha   90.00000000
_cell_angle_beta   90.00000000
_cell_angle_gamma   120.00000000
_symmetry_Int_Tables_number   1
_chemical_formula_structural   BaZnCO3F2
_chemical_formula_sum   'Ba2 Zn2 C2 O6 F4'
_cell_volume   212.44841781
_cell_formula_units_Z   2
loop_
 _symmetry_equiv_pos_site_id
 _symmetry_equiv_pos_as_xyz
  1  'x, y, z'
loop_
 _atom_site_type_symbol
 _atom_site_label
 _atom_site_symmetry_multiplicity
 _atom_site_fract_x
 _atom_site_fract_y
 _atom_site_fract_z
 _atom_site_occupancy
  Ba  Ba0  1  0.000000  0.000000  0.500000  1
  Ba  Ba1  1  0.000000  0.000000  0.000000  1
  Zn  Zn2  1  0.666667  0.333333  0.750000  1
  Zn  Zn3  1  0.333333  0.666667  0.250000  1
  C  C4  1  0.333333  0.666667  0.750000  1
  C  C5  1  0.666667  0.333333  0.250000  1
  O  O6  1  0.896869  0.620709  0.250000  1
  O  O7  1  0.276160  0.896869  0.750000  1
  O  O8  1  0.723840  0.103131  0.250000  1
  O  O9  1  0.103131  0.379291  0.750000  1
  O  O10  1  0.379291  0.276160  0.250000  1
  O  O11  1  0.620709  0.723840  0.750000  1
  F  F12  1  0.333333  0.666667  0.452085  1
  F  F13  1  0.666667  0.333333  0.952085  1
  F  F14  1  0.333333  0.666667  0.047915  1
  F  F15  1  0.666667  0.333333  0.547915  1
