# generated using pymatgen
data_K7TaAs4
_symmetry_space_group_name_H-M   'P 1'
_cell_length_a   8.41874936
_cell_length_b   9.24858581
_cell_length_c   10.37117819
_cell_angle_alpha   90.00000000
_cell_angle_beta   90.00000000
_cell_angle_gamma   90.00000000
_symmetry_Int_Tables_number   1
_chemical_formula_structural   K7TaAs4
_chemical_formula_sum   'K14 Ta2 As8'
_cell_volume   807.51575893
_cell_formula_units_Z   2
loop_
 _symmetry_equiv_pos_site_id
 _symmetry_equiv_pos_as_xyz
  1  'x, y, z'
loop_
 _atom_site_type_symbol
 _atom_site_label
 _atom_site_symmetry_multiplicity
 _atom_site_fract_x
 _atom_site_fract_y
 _atom_site_fract_z
 _atom_site_occupancy
  K  K0  1  0.709479  0.833554  0.717199  1
  K  K1  1  0.209479  0.166446  0.782801  1
  K  K2  1  0.209479  0.166446  0.217199  1
  K  K3  1  0.709479  0.833554  0.282801  1
  K  K4  1  0.872002  0.465888  0.711630  1
  K  K5  1  0.372002  0.534112  0.788370  1
  K  K6  1  0.372002  0.534112  0.211630  1
  K  K7  1  0.872002  0.465888  0.288370  1
  K  K8  1  0.161832  0.661409  0.500000  1
  K  K9  1  0.661832  0.338591  0.000000  1
  K  K10  1  0.877621  0.034320  0.000000  1
  K  K11  1  0.377621  0.965680  0.500000  1
  K  K12  1  0.390599  0.891705  0.000000  1
  K  K13  1  0.890599  0.108295  0.500000  1
  Ta  Ta14  1  0.998713  0.673119  0.000000  1
  Ta  Ta15  1  0.498713  0.326881  0.500000  1
  As  As16  1  0.701075  0.682091  0.000000  1
  As  As17  1  0.201075  0.317909  0.500000  1
  As  As18  1  0.093822  0.806206  0.798539  1
  As  As19  1  0.593822  0.193794  0.701461  1
  As  As20  1  0.593822  0.193794  0.298539  1
  As  As21  1  0.093822  0.806206  0.201461  1
  As  As22  1  0.577905  0.590240  0.500000  1
  As  As23  1  0.077905  0.409760  0.000000  1
