# generated using pymatgen
data_NaMgF3
_symmetry_space_group_name_H-M   'P 1'
_cell_length_a   5.28494186
_cell_length_b   5.28494186
_cell_length_c   7.46034020
_cell_angle_alpha   90.00000000
_cell_angle_beta   90.00000000
_cell_angle_gamma   146.55038683
_symmetry_Int_Tables_number   1
_chemical_formula_structural   NaMgF3
_chemical_formula_sum   'Na2 Mg2 F6'
_cell_volume   114.85528377
_cell_formula_units_Z   2
loop_
 _symmetry_equiv_pos_site_id
 _symmetry_equiv_pos_as_xyz
  1  'x, y, z'
loop_
 _atom_site_type_symbol
 _atom_site_label
 _atom_site_symmetry_multiplicity
 _atom_site_fract_x
 _atom_site_fract_y
 _atom_site_fract_z
 _atom_site_occupancy
  Na  Na0  1  0.742943  0.257056  0.750000  1
  Na  Na1  1  0.257056  0.742943  0.250000  1
  Mg  Mg2  1  0.000000  0.000000  0.500000  1
  Mg  Mg3  1  0.000000  0.000000  0.000000  1
  F  F4  1  0.626451  0.373549  0.443071  1
  F  F5  1  0.373549  0.626451  0.943071  1
  F  F6  1  0.626451  0.373549  0.056929  1
  F  F7  1  0.373549  0.626451  0.556929  1
  F  F8  1  0.071197  0.928803  0.750000  1
  F  F9  1  0.928803  0.071197  0.250000  1
