# generated using pymatgen
data_Na2Ge2Se5
_symmetry_space_group_name_H-M   'P 1'
_cell_length_a   9.66493116
_cell_length_b   9.66493116
_cell_length_c   11.26598293
_cell_angle_alpha   90.00000000
_cell_angle_beta   90.00000000
_cell_angle_gamma   91.23436610
_symmetry_Int_Tables_number   1
_chemical_formula_structural   Na2Ge2Se5
_chemical_formula_sum   'Na8 Ge8 Se20'
_cell_volume   1052.12133162
_cell_formula_units_Z   4
loop_
 _symmetry_equiv_pos_site_id
 _symmetry_equiv_pos_as_xyz
  1  'x, y, z'
loop_
 _atom_site_type_symbol
 _atom_site_label
 _atom_site_symmetry_multiplicity
 _atom_site_fract_x
 _atom_site_fract_y
 _atom_site_fract_z
 _atom_site_occupancy
  Na  Na0  1  0.924534  0.424059  0.750000  1
  Na  Na1  1  0.075466  0.575941  0.250000  1
  Na  Na2  1  0.575941  0.075466  0.750000  1
  Na  Na3  1  0.424059  0.924534  0.250000  1
  Na  Na4  1  0.145020  0.145020  0.500000  1
  Na  Na5  1  0.854980  0.854980  0.000000  1
  Na  Na6  1  0.854980  0.854980  0.500000  1
  Na  Na7  1  0.145020  0.145020  0.000000  1
  Ge  Ge8  1  0.593621  0.686457  0.750000  1
  Ge  Ge9  1  0.406379  0.313543  0.250000  1
  Ge  Ge10  1  0.313543  0.406379  0.750000  1
  Ge  Ge11  1  0.686457  0.593621  0.250000  1
  Ge  Ge12  1  0.255243  0.744757  0.919933  1
  Ge  Ge13  1  0.744757  0.255243  0.419933  1
  Ge  Ge14  1  0.255243  0.744757  0.580067  1
  Ge  Ge15  1  0.744757  0.255243  0.080067  1
  Se  Se16  1  0.732329  0.830251  0.250000  1
  Se  Se17  1  0.267671  0.169749  0.750000  1
  Se  Se18  1  0.169749  0.267671  0.250000  1
  Se  Se19  1  0.830251  0.732329  0.750000  1
  Se  Se20  1  0.156872  0.843128  0.087386  1
  Se  Se21  1  0.843128  0.156872  0.587386  1
  Se  Se22  1  0.156872  0.843128  0.412614  1
  Se  Se23  1  0.843128  0.156872  0.912614  1
  Se  Se24  1  0.150197  0.849803  0.750000  1
  Se  Se25  1  0.849803  0.150197  0.250000  1
  Se  Se26  1  0.499564  0.202073  0.076031  1
  Se  Se27  1  0.500436  0.797927  0.576031  1
  Se  Se28  1  0.797927  0.500436  0.423969  1
  Se  Se29  1  0.202073  0.499564  0.923969  1
  Se  Se30  1  0.500436  0.797927  0.923969  1
  Se  Se31  1  0.499564  0.202073  0.423969  1
  Se  Se32  1  0.202073  0.499564  0.576031  1
  Se  Se33  1  0.797927  0.500436  0.076031  1
  Se  Se34  1  0.558130  0.441870  0.750000  1
  Se  Se35  1  0.441870  0.558130  0.250000  1
