# generated using pymatgen
data_Ta2O5
_symmetry_space_group_name_H-M   'P 1'
_cell_length_a   6.92842174
_cell_length_b   6.92842174
_cell_length_c   5.59861805
_cell_angle_alpha   77.70871614
_cell_angle_beta   102.29128386
_cell_angle_gamma   138.31770321
_symmetry_Int_Tables_number   1
_chemical_formula_structural   Ta2O5
_chemical_formula_sum   'Ta4 O10'
_cell_volume   174.02076794
_cell_formula_units_Z   2
loop_
 _symmetry_equiv_pos_site_id
 _symmetry_equiv_pos_as_xyz
  1  'x, y, z'
loop_
 _atom_site_type_symbol
 _atom_site_label
 _atom_site_symmetry_multiplicity
 _atom_site_fract_x
 _atom_site_fract_y
 _atom_site_fract_z
 _atom_site_occupancy
  Ta  Ta0  1  0.105319  0.387359  0.230777  1
  Ta  Ta1  1  0.387359  0.105319  0.269223  1
  Ta  Ta2  1  0.894681  0.612641  0.769223  1
  Ta  Ta3  1  0.612641  0.894681  0.730777  1
  O  O4  1  0.136228  0.726795  0.127567  1
  O  O5  1  0.726795  0.136228  0.372433  1
  O  O6  1  0.863772  0.273205  0.872433  1
  O  O7  1  0.273205  0.863772  0.627567  1
  O  O8  1  0.891228  0.891228  0.750000  1
  O  O9  1  0.108772  0.108772  0.250000  1
  O  O10  1  0.561532  0.337893  0.983320  1
  O  O11  1  0.337893  0.561532  0.516680  1
  O  O12  1  0.438468  0.662107  0.016680  1
  O  O13  1  0.662107  0.438468  0.483320  1
