# generated using pymatgen
data_RbAs
_symmetry_space_group_name_H-M   'P 1'
_cell_length_a   6.74255270
_cell_length_b   7.08345284
_cell_length_c   12.27014134
_cell_angle_alpha   90.00000000
_cell_angle_beta   90.00000000
_cell_angle_gamma   90.00000000
_symmetry_Int_Tables_number   1
_chemical_formula_structural   RbAs
_chemical_formula_sum   'Rb8 As8'
_cell_volume   586.02874894
_cell_formula_units_Z   8
loop_
 _symmetry_equiv_pos_site_id
 _symmetry_equiv_pos_as_xyz
  1  'x, y, z'
loop_
 _atom_site_type_symbol
 _atom_site_label
 _atom_site_symmetry_multiplicity
 _atom_site_fract_x
 _atom_site_fract_y
 _atom_site_fract_z
 _atom_site_occupancy
  Rb  Rb0  1  0.098939  0.109057  0.418050  1
  Rb  Rb1  1  0.598939  0.390943  0.581950  1
  Rb  Rb2  1  0.901061  0.609057  0.081950  1
  Rb  Rb3  1  0.401061  0.890943  0.918050  1
  Rb  Rb4  1  0.667713  0.146018  0.212583  1
  Rb  Rb5  1  0.167713  0.353982  0.787417  1
  Rb  Rb6  1  0.332287  0.646018  0.287417  1
  Rb  Rb7  1  0.832287  0.853982  0.712583  1
  As  As8  1  0.169384  0.184643  0.105682  1
  As  As9  1  0.669384  0.315357  0.894318  1
  As  As10  1  0.830616  0.684643  0.394318  1
  As  As11  1  0.330616  0.815357  0.605682  1
  As  As12  1  0.409782  0.425424  0.031009  1
  As  As13  1  0.909782  0.074576  0.968991  1
  As  As14  1  0.590218  0.925424  0.468991  1
  As  As15  1  0.090218  0.574576  0.531009  1
