# generated using pymatgen
data_LiScP2O7
_symmetry_space_group_name_H-M   'P 1'
_cell_length_a   5.01522908
_cell_length_b   8.52197514
_cell_length_c   7.11600232
_cell_angle_alpha   90.00000000
_cell_angle_beta   108.91558209
_cell_angle_gamma   90.00000000
_symmetry_Int_Tables_number   1
_chemical_formula_structural   LiScP2O7
_chemical_formula_sum   'Li2 Sc2 P4 O14'
_cell_volume   287.71134335
_cell_formula_units_Z   2
loop_
 _symmetry_equiv_pos_site_id
 _symmetry_equiv_pos_as_xyz
  1  'x, y, z'
loop_
 _atom_site_type_symbol
 _atom_site_label
 _atom_site_symmetry_multiplicity
 _atom_site_fract_x
 _atom_site_fract_y
 _atom_site_fract_z
 _atom_site_occupancy
  Li  Li0  1  0.183044  0.353683  0.658887  1
  Li  Li1  1  0.816956  0.853683  0.341113  1
  Sc  Sc2  1  0.211285  0.000806  0.731766  1
  Sc  Sc3  1  0.788715  0.500806  0.268234  1
  P  P4  1  0.598972  0.179301  0.467403  1
  P  P5  1  0.219697  0.287095  0.080104  1
  P  P6  1  0.780303  0.787095  0.919896  1
  P  P7  1  0.401028  0.679301  0.532597  1
  O  O8  1  0.964137  0.330216  0.138747  1
  O  O9  1  0.403858  0.157784  0.237354  1
  O  O10  1  0.596142  0.657784  0.762646  1
  O  O11  1  0.198235  0.539238  0.494065  1
  O  O12  1  0.801765  0.039238  0.505935  1
  O  O13  1  0.597984  0.677054  0.407233  1
  O  O14  1  0.144039  0.202573  0.879282  1
  O  O15  1  0.855961  0.702573  0.120718  1
  O  O16  1  0.402016  0.177054  0.592767  1
  O  O17  1  0.242141  0.835886  0.515450  1
  O  O18  1  0.406625  0.429364  0.082164  1
  O  O19  1  0.757859  0.335886  0.484550  1
  O  O20  1  0.593375  0.929364  0.917836  1
  O  O21  1  0.035863  0.830216  0.861253  1
