# generated using pymatgen
data_Na2TiF6
_symmetry_space_group_name_H-M   'P 1'
_cell_length_a   9.68359256
_cell_length_b   9.68359256
_cell_length_c   4.71119701
_cell_angle_alpha   90.00000000
_cell_angle_beta   90.00000000
_cell_angle_gamma   120.00000000
_symmetry_Int_Tables_number   1
_chemical_formula_structural   Na2TiF6
_chemical_formula_sum   'Na6 Ti3 F18'
_cell_volume   382.59114459
_cell_formula_units_Z   3
loop_
 _symmetry_equiv_pos_site_id
 _symmetry_equiv_pos_as_xyz
  1  'x, y, z'
loop_
 _atom_site_type_symbol
 _atom_site_label
 _atom_site_symmetry_multiplicity
 _atom_site_fract_x
 _atom_site_fract_y
 _atom_site_fract_z
 _atom_site_occupancy
  Na  Na0  1  0.342690  0.342690  0.000000  1
  Na  Na1  1  0.000000  0.657310  0.000000  1
  Na  Na2  1  0.657310  0.000000  0.000000  1
  Na  Na3  1  0.657310  0.657310  0.000000  1
  Na  Na4  1  0.000000  0.342690  0.000000  1
  Na  Na5  1  0.342690  0.000000  0.000000  1
  Ti  Ti6  1  0.666667  0.333333  0.499028  1
  Ti  Ti7  1  0.333333  0.666667  0.500972  1
  Ti  Ti8  1  0.000000  0.000000  0.000000  1
  F  F9  1  0.573201  0.426799  0.729622  1
  F  F10  1  0.573201  0.146403  0.729622  1
  F  F11  1  0.853597  0.426799  0.729622  1
  F  F12  1  0.146403  0.573201  0.270378  1
  F  F13  1  0.426799  0.853597  0.270378  1
  F  F14  1  0.426799  0.573201  0.270378  1
  F  F15  1  0.759625  0.240375  0.269795  1
  F  F16  1  0.759625  0.519251  0.269795  1
  F  F17  1  0.480749  0.240375  0.269795  1
  F  F18  1  0.095548  0.904452  0.215321  1
  F  F19  1  0.095548  0.191096  0.215321  1
  F  F20  1  0.808904  0.904452  0.215321  1
  F  F21  1  0.191096  0.095548  0.784679  1
  F  F22  1  0.904452  0.808904  0.784679  1
  F  F23  1  0.904452  0.095548  0.784679  1
  F  F24  1  0.240375  0.759625  0.730205  1
  F  F25  1  0.240375  0.480749  0.730205  1
  F  F26  1  0.519251  0.759625  0.730205  1
