# generated using pymatgen
data_Sr2Ge2Se5
_symmetry_space_group_name_H-M   'P 1'
_cell_length_a   8.60553027
_cell_length_b   12.46774478
_cell_length_c   12.24798891
_cell_angle_alpha   90.00000000
_cell_angle_beta   130.56938116
_cell_angle_gamma   90.00000000
_symmetry_Int_Tables_number   1
_chemical_formula_structural   Sr2Ge2Se5
_chemical_formula_sum   'Sr8 Ge8 Se20'
_cell_volume   998.21968009
_cell_formula_units_Z   4
loop_
 _symmetry_equiv_pos_site_id
 _symmetry_equiv_pos_as_xyz
  1  'x, y, z'
loop_
 _atom_site_type_symbol
 _atom_site_label
 _atom_site_symmetry_multiplicity
 _atom_site_fract_x
 _atom_site_fract_y
 _atom_site_fract_z
 _atom_site_occupancy
  Sr  Sr0  1  0.535245  0.198728  0.475960  1
  Sr  Sr1  1  0.464755  0.698728  0.024040  1
  Sr  Sr2  1  0.464755  0.801272  0.524040  1
  Sr  Sr3  1  0.535245  0.301272  0.975960  1
  Sr  Sr4  1  0.011642  0.337953  0.467110  1
  Sr  Sr5  1  0.988358  0.837953  0.032890  1
  Sr  Sr6  1  0.988358  0.662047  0.532890  1
  Sr  Sr7  1  0.011642  0.162047  0.967110  1
  Ge  Ge8  1  0.515369  0.980911  0.812596  1
  Ge  Ge9  1  0.484631  0.019089  0.187404  1
  Ge  Ge10  1  0.515369  0.519089  0.312596  1
  Ge  Ge11  1  0.484631  0.480911  0.687404  1
  Ge  Ge12  1  0.158680  0.449707  0.163986  1
  Ge  Ge13  1  0.841320  0.949707  0.336014  1
  Ge  Ge14  1  0.841320  0.550293  0.836014  1
  Ge  Ge15  1  0.158680  0.050293  0.663986  1
  Se  Se16  1  0.096740  0.409592  0.939835  1
  Se  Se17  1  0.903260  0.909592  0.560165  1
  Se  Se18  1  0.903260  0.590408  0.060165  1
  Se  Se19  1  0.096740  0.090408  0.439835  1
  Se  Se20  1  0.062741  0.205616  0.719666  1
  Se  Se21  1  0.062741  0.294384  0.219666  1
  Se  Se22  1  0.937259  0.705616  0.780334  1
  Se  Se23  1  0.937259  0.794384  0.280334  1
  Se  Se24  1  0.749374  0.441634  0.542708  1
  Se  Se25  1  0.250626  0.941634  0.957292  1
  Se  Se26  1  0.250626  0.558366  0.457292  1
  Se  Se27  1  0.749374  0.058366  0.042708  1
  Se  Se28  1  0.325549  0.508956  0.788346  1
  Se  Se29  1  0.674451  0.008956  0.711654  1
  Se  Se30  1  0.674451  0.491044  0.211654  1
  Se  Se31  1  0.325549  0.991044  0.288346  1
  Se  Se32  1  0.515083  0.211903  0.203094  1
  Se  Se33  1  0.484917  0.711903  0.296906  1
  Se  Se34  1  0.484917  0.788097  0.796906  1
  Se  Se35  1  0.515083  0.288097  0.703094  1
