# generated using pymatgen
data_KSmF4
_symmetry_space_group_name_H-M   'P 1'
_cell_length_a   3.72132924
_cell_length_b   6.23498871
_cell_length_c   15.72907104
_cell_angle_alpha   90.00000000
_cell_angle_beta   90.00000000
_cell_angle_gamma   90.00000000
_symmetry_Int_Tables_number   1
_chemical_formula_structural   KSmF4
_chemical_formula_sum   'K4 Sm4 F16'
_cell_volume   364.95291825
_cell_formula_units_Z   4
loop_
 _symmetry_equiv_pos_site_id
 _symmetry_equiv_pos_as_xyz
  1  'x, y, z'
loop_
 _atom_site_type_symbol
 _atom_site_label
 _atom_site_symmetry_multiplicity
 _atom_site_fract_x
 _atom_site_fract_y
 _atom_site_fract_z
 _atom_site_occupancy
  K  K0  1  0.750000  0.222284  0.702094  1
  K  K1  1  0.250000  0.777716  0.297906  1
  K  K2  1  0.750000  0.722284  0.797906  1
  K  K3  1  0.250000  0.277716  0.202094  1
  Sm  Sm4  1  0.250000  0.248656  0.940145  1
  Sm  Sm5  1  0.750000  0.751344  0.059855  1
  Sm  Sm6  1  0.250000  0.748656  0.559855  1
  Sm  Sm7  1  0.750000  0.251344  0.440145  1
  F  F8  1  0.250000  0.408099  0.809621  1
  F  F9  1  0.750000  0.591901  0.190379  1
  F  F10  1  0.250000  0.908099  0.690379  1
  F  F11  1  0.750000  0.091901  0.309621  1
  F  F12  1  0.750000  0.105745  0.867364  1
  F  F13  1  0.250000  0.894255  0.132636  1
  F  F14  1  0.750000  0.605745  0.632636  1
  F  F15  1  0.250000  0.394255  0.367364  1
  F  F16  1  0.750000  0.133721  0.035831  1
  F  F17  1  0.250000  0.866279  0.964169  1
  F  F18  1  0.750000  0.633721  0.464169  1
  F  F19  1  0.250000  0.366279  0.535831  1
  F  F20  1  0.250000  0.995152  0.442755  1
  F  F21  1  0.750000  0.004848  0.557245  1
  F  F22  1  0.250000  0.495152  0.057245  1
  F  F23  1  0.750000  0.504848  0.942755  1
