# generated using pymatgen
data_Li2WO4
_symmetry_space_group_name_H-M   'P 1'
_cell_length_a   9.63388307
_cell_length_b   9.63388307
_cell_length_c   9.63388307
_cell_angle_alpha   101.20945143
_cell_angle_beta   101.20945143
_cell_angle_gamma   127.67687660
_symmetry_Int_Tables_number   1
_chemical_formula_structural   Li2WO4
_chemical_formula_sum   'Li16 W8 O32'
_cell_volume   635.18389797
_cell_formula_units_Z   8
loop_
 _symmetry_equiv_pos_site_id
 _symmetry_equiv_pos_as_xyz
  1  'x, y, z'
loop_
 _atom_site_type_symbol
 _atom_site_label
 _atom_site_symmetry_multiplicity
 _atom_site_fract_x
 _atom_site_fract_y
 _atom_site_fract_z
 _atom_site_occupancy
  Li  Li0  1  0.125000  0.240248  0.615248  1
  Li  Li1  1  0.759752  0.875000  0.384752  1
  Li  Li2  1  0.490248  0.375000  0.615248  1
  Li  Li3  1  0.625000  0.509752  0.384752  1
  Li  Li4  1  0.125000  0.509752  0.884752  1
  Li  Li5  1  0.490248  0.875000  0.115248  1
  Li  Li6  1  0.759752  0.375000  0.884752  1
  Li  Li7  1  0.625000  0.240248  0.115248  1
  Li  Li8  1  0.119446  0.619446  0.238891  1
  Li  Li9  1  0.869446  0.130554  0.000000  1
  Li  Li10  1  0.119446  0.880554  0.500000  1
  Li  Li11  1  0.869446  0.869446  0.738891  1
  Li  Li12  1  0.130554  0.130554  0.261109  1
  Li  Li13  1  0.380554  0.619446  0.500000  1
  Li  Li14  1  0.130554  0.869446  0.000000  1
  Li  Li15  1  0.380554  0.880554  0.761109  1
  W  W16  1  0.514694  0.650504  0.864191  1
  W  W17  1  0.786313  0.650504  0.135809  1
  W  W18  1  0.900504  0.264694  0.364191  1
  W  W19  1  0.900504  0.536313  0.635809  1
  W  W20  1  0.463687  0.099496  0.364191  1
  W  W21  1  0.349496  0.213687  0.864191  1
  W  W22  1  0.349496  0.485306  0.135809  1
  W  W23  1  0.735306  0.099496  0.635809  1
  O  O24  1  0.738959  0.862003  0.876956  1
  O  O25  1  0.610252  0.716864  0.106612  1
  O  O26  1  0.610252  0.503641  0.893388  1
  O  O27  1  0.753641  0.360252  0.393388  1
  O  O28  1  0.639748  0.246359  0.606612  1
  O  O29  1  0.639748  0.033136  0.393388  1
  O  O30  1  0.496359  0.389748  0.106612  1
  O  O31  1  0.966864  0.360252  0.606612  1
  O  O32  1  0.860165  0.245743  0.845221  1
  O  O33  1  0.264945  0.610165  0.114422  1
  O  O34  1  0.495743  0.150522  0.885578  1
  O  O35  1  0.400522  0.014945  0.154779  1
  O  O36  1  0.985055  0.599478  0.845221  1
  O  O37  1  0.754257  0.139835  0.154779  1
  O  O38  1  0.849478  0.504257  0.114422  1
  O  O39  1  0.389835  0.735055  0.885578  1
  O  O40  1  0.389835  0.504257  0.654779  1
  O  O41  1  0.985055  0.139835  0.385578  1
  O  O42  1  0.754257  0.599478  0.614422  1
  O  O43  1  0.849478  0.735055  0.345221  1
  O  O44  1  0.264945  0.150522  0.654779  1
  O  O45  1  0.495743  0.610165  0.345221  1
  O  O46  1  0.400522  0.245743  0.385578  1
  O  O47  1  0.860165  0.014945  0.614422  1
  O  O48  1  0.112003  0.488959  0.376956  1
  O  O49  1  0.112003  0.735047  0.623044  1
  O  O50  1  0.264953  0.887997  0.376956  1
  O  O51  1  0.137997  0.014953  0.876956  1
  O  O52  1  0.137997  0.261041  0.123044  1
  O  O53  1  0.511041  0.887997  0.623044  1
  O  O54  1  0.283136  0.389748  0.893388  1
  O  O55  1  0.985047  0.862003  0.123044  1
