# generated using pymatgen
data_K2ErF5
_symmetry_space_group_name_H-M   'P 1'
_cell_length_a   6.68240063
_cell_length_b   7.26395447
_cell_length_c   10.97209595
_cell_angle_alpha   90.00000000
_cell_angle_beta   90.00000000
_cell_angle_gamma   90.00000000
_symmetry_Int_Tables_number   1
_chemical_formula_structural   K2ErF5
_chemical_formula_sum   'K8 Er4 F20'
_cell_volume   532.59271236
_cell_formula_units_Z   4
loop_
 _symmetry_equiv_pos_site_id
 _symmetry_equiv_pos_as_xyz
  1  'x, y, z'
loop_
 _atom_site_type_symbol
 _atom_site_label
 _atom_site_symmetry_multiplicity
 _atom_site_fract_x
 _atom_site_fract_y
 _atom_site_fract_z
 _atom_site_occupancy
  K  K0  1  0.534664  0.996961  0.829048  1
  K  K1  1  0.465336  0.496961  0.170952  1
  K  K2  1  0.965336  0.996961  0.329048  1
  K  K3  1  0.034664  0.496961  0.670952  1
  K  K4  1  0.534664  0.503039  0.829048  1
  K  K5  1  0.465336  0.003039  0.170952  1
  K  K6  1  0.965336  0.503039  0.329048  1
  K  K7  1  0.034664  0.003039  0.670952  1
  Er  Er8  1  0.563715  0.250000  0.502519  1
  Er  Er9  1  0.436285  0.750000  0.497481  1
  Er  Er10  1  0.936285  0.250000  0.002519  1
  Er  Er11  1  0.063715  0.750000  0.997481  1
  F  F12  1  0.877619  0.750000  0.833920  1
  F  F13  1  0.122381  0.250000  0.166080  1
  F  F14  1  0.622381  0.750000  0.333920  1
  F  F15  1  0.377619  0.250000  0.666080  1
  F  F16  1  0.843106  0.250000  0.810971  1
  F  F17  1  0.156894  0.750000  0.189029  1
  F  F18  1  0.656894  0.250000  0.310971  1
  F  F19  1  0.343106  0.750000  0.689029  1
  F  F20  1  0.646878  0.964230  0.572910  1
  F  F21  1  0.353122  0.464230  0.427090  1
  F  F22  1  0.853122  0.964230  0.072910  1
  F  F23  1  0.146878  0.464230  0.927090  1
  F  F24  1  0.389824  0.750000  0.986065  1
  F  F25  1  0.610176  0.250000  0.013935  1
  F  F26  1  0.110176  0.750000  0.486065  1
  F  F27  1  0.889824  0.250000  0.513935  1
  F  F28  1  0.146878  0.035770  0.927090  1
  F  F29  1  0.853122  0.535770  0.072910  1
  F  F30  1  0.353122  0.035770  0.427090  1
  F  F31  1  0.646878  0.535770  0.572910  1
