# generated using pymatgen
data_NaTe3
_symmetry_space_group_name_H-M   'P 1'
_cell_length_a   9.13363380
_cell_length_b   9.13363380
_cell_length_c   22.19016725
_cell_angle_alpha   90.00000000
_cell_angle_beta   90.00000000
_cell_angle_gamma   120.00000000
_symmetry_Int_Tables_number   1
_chemical_formula_structural   NaTe3
_chemical_formula_sum   'Na12 Te36'
_cell_volume   1603.16564540
_cell_formula_units_Z   12
loop_
 _symmetry_equiv_pos_site_id
 _symmetry_equiv_pos_as_xyz
  1  'x, y, z'
loop_
 _atom_site_type_symbol
 _atom_site_label
 _atom_site_symmetry_multiplicity
 _atom_site_fract_x
 _atom_site_fract_y
 _atom_site_fract_z
 _atom_site_occupancy
  Na  Na0  1  0.000000  0.000000  0.123611  1
  Na  Na1  1  0.000000  0.000000  0.376389  1
  Na  Na2  1  0.000000  0.000000  0.876389  1
  Na  Na3  1  0.000000  0.000000  0.623611  1
  Na  Na4  1  0.333333  0.666667  0.958944  1
  Na  Na5  1  0.666667  0.333333  0.541056  1
  Na  Na6  1  0.666667  0.333333  0.041056  1
  Na  Na7  1  0.333333  0.666667  0.458944  1
  Na  Na8  1  0.333333  0.666667  0.206768  1
  Na  Na9  1  0.666667  0.333333  0.293232  1
  Na  Na10  1  0.666667  0.333333  0.793232  1
  Na  Na11  1  0.333333  0.666667  0.706768  1
  Te  Te12  1  0.794751  0.662372  0.206685  1
  Te  Te13  1  0.337628  0.132379  0.206685  1
  Te  Te14  1  0.867621  0.205249  0.206685  1
  Te  Te15  1  0.132379  0.337628  0.293315  1
  Te  Te16  1  0.205249  0.867621  0.293315  1
  Te  Te17  1  0.662372  0.794751  0.293315  1
  Te  Te18  1  0.205249  0.337628  0.793315  1
  Te  Te19  1  0.662372  0.867621  0.793315  1
  Te  Te20  1  0.132379  0.794751  0.793315  1
  Te  Te21  1  0.867621  0.662372  0.706685  1
  Te  Te22  1  0.794751  0.132379  0.706685  1
  Te  Te23  1  0.337628  0.205249  0.706685  1
  Te  Te24  1  0.670983  0.840411  0.540409  1
  Te  Te25  1  0.159589  0.830572  0.540409  1
  Te  Te26  1  0.169428  0.329017  0.540409  1
  Te  Te27  1  0.830572  0.159589  0.959591  1
  Te  Te28  1  0.329017  0.169428  0.959591  1
  Te  Te29  1  0.840411  0.670983  0.959591  1
  Te  Te30  1  0.329017  0.159589  0.459591  1
  Te  Te31  1  0.840411  0.169428  0.459591  1
  Te  Te32  1  0.830572  0.670983  0.459591  1
  Te  Te33  1  0.169428  0.840411  0.040409  1
  Te  Te34  1  0.670983  0.830572  0.040409  1
  Te  Te35  1  0.159589  0.329017  0.040409  1
  Te  Te36  1  0.008235  0.527581  0.621456  1
  Te  Te37  1  0.472419  0.480654  0.621456  1
  Te  Te38  1  0.519346  0.991765  0.621456  1
  Te  Te39  1  0.480654  0.472419  0.878544  1
  Te  Te40  1  0.991765  0.519346  0.878544  1
  Te  Te41  1  0.527581  0.008235  0.878544  1
  Te  Te42  1  0.991765  0.472419  0.378544  1
  Te  Te43  1  0.527581  0.519346  0.378544  1
  Te  Te44  1  0.480654  0.008235  0.378544  1
  Te  Te45  1  0.519346  0.527581  0.121456  1
  Te  Te46  1  0.008235  0.480654  0.121456  1
  Te  Te47  1  0.472419  0.991765  0.121456  1
