# generated using pymatgen
data_Be(BH4)2
_symmetry_space_group_name_H-M   'P 1'
_cell_length_a   10.69802587
_cell_length_b   10.69802587
_cell_length_c   10.69802587
_cell_angle_alpha   100.42874474
_cell_angle_beta   100.42874474
_cell_angle_gamma   129.64097501
_symmetry_Int_Tables_number   1
_chemical_formula_structural   Be(BH4)2
_chemical_formula_sum   'Be8 B16 H64'
_cell_volume   853.24259995
_cell_formula_units_Z   8
loop_
 _symmetry_equiv_pos_site_id
 _symmetry_equiv_pos_as_xyz
  1  'x, y, z'
loop_
 _atom_site_type_symbol
 _atom_site_label
 _atom_site_symmetry_multiplicity
 _atom_site_fract_x
 _atom_site_fract_y
 _atom_site_fract_z
 _atom_site_occupancy
  Be  Be0  1  0.411187  0.800016  0.209592  1
  Be  Be1  1  0.590424  0.201595  0.790408  1
  Be  Be2  1  0.451595  0.161187  0.111171  1
  Be  Be3  1  0.050016  0.340424  0.888829  1
  Be  Be4  1  0.090424  0.300016  0.388829  1
  Be  Be5  1  0.951595  0.840424  0.290408  1
  Be  Be6  1  0.550016  0.661187  0.709592  1
  Be  Be7  1  0.911187  0.701595  0.611171  1
  B  B8  1  0.428216  0.981958  0.166297  1
  B  B9  1  0.815662  0.261919  0.833703  1
  B  B10  1  0.511919  0.178216  0.946257  1
  B  B11  1  0.231958  0.565662  0.053743  1
  B  B12  1  0.315662  0.481958  0.553743  1
  B  B13  1  0.011919  0.065662  0.333703  1
  B  B14  1  0.731958  0.678216  0.666297  1
  B  B15  1  0.928216  0.761919  0.446257  1
  B  B16  1  0.553811  0.843947  0.380455  1
  B  B17  1  0.463493  0.173356  0.619545  1
  B  B18  1  0.423356  0.303811  0.209863  1
  B  B19  1  0.093947  0.213493  0.790137  1
  B  B20  1  0.963493  0.343947  0.290137  1
  B  B21  1  0.923356  0.713493  0.119545  1
  B  B22  1  0.593947  0.803811  0.880455  1
  B  B23  1  0.053811  0.673356  0.709863  1
  H  H24  1  0.553498  0.141027  0.233371  1
  H  H25  1  0.907656  0.320127  0.766629  1
  H  H26  1  0.570127  0.303498  0.912471  1
  H  H27  1  0.391027  0.657656  0.087529  1
  H  H28  1  0.407656  0.641027  0.587529  1
  H  H29  1  0.070127  0.157656  0.266629  1
  H  H30  1  0.891027  0.803498  0.733371  1
  H  H31  1  0.053498  0.820127  0.412471  1
  H  H32  1  0.311657  0.941417  0.068826  1
  H  H33  1  0.872591  0.242831  0.931174  1
  H  H34  1  0.492831  0.061657  0.870240  1
  H  H35  1  0.191417  0.622591  0.129760  1
  H  H36  1  0.372591  0.441417  0.629760  1
  H  H37  1  0.992831  0.122591  0.431174  1
  H  H38  1  0.691417  0.561657  0.568826  1
  H  H39  1  0.811657  0.742831  0.370240  1
  H  H40  1  0.486859  0.926059  0.117777  1
  H  H41  1  0.808282  0.369081  0.882223  1
  H  H42  1  0.619081  0.236859  0.060800  1
  H  H43  1  0.176059  0.558282  0.939200  1
  H  H44  1  0.308282  0.426059  0.439200  1
  H  H45  1  0.361649  0.920620  0.246675  1
  H  H46  1  0.119081  0.058282  0.382223  1
  H  H47  1  0.986859  0.869081  0.560800  1
  H  H48  1  0.138183  0.654395  0.664402  1
  H  H49  1  0.723781  0.888183  0.983789  1
  H  H50  1  0.904395  0.739993  0.016211  1
  H  H51  1  0.989993  0.473781  0.335598  1
  H  H52  1  0.223781  0.239993  0.835598  1
  H  H53  1  0.404395  0.388183  0.164402  1
  H  H54  1  0.489993  0.154395  0.516211  1
  H  H55  1  0.638183  0.973781  0.483789  1
  H  H56  1  0.060149  0.675862  0.823934  1
  H  H57  1  0.486215  0.810149  0.884287  1
  H  H58  1  0.925862  0.601928  0.115713  1
  H  H59  1  0.851928  0.236215  0.176066  1
  H  H60  1  0.986215  0.101928  0.676066  1
  H  H61  1  0.425862  0.310149  0.323934  1
  H  H62  1  0.351928  0.175862  0.615713  1
  H  H63  1  0.560149  0.736215  0.384287  1
  H  H64  1  0.104685  0.816896  0.709785  1
  H  H65  1  0.644900  0.854685  0.787789  1
  H  H66  1  0.066896  0.857111  0.212211  1
  H  H67  1  0.107111  0.394900  0.290215  1
  H  H68  1  0.144900  0.357111  0.790215  1
  H  H69  1  0.566896  0.354685  0.209785  1
  H  H70  1  0.607111  0.316896  0.712211  1
  H  H71  1  0.604685  0.894900  0.287789  1
  H  H72  1  0.894654  0.550653  0.626883  1
  H  H73  1  0.517771  0.644654  0.844000  1
  H  H74  1  0.800653  0.673770  0.156000  1
  H  H75  1  0.923770  0.267771  0.373117  1
  H  H76  1  0.017771  0.173770  0.873117  1
  H  H77  1  0.300653  0.144654  0.126883  1
  H  H78  1  0.423770  0.050653  0.656000  1
  H  H79  1  0.394654  0.767771  0.344000  1
  H  H80  1  0.861649  0.614974  0.441029  1
  H  H81  1  0.670620  0.611649  0.746675  1
  H  H82  1  0.864974  0.923945  0.253325  1
  H  H83  1  0.173945  0.420620  0.558971  1
  H  H84  1  0.170620  0.423945  0.058971  1
  H  H85  1  0.364974  0.111649  0.941029  1
  H  H86  1  0.673945  0.114974  0.753325  1
  H  H87  1  0.676059  0.736859  0.617777  1
