# generated using pymatgen
data_AsCl3
_symmetry_space_group_name_H-M   'P 1'
_cell_length_a   4.65275849
_cell_length_b   10.22727256
_cell_length_c   12.23253066
_cell_angle_alpha   90.00000000
_cell_angle_beta   90.00000000
_cell_angle_gamma   90.00000000
_symmetry_Int_Tables_number   1
_chemical_formula_structural   AsCl3
_chemical_formula_sum   'As4 Cl12'
_cell_volume   582.08532905
_cell_formula_units_Z   4
loop_
 _symmetry_equiv_pos_site_id
 _symmetry_equiv_pos_as_xyz
  1  'x, y, z'
loop_
 _atom_site_type_symbol
 _atom_site_label
 _atom_site_symmetry_multiplicity
 _atom_site_fract_x
 _atom_site_fract_y
 _atom_site_fract_z
 _atom_site_occupancy
  As  As0  1  0.028184  0.698978  0.787635  1
  As  As1  1  0.528184  0.801022  0.212365  1
  As  As2  1  0.971816  0.198978  0.712365  1
  As  As3  1  0.471816  0.301022  0.287635  1
  Cl  Cl4  1  0.244633  0.529900  0.864061  1
  Cl  Cl5  1  0.744633  0.970100  0.135939  1
  Cl  Cl6  1  0.755367  0.029900  0.635939  1
  Cl  Cl7  1  0.255367  0.470100  0.364061  1
  Cl  Cl8  1  0.236011  0.296289  0.130998  1
  Cl  Cl9  1  0.736011  0.203711  0.869002  1
  Cl  Cl10  1  0.763989  0.796289  0.369002  1
  Cl  Cl11  1  0.263989  0.703711  0.630998  1
  Cl  Cl12  1  0.242114  0.142842  0.374600  1
  Cl  Cl13  1  0.742114  0.357158  0.625400  1
  Cl  Cl14  1  0.757886  0.642842  0.125400  1
  Cl  Cl15  1  0.257886  0.857158  0.874600  1
