# generated using pymatgen
data_Al10Ge2O19
_symmetry_space_group_name_H-M   'P 1'
_cell_length_a   15.70865174
_cell_length_b   15.70865174
_cell_length_c   7.83298588
_cell_angle_alpha   90.00000000
_cell_angle_beta   90.00000000
_cell_angle_gamma   158.25762014
_symmetry_Int_Tables_number   1
_chemical_formula_structural   Al10Ge2O19
_chemical_formula_sum   'Al20 Ge4 O38'
_cell_volume   716.00473991
_cell_formula_units_Z   2
loop_
 _symmetry_equiv_pos_site_id
 _symmetry_equiv_pos_as_xyz
  1  'x, y, z'
loop_
 _atom_site_type_symbol
 _atom_site_label
 _atom_site_symmetry_multiplicity
 _atom_site_fract_x
 _atom_site_fract_y
 _atom_site_fract_z
 _atom_site_occupancy
  Al  Al0  1  0.302313  0.184031  0.989409  1
  Al  Al1  1  0.697687  0.815969  0.489409  1
  Al  Al2  1  0.815969  0.697687  0.989409  1
  Al  Al3  1  0.184031  0.302313  0.489409  1
  Al  Al4  1  0.972288  0.027712  0.832159  1
  Al  Al5  1  0.027712  0.972288  0.332159  1
  Al  Al6  1  0.476545  0.523455  0.817371  1
  Al  Al7  1  0.523455  0.476545  0.317371  1
  Al  Al8  1  0.223681  0.776319  0.845445  1
  Al  Al9  1  0.776319  0.223681  0.345445  1
  Al  Al10  1  0.144745  0.855255  0.177900  1
  Al  Al11  1  0.855255  0.144745  0.677900  1
  Al  Al12  1  0.401112  0.598888  0.162931  1
  Al  Al13  1  0.598888  0.401112  0.662931  1
  Al  Al14  1  0.902032  0.097968  0.162688  1
  Al  Al15  1  0.097968  0.902032  0.662688  1
  Al  Al16  1  0.938295  0.568493  0.513983  1
  Al  Al17  1  0.061705  0.431507  0.013983  1
  Al  Al18  1  0.431507  0.061705  0.513983  1
  Al  Al19  1  0.568493  0.938295  0.013983  1
  Ge  Ge20  1  0.382188  0.617812  0.783901  1
  Ge  Ge21  1  0.617812  0.382188  0.283901  1
  Ge  Ge22  1  0.245162  0.754838  0.202540  1
  Ge  Ge23  1  0.754838  0.245162  0.702540  1
  O  O24  1  0.070279  0.929721  0.474635  1
  O  O25  1  0.929721  0.070279  0.974635  1
  O  O26  1  0.803174  0.196826  0.555055  1
  O  O27  1  0.196826  0.803174  0.055055  1
  O  O28  1  0.575467  0.424533  0.445548  1
  O  O29  1  0.424533  0.575467  0.945548  1
  O  O30  1  0.719651  0.783317  0.705534  1
  O  O31  1  0.280349  0.216683  0.205534  1
  O  O32  1  0.216683  0.280349  0.705534  1
  O  O33  1  0.783317  0.719651  0.205534  1
  O  O34  1  0.977563  0.531373  0.714851  1
  O  O35  1  0.022437  0.468627  0.214851  1
  O  O36  1  0.468627  0.022437  0.714851  1
  O  O37  1  0.531373  0.977563  0.214851  1
  O  O38  1  0.897744  0.592951  0.303458  1
  O  O39  1  0.102256  0.407049  0.803458  1
  O  O40  1  0.407049  0.102256  0.303458  1
  O  O41  1  0.592951  0.897744  0.803458  1
  O  O42  1  0.163533  0.344317  0.278105  1
  O  O43  1  0.836467  0.655683  0.778105  1
  O  O44  1  0.655683  0.836467  0.278105  1
  O  O45  1  0.344317  0.163533  0.778105  1
  O  O46  1  0.025590  0.974410  0.914397  1
  O  O47  1  0.974410  0.025590  0.414397  1
  O  O48  1  0.156717  0.843283  0.614105  1
  O  O49  1  0.843283  0.156717  0.114105  1
  O  O50  1  0.653316  0.346684  0.585179  1
  O  O51  1  0.346684  0.653316  0.085179  1
  O  O52  1  0.402108  0.597892  0.576251  1
  O  O53  1  0.597892  0.402108  0.076251  1
  O  O54  1  0.902231  0.097769  0.563040  1
  O  O55  1  0.097769  0.902231  0.063040  1
  O  O56  1  0.217880  0.782120  0.404644  1
  O  O57  1  0.782120  0.217880  0.904644  1
  O  O58  1  0.725248  0.274752  0.454568  1
  O  O59  1  0.274752  0.725248  0.954568  1
  O  O60  1  0.474049  0.525951  0.421964  1
  O  O61  1  0.525951  0.474049  0.921964  1
