# generated using pymatgen
data_Li2B2S5
_symmetry_space_group_name_H-M   'P 1'
_cell_length_a   8.62645684
_cell_length_b   8.62645684
_cell_length_c   7.00595156
_cell_angle_alpha   90.00000000
_cell_angle_beta   90.00000000
_cell_angle_gamma   135.18262069
_symmetry_Int_Tables_number   1
_chemical_formula_structural   Li2B2S5
_chemical_formula_sum   'Li4 B4 S10'
_cell_volume   367.47548974
_cell_formula_units_Z   2
loop_
 _symmetry_equiv_pos_site_id
 _symmetry_equiv_pos_as_xyz
  1  'x, y, z'
loop_
 _atom_site_type_symbol
 _atom_site_label
 _atom_site_symmetry_multiplicity
 _atom_site_fract_x
 _atom_site_fract_y
 _atom_site_fract_z
 _atom_site_occupancy
  Li  Li0  1  0.233078  0.766922  1.000000  1
  Li  Li1  1  0.766922  0.233078  0.500000  1
  Li  Li2  1  0.766922  0.233078  0.000000  1
  Li  Li3  1  0.233078  0.766922  0.500000  1
  B  B4  1  0.732531  0.557521  0.750000  1
  B  B5  1  0.557521  0.732531  0.750000  1
  B  B6  1  0.267469  0.442479  0.250000  1
  B  B7  1  0.442479  0.267469  0.250000  1
  S  S8  1  0.530451  0.922367  0.750000  1
  S  S9  1  0.922367  0.530451  0.750000  1
  S  S10  1  0.077633  0.469549  0.250000  1
  S  S11  1  0.469549  0.077633  0.250000  1
  S  S12  1  0.310111  0.440789  0.750000  1
  S  S13  1  0.440789  0.310111  0.750000  1
  S  S14  1  0.689889  0.559211  0.250000  1
  S  S15  1  0.559211  0.689889  0.250000  1
  S  S16  1  0.821376  0.821376  0.750000  1
  S  S17  1  0.178624  0.178624  0.250000  1
