# generated using pymatgen
data_Te5(O2F11)2
_symmetry_space_group_name_H-M   'P 1'
_cell_length_a   12.57513638
_cell_length_b   12.57513638
_cell_length_c   12.57513638
_cell_angle_alpha   132.91858590
_cell_angle_beta   132.91858590
_cell_angle_gamma   68.78203270
_symmetry_Int_Tables_number   1
_chemical_formula_structural   Te5(O2F11)2
_chemical_formula_sum   'Te10 O8 F44'
_cell_volume   1047.06984117
_cell_formula_units_Z   2
loop_
 _symmetry_equiv_pos_site_id
 _symmetry_equiv_pos_as_xyz
  1  'x, y, z'
loop_
 _atom_site_type_symbol
 _atom_site_label
 _atom_site_symmetry_multiplicity
 _atom_site_fract_x
 _atom_site_fract_y
 _atom_site_fract_z
 _atom_site_occupancy
  Te  Te0  1  0.322574  0.816283  0.081605  1
  Te  Te1  1  0.566283  0.984678  0.993708  1
  Te  Te2  1  0.990970  0.572574  0.006292  1
  Te  Te3  1  0.734678  0.240970  0.918395  1
  Te  Te4  1  0.427426  0.433717  0.418395  1
  Te  Te5  1  0.183717  0.265322  0.506292  1
  Te  Te6  1  0.759030  0.677426  0.493708  1
  Te  Te7  1  0.015322  0.009030  0.581605  1
  Te  Te8  1  0.500000  0.500000  1.000000  1
  Te  Te9  1  0.250000  0.750000  0.500000  1
  O  O10  1  0.442158  0.682796  0.127940  1
  O  O11  1  0.432796  0.804857  0.740638  1
  O  O12  1  0.064218  0.692158  0.259362  1
  O  O13  1  0.554857  0.314218  0.872060  1
  O  O14  1  0.307842  0.567204  0.372060  1
  O  O15  1  0.317204  0.445143  0.759362  1
  O  O16  1  0.685782  0.557842  0.240638  1
  O  O17  1  0.195143  0.935782  0.627940  1
  F  F18  1  0.209721  0.952617  0.052353  1
  F  F19  1  0.702617  0.150264  0.242896  1
  F  F20  1  0.159379  0.659379  0.500000  1
  F  F21  1  0.409379  0.409379  1.000000  1
  F  F22  1  0.590621  0.590621  1.000000  1
  F  F23  1  0.340621  0.840621  0.500000  1
  F  F24  1  0.128267  0.197747  0.766072  1
  F  F25  1  0.947747  0.681675  0.569479  1
  F  F26  1  0.112196  0.378267  0.430521  1
  F  F27  1  0.431675  0.362196  0.233928  1
  F  F28  1  0.621733  0.052253  0.733928  1
  F  F29  1  0.802253  0.568325  0.930521  1
  F  F30  1  0.637804  0.871733  0.069479  1
  F  F31  1  0.318325  0.887804  0.266072  1
  F  F32  1  0.061061  0.021734  0.766200  1
  F  F33  1  0.771734  0.505534  0.460673  1
  F  F34  1  0.044861  0.311061  0.539327  1
  F  F35  1  0.255534  0.294861  0.233800  1
  F  F36  1  0.688939  0.228266  0.733800  1
  F  F37  1  0.978266  0.744466  0.039327  1
  F  F38  1  0.705139  0.938939  0.960673  1
  F  F39  1  0.494466  0.955139  0.266200  1
  F  F40  1  0.966135  0.998097  0.396136  1
  F  F41  1  0.748097  0.851961  0.531962  1
  F  F42  1  0.319999  0.216135  0.468038  1
  F  F43  1  0.601961  0.569999  0.603864  1
  F  F44  1  0.783865  0.251903  0.103864  1
  F  F45  1  0.001903  0.398039  0.968038  1
  F  F46  1  0.430001  0.033865  0.031962  1
  F  F47  1  0.148039  0.680001  0.896136  1
  F  F48  1  0.899897  0.821004  0.396367  1
  F  F49  1  0.571004  0.674637  0.421107  1
  F  F50  1  0.253530  0.149897  0.578893  1
  F  F51  1  0.424637  0.503530  0.603633  1
  F  F52  1  0.850103  0.428996  0.103633  1
  F  F53  1  0.178996  0.575363  0.078893  1
  F  F54  1  0.496470  0.100103  0.921107  1
  F  F55  1  0.325363  0.746470  0.896367  1
  F  F56  1  0.849736  0.092632  0.552353  1
  F  F57  1  0.842632  0.790279  0.742896  1
  F  F58  1  0.047383  0.099736  0.257104  1
  F  F59  1  0.540279  0.297383  0.447647  1
  F  F60  1  0.900264  0.157368  0.947647  1
  F  F61  1  0.907368  0.459721  0.757104  1
