# generated using pymatgen
data_BPPbO5
_symmetry_space_group_name_H-M   'P 1'
_cell_length_a   7.01423094
_cell_length_b   7.01423094
_cell_length_c   6.93855810
_cell_angle_alpha   90.00000000
_cell_angle_beta   90.00000000
_cell_angle_gamma   120.00000000
_symmetry_Int_Tables_number   1
_chemical_formula_structural   BPPbO5
_chemical_formula_sum   'B3 P3 Pb3 O15'
_cell_volume   295.63781426
_cell_formula_units_Z   3
loop_
 _symmetry_equiv_pos_site_id
 _symmetry_equiv_pos_as_xyz
  1  'x, y, z'
loop_
 _atom_site_type_symbol
 _atom_site_label
 _atom_site_symmetry_multiplicity
 _atom_site_fract_x
 _atom_site_fract_y
 _atom_site_fract_z
 _atom_site_occupancy
  B  B0  1  0.098142  0.098142  0.000000  1
  B  B1  1  0.000000  0.901858  0.666667  1
  B  B2  1  0.901858  0.000000  0.333333  1
  P  P3  1  0.600023  0.600023  0.500000  1
  P  P4  1  0.000000  0.399977  0.166667  1
  P  P5  1  0.399977  0.000000  0.833333  1
  Pb  Pb6  1  0.610534  0.610534  0.000000  1
  Pb  Pb7  1  0.000000  0.389466  0.666667  1
  Pb  Pb8  1  0.389466  0.000000  0.333333  1
  O  O9  1  0.860993  0.442573  0.024490  1
  O  O10  1  0.557427  0.418420  0.357823  1
  O  O11  1  0.581580  0.139007  0.691157  1
  O  O12  1  0.957432  0.000000  0.833333  1
  O  O13  1  0.000000  0.957432  0.166667  1
  O  O14  1  0.042568  0.042568  0.500000  1
  O  O15  1  0.331475  0.145766  0.962008  1
  O  O16  1  0.854234  0.185709  0.295342  1
  O  O17  1  0.814291  0.668525  0.628675  1
  O  O18  1  0.185709  0.854234  0.704658  1
  O  O19  1  0.668525  0.814291  0.371325  1
  O  O20  1  0.145766  0.331475  0.037992  1
  O  O21  1  0.442573  0.860993  0.975510  1
  O  O22  1  0.139007  0.581580  0.308843  1
  O  O23  1  0.418420  0.557427  0.642177  1
