# generated using pymatgen
data_RhCl3
_symmetry_space_group_name_H-M   'P 1'
_cell_length_a   6.09091389
_cell_length_b   6.09091389
_cell_length_c   6.52089839
_cell_angle_alpha   81.04242021
_cell_angle_beta   98.95757979
_cell_angle_gamma   60.02277906
_symmetry_Int_Tables_number   1
_chemical_formula_structural   RhCl3
_chemical_formula_sum   'Rh2 Cl6'
_cell_volume   199.14473263
_cell_formula_units_Z   2
loop_
 _symmetry_equiv_pos_site_id
 _symmetry_equiv_pos_as_xyz
  1  'x, y, z'
loop_
 _atom_site_type_symbol
 _atom_site_label
 _atom_site_symmetry_multiplicity
 _atom_site_fract_x
 _atom_site_fract_y
 _atom_site_fract_z
 _atom_site_occupancy
  Rh  Rh0  1  0.166683  0.166683  0.000000  1
  Rh  Rh1  1  0.833317  0.833317  0.000000  1
  Cl  Cl2  1  0.429396  0.924379  0.788140  1
  Cl  Cl3  1  0.924379  0.429396  0.211860  1
  Cl  Cl4  1  0.216837  0.783163  0.212303  1
  Cl  Cl5  1  0.783163  0.216837  0.787697  1
  Cl  Cl6  1  0.075621  0.570604  0.788140  1
  Cl  Cl7  1  0.570604  0.075621  0.211860  1
