# generated using pymatgen
data_TbMnO3
_symmetry_space_group_name_H-M   'P 1'
_cell_length_a   5.33684939
_cell_length_b   5.88754552
_cell_length_c   7.51291664
_cell_angle_alpha   90.00000000
_cell_angle_beta   90.00000000
_cell_angle_gamma   90.00000000
_symmetry_Int_Tables_number   1
_chemical_formula_structural   TbMnO3
_chemical_formula_sum   'Tb4 Mn4 O12'
_cell_volume   236.06293090
_cell_formula_units_Z   4
loop_
 _symmetry_equiv_pos_site_id
 _symmetry_equiv_pos_as_xyz
  1  'x, y, z'
loop_
 _atom_site_type_symbol
 _atom_site_label
 _atom_site_symmetry_multiplicity
 _atom_site_fract_x
 _atom_site_fract_y
 _atom_site_fract_z
 _atom_site_occupancy
  Tb  Tb0  1  0.518822  0.582125  0.250000  1
  Tb  Tb1  1  0.981178  0.082125  0.250000  1
  Tb  Tb2  1  0.481178  0.417875  0.750000  1
  Tb  Tb3  1  0.018822  0.917875  0.750000  1
  Mn  Mn4  1  0.000000  0.500000  0.000000  1
  Mn  Mn5  1  0.500000  0.000000  0.500000  1
  Mn  Mn6  1  0.000000  0.500000  0.500000  1
  Mn  Mn7  1  0.500000  0.000000  0.000000  1
  O  O8  1  0.384491  0.959749  0.250000  1
  O  O9  1  0.115509  0.459749  0.250000  1
  O  O10  1  0.615509  0.040251  0.750000  1
  O  O11  1  0.884491  0.540251  0.750000  1
  O  O12  1  0.798912  0.825851  0.055417  1
  O  O13  1  0.701088  0.325851  0.444583  1
  O  O14  1  0.201088  0.174149  0.555417  1
  O  O15  1  0.298912  0.674149  0.944583  1
  O  O16  1  0.201088  0.174149  0.944583  1
  O  O17  1  0.298912  0.674149  0.555417  1
  O  O18  1  0.798912  0.825851  0.444583  1
  O  O19  1  0.701088  0.325851  0.055417  1
