# generated using pymatgen
data_CuP2PbO7
_symmetry_space_group_name_H-M   'P 1'
_cell_length_a   5.53836356
_cell_length_b   8.28281578
_cell_length_c   13.77385149
_cell_angle_alpha   90.00000000
_cell_angle_beta   112.82813746
_cell_angle_gamma   90.00000000
_symmetry_Int_Tables_number   1
_chemical_formula_structural   CuP2PbO7
_chemical_formula_sum   'Cu4 P8 Pb4 O28'
_cell_volume   582.36008369
_cell_formula_units_Z   4
loop_
 _symmetry_equiv_pos_site_id
 _symmetry_equiv_pos_as_xyz
  1  'x, y, z'
loop_
 _atom_site_type_symbol
 _atom_site_label
 _atom_site_symmetry_multiplicity
 _atom_site_fract_x
 _atom_site_fract_y
 _atom_site_fract_z
 _atom_site_occupancy
  Cu  Cu0  1  0.172147  0.643815  0.887199  1
  Cu  Cu1  1  0.827853  0.143815  0.612801  1
  Cu  Cu2  1  0.827853  0.356185  0.112801  1
  Cu  Cu3  1  0.172147  0.856185  0.387199  1
  P  P4  1  0.905641  0.963300  0.161421  1
  P  P5  1  0.094359  0.463300  0.338579  1
  P  P6  1  0.094359  0.036700  0.838579  1
  P  P7  1  0.905641  0.536700  0.661421  1
  P  P8  1  0.833168  0.694819  0.012426  1
  P  P9  1  0.166832  0.194819  0.487574  1
  P  P10  1  0.166832  0.305181  0.987574  1
  P  P11  1  0.833168  0.805181  0.512426  1
  Pb  Pb12  1  0.513852  0.831292  0.723278  1
  Pb  Pb13  1  0.486148  0.331292  0.776722  1
  Pb  Pb14  1  0.486148  0.168708  0.276722  1
  Pb  Pb15  1  0.513852  0.668708  0.223278  1
  O  O16  1  0.674584  0.942070  0.194645  1
  O  O17  1  0.325416  0.442070  0.305355  1
  O  O18  1  0.325416  0.057930  0.805355  1
  O  O19  1  0.674584  0.557930  0.694645  1
  O  O20  1  0.158535  0.878008  0.237330  1
  O  O21  1  0.841465  0.378008  0.262670  1
  O  O22  1  0.841465  0.121992  0.762670  1
  O  O23  1  0.158535  0.621992  0.737330  1
  O  O24  1  0.976739  0.139437  0.151190  1
  O  O25  1  0.023261  0.639437  0.348810  1
  O  O26  1  0.023261  0.860563  0.848810  1
  O  O27  1  0.976739  0.360563  0.651190  1
  O  O28  1  0.826911  0.882829  0.047046  1
  O  O29  1  0.173089  0.382829  0.452954  1
  O  O30  1  0.173089  0.117171  0.952954  1
  O  O31  1  0.826911  0.617171  0.547046  1
  O  O32  1  0.116079  0.835735  0.519737  1
  O  O33  1  0.883921  0.335735  0.980263  1
  O  O34  1  0.883921  0.164265  0.480263  1
  O  O35  1  0.116079  0.664265  0.019737  1
  O  O36  1  0.618682  0.817384  0.402979  1
  O  O37  1  0.381318  0.317384  0.097021  1
  O  O38  1  0.381318  0.182616  0.597021  1
  O  O39  1  0.618682  0.682616  0.902979  1
  O  O40  1  0.780444  0.905981  0.597141  1
  O  O41  1  0.219556  0.405981  0.902859  1
  O  O42  1  0.219556  0.094019  0.402859  1
  O  O43  1  0.780444  0.594019  0.097141  1
