# generated using pymatgen
data_Ba3NiRu2O9
_symmetry_space_group_name_H-M   'P 1'
_cell_length_a   5.83360056
_cell_length_b   5.83360056
_cell_length_c   14.35386546
_cell_angle_alpha   90.00000000
_cell_angle_beta   90.00000000
_cell_angle_gamma   120.00000000
_symmetry_Int_Tables_number   1
_chemical_formula_structural   Ba3NiRu2O9
_chemical_formula_sum   'Ba6 Ni2 Ru4 O18'
_cell_volume   423.03166850
_cell_formula_units_Z   2
loop_
 _symmetry_equiv_pos_site_id
 _symmetry_equiv_pos_as_xyz
  1  'x, y, z'
loop_
 _atom_site_type_symbol
 _atom_site_label
 _atom_site_symmetry_multiplicity
 _atom_site_fract_x
 _atom_site_fract_y
 _atom_site_fract_z
 _atom_site_occupancy
  Ba  Ba0  1  0.333333  0.666667  0.410822  1
  Ba  Ba1  1  0.666667  0.333333  0.910822  1
  Ba  Ba2  1  0.666667  0.333333  0.589178  1
  Ba  Ba3  1  0.333333  0.666667  0.089178  1
  Ba  Ba4  1  0.000000  0.000000  0.750000  1
  Ba  Ba5  1  0.000000  0.000000  0.250000  1
  Ni  Ni6  1  0.000000  0.000000  0.500000  1
  Ni  Ni7  1  0.000000  0.000000  0.000000  1
  Ru  Ru8  1  0.333333  0.666667  0.653683  1
  Ru  Ru9  1  0.666667  0.333333  0.153683  1
  Ru  Ru10  1  0.666667  0.333333  0.346317  1
  Ru  Ru11  1  0.333333  0.666667  0.846317  1
  O  O12  1  0.829613  0.170387  0.416974  1
  O  O13  1  0.829613  0.659225  0.416974  1
  O  O14  1  0.340775  0.170387  0.416974  1
  O  O15  1  0.659225  0.829613  0.916974  1
  O  O16  1  0.170387  0.340775  0.583026  1
  O  O17  1  0.170387  0.829613  0.916974  1
  O  O18  1  0.170387  0.340775  0.916974  1
  O  O19  1  0.829613  0.170387  0.083026  1
  O  O20  1  0.340775  0.170387  0.083026  1
  O  O21  1  0.659225  0.829613  0.583026  1
  O  O22  1  0.170387  0.829613  0.583026  1
  O  O23  1  0.829613  0.659225  0.083026  1
  O  O24  1  0.515540  0.031079  0.250000  1
  O  O25  1  0.484460  0.515540  0.750000  1
  O  O26  1  0.031079  0.515540  0.750000  1
  O  O27  1  0.968921  0.484460  0.250000  1
  O  O28  1  0.515540  0.484460  0.250000  1
  O  O29  1  0.484460  0.968921  0.750000  1
