# generated using pymatgen
data_SiCl2O
_symmetry_space_group_name_H-M   'P 1'
_cell_length_a   6.79398450
_cell_length_b   9.13110473
_cell_length_c   11.80438534
_cell_angle_alpha   78.04531648
_cell_angle_beta   77.78147620
_cell_angle_gamma   73.36578333
_symmetry_Int_Tables_number   1
_chemical_formula_structural   SiCl2O
_chemical_formula_sum   'Si6 Cl12 O6'
_cell_volume   677.31388714
_cell_formula_units_Z   6
loop_
 _symmetry_equiv_pos_site_id
 _symmetry_equiv_pos_as_xyz
  1  'x, y, z'
loop_
 _atom_site_type_symbol
 _atom_site_label
 _atom_site_symmetry_multiplicity
 _atom_site_fract_x
 _atom_site_fract_y
 _atom_site_fract_z
 _atom_site_occupancy
  Si  Si0  1  0.452101  0.175560  0.710709  1
  Si  Si1  1  0.547899  0.824440  0.289291  1
  Si  Si2  1  0.485287  0.273053  0.932252  1
  Si  Si3  1  0.490419  0.496129  0.706466  1
  Si  Si4  1  0.509581  0.503871  0.293534  1
  Si  Si5  1  0.514713  0.726947  0.067748  1
  Cl  Cl6  1  0.235666  0.300108  0.062177  1
  Cl  Cl7  1  0.764334  0.699892  0.937823  1
  Cl  Cl8  1  0.750867  0.188975  0.002366  1
  Cl  Cl9  1  0.249133  0.811025  0.997634  1
  Cl  Cl10  1  0.248485  0.682643  0.678117  1
  Cl  Cl11  1  0.751515  0.317357  0.321883  1
  Cl  Cl12  1  0.761580  0.551862  0.630258  1
  Cl  Cl13  1  0.238420  0.448138  0.369742  1
  Cl  Cl14  1  0.823794  0.854709  0.306482  1
  Cl  Cl15  1  0.176206  0.145291  0.693518  1
  Cl  Cl16  1  0.687757  0.018797  0.630844  1
  Cl  Cl17  1  0.312243  0.981203  0.369156  1
  O  O18  1  0.488323  0.440268  0.848166  1
  O  O19  1  0.511677  0.559732  0.151834  1
  O  O20  1  0.468403  0.351830  0.651024  1
  O  O21  1  0.531597  0.648170  0.348976  1
  O  O22  1  0.469094  0.153192  0.850308  1
  O  O23  1  0.530906  0.846808  0.149692  1
