# generated using pymatgen
data_PBr3
_symmetry_space_group_name_H-M   'P 1'
_cell_length_a   6.96102781
_cell_length_b   9.35527150
_cell_length_c   10.97076452
_cell_angle_alpha   90.00000000
_cell_angle_beta   90.00000000
_cell_angle_gamma   90.00000000
_symmetry_Int_Tables_number   1
_chemical_formula_structural   PBr3
_chemical_formula_sum   'P4 Br12'
_cell_volume   714.44147405
_cell_formula_units_Z   4
loop_
 _symmetry_equiv_pos_site_id
 _symmetry_equiv_pos_as_xyz
  1  'x, y, z'
loop_
 _atom_site_type_symbol
 _atom_site_label
 _atom_site_symmetry_multiplicity
 _atom_site_fract_x
 _atom_site_fract_y
 _atom_site_fract_z
 _atom_site_occupancy
  P  P0  1  0.028399  0.049414  0.250000  1
  P  P1  1  0.528399  0.450586  0.750000  1
  P  P2  1  0.471601  0.549414  0.250000  1
  P  P3  1  0.971601  0.950586  0.750000  1
  Br  Br4  1  0.138460  0.178739  0.091558  1
  Br  Br5  1  0.638460  0.321261  0.908442  1
  Br  Br6  1  0.361540  0.678739  0.408442  1
  Br  Br7  1  0.861540  0.821261  0.591558  1
  Br  Br8  1  0.861540  0.821261  0.908442  1
  Br  Br9  1  0.361540  0.678739  0.091558  1
  Br  Br10  1  0.638460  0.321261  0.591558  1
  Br  Br11  1  0.138460  0.178739  0.408442  1
  Br  Br12  1  0.713560  0.104587  0.250000  1
  Br  Br13  1  0.213560  0.395413  0.750000  1
  Br  Br14  1  0.786440  0.604587  0.250000  1
  Br  Br15  1  0.286440  0.895413  0.750000  1
