# generated using pymatgen
data_Sn(PO3)4
_symmetry_space_group_name_H-M   'P 1'
_cell_length_a   8.30685513
_cell_length_b   9.39726148
_cell_length_c   13.17260791
_cell_angle_alpha   90.00000000
_cell_angle_beta   90.00000000
_cell_angle_gamma   90.00000000
_symmetry_Int_Tables_number   1
_chemical_formula_structural   Sn(PO3)4
_chemical_formula_sum   'Sn4 P16 O48'
_cell_volume   1028.27603165
_cell_formula_units_Z   4
loop_
 _symmetry_equiv_pos_site_id
 _symmetry_equiv_pos_as_xyz
  1  'x, y, z'
loop_
 _atom_site_type_symbol
 _atom_site_label
 _atom_site_symmetry_multiplicity
 _atom_site_fract_x
 _atom_site_fract_y
 _atom_site_fract_z
 _atom_site_occupancy
  Sn  Sn0  1  0.852881  0.750000  0.000000  1
  Sn  Sn1  1  0.147119  0.250000  0.000000  1
  Sn  Sn2  1  0.647119  0.250000  0.500000  1
  Sn  Sn3  1  0.352881  0.750000  0.500000  1
  P  P4  1  0.678446  0.506485  0.147338  1
  P  P5  1  0.321554  0.006485  0.147338  1
  P  P6  1  0.960186  0.018162  0.150574  1
  P  P7  1  0.039814  0.518162  0.150574  1
  P  P8  1  0.539814  0.518162  0.349426  1
  P  P9  1  0.460186  0.018162  0.349426  1
  P  P10  1  0.821554  0.006485  0.352662  1
  P  P11  1  0.178446  0.506485  0.352662  1
  P  P12  1  0.821554  0.493515  0.647338  1
  P  P13  1  0.178446  0.993515  0.647338  1
  P  P14  1  0.539814  0.981838  0.650574  1
  P  P15  1  0.460186  0.481838  0.650574  1
  P  P16  1  0.960186  0.481838  0.849426  1
  P  P17  1  0.039814  0.981838  0.849426  1
  P  P18  1  0.678446  0.993515  0.852662  1
  P  P19  1  0.321554  0.493515  0.852662  1
  O  O20  1  0.685953  0.628078  0.070334  1
  O  O21  1  0.314047  0.128078  0.070334  1
  O  O22  1  0.963562  0.132304  0.068702  1
  O  O23  1  0.036438  0.632304  0.068702  1
  O  O24  1  0.588112  0.376635  0.125819  1
  O  O25  1  0.411888  0.876635  0.125819  1
  O  O26  1  0.862227  0.887190  0.123072  1
  O  O27  1  0.137773  0.387190  0.123072  1
  O  O28  1  0.864001  0.470731  0.181378  1
  O  O29  1  0.135999  0.970731  0.181378  1
  O  O30  1  0.616874  0.586984  0.251325  1
  O  O31  1  0.383126  0.086984  0.251325  1
  O  O32  1  0.883126  0.086984  0.248675  1
  O  O33  1  0.116874  0.586984  0.248675  1
  O  O34  1  0.635999  0.970731  0.318622  1
  O  O35  1  0.364001  0.470731  0.318622  1
  O  O36  1  0.637773  0.387190  0.376928  1
  O  O37  1  0.362227  0.887190  0.376928  1
  O  O38  1  0.911888  0.876635  0.374181  1
  O  O39  1  0.088112  0.376635  0.374181  1
  O  O40  1  0.536438  0.632304  0.431298  1
  O  O41  1  0.463562  0.132304  0.431298  1
  O  O42  1  0.814047  0.128078  0.429666  1
  O  O43  1  0.185953  0.628078  0.429666  1
  O  O44  1  0.814047  0.371922  0.570334  1
  O  O45  1  0.185953  0.871922  0.570334  1
  O  O46  1  0.536438  0.867696  0.568702  1
  O  O47  1  0.463562  0.367696  0.568702  1
  O  O48  1  0.911888  0.623365  0.625819  1
  O  O49  1  0.088112  0.123365  0.625819  1
  O  O50  1  0.637773  0.112810  0.623072  1
  O  O51  1  0.362227  0.612810  0.623072  1
  O  O52  1  0.635999  0.529269  0.681378  1
  O  O53  1  0.364001  0.029269  0.681378  1
  O  O54  1  0.883126  0.413016  0.751325  1
  O  O55  1  0.116874  0.913016  0.751325  1
  O  O56  1  0.616874  0.913016  0.748675  1
  O  O57  1  0.383126  0.413016  0.748675  1
  O  O58  1  0.864001  0.029269  0.818622  1
  O  O59  1  0.135999  0.529269  0.818622  1
  O  O60  1  0.862227  0.612810  0.876928  1
  O  O61  1  0.137773  0.112810  0.876928  1
  O  O62  1  0.588112  0.123365  0.874181  1
  O  O63  1  0.411888  0.623365  0.874181  1
  O  O64  1  0.963562  0.367696  0.931298  1
  O  O65  1  0.036438  0.867696  0.931298  1
  O  O66  1  0.685953  0.871922  0.929666  1
  O  O67  1  0.314047  0.371922  0.929666  1
