# generated using pymatgen
data_BiSbO4
_symmetry_space_group_name_H-M   'P 1'
_cell_length_a   6.55981638
_cell_length_b   6.55981638
_cell_length_c   5.60701712
_cell_angle_alpha   76.61898176
_cell_angle_beta   103.38101824
_cell_angle_gamma   135.31269351
_symmetry_Int_Tables_number   1
_chemical_formula_structural   BiSbO4
_chemical_formula_sum   'Bi2 Sb2 O8'
_cell_volume   164.27755696
_cell_formula_units_Z   2
loop_
 _symmetry_equiv_pos_site_id
 _symmetry_equiv_pos_as_xyz
  1  'x, y, z'
loop_
 _atom_site_type_symbol
 _atom_site_label
 _atom_site_symmetry_multiplicity
 _atom_site_fract_x
 _atom_site_fract_y
 _atom_site_fract_z
 _atom_site_occupancy
  Bi  Bi0  1  0.739403  0.739403  0.250000  1
  Bi  Bi1  1  0.260597  0.260597  0.750000  1
  Sb  Sb2  1  0.000000  0.500000  0.000000  1
  Sb  Sb3  1  0.500000  0.000000  0.500000  1
  O  O4  1  0.494532  0.687296  0.536616  1
  O  O5  1  0.687296  0.494532  0.963384  1
  O  O6  1  0.505468  0.312704  0.463384  1
  O  O7  1  0.312704  0.505468  0.036616  1
  O  O8  1  0.782063  0.151884  0.811630  1
  O  O9  1  0.151884  0.782063  0.688370  1
  O  O10  1  0.217937  0.848116  0.188370  1
  O  O11  1  0.848116  0.217937  0.311630  1
