# generated using pymatgen
data_K5GaSe4
_symmetry_space_group_name_H-M   'P 1'
_cell_length_a   12.78246279
_cell_length_b   13.04715812
_cell_length_c   15.90900938
_cell_angle_alpha   90.00000000
_cell_angle_beta   90.00000000
_cell_angle_gamma   90.00000000
_symmetry_Int_Tables_number   1
_chemical_formula_structural   K5GaSe4
_chemical_formula_sum   'K40 Ga8 Se32'
_cell_volume   2653.22206729
_cell_formula_units_Z   8
loop_
 _symmetry_equiv_pos_site_id
 _symmetry_equiv_pos_as_xyz
  1  'x, y, z'
loop_
 _atom_site_type_symbol
 _atom_site_label
 _atom_site_symmetry_multiplicity
 _atom_site_fract_x
 _atom_site_fract_y
 _atom_site_fract_z
 _atom_site_occupancy
  K  K0  1  0.054028  0.340011  0.278029  1
  K  K1  1  0.554028  0.159989  0.721971  1
  K  K2  1  0.945972  0.840011  0.221971  1
  K  K3  1  0.445972  0.659989  0.778029  1
  K  K4  1  0.945972  0.659989  0.721971  1
  K  K5  1  0.445972  0.840011  0.278029  1
  K  K6  1  0.054028  0.159989  0.778029  1
  K  K7  1  0.554028  0.340011  0.221971  1
  K  K8  1  0.386518  0.014141  0.058928  1
  K  K9  1  0.886518  0.485859  0.941072  1
  K  K10  1  0.613482  0.514141  0.441072  1
  K  K11  1  0.113482  0.985859  0.558928  1
  K  K12  1  0.613482  0.985859  0.941072  1
  K  K13  1  0.113482  0.514141  0.058928  1
  K  K14  1  0.386518  0.485859  0.558928  1
  K  K15  1  0.886518  0.014141  0.441072  1
  K  K16  1  0.058909  0.070384  0.109363  1
  K  K17  1  0.558909  0.429616  0.890637  1
  K  K18  1  0.941091  0.570384  0.390637  1
  K  K19  1  0.441091  0.929616  0.609363  1
  K  K20  1  0.941091  0.929616  0.890637  1
  K  K21  1  0.441091  0.570384  0.109363  1
  K  K22  1  0.058909  0.429616  0.609363  1
  K  K23  1  0.558909  0.070384  0.390637  1
  K  K24  1  0.179555  0.647494  0.268377  1
  K  K25  1  0.679555  0.852506  0.731623  1
  K  K26  1  0.820445  0.147494  0.231623  1
  K  K27  1  0.320445  0.352506  0.768377  1
  K  K28  1  0.820445  0.352506  0.731623  1
  K  K29  1  0.320445  0.147494  0.268377  1
  K  K30  1  0.179555  0.852506  0.768377  1
  K  K31  1  0.679555  0.647494  0.231623  1
  K  K32  1  0.271878  0.788573  0.984604  1
  K  K33  1  0.771878  0.711427  0.015396  1
  K  K34  1  0.728122  0.288573  0.515396  1
  K  K35  1  0.228122  0.211427  0.484604  1
  K  K36  1  0.728122  0.211427  0.015396  1
  K  K37  1  0.228122  0.288573  0.984604  1
  K  K38  1  0.271878  0.711427  0.484604  1
  K  K39  1  0.771878  0.788573  0.515396  1
  Ga  Ga40  1  0.164639  0.934709  0.335643  1
  Ga  Ga41  1  0.664639  0.565291  0.664357  1
  Ga  Ga42  1  0.835361  0.434709  0.164357  1
  Ga  Ga43  1  0.335361  0.065291  0.835643  1
  Ga  Ga44  1  0.835361  0.065291  0.664357  1
  Ga  Ga45  1  0.335361  0.434709  0.335643  1
  Ga  Ga46  1  0.164639  0.565291  0.835643  1
  Ga  Ga47  1  0.664639  0.934709  0.164357  1
  Se  Se48  1  0.069999  0.098423  0.321905  1
  Se  Se49  1  0.569999  0.401577  0.678095  1
  Se  Se50  1  0.930001  0.598423  0.178095  1
  Se  Se51  1  0.430001  0.901577  0.821905  1
  Se  Se52  1  0.930001  0.901577  0.678095  1
  Se  Se53  1  0.430001  0.598423  0.321905  1
  Se  Se54  1  0.069999  0.401577  0.821905  1
  Se  Se55  1  0.569999  0.098423  0.178095  1
  Se  Se56  1  0.319204  0.965248  0.427162  1
  Se  Se57  1  0.819204  0.534752  0.572838  1
  Se  Se58  1  0.680796  0.465248  0.072838  1
  Se  Se59  1  0.180796  0.034752  0.927162  1
  Se  Se60  1  0.680796  0.034752  0.572838  1
  Se  Se61  1  0.180796  0.465248  0.427162  1
  Se  Se62  1  0.319204  0.534752  0.927162  1
  Se  Se63  1  0.819204  0.965248  0.072838  1
  Se  Se64  1  0.214085  0.884801  0.191219  1
  Se  Se65  1  0.714085  0.615199  0.808781  1
  Se  Se66  1  0.785915  0.384801  0.308781  1
  Se  Se67  1  0.285915  0.115199  0.691219  1
  Se  Se68  1  0.785915  0.115199  0.808781  1
  Se  Se69  1  0.285915  0.384801  0.191219  1
  Se  Se70  1  0.214085  0.615199  0.691219  1
  Se  Se71  1  0.714085  0.884801  0.308781  1
  Se  Se72  1  0.054384  0.808404  0.408851  1
  Se  Se73  1  0.554384  0.691596  0.591149  1
  Se  Se74  1  0.945616  0.308404  0.091149  1
  Se  Se75  1  0.445616  0.191596  0.908851  1
  Se  Se76  1  0.945616  0.191596  0.591149  1
  Se  Se77  1  0.445616  0.308404  0.408851  1
  Se  Se78  1  0.054384  0.691596  0.908851  1
  Se  Se79  1  0.554384  0.808404  0.091149  1
