# generated using pymatgen
data_MoNCl3
_symmetry_space_group_name_H-M   'P 1'
_cell_length_a   8.06827316
_cell_length_b   8.46875335
_cell_length_c   9.46052908
_cell_angle_alpha   99.36273575
_cell_angle_beta   108.24239059
_cell_angle_gamma   108.65117295
_symmetry_Int_Tables_number   1
_chemical_formula_structural   MoNCl3
_chemical_formula_sum   'Mo4 N4 Cl12'
_cell_volume   556.33256850
_cell_formula_units_Z   4
loop_
 _symmetry_equiv_pos_site_id
 _symmetry_equiv_pos_as_xyz
  1  'x, y, z'
loop_
 _atom_site_type_symbol
 _atom_site_label
 _atom_site_symmetry_multiplicity
 _atom_site_fract_x
 _atom_site_fract_y
 _atom_site_fract_z
 _atom_site_occupancy
  Mo  Mo0  1  0.625325  0.849099  0.630996  1
  Mo  Mo1  1  0.374675  0.150901  0.369004  1
  Mo  Mo2  1  0.484650  0.443119  0.765871  1
  Mo  Mo3  1  0.515350  0.556881  0.234129  1
  N  N4  1  0.562591  0.670198  0.693189  1
  N  N5  1  0.437409  0.329802  0.306811  1
  N  N6  1  0.438193  0.293739  0.600024  1
  N  N7  1  0.561807  0.706261  0.399976  1
  Cl  Cl8  1  0.189400  0.460653  0.117978  1
  Cl  Cl9  1  0.810600  0.539347  0.882022  1
  Cl  Cl10  1  0.577238  0.728645  0.073285  1
  Cl  Cl11  1  0.422762  0.271355  0.926715  1
  Cl  Cl12  1  0.799293  0.523052  0.296833  1
  Cl  Cl13  1  0.200707  0.476948  0.703167  1
  Cl  Cl14  1  0.068742  0.108620  0.341866  1
  Cl  Cl15  1  0.931258  0.891380  0.658134  1
  Cl  Cl16  1  0.282475  0.931838  0.149597  1
  Cl  Cl17  1  0.717525  0.068162  0.850403  1
  Cl  Cl18  1  0.681766  0.151308  0.482887  1
  Cl  Cl19  1  0.318234  0.848692  0.517113  1
