# generated using pymatgen
data_P(HO)3
_symmetry_space_group_name_H-M   'P 1'
_cell_length_a   6.97045293
_cell_length_b   7.34201209
_cell_length_c   12.25209060
_cell_angle_alpha   90.00000000
_cell_angle_beta   90.00000000
_cell_angle_gamma   90.00000000
_symmetry_Int_Tables_number   1
_chemical_formula_structural   P(HO)3
_chemical_formula_sum   'P8 H24 O24'
_cell_volume   627.02707459
_cell_formula_units_Z   8
loop_
 _symmetry_equiv_pos_site_id
 _symmetry_equiv_pos_as_xyz
  1  'x, y, z'
loop_
 _atom_site_type_symbol
 _atom_site_label
 _atom_site_symmetry_multiplicity
 _atom_site_fract_x
 _atom_site_fract_y
 _atom_site_fract_z
 _atom_site_occupancy
  P  P0  1  0.466998  0.037535  0.380094  1
  P  P1  1  0.966998  0.462465  0.880094  1
  P  P2  1  0.966998  0.962465  0.619906  1
  P  P3  1  0.466998  0.537535  0.119906  1
  P  P4  1  0.995208  0.502773  0.371099  1
  P  P5  1  0.495208  0.497227  0.628901  1
  P  P6  1  0.495208  0.997227  0.871099  1
  P  P7  1  0.995208  0.002773  0.128901  1
  H  H8  1  0.658656  0.459085  0.258615  1
  H  H9  1  0.158656  0.540915  0.741385  1
  H  H10  1  0.158656  0.040915  0.758615  1
  H  H11  1  0.658656  0.959085  0.241385  1
  H  H12  1  0.559488  0.702203  0.095019  1
  H  H13  1  0.059488  0.297797  0.904981  1
  H  H14  1  0.059488  0.797797  0.595019  1
  H  H15  1  0.559488  0.202203  0.404981  1
  H  H16  1  0.165557  0.074615  0.441052  1
  H  H17  1  0.665557  0.925385  0.558948  1
  H  H18  1  0.665557  0.425385  0.941052  1
  H  H19  1  0.165557  0.574615  0.058948  1
  H  H20  1  0.981588  0.310629  0.511968  1
  H  H21  1  0.481588  0.689371  0.488032  1
  H  H22  1  0.481588  0.189371  0.011968  1
  H  H23  1  0.936356  0.784749  0.308589  1
  H  H24  1  0.188030  0.968200  0.154224  1
  H  H25  1  0.688030  0.031800  0.845776  1
  H  H26  1  0.688030  0.531800  0.654224  1
  H  H27  1  0.188030  0.468200  0.345776  1
  H  H28  1  0.936356  0.284749  0.191411  1
  H  H29  1  0.436356  0.715251  0.808589  1
  H  H30  1  0.436356  0.215251  0.691411  1
  H  H31  1  0.981588  0.810629  0.988032  1
  O  O32  1  0.868511  0.407891  0.287339  1
  O  O33  1  0.368511  0.592109  0.712661  1
  O  O34  1  0.368511  0.092109  0.787339  1
  O  O35  1  0.868511  0.907891  0.212661  1
  O  O36  1  0.964978  0.213278  0.121445  1
  O  O37  1  0.459986  0.555954  0.507662  1
  O  O38  1  0.459986  0.055954  0.992338  1
  O  O39  1  0.959986  0.944046  0.007662  1
  O  O40  1  0.246922  0.074831  0.370970  1
  O  O41  1  0.746922  0.925169  0.629030  1
  O  O42  1  0.746922  0.425169  0.870970  1
  O  O43  1  0.246922  0.574831  0.129030  1
  O  O44  1  0.517854  0.986059  0.259770  1
  O  O45  1  0.017854  0.013941  0.740230  1
  O  O46  1  0.017854  0.513941  0.759770  1
  O  O47  1  0.517854  0.486059  0.240230  1
  O  O48  1  0.522969  0.897625  0.465635  1
  O  O49  1  0.022969  0.102375  0.534365  1
  O  O50  1  0.022969  0.602375  0.965635  1
  O  O51  1  0.522969  0.397625  0.034365  1
  O  O52  1  0.964978  0.713278  0.378555  1
  O  O53  1  0.464978  0.286722  0.621445  1
  O  O54  1  0.464978  0.786722  0.878555  1
  O  O55  1  0.959986  0.444046  0.492338  1
