# generated using pymatgen
data_V(PO3)3
_symmetry_space_group_name_H-M   'P 1'
_cell_length_a   7.48248746
_cell_length_b   7.48248746
_cell_length_c   9.62300492
_cell_angle_alpha   57.37460617
_cell_angle_beta   122.62539383
_cell_angle_gamma   128.01088169
_symmetry_Int_Tables_number   1
_chemical_formula_structural   V(PO3)3
_chemical_formula_sum   'V2 P6 O18'
_cell_volume   339.64999005
_cell_formula_units_Z   2
loop_
 _symmetry_equiv_pos_site_id
 _symmetry_equiv_pos_as_xyz
  1  'x, y, z'
loop_
 _atom_site_type_symbol
 _atom_site_label
 _atom_site_symmetry_multiplicity
 _atom_site_fract_x
 _atom_site_fract_y
 _atom_site_fract_z
 _atom_site_occupancy
  V  V0  1  0.488387  0.994192  0.394980  1
  V  V1  1  0.005808  0.511613  0.894980  1
  P  P2  1  0.007259  0.790009  0.070018  1
  P  P3  1  0.209991  0.992741  0.570018  1
  P  P4  1  0.558859  0.553592  0.158015  1
  P  P5  1  0.446408  0.441141  0.658015  1
  P  P6  1  0.800609  0.026668  0.220273  1
  P  P7  1  0.973332  0.199391  0.720273  1
  O  O8  1  0.167857  0.913451  0.205953  1
  O  O9  1  0.086549  0.832143  0.705953  1
  O  O10  1  0.933489  0.966571  0.884545  1
  O  O11  1  0.033429  0.066511  0.384545  1
  O  O12  1  0.395709  0.247449  0.599078  1
  O  O13  1  0.752551  0.604291  0.099078  1
  O  O14  1  0.878902  0.175173  0.060831  1
  O  O15  1  0.824827  0.121098  0.560831  1
  O  O16  1  0.250337  0.310763  0.748717  1
  O  O17  1  0.689237  0.749663  0.248717  1
  O  O18  1  0.353773  0.578026  0.998026  1
  O  O19  1  0.421974  0.646227  0.498026  1
  O  O20  1  0.511648  0.320996  0.301373  1
  O  O21  1  0.679004  0.488352  0.801373  1
  O  O22  1  0.634323  0.065335  0.230438  1
  O  O23  1  0.934665  0.365677  0.730438  1
  O  O24  1  0.339794  0.908720  0.560754  1
  O  O25  1  0.091280  0.660206  0.060754  1
