# generated using pymatgen
data_InBrO
_symmetry_space_group_name_H-M   'P 1'
_cell_length_a   3.68820424
_cell_length_b   4.12550269
_cell_length_c   9.00969134
_cell_angle_alpha   90.00000000
_cell_angle_beta   90.00000000
_cell_angle_gamma   90.00000000
_symmetry_Int_Tables_number   1
_chemical_formula_structural   InBrO
_chemical_formula_sum   'In2 Br2 O2'
_cell_volume   137.08872911
_cell_formula_units_Z   2
loop_
 _symmetry_equiv_pos_site_id
 _symmetry_equiv_pos_as_xyz
  1  'x, y, z'
loop_
 _atom_site_type_symbol
 _atom_site_label
 _atom_site_symmetry_multiplicity
 _atom_site_fract_x
 _atom_site_fract_y
 _atom_site_fract_z
 _atom_site_occupancy
  In  In0  1  0.500000  0.500000  0.888300  1
  In  In1  1  0.000000  0.000000  0.111700  1
  Br  Br2  1  0.000000  0.500000  0.668210  1
  Br  Br3  1  0.500000  0.000000  0.331790  1
  O  O4  1  0.000000  0.500000  0.036356  1
  O  O5  1  0.500000  0.000000  0.963644  1
