# generated using pymatgen
data_KSn2Cl5
_symmetry_space_group_name_H-M   'P 1'
_cell_length_a   9.20058954
_cell_length_b   9.20058954
_cell_length_c   9.20058954
_cell_angle_alpha   127.81452643
_cell_angle_beta   127.81452643
_cell_angle_gamma   76.92568105
_symmetry_Int_Tables_number   1
_chemical_formula_structural   KSn2Cl5
_chemical_formula_sum   'K2 Sn4 Cl10'
_cell_volume   471.88447962
_cell_formula_units_Z   2
loop_
 _symmetry_equiv_pos_site_id
 _symmetry_equiv_pos_as_xyz
  1  'x, y, z'
loop_
 _atom_site_type_symbol
 _atom_site_label
 _atom_site_symmetry_multiplicity
 _atom_site_fract_x
 _atom_site_fract_y
 _atom_site_fract_z
 _atom_site_occupancy
  K  K0  1  0.250000  0.250000  0.000000  1
  K  K1  1  0.750000  0.750000  0.000000  1
  Sn  Sn2  1  0.174476  0.325524  0.500000  1
  Sn  Sn3  1  0.674476  0.174476  0.848951  1
  Sn  Sn4  1  0.825524  0.674476  0.500000  1
  Sn  Sn5  1  0.325524  0.825524  0.151049  1
  Cl  Cl6  1  0.698603  0.198603  0.161713  1
  Cl  Cl7  1  0.963110  0.463110  0.161713  1
  Cl  Cl8  1  0.301397  0.801397  0.838287  1
  Cl  Cl9  1  0.801397  0.963110  0.500000  1
  Cl  Cl10  1  0.463110  0.301397  0.500000  1
  Cl  Cl11  1  0.198603  0.036890  0.500000  1
  Cl  Cl12  1  0.000000  0.000000  0.000000  1
  Cl  Cl13  1  0.500000  0.500000  0.000000  1
  Cl  Cl14  1  0.036890  0.536890  0.838287  1
  Cl  Cl15  1  0.536890  0.698603  0.500000  1
