# generated using pymatgen
data_CsSbS6
_symmetry_space_group_name_H-M   'P 1'
_cell_length_a   6.14432437
_cell_length_b   15.50597743
_cell_length_c   11.56395239
_cell_angle_alpha   90.00000000
_cell_angle_beta   107.57378857
_cell_angle_gamma   90.00000000
_symmetry_Int_Tables_number   1
_chemical_formula_structural   CsSbS6
_chemical_formula_sum   'Cs4 Sb4 S24'
_cell_volume   1050.32168911
_cell_formula_units_Z   4
loop_
 _symmetry_equiv_pos_site_id
 _symmetry_equiv_pos_as_xyz
  1  'x, y, z'
loop_
 _atom_site_type_symbol
 _atom_site_label
 _atom_site_symmetry_multiplicity
 _atom_site_fract_x
 _atom_site_fract_y
 _atom_site_fract_z
 _atom_site_occupancy
  Cs  Cs0  1  0.700753  0.084626  0.306858  1
  Cs  Cs1  1  0.299247  0.584626  0.193142  1
  Cs  Cs2  1  0.299247  0.915374  0.693142  1
  Cs  Cs3  1  0.700753  0.415374  0.806858  1
  Sb  Sb4  1  0.909081  0.410391  0.385087  1
  Sb  Sb5  1  0.090919  0.910391  0.114913  1
  Sb  Sb6  1  0.090919  0.589609  0.614913  1
  Sb  Sb7  1  0.909081  0.089609  0.885087  1
  S  S8  1  0.319073  0.382205  0.381103  1
  S  S9  1  0.680927  0.882205  0.118897  1
  S  S10  1  0.680927  0.617795  0.618897  1
  S  S11  1  0.319073  0.117795  0.881103  1
  S  S12  1  0.264388  0.280389  0.261598  1
  S  S13  1  0.735612  0.780389  0.238402  1
  S  S14  1  0.735612  0.719611  0.738402  1
  S  S15  1  0.264388  0.219611  0.761598  1
  S  S16  1  0.107618  0.066085  0.126504  1
  S  S17  1  0.892382  0.566085  0.373496  1
  S  S18  1  0.892382  0.933915  0.873496  1
  S  S19  1  0.107618  0.433915  0.626504  1
  S  S20  1  0.748153  0.069280  0.638270  1
  S  S21  1  0.251847  0.569280  0.861730  1
  S  S22  1  0.251847  0.930720  0.361730  1
  S  S23  1  0.748153  0.430720  0.138270  1
  S  S24  1  0.588249  0.185197  0.581399  1
  S  S25  1  0.411751  0.685197  0.918601  1
  S  S26  1  0.411751  0.814803  0.418601  1
  S  S27  1  0.588249  0.314803  0.081399  1
  S  S28  1  0.257387  0.175967  0.590713  1
  S  S29  1  0.742613  0.675967  0.909287  1
  S  S30  1  0.742613  0.824033  0.409287  1
  S  S31  1  0.257387  0.324033  0.090713  1
