# generated using pymatgen
data_BaH8O5
_symmetry_space_group_name_H-M   'P 1'
_cell_length_a   6.02001556
_cell_length_b   7.62730553
_cell_length_c   11.50427026
_cell_angle_alpha   90.00000000
_cell_angle_beta   90.00000000
_cell_angle_gamma   90.00000000
_symmetry_Int_Tables_number   1
_chemical_formula_structural   BaH8O5
_chemical_formula_sum   'Ba4 H32 O20'
_cell_volume   528.23580206
_cell_formula_units_Z   4
loop_
 _symmetry_equiv_pos_site_id
 _symmetry_equiv_pos_as_xyz
  1  'x, y, z'
loop_
 _atom_site_type_symbol
 _atom_site_label
 _atom_site_symmetry_multiplicity
 _atom_site_fract_x
 _atom_site_fract_y
 _atom_site_fract_z
 _atom_site_occupancy
  Ba  Ba0  1  0.079151  0.955813  0.750000  1
  Ba  Ba1  1  0.579151  0.544187  0.250000  1
  Ba  Ba2  1  0.420849  0.455813  0.750000  1
  Ba  Ba3  1  0.920849  0.044187  0.250000  1
  H  H4  1  0.261509  0.965680  0.028385  1
  H  H5  1  0.761509  0.534320  0.971615  1
  H  H6  1  0.238491  0.465680  0.471615  1
  H  H7  1  0.738491  0.034320  0.528385  1
  H  H8  1  0.738491  0.034320  0.971615  1
  H  H9  1  0.238491  0.465680  0.028385  1
  H  H10  1  0.761509  0.534320  0.528385  1
  H  H11  1  0.261509  0.965680  0.471615  1
  H  H12  1  0.482430  0.173762  0.084486  1
  H  H13  1  0.982430  0.326238  0.915514  1
  H  H14  1  0.017570  0.673762  0.415514  1
  H  H15  1  0.517570  0.826238  0.584486  1
  H  H16  1  0.517570  0.826238  0.915514  1
  H  H17  1  0.017570  0.673762  0.084486  1
  H  H18  1  0.982430  0.326238  0.584486  1
  H  H19  1  0.482430  0.173762  0.415514  1
  H  H20  1  0.667623  0.303869  0.023525  1
  H  H21  1  0.167623  0.196131  0.976475  1
  H  H22  1  0.832377  0.803869  0.476475  1
  H  H23  1  0.332377  0.696131  0.523525  1
  H  H24  1  0.332377  0.696131  0.976475  1
  H  H25  1  0.832377  0.803869  0.023525  1
  H  H26  1  0.167623  0.196131  0.523525  1
  H  H27  1  0.667623  0.303869  0.476475  1
  H  H28  1  0.398440  0.961182  0.318663  1
  H  H29  1  0.898440  0.538818  0.681337  1
  H  H30  1  0.101560  0.461182  0.181337  1
  H  H31  1  0.601560  0.038818  0.818663  1
  H  H32  1  0.601560  0.038818  0.681337  1
  H  H33  1  0.101560  0.461182  0.318663  1
  H  H34  1  0.898440  0.538818  0.818663  1
  H  H35  1  0.398440  0.961182  0.181337  1
  O  O36  1  0.248745  0.064823  0.082032  1
  O  O37  1  0.748745  0.435177  0.917968  1
  O  O38  1  0.251255  0.564823  0.417968  1
  O  O39  1  0.751255  0.935177  0.582032  1
  O  O40  1  0.751255  0.935177  0.917968  1
  O  O41  1  0.251255  0.564823  0.082032  1
  O  O42  1  0.748745  0.435177  0.582032  1
  O  O43  1  0.248745  0.064823  0.417968  1
  O  O44  1  0.633016  0.232802  0.096211  1
  O  O45  1  0.133016  0.267198  0.903789  1
  O  O46  1  0.866984  0.732802  0.403789  1
  O  O47  1  0.366984  0.767198  0.596211  1
  O  O48  1  0.366984  0.767198  0.903789  1
  O  O49  1  0.866984  0.732802  0.096211  1
  O  O50  1  0.133016  0.267198  0.596211  1
  O  O51  1  0.633016  0.232802  0.403789  1
  O  O52  1  0.522807  0.094882  0.750000  1
  O  O53  1  0.022807  0.405118  0.250000  1
  O  O54  1  0.977193  0.594882  0.750000  1
  O  O55  1  0.477193  0.905118  0.250000  1
