# generated using pymatgen
data_PRhO4
_symmetry_space_group_name_H-M   'P 1'
_cell_length_a   9.09872893
_cell_length_b   9.09872893
_cell_length_c   9.09872893
_cell_angle_alpha   138.29527807
_cell_angle_beta   109.03486895
_cell_angle_gamma   85.82937512
_symmetry_Int_Tables_number   1
_chemical_formula_structural   PRhO4
_chemical_formula_sum   'P6 Rh6 O24'
_cell_volume   455.93510422
_cell_formula_units_Z   6
loop_
 _symmetry_equiv_pos_site_id
 _symmetry_equiv_pos_as_xyz
  1  'x, y, z'
loop_
 _atom_site_type_symbol
 _atom_site_label
 _atom_site_symmetry_multiplicity
 _atom_site_fract_x
 _atom_site_fract_y
 _atom_site_fract_z
 _atom_site_occupancy
  P  P0  1  0.674244  0.174244  0.500000  1
  P  P1  1  0.825756  0.825756  0.000000  1
  P  P2  1  0.325756  0.825756  0.500000  1
  P  P3  1  0.174244  0.174244  0.000000  1
  P  P4  1  0.250000  0.669213  0.919213  1
  P  P5  1  0.750000  0.330787  0.080787  1
  Rh  Rh6  1  0.618973  0.618973  0.000000  1
  Rh  Rh7  1  0.881027  0.381027  0.500000  1
  Rh  Rh8  1  0.381027  0.381027  0.000000  1
  Rh  Rh9  1  0.118973  0.618973  0.500000  1
  Rh  Rh10  1  1.000000  0.500000  0.000000  1
  Rh  Rh11  1  0.500000  1.000000  0.000000  1
  O  O12  1  0.643986  0.230116  0.360690  1
  O  O13  1  0.856014  0.716705  0.086130  1
  O  O14  1  0.630575  0.769884  0.913870  1
  O  O15  1  0.869425  0.283295  0.639310  1
  O  O16  1  0.356014  0.769884  0.639310  1
  O  O17  1  0.143986  0.283295  0.913870  1
  O  O18  1  0.369425  0.230116  0.086130  1
  O  O19  1  0.130575  0.716705  0.360690  1
  O  O20  1  0.414913  0.700159  0.337590  1
  O  O21  1  0.085087  0.922677  0.785246  1
  O  O22  1  0.137431  0.299841  0.214754  1
  O  O23  1  0.362569  0.077323  0.662410  1
  O  O24  1  0.654038  0.105539  0.951501  1
  O  O25  1  0.845962  0.297463  0.951501  1
  O  O26  1  0.345962  0.894461  0.048499  1
  O  O27  1  0.154038  0.702537  0.048499  1
  O  O28  1  0.128173  0.523072  0.651246  1
  O  O29  1  0.371827  0.523072  0.894899  1
  O  O30  1  0.628173  0.476928  0.105101  1
  O  O31  1  0.871827  0.476928  0.348754  1
  O  O32  1  0.637431  0.922677  0.337590  1
  O  O33  1  0.862569  0.700159  0.785246  1
  O  O34  1  0.914913  0.077323  0.214754  1
  O  O35  1  0.585087  0.299841  0.662410  1
