# generated using pymatgen
data_Ba2BiSbO6
_symmetry_space_group_name_H-M   'P 1'
_cell_length_a   6.10300250
_cell_length_b   6.10300250
_cell_length_c   6.10300250
_cell_angle_alpha   60.47829588
_cell_angle_beta   60.47829588
_cell_angle_gamma   60.47829588
_symmetry_Int_Tables_number   1
_chemical_formula_structural   Ba2BiSbO6
_chemical_formula_sum   'Ba2 Bi1 Sb1 O6'
_cell_volume   162.47464231
_cell_formula_units_Z   1
loop_
 _symmetry_equiv_pos_site_id
 _symmetry_equiv_pos_as_xyz
  1  'x, y, z'
loop_
 _atom_site_type_symbol
 _atom_site_label
 _atom_site_symmetry_multiplicity
 _atom_site_fract_x
 _atom_site_fract_y
 _atom_site_fract_z
 _atom_site_occupancy
  Ba  Ba0  1  0.251296  0.251296  0.251296  1
  Ba  Ba1  1  0.748704  0.748704  0.748704  1
  Bi  Bi2  1  0.000000  0.000000  0.000000  1
  Sb  Sb3  1  0.500000  0.500000  0.500000  1
  O  O4  1  0.314983  0.728704  0.221148  1
  O  O5  1  0.728704  0.221148  0.314983  1
  O  O6  1  0.221148  0.314983  0.728704  1
  O  O7  1  0.685017  0.271296  0.778852  1
  O  O8  1  0.778852  0.685017  0.271296  1
  O  O9  1  0.271296  0.778852  0.685017  1
