# generated using pymatgen
data_Re3(SBr)7
_symmetry_space_group_name_H-M   'P 1'
_cell_length_a   9.97513716
_cell_length_b   9.97513716
_cell_length_c   26.02257909
_cell_angle_alpha   90.00000000
_cell_angle_beta   90.00000000
_cell_angle_gamma   120.00000000
_symmetry_Int_Tables_number   1
_chemical_formula_structural   Re3(SBr)7
_chemical_formula_sum   'Re12 S28 Br28'
_cell_volume   2242.42910014
_cell_formula_units_Z   4
loop_
 _symmetry_equiv_pos_site_id
 _symmetry_equiv_pos_as_xyz
  1  'x, y, z'
loop_
 _atom_site_type_symbol
 _atom_site_label
 _atom_site_symmetry_multiplicity
 _atom_site_fract_x
 _atom_site_fract_y
 _atom_site_fract_z
 _atom_site_occupancy
  Re  Re0  1  0.632623  0.471541  0.669184  1
  Re  Re1  1  0.528459  0.161081  0.669184  1
  Re  Re2  1  0.838919  0.367377  0.669184  1
  Re  Re3  1  0.471541  0.632623  0.169184  1
  Re  Re4  1  0.161081  0.528459  0.169184  1
  Re  Re5  1  0.367377  0.838919  0.169184  1
  Re  Re6  1  0.857493  0.027389  0.425058  1
  Re  Re7  1  0.972611  0.830104  0.425058  1
  Re  Re8  1  0.169896  0.142507  0.425058  1
  Re  Re9  1  0.027389  0.857493  0.925058  1
  Re  Re10  1  0.830104  0.972611  0.925058  1
  Re  Re11  1  0.142507  0.169896  0.925058  1
  S  S12  1  0.032122  0.197489  0.361311  1
  S  S13  1  0.356951  0.272203  0.662872  1
  S  S14  1  0.727797  0.084748  0.662872  1
  S  S15  1  0.915252  0.643049  0.662872  1
  S  S16  1  0.272203  0.356951  0.162872  1
  S  S17  1  0.084748  0.727797  0.162872  1
  S  S18  1  0.643049  0.915252  0.162872  1
  S  S19  1  0.466786  0.293811  0.732882  1
  S  S20  1  0.706189  0.172975  0.732882  1
  S  S21  1  0.827025  0.533214  0.732882  1
  S  S22  1  0.293811  0.466786  0.232882  1
  S  S23  1  0.172975  0.706189  0.232882  1
  S  S24  1  0.000000  0.000000  0.992337  1
  S  S25  1  0.000000  0.000000  0.492337  1
  S  S26  1  0.197489  0.032122  0.861311  1
  S  S27  1  0.967878  0.165367  0.861311  1
  S  S28  1  0.834633  0.802511  0.861311  1
  S  S29  1  0.533214  0.827025  0.232882  1
  S  S30  1  0.165367  0.967878  0.361311  1
  S  S31  1  0.802511  0.834633  0.361311  1
  S  S32  1  0.305733  0.049573  0.931306  1
  S  S33  1  0.950427  0.256160  0.931306  1
  S  S34  1  0.743840  0.694267  0.931306  1
  S  S35  1  0.049573  0.305733  0.431306  1
  S  S36  1  0.256160  0.950427  0.431306  1
  S  S37  1  0.694267  0.743840  0.431306  1
  S  S38  1  0.333333  0.666667  0.101701  1
  S  S39  1  0.666667  0.333333  0.601701  1
  Br  Br40  1  0.982945  0.386826  0.093642  1
  Br  Br41  1  0.613174  0.596120  0.093642  1
  Br  Br42  1  0.017055  0.403880  0.593642  1
  Br  Br43  1  0.386826  0.982945  0.593642  1
  Br  Br44  1  0.596120  0.613174  0.593642  1
  Br  Br45  1  0.416402  0.078981  0.220502  1
  Br  Br46  1  0.921019  0.337421  0.220502  1
  Br  Br47  1  0.662579  0.583598  0.220502  1
  Br  Br48  1  0.078981  0.416402  0.720502  1
  Br  Br49  1  0.337421  0.921019  0.720502  1
  Br  Br50  1  0.583598  0.662579  0.720502  1
  Br  Br51  1  0.333333  0.666667  0.315048  1
  Br  Br52  1  0.335996  0.410815  0.875051  1
  Br  Br53  1  0.589185  0.925181  0.875051  1
  Br  Br54  1  0.074819  0.664004  0.875051  1
  Br  Br55  1  0.410815  0.335996  0.375051  1
  Br  Br56  1  0.925181  0.589185  0.375051  1
  Br  Br57  1  0.664004  0.074819  0.375051  1
  Br  Br58  1  0.293671  0.338934  0.001611  1
  Br  Br59  1  0.661066  0.954736  0.001611  1
  Br  Br60  1  0.045264  0.706329  0.001611  1
  Br  Br61  1  0.338934  0.293671  0.501611  1
  Br  Br62  1  0.954736  0.661066  0.501611  1
  Br  Br63  1  0.706329  0.045264  0.501611  1
  Br  Br64  1  0.000000  0.000000  0.778886  1
  Br  Br65  1  0.000000  0.000000  0.278886  1
  Br  Br66  1  0.403880  0.017055  0.093642  1
  Br  Br67  1  0.666667  0.333333  0.815048  1
