# generated using pymatgen
data_NaHO
_symmetry_space_group_name_H-M   'P 1'
_cell_length_a   6.02824874
_cell_length_b   6.02824874
_cell_length_c   3.41955664
_cell_angle_alpha   90.00000000
_cell_angle_beta   90.00000000
_cell_angle_gamma   146.92471772
_symmetry_Int_Tables_number   1
_chemical_formula_structural   NaHO
_chemical_formula_sum   'Na2 H2 O2'
_cell_volume   67.81696100
_cell_formula_units_Z   2
loop_
 _symmetry_equiv_pos_site_id
 _symmetry_equiv_pos_as_xyz
  1  'x, y, z'
loop_
 _atom_site_type_symbol
 _atom_site_label
 _atom_site_symmetry_multiplicity
 _atom_site_fract_x
 _atom_site_fract_y
 _atom_site_fract_z
 _atom_site_occupancy
  Na  Na0  1  0.337125  0.662875  0.250000  1
  Na  Na1  1  0.662875  0.337125  0.750000  1
  H  H2  1  0.051211  0.948789  0.250000  1
  H  H3  1  0.948789  0.051211  0.750000  1
  O  O4  1  0.864632  0.135368  0.750000  1
  O  O5  1  0.135368  0.864632  0.250000  1
