# generated using pymatgen
data_BaB4O7
_symmetry_space_group_name_H-M   'P 1'
_cell_length_a   10.73786164
_cell_length_b   8.36510819
_cell_length_c   13.17748468
_cell_angle_alpha   90.00000000
_cell_angle_beta   105.04158563
_cell_angle_gamma   90.00000000
_symmetry_Int_Tables_number   1
_chemical_formula_structural   BaB4O7
_chemical_formula_sum   'Ba8 B32 O56'
_cell_volume   1143.09172377
_cell_formula_units_Z   8
loop_
 _symmetry_equiv_pos_site_id
 _symmetry_equiv_pos_as_xyz
  1  'x, y, z'
loop_
 _atom_site_type_symbol
 _atom_site_label
 _atom_site_symmetry_multiplicity
 _atom_site_fract_x
 _atom_site_fract_y
 _atom_site_fract_z
 _atom_site_occupancy
  Ba  Ba0  1  0.107643  0.618216  0.703888  1
  Ba  Ba1  1  0.892357  0.118216  0.796112  1
  Ba  Ba2  1  0.892357  0.381784  0.296112  1
  Ba  Ba3  1  0.107643  0.881784  0.203888  1
  Ba  Ba4  1  0.461625  0.237391  0.606366  1
  Ba  Ba5  1  0.538375  0.737391  0.893634  1
  Ba  Ba6  1  0.538375  0.762609  0.393634  1
  Ba  Ba7  1  0.461625  0.262609  0.106366  1
  B  B8  1  0.010271  0.716022  0.447805  1
  B  B9  1  0.137905  0.091656  0.506950  1
  B  B10  1  0.862095  0.591656  0.993050  1
  B  B11  1  0.862095  0.908344  0.493050  1
  B  B12  1  0.137905  0.408344  0.006950  1
  B  B13  1  0.397111  0.825196  0.606286  1
  B  B14  1  0.602889  0.325196  0.893714  1
  B  B15  1  0.602889  0.174804  0.393714  1
  B  B16  1  0.397111  0.674804  0.106286  1
  B  B17  1  0.989729  0.216022  0.052195  1
  B  B18  1  0.989729  0.283978  0.552195  1
  B  B19  1  0.010271  0.783978  0.947805  1
  B  B20  1  0.182951  0.306506  0.194186  1
  B  B21  1  0.817049  0.806506  0.305814  1
  B  B22  1  0.817049  0.693494  0.805814  1
  B  B23  1  0.182951  0.193494  0.694186  1
  B  B24  1  0.246243  0.637014  0.483547  1
  B  B25  1  0.753757  0.137014  0.016453  1
  B  B26  1  0.753757  0.362986  0.516453  1
  B  B27  1  0.246243  0.862986  0.983547  1
  B  B28  1  0.277757  0.382537  0.380855  1
  B  B29  1  0.722243  0.882537  0.119145  1
  B  B30  1  0.722243  0.617463  0.619145  1
  B  B31  1  0.277757  0.117463  0.880855  1
  B  B32  1  0.367327  0.137551  0.312582  1
  B  B33  1  0.632673  0.637551  0.187418  1
  B  B34  1  0.632673  0.862449  0.687418  1
  B  B35  1  0.367327  0.362449  0.812582  1
  B  B36  1  0.287576  0.918296  0.426401  1
  B  B37  1  0.712424  0.418296  0.073599  1
  B  B38  1  0.712424  0.081704  0.573599  1
  B  B39  1  0.287576  0.581704  0.926401  1
  O  O40  1  0.361048  0.253675  0.395262  1
  O  O41  1  0.317185  0.806019  0.092568  1
  O  O42  1  0.682815  0.306019  0.407432  1
  O  O43  1  0.682815  0.193981  0.907432  1
  O  O44  1  0.317185  0.693981  0.592568  1
  O  O45  1  0.203893  0.415351  0.110571  1
  O  O46  1  0.796107  0.915351  0.389429  1
  O  O47  1  0.796107  0.584649  0.889429  1
  O  O48  1  0.258069  0.749111  0.401958  1
  O  O49  1  0.741931  0.249111  0.098042  1
  O  O50  1  0.741931  0.250889  0.598042  1
  O  O51  1  0.258069  0.750889  0.901958  1
  O  O52  1  0.109070  0.611184  0.486131  1
  O  O53  1  0.890930  0.111184  0.013869  1
  O  O54  1  0.890930  0.388816  0.513869  1
  O  O55  1  0.109070  0.888816  0.986131  1
  O  O56  1  0.302007  0.481533  0.467065  1
  O  O57  1  0.697993  0.981533  0.032935  1
  O  O58  1  0.697993  0.518467  0.532935  1
  O  O59  1  0.302007  0.018467  0.967065  1
  O  O60  1  0.181085  0.401215  0.289216  1
  O  O61  1  0.818915  0.901215  0.210784  1
  O  O62  1  0.818915  0.598785  0.710784  1
  O  O63  1  0.181085  0.098785  0.789216  1
  O  O64  1  0.051719  0.225452  0.157284  1
  O  O65  1  0.948281  0.725452  0.342716  1
  O  O66  1  0.948281  0.774548  0.842716  1
  O  O67  1  0.051719  0.274548  0.657284  1
  O  O68  1  0.493445  0.646389  0.197855  1
  O  O69  1  0.506555  0.146389  0.302145  1
  O  O70  1  0.506555  0.353611  0.802145  1
  O  O71  1  0.493445  0.853611  0.697855  1
  O  O72  1  0.203893  0.084649  0.610571  1
  O  O73  1  0.638952  0.753675  0.104738  1
  O  O74  1  0.638952  0.746325  0.604738  1
  O  O75  1  0.361048  0.246325  0.895262  1
  O  O76  1  0.031532  0.196596  0.476519  1
  O  O77  1  0.968468  0.696596  0.023481  1
  O  O78  1  0.968468  0.803404  0.523481  1
  O  O79  1  0.031532  0.303404  0.976519  1
  O  O80  1  0.336688  0.525179  0.838575  1
  O  O81  1  0.832790  0.507989  0.072251  1
  O  O82  1  0.832790  0.992011  0.572251  1
  O  O83  1  0.167210  0.492011  0.927749  1
  O  O84  1  0.281518  0.183264  0.211479  1
  O  O85  1  0.718482  0.683264  0.288521  1
  O  O86  1  0.718482  0.816736  0.788521  1
  O  O87  1  0.281518  0.316736  0.711479  1
  O  O88  1  0.387750  0.565508  0.026002  1
  O  O89  1  0.612250  0.065508  0.473998  1
  O  O90  1  0.612250  0.434492  0.973998  1
  O  O91  1  0.387750  0.934492  0.526002  1
  O  O92  1  0.336688  0.974821  0.338575  1
  O  O93  1  0.663312  0.474821  0.161425  1
  O  O94  1  0.663312  0.025179  0.661425  1
  O  O95  1  0.167210  0.007989  0.427749  1
