# generated using pymatgen
data_Ca3Al2H6S(OF)8
_symmetry_space_group_name_H-M   'P 1'
_cell_length_a   8.28714129
_cell_length_b   8.28714129
_cell_length_c   10.10521283
_cell_angle_alpha   87.03676557
_cell_angle_beta   92.96323443
_cell_angle_gamma   116.65095572
_symmetry_Int_Tables_number   1
_chemical_formula_structural   Ca3Al2H6S(OF)8
_chemical_formula_sum   'Ca6 Al4 H12 S2 O16 F16'
_cell_volume   619.11462737
_cell_formula_units_Z   2
loop_
 _symmetry_equiv_pos_site_id
 _symmetry_equiv_pos_as_xyz
  1  'x, y, z'
loop_
 _atom_site_type_symbol
 _atom_site_label
 _atom_site_symmetry_multiplicity
 _atom_site_fract_x
 _atom_site_fract_y
 _atom_site_fract_z
 _atom_site_occupancy
  Ca  Ca0  1  0.029827  0.029827  0.250000  1
  Ca  Ca1  1  0.970173  0.970173  0.750000  1
  Ca  Ca2  1  0.971998  0.465808  0.306904  1
  Ca  Ca3  1  0.465808  0.971998  0.193096  1
  Ca  Ca4  1  0.028002  0.534192  0.693096  1
  Ca  Ca5  1  0.534192  0.028002  0.806904  1
  Al  Al6  1  0.302681  0.899272  0.512978  1
  Al  Al7  1  0.899272  0.302681  0.987022  1
  Al  Al8  1  0.100728  0.697319  0.012978  1
  Al  Al9  1  0.697319  0.100728  0.487022  1
  H  H10  1  0.768491  0.507659  0.074039  1
  H  H11  1  0.507659  0.768491  0.425961  1
  H  H12  1  0.231509  0.492341  0.925961  1
  H  H13  1  0.492341  0.231509  0.574039  1
  H  H14  1  0.314551  0.421714  0.368538  1
  H  H15  1  0.421714  0.314551  0.131462  1
  H  H16  1  0.685449  0.578286  0.631462  1
  H  H17  1  0.578286  0.685449  0.868538  1
  H  H18  1  0.177032  0.303477  0.476887  1
  H  H19  1  0.303477  0.177032  0.023113  1
  H  H20  1  0.822968  0.696523  0.523113  1
  H  H21  1  0.696523  0.822968  0.976887  1
  S  S22  1  0.344931  0.344931  0.750000  1
  S  S23  1  0.655069  0.655069  0.250000  1
  O  O24  1  0.882010  0.497879  0.063812  1
  O  O25  1  0.497879  0.882010  0.436188  1
  O  O26  1  0.117990  0.502121  0.936188  1
  O  O27  1  0.502121  0.117990  0.563812  1
  O  O28  1  0.186048  0.332039  0.381241  1
  O  O29  1  0.332039  0.186048  0.118759  1
  O  O30  1  0.813952  0.667961  0.618759  1
  O  O31  1  0.667961  0.813952  0.881241  1
  O  O32  1  0.594762  0.520740  0.144292  1
  O  O33  1  0.319304  0.165364  0.810320  1
  O  O34  1  0.405238  0.479260  0.855708  1
  O  O35  1  0.479260  0.405238  0.644292  1
  O  O36  1  0.834636  0.680696  0.310320  1
  O  O37  1  0.680696  0.834636  0.189680  1
  O  O38  1  0.165364  0.319304  0.689680  1
  O  O39  1  0.520740  0.594762  0.355708  1
  F  F40  1  0.021855  0.741760  0.847970  1
  F  F41  1  0.677112  0.204992  0.321439  1
  F  F42  1  0.795008  0.322888  0.821439  1
  F  F43  1  0.322888  0.795008  0.678561  1
  F  F44  1  0.135998  0.666272  0.476378  1
  F  F45  1  0.666272  0.135998  0.023622  1
  F  F46  1  0.864002  0.333728  0.523622  1
  F  F47  1  0.333728  0.864002  0.976378  1
  F  F48  1  0.044461  0.862957  0.077568  1
  F  F49  1  0.862957  0.044461  0.422432  1
  F  F50  1  0.955539  0.137043  0.922432  1
  F  F51  1  0.137043  0.955539  0.577568  1
  F  F52  1  0.978145  0.258240  0.152030  1
  F  F53  1  0.258240  0.978145  0.347970  1
  F  F54  1  0.741760  0.021855  0.652030  1
  F  F55  1  0.204992  0.677112  0.178561  1
