# generated using pymatgen
data_Li2Sn(PO3)4
_symmetry_space_group_name_H-M   'P 1'
_cell_length_a   9.60680795
_cell_length_b   10.45630534
_cell_length_c   9.80413565
_cell_angle_alpha   90.00000000
_cell_angle_beta   90.85852370
_cell_angle_gamma   90.00000000
_symmetry_Int_Tables_number   1
_chemical_formula_structural   Li2Sn(PO3)4
_chemical_formula_sum   'Li8 Sn4 P16 O48'
_cell_volume   984.73170438
_cell_formula_units_Z   4
loop_
 _symmetry_equiv_pos_site_id
 _symmetry_equiv_pos_as_xyz
  1  'x, y, z'
loop_
 _atom_site_type_symbol
 _atom_site_label
 _atom_site_symmetry_multiplicity
 _atom_site_fract_x
 _atom_site_fract_y
 _atom_site_fract_z
 _atom_site_occupancy
  Li  Li0  1  0.113909  0.175358  0.992182  1
  Li  Li1  1  0.387418  0.182965  0.995901  1
  Li  Li2  1  0.113909  0.324642  0.492182  1
  Li  Li3  1  0.612582  0.682965  0.504099  1
  Li  Li4  1  0.387418  0.317035  0.495901  1
  Li  Li5  1  0.886091  0.675358  0.507818  1
  Li  Li6  1  0.612582  0.817035  0.004099  1
  Li  Li7  1  0.886091  0.824642  0.007818  1
  Sn  Sn8  1  0.747090  0.202079  0.974128  1
  Sn  Sn9  1  0.252910  0.702079  0.525872  1
  Sn  Sn10  1  0.747090  0.297921  0.474128  1
  Sn  Sn11  1  0.252910  0.797921  0.025872  1
  P  P12  1  0.037183  0.610114  0.800955  1
  P  P13  1  0.268245  0.407697  0.803457  1
  P  P14  1  0.496522  0.602226  0.801749  1
  P  P15  1  0.766985  0.478255  0.754236  1
  P  P16  1  0.233015  0.978255  0.745764  1
  P  P17  1  0.503478  0.102226  0.698251  1
  P  P18  1  0.731755  0.907697  0.696543  1
  P  P19  1  0.962817  0.110114  0.699045  1
  P  P20  1  0.037183  0.889886  0.300955  1
  P  P21  1  0.268245  0.092303  0.303457  1
  P  P22  1  0.496522  0.897774  0.301749  1
  P  P23  1  0.766985  0.021745  0.254236  1
  P  P24  1  0.233015  0.521745  0.245764  1
  P  P25  1  0.503478  0.397774  0.198251  1
  P  P26  1  0.731755  0.592303  0.196543  1
  P  P27  1  0.962817  0.389886  0.199045  1
  O  O28  1  0.248665  0.298457  0.899940  1
  O  O29  1  0.030633  0.721808  0.897349  1
  O  O30  1  0.465772  0.705805  0.903213  1
  O  O31  1  0.229315  0.015827  0.893753  1
  O  O32  1  0.167674  0.525351  0.851558  1
  O  O33  1  0.525627  0.126253  0.849114  1
  O  O34  1  0.417832  0.471354  0.843114  1
  O  O35  1  0.955750  0.132540  0.850954  1
  O  O36  1  0.744150  0.885945  0.847493  1
  O  O37  1  0.656502  0.565096  0.834112  1
  O  O38  1  0.908214  0.516831  0.833893  1
  O  O39  1  0.739779  0.340061  0.786652  1
  O  O40  1  0.260221  0.840061  0.713348  1
  O  O41  1  0.091786  0.016831  0.666107  1
  O  O42  1  0.343498  0.065096  0.665888  1
  O  O43  1  0.255850  0.385945  0.652507  1
  O  O44  1  0.044250  0.632540  0.649046  1
  O  O45  1  0.582168  0.971354  0.656886  1
  O  O46  1  0.474373  0.626253  0.650886  1
  O  O47  1  0.832326  0.025351  0.648442  1
  O  O48  1  0.770685  0.515827  0.606247  1
  O  O49  1  0.534228  0.205805  0.596787  1
  O  O50  1  0.969367  0.221808  0.602651  1
  O  O51  1  0.751335  0.798457  0.600060  1
  O  O52  1  0.248665  0.201543  0.399940  1
  O  O53  1  0.030633  0.778192  0.397349  1
  O  O54  1  0.465772  0.794195  0.403213  1
  O  O55  1  0.229315  0.484173  0.393753  1
  O  O56  1  0.167674  0.974649  0.351558  1
  O  O57  1  0.525627  0.373747  0.349114  1
  O  O58  1  0.417832  0.028646  0.343114  1
  O  O59  1  0.955750  0.367460  0.350954  1
  O  O60  1  0.744150  0.614055  0.347493  1
  O  O61  1  0.656502  0.934904  0.334112  1
  O  O62  1  0.908214  0.983169  0.333893  1
  O  O63  1  0.739779  0.159939  0.286652  1
  O  O64  1  0.260221  0.659939  0.213348  1
  O  O65  1  0.091786  0.483169  0.166107  1
  O  O66  1  0.343498  0.434904  0.165888  1
  O  O67  1  0.255850  0.114055  0.152507  1
  O  O68  1  0.044250  0.867460  0.149046  1
  O  O69  1  0.582168  0.528646  0.156886  1
  O  O70  1  0.474373  0.873747  0.150886  1
  O  O71  1  0.832326  0.474649  0.148442  1
  O  O72  1  0.770685  0.984173  0.106247  1
  O  O73  1  0.534228  0.294195  0.096787  1
  O  O74  1  0.969367  0.278192  0.102651  1
  O  O75  1  0.751335  0.701543  0.100060  1
