# generated using pymatgen
data_Ba3In2O5F2
_symmetry_space_group_name_H-M   'P 1'
_cell_length_a   11.97830887
_cell_length_b   11.97830887
_cell_length_c   11.97830887
_cell_angle_alpha   159.56936453
_cell_angle_beta   159.56936453
_cell_angle_gamma   29.05063042
_symmetry_Int_Tables_number   1
_chemical_formula_structural   Ba3In2O5F2
_chemical_formula_sum   'Ba3 In2 O5 F2'
_cell_volume   209.31015928
_cell_formula_units_Z   1
loop_
 _symmetry_equiv_pos_site_id
 _symmetry_equiv_pos_as_xyz
  1  'x, y, z'
loop_
 _atom_site_type_symbol
 _atom_site_label
 _atom_site_symmetry_multiplicity
 _atom_site_fract_x
 _atom_site_fract_y
 _atom_site_fract_z
 _atom_site_occupancy
  Ba  Ba0  1  0.500000  0.500000  0.000000  1
  Ba  Ba1  1  0.676152  0.676152  0.000000  1
  Ba  Ba2  1  0.323848  0.323848  0.000000  1
  In  In3  1  0.908922  0.908922  0.000000  1
  In  In4  1  0.091078  0.091078  0.000000  1
  O  O5  1  0.603695  0.103695  0.500000  1
  O  O6  1  0.103695  0.603695  0.500000  1
  O  O7  1  0.000000  0.000000  0.000000  1
  O  O8  1  0.396305  0.896305  0.500000  1
  O  O9  1  0.896305  0.396305  0.500000  1
  F  F10  1  0.205094  0.205094  0.000000  1
  F  F11  1  0.794906  0.794906  0.000000  1
