# generated using pymatgen
data_MgP2(H8O5)2
_symmetry_space_group_name_H-M   'P 1'
_cell_length_a   12.62050673
_cell_length_b   12.62050673
_cell_length_c   12.62050673
_cell_angle_alpha   131.10153725
_cell_angle_beta   131.10153725
_cell_angle_gamma   71.65180726
_symmetry_Int_Tables_number   1
_chemical_formula_structural   MgP2(H8O5)2
_chemical_formula_sum   'Mg4 P8 H64 O40'
_cell_volume   1116.77795974
_cell_formula_units_Z   4
loop_
 _symmetry_equiv_pos_site_id
 _symmetry_equiv_pos_as_xyz
  1  'x, y, z'
loop_
 _atom_site_type_symbol
 _atom_site_label
 _atom_site_symmetry_multiplicity
 _atom_site_fract_x
 _atom_site_fract_y
 _atom_site_fract_z
 _atom_site_occupancy
  Mg  Mg0  1  0.500000  0.000000  0.500000  1
  Mg  Mg1  1  0.750000  0.750000  0.000000  1
  Mg  Mg2  1  0.250000  0.250000  0.000000  1
  Mg  Mg3  1  0.000000  0.500000  0.500000  1
  P  P4  1  0.625000  0.138029  0.013029  1
  P  P5  1  0.888029  0.375000  0.013029  1
  P  P6  1  0.361971  0.875000  0.986971  1
  P  P7  1  0.125000  0.611971  0.986971  1
  P  P8  1  0.625000  0.638029  0.513029  1
  P  P9  1  0.388029  0.375000  0.513029  1
  P  P10  1  0.861971  0.875000  0.486971  1
  P  P11  1  0.125000  0.111971  0.486971  1
  H  H12  1  0.010634  0.156563  0.493749  1
  H  H13  1  0.983114  0.837186  0.493749  1
  H  H14  1  0.343437  0.489366  0.506251  1
  H  H15  1  0.239366  0.233114  0.645928  1
  H  H16  1  0.587186  0.593437  0.354072  1
  H  H17  1  0.906563  0.912814  0.645928  1
  H  H18  1  0.266886  0.260634  0.354072  1
  H  H19  1  0.662814  0.516886  0.506251  1
  H  H20  1  0.739366  0.093437  0.006251  1
  H  H21  1  0.766886  0.412814  0.006251  1
  H  H22  1  0.406563  0.760634  0.993749  1
  H  H23  1  0.510634  0.016886  0.854072  1
  H  H24  1  0.162814  0.656563  0.145928  1
  H  H25  1  0.843437  0.337186  0.854072  1
  H  H26  1  0.483114  0.989366  0.145928  1
  H  H27  1  0.087186  0.733114  0.993749  1
  H  H28  1  0.969677  0.270463  0.188618  1
  H  H29  1  0.718941  0.418155  0.188618  1
  H  H30  1  0.229537  0.530323  0.811382  1
  H  H31  1  0.280323  0.968941  0.800786  1
  H  H32  1  0.168155  0.479537  0.199214  1
  H  H33  1  0.020463  0.331845  0.800786  1
  H  H34  1  0.531059  0.219677  0.199214  1
  H  H35  1  0.081845  0.781059  0.811382  1
  H  H36  1  0.780323  0.979537  0.311382  1
  H  H37  1  0.031059  0.831845  0.311382  1
  H  H38  1  0.520463  0.719677  0.688618  1
  H  H39  1  0.469677  0.281059  0.699214  1
  H  H40  1  0.424450  0.814288  0.499163  1
  H  H41  1  0.581845  0.770463  0.300786  1
  H  H42  1  0.218941  0.030323  0.300786  1
  H  H43  1  0.668155  0.468941  0.688618  1
  H  H44  1  0.026939  0.217326  0.302557  1
  H  H45  1  0.775618  0.585231  0.302557  1
  H  H46  1  0.282674  0.473061  0.697443  1
  H  H47  1  0.223061  0.025618  0.690387  1
  H  H48  1  0.335231  0.532674  0.309613  1
  H  H49  1  0.967326  0.164769  0.690387  1
  H  H50  1  0.474382  0.276939  0.309613  1
  H  H51  1  0.914769  0.724382  0.697443  1
  H  H52  1  0.723061  0.032674  0.197443  1
  H  H53  1  0.974382  0.664769  0.197443  1
  H  H54  1  0.467326  0.776939  0.802557  1
  H  H55  1  0.526939  0.224382  0.809613  1
  H  H56  1  0.414769  0.717326  0.190387  1
  H  H57  1  0.782674  0.085231  0.809613  1
  H  H58  1  0.275618  0.973061  0.190387  1
  H  H59  1  0.835231  0.525618  0.802557  1
  H  H60  1  0.934875  0.935712  0.110161  1
  H  H61  1  0.675287  0.674450  0.110161  1
  H  H62  1  0.564288  0.565125  0.889839  1
  H  H63  1  0.315125  0.925287  0.500837  1
  H  H64  1  0.924450  0.425287  0.610161  1
  H  H65  1  0.175287  0.065125  0.000837  1
  H  H66  1  0.064288  0.174450  0.999163  1
  H  H67  1  0.325550  0.435712  0.000837  1
  H  H68  1  0.434875  0.324713  0.999163  1
  H  H69  1  0.185712  0.684875  0.610161  1
  H  H70  1  0.074713  0.575550  0.389839  1
  H  H71  1  0.815125  0.314288  0.389839  1
  H  H72  1  0.825550  0.824713  0.889839  1
  H  H73  1  0.574713  0.184875  0.499163  1
  H  H74  1  0.685712  0.075550  0.500837  1
  H  H75  1  0.729537  0.918155  0.699214  1
  O  O76  1  0.082992  0.079544  0.321624  1
  O  O77  1  0.738633  0.742081  0.321624  1
  O  O78  1  0.420456  0.417008  0.678376  1
  O  O79  1  0.167008  0.988633  0.496552  1
  O  O80  1  0.492081  0.670456  0.503448  1
  O  O81  1  0.829544  0.007919  0.496552  1
  O  O82  1  0.511367  0.332992  0.503448  1
  O  O83  1  0.757919  0.761367  0.678376  1
  O  O84  1  0.667008  0.170456  0.178376  1
  O  O85  1  0.011367  0.507919  0.178376  1
  O  O86  1  0.329544  0.832992  0.821624  1
  O  O87  1  0.582992  0.261367  0.003448  1
  O  O88  1  0.257919  0.579544  0.996552  1
  O  O89  1  0.920456  0.242081  0.003448  1
  O  O90  1  0.238633  0.917008  0.996552  1
  O  O91  1  0.992081  0.488633  0.821624  1
  O  O92  1  0.249680  0.452952  0.196561  1
  O  O93  1  0.446881  0.243609  0.196561  1
  O  O94  1  0.047048  0.250320  0.803439  1
  O  O95  1  0.000320  0.696881  0.703272  1
  O  O96  1  0.993609  0.297048  0.296728  1
  O  O97  1  0.202952  0.506391  0.703272  1
  O  O98  1  0.803119  0.499680  0.296728  1
  O  O99  1  0.256391  0.053119  0.803439  1
  O  O100  1  0.500320  0.797048  0.303439  1
  O  O101  1  0.303119  0.006391  0.303439  1
  O  O102  1  0.702952  0.999680  0.696561  1
  O  O103  1  0.749680  0.553119  0.796728  1
  O  O104  1  0.756391  0.952952  0.203272  1
  O  O105  1  0.547048  0.743609  0.796728  1
  O  O106  1  0.946881  0.750320  0.203272  1
  O  O107  1  0.493609  0.196881  0.696561  1
  O  O108  1  0.147510  0.147510  0.000000  1
  O  O109  1  0.897510  0.397510  0.500000  1
  O  O110  1  0.102490  0.602490  0.500000  1
  O  O111  1  0.352490  0.352490  0.000000  1
  O  O112  1  0.602490  0.102490  0.500000  1
  O  O113  1  0.852490  0.852490  0.000000  1
  O  O114  1  0.647510  0.647510  0.000000  1
  O  O115  1  0.397510  0.897510  0.500000  1
