# generated using pymatgen
data_DyCl3
_symmetry_space_group_name_H-M   'P 1'
_cell_length_a   7.28090665
_cell_length_b   7.28090665
_cell_length_c   8.57310505
_cell_angle_alpha   90.00000000
_cell_angle_beta   90.00000000
_cell_angle_gamma   149.78396929
_symmetry_Int_Tables_number   1
_chemical_formula_structural   DyCl3
_chemical_formula_sum   'Dy2 Cl6'
_cell_volume   228.71939151
_cell_formula_units_Z   2
loop_
 _symmetry_equiv_pos_site_id
 _symmetry_equiv_pos_as_xyz
  1  'x, y, z'
loop_
 _atom_site_type_symbol
 _atom_site_label
 _atom_site_symmetry_multiplicity
 _atom_site_fract_x
 _atom_site_fract_y
 _atom_site_fract_z
 _atom_site_occupancy
  Dy  Dy0  1  0.241601  0.758399  0.250000  1
  Dy  Dy1  1  0.758399  0.241601  0.750000  1
  Cl  Cl2  1  0.836186  0.163814  0.068899  1
  Cl  Cl3  1  0.163814  0.836186  0.931101  1
  Cl  Cl4  1  0.390358  0.609642  0.750000  1
  Cl  Cl5  1  0.609642  0.390358  0.250000  1
  Cl  Cl6  1  0.836186  0.163814  0.431101  1
  Cl  Cl7  1  0.163814  0.836186  0.568899  1
