# generated using pymatgen
data_Ca2MnAs2(H2O5)2
_symmetry_space_group_name_H-M   'P 1'
_cell_length_a   5.79170642
_cell_length_b   13.16734403
_cell_length_c   5.95453528
_cell_angle_alpha   90.00000000
_cell_angle_beta   108.13086948
_cell_angle_gamma   90.00000000
_symmetry_Int_Tables_number   1
_chemical_formula_structural   Ca2MnAs2(H2O5)2
_chemical_formula_sum   'Ca4 Mn2 As4 H8 O20'
_cell_volume   431.55420794
_cell_formula_units_Z   2
loop_
 _symmetry_equiv_pos_site_id
 _symmetry_equiv_pos_as_xyz
  1  'x, y, z'
loop_
 _atom_site_type_symbol
 _atom_site_label
 _atom_site_symmetry_multiplicity
 _atom_site_fract_x
 _atom_site_fract_y
 _atom_site_fract_z
 _atom_site_occupancy
  Ca  Ca0  1  0.758395  0.880003  0.431256  1
  Ca  Ca1  1  0.741605  0.380003  0.568744  1
  Ca  Ca2  1  0.241605  0.119997  0.568744  1
  Ca  Ca3  1  0.258395  0.619997  0.431256  1
  Mn  Mn4  1  0.500000  0.500000  0.000000  1
  Mn  Mn5  1  0.000000  0.000000  0.000000  1
  As  As6  1  0.428746  0.877852  0.776064  1
  As  As7  1  0.071254  0.377852  0.223936  1
  As  As8  1  0.571254  0.122148  0.223936  1
  As  As9  1  0.928746  0.622148  0.776064  1
  H  H10  1  0.498585  0.710422  0.106072  1
  H  H11  1  0.001415  0.210422  0.893928  1
  H  H12  1  0.501415  0.289578  0.893928  1
  H  H13  1  0.998585  0.789578  0.106072  1
  H  H14  1  0.694922  0.655921  0.316181  1
  H  H15  1  0.805078  0.155921  0.683819  1
  H  H16  1  0.305078  0.344079  0.683819  1
  H  H17  1  0.194922  0.844079  0.316181  1
  O  O18  1  0.531659  0.643100  0.196279  1
  O  O19  1  0.968341  0.143100  0.803721  1
  O  O20  1  0.651260  0.961881  0.752710  1
  O  O21  1  0.848740  0.461881  0.247290  1
  O  O22  1  0.348740  0.038119  0.247290  1
  O  O23  1  0.151260  0.538119  0.752710  1
  O  O24  1  0.158248  0.945739  0.711731  1
  O  O25  1  0.341752  0.445739  0.288269  1
  O  O26  1  0.841752  0.054261  0.288269  1
  O  O27  1  0.658248  0.554261  0.711731  1
  O  O28  1  0.502098  0.825242  0.050196  1
  O  O29  1  0.997902  0.325242  0.949804  1
  O  O30  1  0.497902  0.174758  0.949804  1
  O  O31  1  0.002098  0.674758  0.050196  1
  O  O32  1  0.417376  0.793426  0.549814  1
  O  O33  1  0.082624  0.293426  0.450186  1
  O  O34  1  0.582624  0.206574  0.450186  1
  O  O35  1  0.917376  0.706574  0.549814  1
  O  O36  1  0.031659  0.856900  0.196279  1
  O  O37  1  0.468341  0.356900  0.803721  1
