# generated using pymatgen
data_LiH6NO6
_symmetry_space_group_name_H-M   'P 1'
_cell_length_a   7.22974397
_cell_length_b   7.22974397
_cell_length_c   6.06861008
_cell_angle_alpha   90.00000000
_cell_angle_beta   90.00000000
_cell_angle_gamma   122.64219800
_symmetry_Int_Tables_number   1
_chemical_formula_structural   LiH6NO6
_chemical_formula_sum   'Li2 H12 N2 O12'
_cell_volume   267.10112519
_cell_formula_units_Z   2
loop_
 _symmetry_equiv_pos_site_id
 _symmetry_equiv_pos_as_xyz
  1  'x, y, z'
loop_
 _atom_site_type_symbol
 _atom_site_label
 _atom_site_symmetry_multiplicity
 _atom_site_fract_x
 _atom_site_fract_y
 _atom_site_fract_z
 _atom_site_occupancy
  Li  Li0  1  0.000000  0.000000  0.500000  1
  Li  Li1  1  0.000000  0.000000  0.000000  1
  H  H2  1  0.319324  0.680676  0.620576  1
  H  H3  1  0.369825  0.200944  0.750000  1
  H  H4  1  0.680676  0.319324  0.120576  1
  H  H5  1  0.680676  0.319324  0.379424  1
  H  H6  1  0.319324  0.680676  0.879424  1
  H  H7  1  0.266945  0.343156  0.750000  1
  H  H8  1  0.630175  0.799056  0.250000  1
  H  H9  1  0.733055  0.656844  0.250000  1
  H  H10  1  0.656844  0.733055  0.750000  1
  H  H11  1  0.799056  0.630175  0.750000  1
  H  H12  1  0.200944  0.369825  0.250000  1
  H  H13  1  0.343156  0.266945  0.250000  1
  N  N14  1  0.779919  0.220081  0.750000  1
  N  N15  1  0.220081  0.779919  0.250000  1
  O  O16  1  0.827753  0.172247  0.567862  1
  O  O17  1  0.771902  0.810938  0.250000  1
  O  O18  1  0.228098  0.189062  0.750000  1
  O  O19  1  0.321397  0.678603  0.250000  1
  O  O20  1  0.678603  0.321397  0.750000  1
  O  O21  1  0.189062  0.228098  0.250000  1
  O  O22  1  0.172247  0.827753  0.067862  1
  O  O23  1  0.172247  0.827753  0.432138  1
  O  O24  1  0.827753  0.172247  0.932138  1
  O  O25  1  0.810938  0.771902  0.750000  1
  O  O26  1  0.634012  0.365988  0.250000  1
  O  O27  1  0.365988  0.634012  0.750000  1
