# generated using pymatgen
data_Li2H2SO5
_symmetry_space_group_name_H-M   'P 1'
_cell_length_a   5.55589409
_cell_length_b   4.90398998
_cell_length_c   8.26964596
_cell_angle_alpha   90.00000000
_cell_angle_beta   107.10825466
_cell_angle_gamma   90.00000000
_symmetry_Int_Tables_number   1
_chemical_formula_structural   Li2H2SO5
_chemical_formula_sum   'Li4 H4 S2 O10'
_cell_volume   215.34512646
_cell_formula_units_Z   2
loop_
 _symmetry_equiv_pos_site_id
 _symmetry_equiv_pos_as_xyz
  1  'x, y, z'
loop_
 _atom_site_type_symbol
 _atom_site_label
 _atom_site_symmetry_multiplicity
 _atom_site_fract_x
 _atom_site_fract_y
 _atom_site_fract_z
 _atom_site_occupancy
  Li  Li0  1  0.560266  0.510576  0.894898  1
  Li  Li1  1  0.696686  0.000971  0.506788  1
  Li  Li2  1  0.439734  0.010576  0.105102  1
  Li  Li3  1  0.303314  0.500971  0.493212  1
  H  H4  1  0.995061  0.866528  0.059628  1
  H  H5  1  0.030291  0.114516  0.190458  1
  H  H6  1  0.004939  0.366528  0.940372  1
  H  H7  1  0.969709  0.614516  0.809542  1
  S  S8  1  0.293323  0.997372  0.708486  1
  S  S9  1  0.706677  0.497372  0.291514  1
  O  O10  1  0.435205  0.887419  0.878390  1
  O  O11  1  0.564795  0.387419  0.121610  1
  O  O12  1  0.912887  0.536978  0.901824  1
  O  O13  1  0.600991  0.376077  0.421983  1
  O  O14  1  0.326857  0.299711  0.709685  1
  O  O15  1  0.673143  0.799711  0.290315  1
  O  O16  1  0.399009  0.876077  0.578017  1
  O  O17  1  0.087113  0.036978  0.098176  1
  O  O18  1  0.023606  0.924651  0.671391  1
  O  O19  1  0.976394  0.424651  0.328609  1
