# generated using pymatgen
data_Sm2MoO6
_symmetry_space_group_name_H-M   'P 1'
_cell_length_a   10.12928249
_cell_length_b   10.12928249
_cell_length_c   5.52237578
_cell_angle_alpha   75.16988671
_cell_angle_beta   104.83011329
_cell_angle_gamma   111.55164438
_symmetry_Int_Tables_number   1
_chemical_formula_structural   Sm2MoO6
_chemical_formula_sum   'Sm8 Mo4 O24'
_cell_volume   501.11011443
_cell_formula_units_Z   4
loop_
 _symmetry_equiv_pos_site_id
 _symmetry_equiv_pos_as_xyz
  1  'x, y, z'
loop_
 _atom_site_type_symbol
 _atom_site_label
 _atom_site_symmetry_multiplicity
 _atom_site_fract_x
 _atom_site_fract_y
 _atom_site_fract_z
 _atom_site_occupancy
  Sm  Sm0  1  0.945317  0.286426  0.619672  1
  Sm  Sm1  1  0.286426  0.945317  0.880328  1
  Sm  Sm2  1  0.054683  0.713574  0.380328  1
  Sm  Sm3  1  0.713574  0.054683  0.119672  1
  Sm  Sm4  1  0.891490  0.891490  0.750000  1
  Sm  Sm5  1  0.108510  0.108510  0.250000  1
  Sm  Sm6  1  0.365977  0.365977  0.750000  1
  Sm  Sm7  1  0.634023  0.634023  0.250000  1
  Mo  Mo8  1  0.491080  0.796961  0.559627  1
  Mo  Mo9  1  0.796961  0.491080  0.940373  1
  Mo  Mo10  1  0.508920  0.203039  0.440373  1
  Mo  Mo11  1  0.203039  0.508920  0.059627  1
  O  O12  1  0.615708  0.826288  0.864915  1
  O  O13  1  0.826288  0.615708  0.635085  1
  O  O14  1  0.384292  0.173712  0.135085  1
  O  O15  1  0.173712  0.384292  0.364915  1
  O  O16  1  0.474021  0.929934  0.261121  1
  O  O17  1  0.929934  0.474021  0.238879  1
  O  O18  1  0.525979  0.070066  0.738879  1
  O  O19  1  0.070066  0.525979  0.761121  1
  O  O20  1  0.322194  0.788181  0.636826  1
  O  O21  1  0.788181  0.322194  0.863174  1
  O  O22  1  0.677806  0.211819  0.363174  1
  O  O23  1  0.211819  0.677806  0.136826  1
  O  O24  1  0.891295  0.075448  0.922033  1
  O  O25  1  0.075448  0.891295  0.577967  1
  O  O26  1  0.108705  0.924552  0.077967  1
  O  O27  1  0.924552  0.108705  0.422033  1
  O  O28  1  0.162832  0.311505  0.915799  1
  O  O29  1  0.311505  0.162832  0.584201  1
  O  O30  1  0.837168  0.688495  0.084201  1
  O  O31  1  0.688495  0.837168  0.415799  1
  O  O32  1  0.386377  0.546177  0.017528  1
  O  O33  1  0.546177  0.386377  0.482472  1
  O  O34  1  0.613623  0.453823  0.982472  1
  O  O35  1  0.453823  0.613623  0.517528  1
