# generated using pymatgen
data_HgCl2
_symmetry_space_group_name_H-M   'P 1'
_cell_length_a   4.36733969
_cell_length_b   6.60372221
_cell_length_c   13.58439665
_cell_angle_alpha   90.00000000
_cell_angle_beta   90.00000000
_cell_angle_gamma   90.00000000
_symmetry_Int_Tables_number   1
_chemical_formula_structural   HgCl2
_chemical_formula_sum   'Hg4 Cl8'
_cell_volume   391.78348278
_cell_formula_units_Z   4
loop_
 _symmetry_equiv_pos_site_id
 _symmetry_equiv_pos_as_xyz
  1  'x, y, z'
loop_
 _atom_site_type_symbol
 _atom_site_label
 _atom_site_symmetry_multiplicity
 _atom_site_fract_x
 _atom_site_fract_y
 _atom_site_fract_z
 _atom_site_occupancy
  Hg  Hg0  1  0.557482  0.750000  0.626067  1
  Hg  Hg1  1  0.057482  0.250000  0.873933  1
  Hg  Hg2  1  0.442518  0.250000  0.373933  1
  Hg  Hg3  1  0.942518  0.750000  0.126067  1
  Cl  Cl4  1  0.275466  0.750000  0.993319  1
  Cl  Cl5  1  0.775466  0.250000  0.506681  1
  Cl  Cl6  1  0.724534  0.250000  0.006681  1
  Cl  Cl7  1  0.224534  0.750000  0.493319  1
  Cl  Cl8  1  0.610747  0.750000  0.259254  1
  Cl  Cl9  1  0.110747  0.250000  0.240746  1
  Cl  Cl10  1  0.389253  0.250000  0.740746  1
  Cl  Cl11  1  0.889253  0.750000  0.759254  1
