# generated using pymatgen
data_NdP2H9O10
_symmetry_space_group_name_H-M   'P 1'
_cell_length_a   7.34310912
_cell_length_b   10.15835236
_cell_length_c   11.79699882
_cell_angle_alpha   90.00000000
_cell_angle_beta   90.00000000
_cell_angle_gamma   90.00000000
_symmetry_Int_Tables_number   1
_chemical_formula_structural   NdP2H9O10
_chemical_formula_sum   'Nd4 P8 H36 O40'
_cell_volume   879.98403064
_cell_formula_units_Z   4
loop_
 _symmetry_equiv_pos_site_id
 _symmetry_equiv_pos_as_xyz
  1  'x, y, z'
loop_
 _atom_site_type_symbol
 _atom_site_label
 _atom_site_symmetry_multiplicity
 _atom_site_fract_x
 _atom_site_fract_y
 _atom_site_fract_z
 _atom_site_occupancy
  Nd  Nd0  1  0.750000  0.743301  0.250000  1
  Nd  Nd1  1  0.750000  0.756699  0.750000  1
  Nd  Nd2  1  0.250000  0.256699  0.750000  1
  Nd  Nd3  1  0.250000  0.243301  0.250000  1
  P  P4  1  0.912866  0.031296  0.429181  1
  P  P5  1  0.912866  0.468704  0.570819  1
  P  P6  1  0.587134  0.031296  0.070819  1
  P  P7  1  0.587134  0.468704  0.929181  1
  P  P8  1  0.087134  0.968704  0.570819  1
  P  P9  1  0.087134  0.531296  0.429181  1
  P  P10  1  0.412866  0.968704  0.929181  1
  P  P11  1  0.412866  0.531296  0.070819  1
  H  H12  1  0.555171  0.444679  0.256137  1
  H  H13  1  0.555171  0.055321  0.743863  1
  H  H14  1  0.944829  0.444679  0.243863  1
  H  H15  1  0.944829  0.055321  0.756137  1
  H  H16  1  0.444829  0.555321  0.743863  1
  H  H17  1  0.444829  0.944679  0.256137  1
  H  H18  1  0.055171  0.555321  0.756137  1
  H  H19  1  0.055171  0.944679  0.243863  1
  H  H20  1  0.537586  0.129357  0.429851  1
  H  H21  1  0.537586  0.370643  0.570149  1
  H  H22  1  0.962414  0.129357  0.070149  1
  H  H23  1  0.962414  0.370643  0.929851  1
  H  H24  1  0.462414  0.870643  0.570149  1
  H  H25  1  0.462414  0.629357  0.429851  1
  H  H26  1  0.037586  0.870643  0.929851  1
  H  H27  1  0.037586  0.629357  0.070149  1
  H  H28  1  0.628263  0.353389  0.353820  1
  H  H29  1  0.628263  0.146611  0.646180  1
  H  H30  1  0.871737  0.353389  0.146180  1
  H  H31  1  0.871737  0.146611  0.853820  1
  H  H32  1  0.371737  0.646611  0.646180  1
  H  H33  1  0.371737  0.853389  0.353820  1
  H  H34  1  0.128263  0.646611  0.853820  1
  H  H35  1  0.128263  0.853389  0.146180  1
  H  H36  1  0.800916  0.250000  0.500000  1
  H  H37  1  0.699084  0.250000  0.000000  1
  H  H38  1  0.199084  0.750000  0.500000  1
  H  H39  1  0.300916  0.750000  0.000000  1
  H  H40  1  0.340409  0.120863  0.486042  1
  H  H41  1  0.340409  0.379137  0.513958  1
  H  H42  1  0.159591  0.120863  0.013958  1
  H  H43  1  0.159591  0.379137  0.986042  1
  H  H44  1  0.659591  0.879137  0.513958  1
  H  H45  1  0.659591  0.620863  0.486042  1
  H  H46  1  0.840409  0.879137  0.986042  1
  H  H47  1  0.840409  0.620863  0.013958  1
  O  O48  1  0.405839  0.133088  0.413078  1
  O  O49  1  0.405839  0.366912  0.586922  1
  O  O50  1  0.094161  0.133088  0.086922  1
  O  O51  1  0.094161  0.366912  0.913078  1
  O  O52  1  0.594161  0.866912  0.586922  1
  O  O53  1  0.594161  0.633088  0.413078  1
  O  O54  1  0.905839  0.866912  0.913078  1
  O  O55  1  0.905839  0.633088  0.086922  1
  O  O56  1  0.195220  0.407771  0.395294  1
  O  O57  1  0.195220  0.092229  0.604706  1
  O  O58  1  0.304780  0.407771  0.104706  1
  O  O59  1  0.304780  0.092229  0.895294  1
  O  O60  1  0.804780  0.592229  0.604706  1
  O  O61  1  0.804780  0.907771  0.395294  1
  O  O62  1  0.695220  0.592229  0.895294  1
  O  O63  1  0.695220  0.907771  0.104706  1
  O  O64  1  0.550595  0.353872  0.286664  1
  O  O65  1  0.550595  0.146128  0.713336  1
  O  O66  1  0.949405  0.353872  0.213336  1
  O  O67  1  0.949405  0.146128  0.786664  1
  O  O68  1  0.449405  0.646128  0.713336  1
  O  O69  1  0.449405  0.853872  0.286664  1
  O  O70  1  0.050595  0.646128  0.786664  1
  O  O71  1  0.050595  0.853872  0.213336  1
  O  O72  1  0.723791  0.135356  0.022168  1
  O  O73  1  0.723791  0.364644  0.977832  1
  O  O74  1  0.776209  0.135356  0.477832  1
  O  O75  1  0.776209  0.364644  0.522168  1
  O  O76  1  0.276209  0.864644  0.977832  1
  O  O77  1  0.276209  0.635356  0.022168  1
  O  O78  1  0.223791  0.864644  0.522168  1
  O  O79  1  0.223791  0.635356  0.477832  1
  O  O80  1  0.465241  0.085754  0.165320  1
  O  O81  1  0.465241  0.414246  0.834680  1
  O  O82  1  0.034759  0.085754  0.334680  1
  O  O83  1  0.034759  0.414246  0.665320  1
  O  O84  1  0.534759  0.914246  0.834680  1
  O  O85  1  0.534759  0.585754  0.165320  1
  O  O86  1  0.965241  0.914246  0.665320  1
  O  O87  1  0.965241  0.585754  0.334680  1
