# generated using pymatgen
data_NaH3O2
_symmetry_space_group_name_H-M   'P 1'
_cell_length_a   6.16382540
_cell_length_b   6.21134009
_cell_length_c   11.50806701
_cell_angle_alpha   90.00000000
_cell_angle_beta   90.00000000
_cell_angle_gamma   90.00000000
_symmetry_Int_Tables_number   1
_chemical_formula_structural   NaH3O2
_chemical_formula_sum   'Na8 H24 O16'
_cell_volume   440.59343232
_cell_formula_units_Z   8
loop_
 _symmetry_equiv_pos_site_id
 _symmetry_equiv_pos_as_xyz
  1  'x, y, z'
loop_
 _atom_site_type_symbol
 _atom_site_label
 _atom_site_symmetry_multiplicity
 _atom_site_fract_x
 _atom_site_fract_y
 _atom_site_fract_z
 _atom_site_occupancy
  Na  Na0  1  0.639812  0.198110  0.438402  1
  Na  Na1  1  0.360188  0.698110  0.061598  1
  Na  Na2  1  0.139812  0.301890  0.561598  1
  Na  Na3  1  0.860188  0.801890  0.938402  1
  Na  Na4  1  0.360188  0.801890  0.561598  1
  Na  Na5  1  0.639812  0.301890  0.938402  1
  Na  Na6  1  0.860188  0.698110  0.438402  1
  Na  Na7  1  0.139812  0.198110  0.061598  1
  H  H8  1  0.938037  0.375411  0.291084  1
  H  H9  1  0.061963  0.875411  0.208916  1
  H  H10  1  0.438037  0.124589  0.708916  1
  H  H11  1  0.561963  0.624589  0.791084  1
  H  H12  1  0.061963  0.624589  0.708916  1
  H  H13  1  0.938037  0.124589  0.791084  1
  H  H14  1  0.561963  0.875411  0.291084  1
  H  H15  1  0.438037  0.375411  0.208916  1
  H  H16  1  0.778489  0.929330  0.135219  1
  H  H17  1  0.221511  0.429330  0.364781  1
  H  H18  1  0.278489  0.570670  0.864781  1
  H  H19  1  0.721511  0.070670  0.635219  1
  H  H20  1  0.221511  0.070670  0.864781  1
  H  H21  1  0.778489  0.570670  0.635219  1
  H  H22  1  0.721511  0.429330  0.135219  1
  H  H23  1  0.278489  0.929330  0.364781  1
  H  H24  1  0.070032  0.102813  0.366797  1
  H  H25  1  0.929968  0.602813  0.133203  1
  H  H26  1  0.570032  0.397187  0.633203  1
  H  H27  1  0.570032  0.102813  0.133203  1
  H  H28  1  0.929968  0.897187  0.633203  1
  H  H29  1  0.070032  0.397187  0.866797  1
  H  H30  1  0.429968  0.602813  0.366797  1
  H  H31  1  0.429968  0.897187  0.866797  1
  O  O32  1  0.386180  0.054722  0.870627  1
  O  O33  1  0.470516  0.352905  0.125899  1
  O  O34  1  0.029484  0.647095  0.625899  1
  O  O35  1  0.970516  0.147095  0.874101  1
  O  O36  1  0.470516  0.147095  0.625899  1
  O  O37  1  0.529484  0.647095  0.874101  1
  O  O38  1  0.970516  0.352905  0.374101  1
  O  O39  1  0.029484  0.852905  0.125899  1
  O  O40  1  0.613820  0.945278  0.129373  1
  O  O41  1  0.386180  0.445278  0.370627  1
  O  O42  1  0.113820  0.554722  0.870627  1
  O  O43  1  0.886180  0.054722  0.629373  1
  O  O44  1  0.113820  0.945278  0.370627  1
  O  O45  1  0.613820  0.554722  0.629373  1
  O  O46  1  0.886180  0.445278  0.129373  1
  O  O47  1  0.529484  0.852905  0.374101  1
