# generated using pymatgen
data_Rb2MnH2OF5
_symmetry_space_group_name_H-M   'P 1'
_cell_length_a   6.35347635
_cell_length_b   6.35347635
_cell_length_c   8.53950813
_cell_angle_alpha   90.00000000
_cell_angle_beta   90.00000000
_cell_angle_gamma   99.23686168
_symmetry_Int_Tables_number   1
_chemical_formula_structural   Rb2MnH2OF5
_chemical_formula_sum   'Rb4 Mn2 H4 O2 F10'
_cell_volume   340.24163157
_cell_formula_units_Z   2
loop_
 _symmetry_equiv_pos_site_id
 _symmetry_equiv_pos_as_xyz
  1  'x, y, z'
loop_
 _atom_site_type_symbol
 _atom_site_label
 _atom_site_symmetry_multiplicity
 _atom_site_fract_x
 _atom_site_fract_y
 _atom_site_fract_z
 _atom_site_occupancy
  Rb  Rb0  1  0.501791  0.920508  0.750000  1
  Rb  Rb1  1  0.498209  0.079492  0.250000  1
  Rb  Rb2  1  0.920508  0.501791  0.750000  1
  Rb  Rb3  1  0.079492  0.498209  0.250000  1
  Mn  Mn4  1  0.000000  0.000000  0.500000  1
  Mn  Mn5  1  0.000000  0.000000  0.000000  1
  H  H6  1  0.368955  0.368955  0.842299  1
  H  H7  1  0.631045  0.631045  0.342299  1
  H  H8  1  0.368955  0.368955  0.657701  1
  H  H9  1  0.631045  0.631045  0.157701  1
  O  O10  1  0.441533  0.441533  0.750000  1
  O  O11  1  0.558467  0.558467  0.250000  1
  F  F12  1  0.010858  0.010858  0.250000  1
  F  F13  1  0.989142  0.989142  0.750000  1
  F  F14  1  0.804978  0.195022  0.000000  1
  F  F15  1  0.195022  0.804978  0.500000  1
  F  F16  1  0.195022  0.804978  0.000000  1
  F  F17  1  0.804978  0.195022  0.500000  1
  F  F18  1  0.232832  0.232832  0.995949  1
  F  F19  1  0.767168  0.767168  0.495949  1
  F  F20  1  0.232832  0.232832  0.504051  1
  F  F21  1  0.767168  0.767168  0.004051  1
