# generated using pymatgen
data_Al13(TlS7)3
_symmetry_space_group_name_H-M   'P 1'
_cell_length_a   14.86421527
_cell_length_b   14.86421527
_cell_length_c   9.38658369
_cell_angle_alpha   78.22679413
_cell_angle_beta   101.77320587
_cell_angle_gamma   118.73699706
_symmetry_Int_Tables_number   1
_chemical_formula_structural   Al13(TlS7)3
_chemical_formula_sum   'Al26 Tl6 S42'
_cell_volume   1766.62013854
_cell_formula_units_Z   2
loop_
 _symmetry_equiv_pos_site_id
 _symmetry_equiv_pos_as_xyz
  1  'x, y, z'
loop_
 _atom_site_type_symbol
 _atom_site_label
 _atom_site_symmetry_multiplicity
 _atom_site_fract_x
 _atom_site_fract_y
 _atom_site_fract_z
 _atom_site_occupancy
  Al  Al0  1  0.821090  0.643943  0.698551  1
  Al  Al1  1  0.356057  0.178910  0.698551  1
  Al  Al2  1  0.776961  0.716151  0.033997  1
  Al  Al3  1  0.283849  0.223039  0.033997  1
  Al  Al4  1  0.791091  0.467345  0.052095  1
  Al  Al5  1  0.532655  0.208909  0.052095  1
  Al  Al6  1  0.139904  0.102608  0.368865  1
  Al  Al7  1  0.897392  0.860096  0.368865  1
  Al  Al8  1  0.848654  0.406331  0.714990  1
  Al  Al9  1  0.593669  0.151346  0.714990  1
  Al  Al10  1  0.594594  0.405406  0.714335  1
  Al  Al11  1  0.399626  0.098905  0.366648  1
  Al  Al12  1  0.901095  0.600374  0.366648  1
  Al  Al13  1  0.517639  0.947502  0.037325  1
  Al  Al14  1  0.052498  0.482361  0.037325  1
  Al  Al15  1  0.286611  0.713389  0.044075  1
  Al  Al16  1  0.094524  0.154567  0.711868  1
  Al  Al17  1  0.845433  0.905476  0.711868  1
  Al  Al18  1  0.586035  0.906632  0.702695  1
  Al  Al19  1  0.093368  0.413965  0.702695  1
  Al  Al20  1  0.652499  0.848407  0.369059  1
  Al  Al21  1  0.151593  0.347501  0.369059  1
  Al  Al22  1  0.401015  0.852747  0.377947  1
  Al  Al23  1  0.147253  0.598985  0.377947  1
  Al  Al24  1  0.539638  0.709871  0.063623  1
  Al  Al25  1  0.290129  0.460362  0.063623  1
  Tl  Tl26  1  0.182849  0.817151  0.594060  1
  Tl  Tl27  1  0.111588  0.888412  0.042459  1
  Tl  Tl28  1  0.548969  0.451031  0.279807  1
  Tl  Tl29  1  0.419126  0.580874  0.620621  1
  Tl  Tl30  1  0.820893  0.179107  0.389344  1
  Tl  Tl31  1  0.889960  0.110040  0.960345  1
  S  S32  1  0.051154  0.192539  0.293997  1
  S  S33  1  0.807461  0.948846  0.293997  1
  S  S34  1  0.351705  0.880955  0.958420  1
  S  S35  1  0.119045  0.648295  0.958420  1
  S  S36  1  0.617432  0.382568  0.966556  1
  S  S37  1  0.915160  0.578658  0.625461  1
  S  S38  1  0.421342  0.084840  0.625461  1
  S  S39  1  0.857546  0.636642  0.951743  1
  S  S40  1  0.363358  0.142454  0.951743  1
  S  S41  1  0.555982  0.690539  0.307549  1
  S  S42  1  0.309461  0.444018  0.307549  1
  S  S43  1  0.301544  0.186035  0.288680  1
  S  S44  1  0.813965  0.698456  0.288680  1
  S  S45  1  0.798222  0.445488  0.292615  1
  S  S46  1  0.554512  0.201778  0.292615  1
  S  S47  1  0.674370  0.325630  0.636440  1
  S  S48  1  0.305544  0.937510  0.312002  1
  S  S49  1  0.062490  0.694456  0.312002  1
  S  S50  1  0.060667  0.939333  0.318717  1
  S  S51  1  0.609077  0.882719  0.959477  1
  S  S52  1  0.117281  0.390923  0.959477  1
  S  S53  1  0.874171  0.394250  0.968134  1
  S  S54  1  0.605750  0.125829  0.968134  1
  S  S55  1  0.117347  0.128040  0.956279  1
  S  S56  1  0.871960  0.882653  0.956279  1
  S  S57  1  0.308748  0.691252  0.297462  1
  S  S58  1  0.056574  0.440375  0.288219  1
  S  S59  1  0.559625  0.943426  0.288219  1
  S  S60  1  0.166625  0.328332  0.625738  1
  S  S61  1  0.671668  0.833375  0.625738  1
  S  S62  1  0.607257  0.630624  0.974522  1
  S  S63  1  0.369376  0.392743  0.974522  1
  S  S64  1  0.366409  0.633591  0.966952  1
  S  S65  1  0.656247  0.568931  0.616193  1
  S  S66  1  0.431069  0.343753  0.616193  1
  S  S67  1  0.921582  0.324482  0.649870  1
  S  S68  1  0.675518  0.078418  0.649870  1
  S  S69  1  0.181969  0.087845  0.624719  1
  S  S70  1  0.912155  0.818031  0.624719  1
  S  S71  1  0.421733  0.813069  0.620792  1
  S  S72  1  0.186931  0.578267  0.620792  1
  S  S73  1  0.923122  0.076878  0.645080  1
