# generated using pymatgen
data_LiBi3(PO5)2
_symmetry_space_group_name_H-M   'P 1'
_cell_length_a   5.65129879
_cell_length_b   6.74580571
_cell_length_c   6.87825717
_cell_angle_alpha   106.28649018
_cell_angle_beta   108.87105813
_cell_angle_gamma   100.50624243
_symmetry_Int_Tables_number   1
_chemical_formula_structural   LiBi3(PO5)2
_chemical_formula_sum   'Li1 Bi3 P2 O10'
_cell_volume   227.14881570
_cell_formula_units_Z   1
loop_
 _symmetry_equiv_pos_site_id
 _symmetry_equiv_pos_as_xyz
  1  'x, y, z'
loop_
 _atom_site_type_symbol
 _atom_site_label
 _atom_site_symmetry_multiplicity
 _atom_site_fract_x
 _atom_site_fract_y
 _atom_site_fract_z
 _atom_site_occupancy
  Li  Li0  1  0.780592  0.490215  0.905032  1
  Bi  Bi1  1  0.578043  0.813701  0.249768  1
  Bi  Bi2  1  0.247497  0.605193  0.654770  1
  Bi  Bi3  1  0.023590  0.002585  0.003473  1
  P  P4  1  0.245662  0.069052  0.586827  1
  P  P5  1  0.633799  0.382411  0.332860  1
  O  O6  1  0.359838  0.309003  0.744680  1
  O  O7  1  0.461710  0.961716  0.574548  1
  O  O8  1  0.170757  0.719940  0.983553  1
  O  O9  1  0.054974  0.051725  0.356156  1
  O  O10  1  0.801733  0.492047  0.230626  1
  O  O11  1  0.656443  0.753523  0.934616  1
  O  O12  1  0.805645  0.412578  0.573042  1
  O  O13  1  0.502367  0.133615  0.191181  1
  O  O14  1  0.406298  0.485800  0.327058  1
  O  O15  1  0.067453  0.927317  0.663908  1
