# generated using pymatgen
data_Dy2O3
_symmetry_space_group_name_H-M   'P 1'
_cell_length_a   9.24566552
_cell_length_b   9.24566552
_cell_length_c   9.24566552
_cell_angle_alpha   109.47122063
_cell_angle_beta   109.47122063
_cell_angle_gamma   109.47122063
_symmetry_Int_Tables_number   1
_chemical_formula_structural   Dy2O3
_chemical_formula_sum   'Dy16 O24'
_cell_volume   608.40481636
_cell_formula_units_Z   8
loop_
 _symmetry_equiv_pos_site_id
 _symmetry_equiv_pos_as_xyz
  1  'x, y, z'
loop_
 _atom_site_type_symbol
 _atom_site_label
 _atom_site_symmetry_multiplicity
 _atom_site_fract_x
 _atom_site_fract_y
 _atom_site_fract_z
 _atom_site_occupancy
  Dy  Dy0  1  0.250000  0.717538  0.467538  1
  Dy  Dy1  1  0.032462  0.750000  0.782462  1
  Dy  Dy2  1  0.782462  0.032462  0.750000  1
  Dy  Dy3  1  0.467538  0.250000  0.717538  1
  Dy  Dy4  1  0.717538  0.467538  0.250000  1
  Dy  Dy5  1  0.750000  0.782462  0.032462  1
  Dy  Dy6  1  0.750000  0.282462  0.532462  1
  Dy  Dy7  1  0.967538  0.250000  0.217538  1
  Dy  Dy8  1  0.217538  0.967538  0.250000  1
  Dy  Dy9  1  0.532462  0.750000  0.282462  1
  Dy  Dy10  1  0.282462  0.532462  0.750000  1
  Dy  Dy11  1  0.250000  0.217538  0.967538  1
  Dy  Dy12  1  1.000000  0.500000  0.000000  1
  Dy  Dy13  1  0.500000  1.000000  1.000000  1
  Dy  Dy14  1  1.000000  1.000000  0.500000  1
  Dy  Dy15  1  0.500000  0.500000  0.500000  1
  O  O16  1  0.030849  0.488448  0.760284  1
  O  O17  1  0.228165  0.270565  0.739716  1
  O  O18  1  0.271835  0.011552  0.042400  1
  O  O19  1  0.229435  0.457600  0.469151  1
  O  O20  1  0.457600  0.469151  0.229435  1
  O  O21  1  0.760284  0.030849  0.488448  1
  O  O22  1  0.270565  0.739716  0.228165  1
  O  O23  1  0.042400  0.271835  0.011552  1
  O  O24  1  0.488448  0.760284  0.030849  1
  O  O25  1  0.739716  0.228165  0.270565  1
  O  O26  1  0.011552  0.042400  0.271835  1
  O  O27  1  0.469151  0.229435  0.457600  1
  O  O28  1  0.969151  0.511552  0.239716  1
  O  O29  1  0.771835  0.729435  0.260284  1
  O  O30  1  0.728165  0.988448  0.957600  1
  O  O31  1  0.770565  0.542400  0.530849  1
  O  O32  1  0.530849  0.770565  0.542400  1
  O  O33  1  0.988448  0.957600  0.728165  1
  O  O34  1  0.260284  0.771835  0.729435  1
  O  O35  1  0.511552  0.239716  0.969151  1
  O  O36  1  0.957600  0.728165  0.988448  1
  O  O37  1  0.729435  0.260284  0.771835  1
  O  O38  1  0.239716  0.969151  0.511552  1
  O  O39  1  0.542400  0.530849  0.770565  1
