# generated using pymatgen
data_LiBiP2O7
_symmetry_space_group_name_H-M   'P 1'
_cell_length_a   5.24747496
_cell_length_b   8.40764882
_cell_length_c   13.44049339
_cell_angle_alpha   90.00000000
_cell_angle_beta   112.87045921
_cell_angle_gamma   90.00000000
_symmetry_Int_Tables_number   1
_chemical_formula_structural   LiBiP2O7
_chemical_formula_sum   'Li4 Bi4 P8 O28'
_cell_volume   546.36354702
_cell_formula_units_Z   4
loop_
 _symmetry_equiv_pos_site_id
 _symmetry_equiv_pos_as_xyz
  1  'x, y, z'
loop_
 _atom_site_type_symbol
 _atom_site_label
 _atom_site_symmetry_multiplicity
 _atom_site_fract_x
 _atom_site_fract_y
 _atom_site_fract_z
 _atom_site_occupancy
  Li  Li0  1  0.745797  0.639835  0.901449  1
  Li  Li1  1  0.254203  0.360165  0.098551  1
  Li  Li2  1  0.745797  0.860165  0.401449  1
  Li  Li3  1  0.254203  0.139835  0.598551  1
  Bi  Bi4  1  0.967214  0.303395  0.776209  1
  Bi  Bi5  1  0.032786  0.803395  0.723791  1
  Bi  Bi6  1  0.967214  0.196605  0.276209  1
  Bi  Bi7  1  0.032786  0.696605  0.223791  1
  P  P8  1  0.659488  0.289851  0.979604  1
  P  P9  1  0.340512  0.710149  0.020396  1
  P  P10  1  0.429097  0.973306  0.163779  1
  P  P11  1  0.570903  0.473306  0.336221  1
  P  P12  1  0.340512  0.789851  0.520396  1
  P  P13  1  0.429097  0.526694  0.663779  1
  P  P14  1  0.659488  0.210149  0.479604  1
  P  P15  1  0.570903  0.026694  0.836221  1
  O  O16  1  0.198190  0.559840  0.706800  1
  O  O17  1  0.642696  0.826041  0.540067  1
  O  O18  1  0.297606  0.391322  0.267267  1
  O  O19  1  0.801810  0.059840  0.793200  1
  O  O20  1  0.198190  0.940160  0.206800  1
  O  O21  1  0.702394  0.608678  0.732733  1
  O  O22  1  0.357304  0.173959  0.459933  1
  O  O23  1  0.756151  0.380655  0.900528  1
  O  O24  1  0.473572  0.348884  0.658330  1
  O  O25  1  0.868880  0.307925  0.095707  1
  O  O26  1  0.320653  0.599224  0.544272  1
  O  O27  1  0.679347  0.099224  0.955728  1
  O  O28  1  0.131120  0.807925  0.404293  1
  O  O29  1  0.526428  0.848884  0.841670  1
  O  O30  1  0.243849  0.880655  0.599472  1
  O  O31  1  0.526428  0.651116  0.341670  1
  O  O32  1  0.297606  0.108678  0.767267  1
  O  O33  1  0.801810  0.440160  0.293200  1
  O  O34  1  0.642696  0.673959  0.040067  1
  O  O35  1  0.702394  0.891322  0.232733  1
  O  O36  1  0.357304  0.326041  0.959933  1
  O  O37  1  0.756151  0.119345  0.400528  1
  O  O38  1  0.473572  0.151116  0.158330  1
  O  O39  1  0.868880  0.192075  0.595707  1
  O  O40  1  0.320653  0.900776  0.044272  1
  O  O41  1  0.679347  0.400776  0.455728  1
  O  O42  1  0.131120  0.692075  0.904293  1
  O  O43  1  0.243849  0.619345  0.099472  1
