# generated using pymatgen
data_SmBrO
_symmetry_space_group_name_H-M   'P 1'
_cell_length_a   3.95297478
_cell_length_b   3.95297478
_cell_length_c   8.70466190
_cell_angle_alpha   90.00000000
_cell_angle_beta   90.00000000
_cell_angle_gamma   90.00000000
_symmetry_Int_Tables_number   1
_chemical_formula_structural   SmBrO
_chemical_formula_sum   'Sm2 Br2 O2'
_cell_volume   136.01913051
_cell_formula_units_Z   2
loop_
 _symmetry_equiv_pos_site_id
 _symmetry_equiv_pos_as_xyz
  1  'x, y, z'
loop_
 _atom_site_type_symbol
 _atom_site_label
 _atom_site_symmetry_multiplicity
 _atom_site_fract_x
 _atom_site_fract_y
 _atom_site_fract_z
 _atom_site_occupancy
  Sm  Sm0  1  0.500000  0.000000  0.864265  1
  Sm  Sm1  1  0.000000  0.500000  0.135735  1
  Br  Br2  1  0.000000  0.500000  0.673907  1
  Br  Br3  1  0.500000  0.000000  0.326093  1
  O  O4  1  0.000000  0.000000  0.000000  1
  O  O5  1  0.500000  0.500000  0.000000  1
