# generated using pymatgen
data_ZnMoO4
_symmetry_space_group_name_H-M   'P 1'
_cell_length_a   7.08166389
_cell_length_b   8.49947583
_cell_length_c   9.90707498
_cell_angle_alpha   97.06556788
_cell_angle_beta   106.78912295
_cell_angle_gamma   101.82898283
_symmetry_Int_Tables_number   1
_chemical_formula_structural   ZnMoO4
_chemical_formula_sum   'Zn6 Mo6 O24'
_cell_volume   548.10279685
_cell_formula_units_Z   6
loop_
 _symmetry_equiv_pos_site_id
 _symmetry_equiv_pos_as_xyz
  1  'x, y, z'
loop_
 _atom_site_type_symbol
 _atom_site_label
 _atom_site_symmetry_multiplicity
 _atom_site_fract_x
 _atom_site_fract_y
 _atom_site_fract_z
 _atom_site_occupancy
  Zn  Zn0  1  0.252288  0.693611  0.910225  1
  Zn  Zn1  1  0.747712  0.306389  0.089775  1
  Zn  Zn2  1  0.533727  0.698810  0.485481  1
  Zn  Zn3  1  0.466273  0.301190  0.514519  1
  Zn  Zn4  1  0.967923  0.884093  0.712522  1
  Zn  Zn5  1  0.032077  0.115907  0.287478  1
  Mo  Mo6  1  0.504700  0.986879  0.756596  1
  Mo  Mo7  1  0.495300  0.013121  0.243404  1
  Mo  Mo8  1  0.699246  0.602131  0.838802  1
  Mo  Mo9  1  0.300754  0.397869  0.161198  1
  Mo  Mo10  1  0.978774  0.707569  0.374184  1
  Mo  Mo11  1  0.021226  0.292431  0.625816  1
  O  O12  1  0.264044  0.866675  0.765590  1
  O  O13  1  0.735956  0.133325  0.234410  1
  O  O14  1  0.555842  0.709659  0.919815  1
  O  O15  1  0.444158  0.290341  0.080185  1
  O  O16  1  0.555171  0.517831  0.649997  1
  O  O17  1  0.444829  0.482169  0.350003  1
  O  O18  1  0.552670  0.870327  0.354055  1
  O  O19  1  0.447330  0.129673  0.645945  1
  O  O20  1  0.661098  0.097452  0.927907  1
  O  O21  1  0.338902  0.902548  0.072093  1
  O  O22  1  0.648061  0.859791  0.681134  1
  O  O23  1  0.351939  0.140209  0.318866  1
  O  O24  1  0.022012  0.121122  0.715557  1
  O  O25  1  0.977988  0.878878  0.284443  1
  O  O26  1  0.048715  0.267995  0.143938  1
  O  O27  1  0.951285  0.732005  0.856062  1
  O  O28  1  0.148452  0.477938  0.753201  1
  O  O29  1  0.851548  0.522062  0.246799  1
  O  O30  1  0.143008  0.268068  0.485609  1
  O  O31  1  0.856992  0.731932  0.514391  1
  O  O32  1  0.254995  0.559764  0.071335  1
  O  O33  1  0.745005  0.440236  0.928665  1
  O  O34  1  0.236111  0.707736  0.461081  1
  O  O35  1  0.763889  0.292264  0.538919  1
