# generated using pymatgen
data_Sr3Sb4S9
_symmetry_space_group_name_H-M   'P 1'
_cell_length_a   4.06263253
_cell_length_b   16.72342353
_cell_length_c   24.48134333
_cell_angle_alpha   90.00000000
_cell_angle_beta   90.00000000
_cell_angle_gamma   90.00000000
_symmetry_Int_Tables_number   1
_chemical_formula_structural   Sr3Sb4S9
_chemical_formula_sum   'Sr12 Sb16 S36'
_cell_volume   1663.28999379
_cell_formula_units_Z   4
loop_
 _symmetry_equiv_pos_site_id
 _symmetry_equiv_pos_as_xyz
  1  'x, y, z'
loop_
 _atom_site_type_symbol
 _atom_site_label
 _atom_site_symmetry_multiplicity
 _atom_site_fract_x
 _atom_site_fract_y
 _atom_site_fract_z
 _atom_site_occupancy
  Sr  Sr0  1  0.756338  0.378089  0.055137  1
  Sr  Sr1  1  0.256338  0.621911  0.944863  1
  Sr  Sr2  1  0.256338  0.121911  0.555137  1
  Sr  Sr3  1  0.756338  0.878089  0.444863  1
  Sr  Sr4  1  0.757505  0.174853  0.176028  1
  Sr  Sr5  1  0.257505  0.825147  0.823972  1
  Sr  Sr6  1  0.257505  0.325147  0.676028  1
  Sr  Sr7  1  0.757505  0.674853  0.323972  1
  Sr  Sr8  1  0.760196  0.443441  0.233542  1
  Sr  Sr9  1  0.260196  0.556559  0.766458  1
  Sr  Sr10  1  0.260196  0.056559  0.733542  1
  Sr  Sr11  1  0.760196  0.943441  0.266458  1
  Sb  Sb12  1  0.727232  0.832400  0.988741  1
  Sb  Sb13  1  0.227232  0.167600  0.011259  1
  Sb  Sb14  1  0.227232  0.667600  0.488741  1
  Sb  Sb15  1  0.727232  0.332400  0.511259  1
  Sb  Sb16  1  0.236878  0.090924  0.394521  1
  Sb  Sb17  1  0.736878  0.909076  0.605479  1
  Sb  Sb18  1  0.736878  0.409076  0.894521  1
  Sb  Sb19  1  0.236878  0.590924  0.105479  1
  Sb  Sb20  1  0.205684  0.257000  0.322510  1
  Sb  Sb21  1  0.705684  0.743000  0.677490  1
  Sb  Sb22  1  0.705684  0.243000  0.822510  1
  Sb  Sb23  1  0.205684  0.757000  0.177490  1
  Sb  Sb24  1  0.209480  0.472520  0.389174  1
  Sb  Sb25  1  0.709480  0.527480  0.610826  1
  Sb  Sb26  1  0.709480  0.027480  0.889174  1
  Sb  Sb27  1  0.209480  0.972520  0.110826  1
  S  S28  1  0.786682  0.640975  0.192382  1
  S  S29  1  0.286682  0.359025  0.807618  1
  S  S30  1  0.286682  0.859025  0.692382  1
  S  S31  1  0.786682  0.140975  0.307618  1
  S  S32  1  0.766687  0.561144  0.037489  1
  S  S33  1  0.266687  0.438856  0.962511  1
  S  S34  1  0.266687  0.938856  0.537489  1
  S  S35  1  0.766687  0.061144  0.462511  1
  S  S36  1  0.255908  0.451623  0.138307  1
  S  S37  1  0.755908  0.548377  0.861693  1
  S  S38  1  0.755908  0.048377  0.638307  1
  S  S39  1  0.255908  0.951623  0.361693  1
  S  S40  1  0.254835  0.251937  0.093447  1
  S  S41  1  0.754835  0.748063  0.906553  1
  S  S42  1  0.754835  0.248063  0.593447  1
  S  S43  1  0.772543  0.563959  0.427856  1
  S  S44  1  0.254835  0.751937  0.406553  1
  S  S45  1  0.278152  0.132718  0.847009  1
  S  S46  1  0.278152  0.632718  0.652991  1
  S  S47  1  0.778152  0.367282  0.347009  1
  S  S48  1  0.257109  0.541782  0.300219  1
  S  S49  1  0.757109  0.458218  0.699781  1
  S  S50  1  0.757109  0.958218  0.800219  1
  S  S51  1  0.257109  0.041782  0.199781  1
  S  S52  1  0.247592  0.797197  0.273823  1
  S  S53  1  0.747592  0.202803  0.726177  1
  S  S54  1  0.747592  0.702803  0.773823  1
  S  S55  1  0.247592  0.297197  0.226177  1
  S  S56  1  0.255280  0.256211  0.468204  1
  S  S57  1  0.755280  0.743789  0.531796  1
  S  S58  1  0.755280  0.243789  0.968204  1
  S  S59  1  0.255280  0.756211  0.031796  1
  S  S60  1  0.772543  0.063959  0.072144  1
  S  S61  1  0.272543  0.936041  0.927856  1
  S  S62  1  0.272543  0.436041  0.572144  1
  S  S63  1  0.778152  0.867282  0.152991  1
