# generated using pymatgen
data_MgH8(IO5)2
_symmetry_space_group_name_H-M   'P 1'
_cell_length_a   8.43535528
_cell_length_b   6.70157805
_cell_length_c   8.53815418
_cell_angle_alpha   90.00000000
_cell_angle_beta   100.09170316
_cell_angle_gamma   90.00000000
_symmetry_Int_Tables_number   1
_chemical_formula_structural   MgH8(IO5)2
_chemical_formula_sum   'Mg2 H16 I4 O20'
_cell_volume   475.19599607
_cell_formula_units_Z   2
loop_
 _symmetry_equiv_pos_site_id
 _symmetry_equiv_pos_as_xyz
  1  'x, y, z'
loop_
 _atom_site_type_symbol
 _atom_site_label
 _atom_site_symmetry_multiplicity
 _atom_site_fract_x
 _atom_site_fract_y
 _atom_site_fract_z
 _atom_site_occupancy
  Mg  Mg0  1  0.500000  0.500000  0.500000  1
  Mg  Mg1  1  0.500000  0.000000  0.000000  1
  H  H2  1  0.771607  0.226922  0.055888  1
  H  H3  1  0.228393  0.726922  0.444112  1
  H  H4  1  0.228393  0.773078  0.944112  1
  H  H5  1  0.771607  0.273078  0.555888  1
  H  H6  1  0.763595  0.117905  0.222213  1
  H  H7  1  0.236405  0.617905  0.277787  1
  H  H8  1  0.651286  0.998805  0.756423  1
  H  H9  1  0.348714  0.498805  0.743577  1
  H  H10  1  0.348714  0.001195  0.243577  1
  H  H11  1  0.651286  0.501195  0.256423  1
  H  H12  1  0.489729  0.118123  0.686298  1
  H  H13  1  0.510271  0.618123  0.813702  1
  H  H14  1  0.510271  0.881877  0.313702  1
  H  H15  1  0.489729  0.381877  0.186298  1
  H  H16  1  0.236405  0.882095  0.777787  1
  H  H17  1  0.763595  0.382095  0.722213  1
  I  I18  1  0.163371  0.322582  0.968077  1
  I  I19  1  0.836629  0.822582  0.531923  1
  I  I20  1  0.836629  0.677418  0.031923  1
  I  I21  1  0.163371  0.177418  0.468077  1
  O  O22  1  0.618770  0.722528  0.979084  1
  O  O23  1  0.618770  0.777472  0.479084  1
  O  O24  1  0.731879  0.393450  0.605419  1
  O  O25  1  0.268121  0.893450  0.894581  1
  O  O26  1  0.268121  0.606550  0.394581  1
  O  O27  1  0.731879  0.106550  0.105419  1
  O  O28  1  0.559397  0.427658  0.286086  1
  O  O29  1  0.440603  0.927658  0.213914  1
  O  O30  1  0.440603  0.572342  0.713914  1
  O  O31  1  0.559397  0.072342  0.786086  1
  O  O32  1  0.154228  0.386149  0.758650  1
  O  O33  1  0.845772  0.886149  0.741350  1
  O  O34  1  0.845772  0.613851  0.241350  1
  O  O35  1  0.154228  0.113851  0.258650  1
  O  O36  1  0.837727  0.425680  0.943809  1
  O  O37  1  0.162273  0.925680  0.556191  1
  O  O38  1  0.162273  0.574320  0.056191  1
  O  O39  1  0.837727  0.074320  0.443809  1
  O  O40  1  0.381230  0.277472  0.020916  1
  O  O41  1  0.381230  0.222528  0.520916  1
