# generated using pymatgen
data_Ca2MgP2(H2O5)2
_symmetry_space_group_name_H-M   'P 1'
_cell_length_a   5.51251908
_cell_length_b   5.77383842
_cell_length_c   6.88634884
_cell_angle_alpha   107.64215578
_cell_angle_beta   97.09591913
_cell_angle_gamma   108.73522316
_symmetry_Int_Tables_number   1
_chemical_formula_structural   Ca2MgP2(H2O5)2
_chemical_formula_sum   'Ca2 Mg1 P2 H4 O10'
_cell_volume   191.78956547
_cell_formula_units_Z   1
loop_
 _symmetry_equiv_pos_site_id
 _symmetry_equiv_pos_as_xyz
  1  'x, y, z'
loop_
 _atom_site_type_symbol
 _atom_site_label
 _atom_site_symmetry_multiplicity
 _atom_site_fract_x
 _atom_site_fract_y
 _atom_site_fract_z
 _atom_site_occupancy
  Ca  Ca0  1  0.348224  0.700634  0.240486  1
  Ca  Ca1  1  0.651776  0.299366  0.759514  1
  Mg  Mg2  1  0.000000  0.000000  0.000000  1
  P  P3  1  0.336647  0.663869  0.756510  1
  P  P4  1  0.663353  0.336131  0.243490  1
  H  H5  1  0.853842  0.876109  0.602335  1
  H  H6  1  0.146158  0.123891  0.397665  1
  H  H7  1  0.080402  0.171350  0.683701  1
  H  H8  1  0.919598  0.828650  0.316299  1
  O  O9  1  0.931579  0.049845  0.722609  1
  O  O10  1  0.403455  0.257371  0.073553  1
  O  O11  1  0.596545  0.742629  0.926447  1
  O  O12  1  0.890927  0.333434  0.127465  1
  O  O13  1  0.109073  0.666566  0.872535  1
  O  O14  1  0.632857  0.160753  0.375058  1
  O  O15  1  0.367143  0.839247  0.624942  1
  O  O16  1  0.722232  0.627270  0.383842  1
  O  O17  1  0.277768  0.372730  0.616158  1
  O  O18  1  0.068421  0.950155  0.277391  1
