# generated using pymatgen
data_Tl4HgI6
_symmetry_space_group_name_H-M   'P 1'
_cell_length_a   9.61601060
_cell_length_b   9.61601060
_cell_length_c   9.51306214
_cell_angle_alpha   90.00000000
_cell_angle_beta   90.00000000
_cell_angle_gamma   90.00000000
_symmetry_Int_Tables_number   1
_chemical_formula_structural   Tl4HgI6
_chemical_formula_sum   'Tl8 Hg2 I12'
_cell_volume   879.65059418
_cell_formula_units_Z   2
loop_
 _symmetry_equiv_pos_site_id
 _symmetry_equiv_pos_as_xyz
  1  'x, y, z'
loop_
 _atom_site_type_symbol
 _atom_site_label
 _atom_site_symmetry_multiplicity
 _atom_site_fract_x
 _atom_site_fract_y
 _atom_site_fract_z
 _atom_site_occupancy
  Tl  Tl0  1  0.849580  0.349580  0.750000  1
  Tl  Tl1  1  0.349580  0.150420  0.750000  1
  Tl  Tl2  1  0.650420  0.849580  0.750000  1
  Tl  Tl3  1  0.150420  0.650420  0.750000  1
  Tl  Tl4  1  0.150420  0.650420  0.250000  1
  Tl  Tl5  1  0.650420  0.849580  0.250000  1
  Tl  Tl6  1  0.349580  0.150420  0.250000  1
  Tl  Tl7  1  0.849580  0.349580  0.250000  1
  Hg  Hg8  1  0.500000  0.500000  0.500000  1
  Hg  Hg9  1  0.000000  0.000000  0.000000  1
  I  I10  1  0.175595  0.359470  0.500000  1
  I  I11  1  0.824405  0.640530  0.500000  1
  I  I12  1  0.640530  0.175595  0.500000  1
  I  I13  1  0.359470  0.824405  0.500000  1
  I  I14  1  0.859470  0.675595  0.000000  1
  I  I15  1  0.675595  0.140530  0.000000  1
  I  I16  1  0.324405  0.859470  0.000000  1
  I  I17  1  0.140530  0.324405  0.000000  1
  I  I18  1  0.500000  0.500000  0.788628  1
  I  I19  1  0.000000  0.000000  0.711372  1
  I  I20  1  0.000000  0.000000  0.288628  1
  I  I21  1  0.500000  0.500000  0.211372  1
