# generated using pymatgen
data_Ba5Pt2O9
_symmetry_space_group_name_H-M   'P 1'
_cell_length_a   10.34119773
_cell_length_b   10.34119773
_cell_length_c   9.03017552
_cell_angle_alpha   90.00000000
_cell_angle_beta   90.00000000
_cell_angle_gamma   120.00000000
_symmetry_Int_Tables_number   1
_chemical_formula_structural   Ba5Pt2O9
_chemical_formula_sum   'Ba15 Pt6 O27'
_cell_volume   836.31234541
_cell_formula_units_Z   3
loop_
 _symmetry_equiv_pos_site_id
 _symmetry_equiv_pos_as_xyz
  1  'x, y, z'
loop_
 _atom_site_type_symbol
 _atom_site_label
 _atom_site_symmetry_multiplicity
 _atom_site_fract_x
 _atom_site_fract_y
 _atom_site_fract_z
 _atom_site_occupancy
  Ba  Ba0  1  0.032299  0.696748  0.263910  1
  Ba  Ba1  1  0.303252  0.335551  0.263910  1
  Ba  Ba2  1  0.664449  0.967701  0.263910  1
  Ba  Ba3  1  0.335551  0.303252  0.736090  1
  Ba  Ba4  1  0.967701  0.664449  0.736090  1
  Ba  Ba5  1  0.696748  0.032299  0.736090  1
  Ba  Ba6  1  0.000000  0.000000  0.000000  1
  Ba  Ba7  1  0.333333  0.666667  0.752003  1
  Ba  Ba8  1  0.666667  0.333333  0.247997  1
  Ba  Ba9  1  0.633834  0.633834  0.000000  1
  Ba  Ba10  1  0.000000  0.366166  0.000000  1
  Ba  Ba11  1  0.366166  0.000000  0.000000  1
  Ba  Ba12  1  0.670954  0.670954  0.500000  1
  Ba  Ba13  1  0.000000  0.329046  0.500000  1
  Ba  Ba14  1  0.329046  0.000000  0.500000  1
  Pt  Pt15  1  0.333333  0.666667  0.098254  1
  Pt  Pt16  1  0.666667  0.333333  0.901746  1
  Pt  Pt17  1  0.333333  0.666667  0.407850  1
  Pt  Pt18  1  0.666667  0.333333  0.592150  1
  Pt  Pt19  1  0.000000  0.000000  0.345407  1
  Pt  Pt20  1  0.000000  0.000000  0.654593  1
  O  O21  1  0.148142  0.148142  0.500000  1
  O  O22  1  0.000000  0.851858  0.500000  1
  O  O23  1  0.851858  0.000000  0.500000  1
  O  O24  1  0.176010  0.682536  0.532773  1
  O  O25  1  0.317464  0.493474  0.532773  1
  O  O26  1  0.506526  0.823990  0.532773  1
  O  O27  1  0.493474  0.317464  0.467227  1
  O  O28  1  0.823990  0.506526  0.467227  1
  O  O29  1  0.682536  0.176010  0.467227  1
  O  O30  1  0.522021  0.172511  0.746970  1
  O  O31  1  0.827489  0.349509  0.746970  1
  O  O32  1  0.650491  0.477979  0.746970  1
  O  O33  1  0.349509  0.827489  0.253030  1
  O  O34  1  0.477979  0.650491  0.253030  1
  O  O35  1  0.172511  0.522021  0.253030  1
  O  O36  1  0.006185  0.173969  0.778903  1
  O  O37  1  0.826031  0.832216  0.778903  1
  O  O38  1  0.167784  0.993815  0.778903  1
  O  O39  1  0.832216  0.826031  0.221097  1
  O  O40  1  0.993815  0.167784  0.221097  1
  O  O41  1  0.173969  0.006185  0.221097  1
  O  O42  1  0.825377  0.509935  0.026969  1
  O  O43  1  0.490065  0.315442  0.026969  1
  O  O44  1  0.684558  0.174623  0.026969  1
  O  O45  1  0.315442  0.490065  0.973031  1
  O  O46  1  0.174623  0.684558  0.973031  1
  O  O47  1  0.509935  0.825377  0.973031  1
