# generated using pymatgen
data_Rb2Si2O5
_symmetry_space_group_name_H-M   'P 1'
_cell_length_a   6.73926474
_cell_length_b   6.73926474
_cell_length_c   14.89811625
_cell_angle_alpha   89.72697010
_cell_angle_beta   90.27302990
_cell_angle_gamma   101.29010919
_symmetry_Int_Tables_number   1
_chemical_formula_structural   Rb2Si2O5
_chemical_formula_sum   'Rb8 Si8 O20'
_cell_volume   663.53143280
_cell_formula_units_Z   4
loop_
 _symmetry_equiv_pos_site_id
 _symmetry_equiv_pos_as_xyz
  1  'x, y, z'
loop_
 _atom_site_type_symbol
 _atom_site_label
 _atom_site_symmetry_multiplicity
 _atom_site_fract_x
 _atom_site_fract_y
 _atom_site_fract_z
 _atom_site_occupancy
  Rb  Rb0  1  0.059912  0.720581  0.085551  1
  Rb  Rb1  1  0.720581  0.059912  0.414449  1
  Rb  Rb2  1  0.940088  0.279419  0.914449  1
  Rb  Rb3  1  0.279419  0.940088  0.585551  1
  Rb  Rb4  1  0.291192  0.448884  0.402564  1
  Rb  Rb5  1  0.448884  0.291192  0.097436  1
  Rb  Rb6  1  0.708808  0.551116  0.597436  1
  Rb  Rb7  1  0.551116  0.708808  0.902564  1
  Si  Si8  1  0.808211  0.561309  0.314180  1
  Si  Si9  1  0.798738  0.060629  0.693099  1
  Si  Si10  1  0.060629  0.798738  0.806901  1
  Si  Si11  1  0.201262  0.939371  0.306901  1
  Si  Si12  1  0.939371  0.201262  0.193099  1
  Si  Si13  1  0.438691  0.191789  0.814180  1
  Si  Si14  1  0.191789  0.438691  0.685820  1
  Si  Si15  1  0.561309  0.808211  0.185820  1
  O  O16  1  0.988735  0.256578  0.690036  1
  O  O17  1  0.499116  0.270969  0.912658  1
  O  O18  1  0.270969  0.499116  0.587342  1
  O  O19  1  0.500884  0.729031  0.087342  1
  O  O20  1  0.729031  0.500884  0.412658  1
  O  O21  1  0.711615  0.987293  0.597117  1
  O  O22  1  0.987293  0.711615  0.902883  1
  O  O23  1  0.288385  0.012707  0.402883  1
  O  O24  1  0.121485  0.121485  0.250000  1
  O  O25  1  0.878515  0.878515  0.750000  1
  O  O26  1  0.870708  0.367859  0.261179  1
  O  O27  1  0.367859  0.870708  0.238821  1
  O  O28  1  0.129292  0.632141  0.738821  1
  O  O29  1  0.632141  0.129292  0.761179  1
  O  O30  1  0.633001  0.633001  0.250000  1
  O  O31  1  0.366999  0.366999  0.750000  1
  O  O32  1  0.011265  0.743422  0.309964  1
  O  O33  1  0.743422  0.011265  0.190036  1
  O  O34  1  0.256578  0.988735  0.809964  1
  O  O35  1  0.012707  0.288385  0.097117  1
