# generated using pymatgen
data_NaTiF4
_symmetry_space_group_name_H-M   'P 1'
_cell_length_a   5.07485047
_cell_length_b   5.83458824
_cell_length_c   11.17161306
_cell_angle_alpha   90.00000000
_cell_angle_beta   90.00000000
_cell_angle_gamma   90.00000000
_symmetry_Int_Tables_number   1
_chemical_formula_structural   NaTiF4
_chemical_formula_sum   'Na4 Ti4 F16'
_cell_volume   330.78769644
_cell_formula_units_Z   4
loop_
 _symmetry_equiv_pos_site_id
 _symmetry_equiv_pos_as_xyz
  1  'x, y, z'
loop_
 _atom_site_type_symbol
 _atom_site_label
 _atom_site_symmetry_multiplicity
 _atom_site_fract_x
 _atom_site_fract_y
 _atom_site_fract_z
 _atom_site_occupancy
  Na  Na0  1  0.500000  0.500000  0.500000  1
  Na  Na1  1  0.000000  0.000000  0.500000  1
  Na  Na2  1  0.500000  0.500000  0.000000  1
  Na  Na3  1  0.000000  0.000000  0.000000  1
  Ti  Ti4  1  0.500000  0.843392  0.250000  1
  Ti  Ti5  1  0.000000  0.656608  0.750000  1
  Ti  Ti6  1  0.500000  0.156608  0.750000  1
  Ti  Ti7  1  0.000000  0.343392  0.250000  1
  F  F8  1  0.331171  0.820189  0.097392  1
  F  F9  1  0.831171  0.679811  0.902608  1
  F  F10  1  0.668829  0.820189  0.402608  1
  F  F11  1  0.168829  0.679811  0.597392  1
  F  F12  1  0.668829  0.179811  0.902608  1
  F  F13  1  0.168829  0.320189  0.097392  1
  F  F14  1  0.331171  0.179811  0.597392  1
  F  F15  1  0.831171  0.320189  0.402608  1
  F  F16  1  0.745223  0.585696  0.190823  1
  F  F17  1  0.245223  0.914304  0.809177  1
  F  F18  1  0.254777  0.585696  0.309177  1
  F  F19  1  0.754777  0.914304  0.690823  1
  F  F20  1  0.254777  0.414304  0.809177  1
  F  F21  1  0.754777  0.085696  0.190823  1
  F  F22  1  0.745223  0.414304  0.690823  1
  F  F23  1  0.245223  0.085696  0.309177  1
