# generated using pymatgen
data_PH6NO4
_symmetry_space_group_name_H-M   'P 1'
_cell_length_a   6.56357674
_cell_length_b   6.56357674
_cell_length_c   6.56357674
_cell_angle_alpha   111.50783699
_cell_angle_beta   111.50783699
_cell_angle_gamma   105.47054945
_symmetry_Int_Tables_number   1
_chemical_formula_structural   PH6NO4
_chemical_formula_sum   'P2 H12 N2 O8'
_cell_volume   216.88190937
_cell_formula_units_Z   2
loop_
 _symmetry_equiv_pos_site_id
 _symmetry_equiv_pos_as_xyz
  1  'x, y, z'
loop_
 _atom_site_type_symbol
 _atom_site_label
 _atom_site_symmetry_multiplicity
 _atom_site_fract_x
 _atom_site_fract_y
 _atom_site_fract_z
 _atom_site_occupancy
  P  P0  1  0.750000  0.250000  0.500000  1
  P  P1  1  0.000000  1.000000  0.000000  1
  H  H2  1  0.554463  0.688536  0.095120  1
  H  H3  1  0.593416  0.459343  0.904880  1
  H  H4  1  0.209343  0.843416  0.404880  1
  H  H5  1  0.540657  0.445537  0.134073  1
  H  H6  1  0.311464  0.406584  0.865927  1
  H  H7  1  0.156584  0.561464  0.365927  1
  H  H8  1  0.020252  0.125000  0.395252  1
  H  H9  1  0.438536  0.804463  0.595120  1
  H  H10  1  0.729748  0.625000  0.604748  1
  H  H11  1  0.375000  0.979748  0.104748  1
  H  H12  1  0.875000  0.270252  0.895252  1
  H  H13  1  0.195537  0.790657  0.634073  1
  N  N14  1  0.500000  0.500000  0.000000  1
  N  N15  1  0.250000  0.750000  0.500000  1
  O  O16  1  0.728313  0.291851  0.738809  1
  O  O17  1  0.041851  0.978313  0.238809  1
  O  O18  1  0.739503  0.803042  0.761191  1
  O  O19  1  0.553042  0.989503  0.261191  1
  O  O20  1  0.708149  0.446958  0.436462  1
  O  O21  1  0.010497  0.271687  0.563538  1
  O  O22  1  0.021687  0.260497  0.063538  1
  O  O23  1  0.196958  0.958149  0.936462  1
