# generated using pymatgen
data_Co3AgP3(HO6)2
_symmetry_space_group_name_H-M   'P 1'
_cell_length_a   8.60921569
_cell_length_b   8.60921569
_cell_length_c   6.59595282
_cell_angle_alpha   73.19191746
_cell_angle_beta   106.80808254
_cell_angle_gamma   89.31620260
_symmetry_Int_Tables_number   1
_chemical_formula_structural   Co3AgP3(HO6)2
_chemical_formula_sum   'Co6 Ag2 P6 H4 O24'
_cell_volume   445.56153905
_cell_formula_units_Z   2
loop_
 _symmetry_equiv_pos_site_id
 _symmetry_equiv_pos_as_xyz
  1  'x, y, z'
loop_
 _atom_site_type_symbol
 _atom_site_label
 _atom_site_symmetry_multiplicity
 _atom_site_fract_x
 _atom_site_fract_y
 _atom_site_fract_z
 _atom_site_occupancy
  Co  Co0  1  0.778539  0.778539  0.250000  1
  Co  Co1  1  0.548903  0.128384  0.619813  1
  Co  Co2  1  0.871616  0.451097  0.119813  1
  Co  Co3  1  0.451097  0.871616  0.380187  1
  Co  Co4  1  0.128384  0.548903  0.880187  1
  Co  Co5  1  0.221461  0.221461  0.750000  1
  Ag  Ag6  1  0.459684  0.459684  0.250000  1
  Ag  Ag7  1  0.540316  0.540316  0.750000  1
  P  P8  1  0.180945  0.180945  0.250000  1
  P  P9  1  0.819055  0.819055  0.750000  1
  P  P10  1  0.165590  0.606832  0.389337  1
  P  P11  1  0.606832  0.165590  0.110663  1
  P  P12  1  0.834410  0.393168  0.610663  1
  P  P13  1  0.393168  0.834410  0.889337  1
  H  H14  1  0.110640  0.875689  0.311708  1
  H  H15  1  0.875689  0.110640  0.188292  1
  H  H16  1  0.889360  0.124311  0.688292  1
  H  H17  1  0.124311  0.889360  0.811708  1
  O  O18  1  0.535539  0.100259  0.303708  1
  O  O19  1  0.767316  0.047859  0.155375  1
  O  O20  1  0.952141  0.232684  0.655375  1
  O  O21  1  0.232684  0.952141  0.844625  1
  O  O22  1  0.337338  0.660996  0.395702  1
  O  O23  1  0.660996  0.337338  0.104298  1
  O  O24  1  0.662662  0.339004  0.604298  1
  O  O25  1  0.339004  0.662662  0.895702  1
  O  O26  1  0.100259  0.535539  0.196292  1
  O  O27  1  0.047859  0.767316  0.344625  1
  O  O28  1  0.786014  0.001755  0.729048  1
  O  O29  1  0.001755  0.786014  0.770952  1
  O  O30  1  0.213986  0.998245  0.270952  1
  O  O31  1  0.998245  0.213986  0.229048  1
  O  O32  1  0.710273  0.779750  0.538202  1
  O  O33  1  0.779750  0.710273  0.961798  1
  O  O34  1  0.289727  0.220250  0.461798  1
  O  O35  1  0.899741  0.464461  0.803708  1
  O  O36  1  0.483498  0.170042  0.886067  1
  O  O37  1  0.170042  0.483498  0.613933  1
  O  O38  1  0.516502  0.829958  0.113933  1
  O  O39  1  0.829958  0.516502  0.386067  1
  O  O40  1  0.464461  0.899741  0.696292  1
  O  O41  1  0.220250  0.289727  0.038202  1
