# generated using pymatgen
data_NiSeO3
_symmetry_space_group_name_H-M   'P 1'
_cell_length_a   5.01392413
_cell_length_b   5.94957385
_cell_length_c   7.62682673
_cell_angle_alpha   90.00000000
_cell_angle_beta   90.00000000
_cell_angle_gamma   90.00000000
_symmetry_Int_Tables_number   1
_chemical_formula_structural   NiSeO3
_chemical_formula_sum   'Ni4 Se4 O12'
_cell_volume   227.51367082
_cell_formula_units_Z   4
loop_
 _symmetry_equiv_pos_site_id
 _symmetry_equiv_pos_as_xyz
  1  'x, y, z'
loop_
 _atom_site_type_symbol
 _atom_site_label
 _atom_site_symmetry_multiplicity
 _atom_site_fract_x
 _atom_site_fract_y
 _atom_site_fract_z
 _atom_site_occupancy
  Ni  Ni0  1  0.000000  0.500000  0.000000  1
  Ni  Ni1  1  0.500000  0.000000  0.000000  1
  Ni  Ni2  1  0.500000  0.000000  0.500000  1
  Ni  Ni3  1  0.000000  0.500000  0.500000  1
  Se  Se4  1  0.481498  0.519676  0.250000  1
  Se  Se5  1  0.981498  0.980324  0.750000  1
  Se  Se6  1  0.018502  0.019676  0.250000  1
  Se  Se7  1  0.518502  0.480324  0.750000  1
  O  O8  1  0.358877  0.683046  0.424964  1
  O  O9  1  0.858877  0.816954  0.575036  1
  O  O10  1  0.141123  0.183046  0.075036  1
  O  O11  1  0.641123  0.316954  0.924964  1
  O  O12  1  0.641123  0.316954  0.575036  1
  O  O13  1  0.141123  0.183046  0.424964  1
  O  O14  1  0.858877  0.816954  0.924964  1
  O  O15  1  0.358877  0.683046  0.075036  1
  O  O16  1  0.824862  0.573390  0.250000  1
  O  O17  1  0.324862  0.926610  0.750000  1
  O  O18  1  0.175138  0.426610  0.750000  1
  O  O19  1  0.675138  0.073390  0.250000  1
