# generated using pymatgen
data_AsSe6IF6
_symmetry_space_group_name_H-M   'P 1'
_cell_length_a   9.33605008
_cell_length_b   7.16780798
_cell_length_c   11.95419572
_cell_angle_alpha   90.00000000
_cell_angle_beta   120.25068644
_cell_angle_gamma   90.00000000
_symmetry_Int_Tables_number   1
_chemical_formula_structural   AsSe6IF6
_chemical_formula_sum   'As2 Se12 I2 F12'
_cell_volume   691.03160881
_cell_formula_units_Z   2
loop_
 _symmetry_equiv_pos_site_id
 _symmetry_equiv_pos_as_xyz
  1  'x, y, z'
loop_
 _atom_site_type_symbol
 _atom_site_label
 _atom_site_symmetry_multiplicity
 _atom_site_fract_x
 _atom_site_fract_y
 _atom_site_fract_z
 _atom_site_occupancy
  As  As0  1  0.000000  0.000000  0.000000  1
  As  As1  1  0.000000  0.000000  0.500000  1
  Se  Se2  1  0.667886  0.256540  0.615084  1
  Se  Se3  1  0.556136  0.759510  0.609269  1
  Se  Se4  1  0.556136  0.240490  0.109269  1
  Se  Se5  1  0.443864  0.240490  0.390731  1
  Se  Se6  1  0.667886  0.743460  0.115084  1
  Se  Se7  1  0.332114  0.743460  0.384916  1
  Se  Se8  1  0.332114  0.256540  0.884916  1
  Se  Se9  1  0.762882  0.572476  0.616823  1
  Se  Se10  1  0.762882  0.427524  0.116823  1
  Se  Se11  1  0.237118  0.427524  0.383177  1
  Se  Se12  1  0.237118  0.572476  0.883177  1
  Se  Se13  1  0.443864  0.759510  0.890731  1
  I  I14  1  0.500000  0.721182  0.250000  1
  I  I15  1  0.500000  0.278818  0.750000  1
  F  F16  1  0.929325  0.906124  0.601037  1
  F  F17  1  0.070675  0.906124  0.898963  1
  F  F18  1  0.070675  0.093876  0.398963  1
  F  F19  1  0.929325  0.093876  0.101037  1
  F  F20  1  0.796666  0.085712  0.391975  1
  F  F21  1  0.203334  0.085712  0.108025  1
  F  F22  1  0.203334  0.914288  0.608025  1
  F  F23  1  0.796666  0.914288  0.891975  1
  F  F24  1  0.048664  0.213048  0.588084  1
  F  F25  1  0.951336  0.213048  0.911916  1
  F  F26  1  0.951336  0.786952  0.411916  1
  F  F27  1  0.048664  0.786952  0.088084  1
