# generated using pymatgen
data_InTeI
_symmetry_space_group_name_H-M   'P 1'
_cell_length_a   8.55612221
_cell_length_b   7.84202736
_cell_length_c   8.73142619
_cell_angle_alpha   90.00000000
_cell_angle_beta   116.79022872
_cell_angle_gamma   90.00000000
_symmetry_Int_Tables_number   1
_chemical_formula_structural   InTeI
_chemical_formula_sum   'In4 Te4 I4'
_cell_volume   522.97136138
_cell_formula_units_Z   4
loop_
 _symmetry_equiv_pos_site_id
 _symmetry_equiv_pos_as_xyz
  1  'x, y, z'
loop_
 _atom_site_type_symbol
 _atom_site_label
 _atom_site_symmetry_multiplicity
 _atom_site_fract_x
 _atom_site_fract_y
 _atom_site_fract_z
 _atom_site_occupancy
  In  In0  1  0.605509  0.804057  0.959798  1
  In  In1  1  0.894491  0.304057  0.040202  1
  In  In2  1  0.394491  0.195943  0.040202  1
  In  In3  1  0.105509  0.695943  0.959798  1
  Te  Te4  1  0.930368  0.644665  0.173206  1
  Te  Te5  1  0.569632  0.144665  0.826794  1
  Te  Te6  1  0.069632  0.355335  0.826794  1
  Te  Te7  1  0.430368  0.855335  0.173206  1
  I  I8  1  0.402921  0.611523  0.674381  1
  I  I9  1  0.097079  0.111523  0.325619  1
  I  I10  1  0.597079  0.388477  0.325619  1
  I  I11  1  0.902921  0.888477  0.674381  1
