# generated using pymatgen
data_Na7Au5S6
_symmetry_space_group_name_H-M   'P 1'
_cell_length_a   7.14545873
_cell_length_b   10.62679104
_cell_length_c   22.67033618
_cell_angle_alpha   90.00000000
_cell_angle_beta   90.00000000
_cell_angle_gamma   90.00000000
_symmetry_Int_Tables_number   1
_chemical_formula_structural   Na7Au5S6
_chemical_formula_sum   'Na28 Au20 S24'
_cell_volume   1721.43336591
_cell_formula_units_Z   4
loop_
 _symmetry_equiv_pos_site_id
 _symmetry_equiv_pos_as_xyz
  1  'x, y, z'
loop_
 _atom_site_type_symbol
 _atom_site_label
 _atom_site_symmetry_multiplicity
 _atom_site_fract_x
 _atom_site_fract_y
 _atom_site_fract_z
 _atom_site_occupancy
  Na  Na0  1  0.001541  0.500000  0.250000  1
  Na  Na1  1  0.498459  0.000000  0.750000  1
  Na  Na2  1  0.998459  0.500000  0.750000  1
  Na  Na3  1  0.501541  0.000000  0.250000  1
  Na  Na4  1  0.496761  0.239567  0.590840  1
  Na  Na5  1  0.496761  0.760433  0.909160  1
  Na  Na6  1  0.003239  0.739567  0.409160  1
  Na  Na7  1  0.003239  0.260433  0.090840  1
  Na  Na8  1  0.503239  0.760433  0.409160  1
  Na  Na9  1  0.503239  0.239567  0.090840  1
  Na  Na10  1  0.996761  0.260433  0.590840  1
  Na  Na11  1  0.996761  0.739567  0.909160  1
  Na  Na12  1  0.662086  0.122802  0.379174  1
  Na  Na13  1  0.662086  0.877198  0.120826  1
  Na  Na14  1  0.837914  0.622802  0.620826  1
  Na  Na15  1  0.837914  0.377198  0.879174  1
  Na  Na16  1  0.337914  0.877198  0.620826  1
  Na  Na17  1  0.337914  0.122802  0.879174  1
  Na  Na18  1  0.162086  0.377198  0.379174  1
  Na  Na19  1  0.162086  0.622802  0.120826  1
  Na  Na20  1  0.876158  0.892850  0.543588  1
  Na  Na21  1  0.876158  0.107150  0.956412  1
  Na  Na22  1  0.623842  0.392850  0.456412  1
  Na  Na23  1  0.623842  0.607150  0.043588  1
  Na  Na24  1  0.123842  0.107150  0.456412  1
  Na  Na25  1  0.123842  0.892850  0.043588  1
  Na  Na26  1  0.376158  0.607150  0.543588  1
  Na  Na27  1  0.376158  0.392850  0.956412  1
  Au  Au28  1  0.771856  0.756651  0.248058  1
  Au  Au29  1  0.771856  0.243349  0.251942  1
  Au  Au30  1  0.500000  0.000000  0.500000  1
  Au  Au31  1  0.728144  0.256651  0.751942  1
  Au  Au32  1  0.728144  0.743349  0.748058  1
  Au  Au33  1  0.228144  0.243349  0.751942  1
  Au  Au34  1  0.228144  0.756651  0.748058  1
  Au  Au35  1  0.271856  0.743349  0.248058  1
  Au  Au36  1  0.271856  0.256651  0.251942  1
  Au  Au37  1  0.029187  0.998135  0.170264  1
  Au  Au38  1  0.029187  0.001865  0.329736  1
  Au  Au39  1  0.470813  0.498135  0.829736  1
  Au  Au40  1  0.470813  0.501865  0.670264  1
  Au  Au41  1  0.970813  0.001865  0.829736  1
  Au  Au42  1  0.970813  0.998135  0.670264  1
  Au  Au43  1  0.529187  0.501865  0.170264  1
  Au  Au44  1  0.529187  0.498135  0.329736  1
  Au  Au45  1  0.000000  0.500000  0.000000  1
  Au  Au46  1  0.000000  0.500000  0.500000  1
  Au  Au47  1  0.500000  0.000000  0.000000  1
  S  S48  1  0.249132  0.356955  0.501279  1
  S  S49  1  0.740390  0.621979  0.833699  1
  S  S50  1  0.740390  0.378021  0.666301  1
  S  S51  1  0.759610  0.121979  0.166301  1
  S  S52  1  0.759610  0.878021  0.333699  1
  S  S53  1  0.259610  0.378021  0.166301  1
  S  S54  1  0.259610  0.621979  0.333699  1
  S  S55  1  0.240390  0.878021  0.833699  1
  S  S56  1  0.240390  0.121979  0.666301  1
  S  S57  1  0.288351  0.866287  0.162607  1
  S  S58  1  0.288351  0.133713  0.337393  1
  S  S59  1  0.211649  0.366287  0.837393  1
  S  S60  1  0.211649  0.633713  0.662607  1
  S  S61  1  0.711649  0.133713  0.837393  1
  S  S62  1  0.711649  0.866287  0.662607  1
  S  S63  1  0.788351  0.633713  0.162607  1
  S  S64  1  0.788351  0.366287  0.337393  1
  S  S65  1  0.249132  0.643045  0.998721  1
  S  S66  1  0.250868  0.143045  0.001279  1
  S  S67  1  0.250868  0.856955  0.498721  1
  S  S68  1  0.749132  0.143045  0.501279  1
  S  S69  1  0.749132  0.856955  0.998721  1
  S  S70  1  0.750868  0.356955  0.001279  1
  S  S71  1  0.750868  0.643045  0.498721  1
