# generated using pymatgen
data_CsTlI4
_symmetry_space_group_name_H-M   'P 1'
_cell_length_a   7.65476275
_cell_length_b   19.46863610
_cell_length_c   8.84454584
_cell_angle_alpha   90.00000000
_cell_angle_beta   105.70162700
_cell_angle_gamma   90.00000000
_symmetry_Int_Tables_number   1
_chemical_formula_structural   CsTlI4
_chemical_formula_sum   'Cs4 Tl4 I16'
_cell_volume   1268.89761443
_cell_formula_units_Z   4
loop_
 _symmetry_equiv_pos_site_id
 _symmetry_equiv_pos_as_xyz
  1  'x, y, z'
loop_
 _atom_site_type_symbol
 _atom_site_label
 _atom_site_symmetry_multiplicity
 _atom_site_fract_x
 _atom_site_fract_y
 _atom_site_fract_z
 _atom_site_occupancy
  Cs  Cs0  1  0.190481  0.372067  0.290598  1
  Cs  Cs1  1  0.809519  0.872067  0.209402  1
  Cs  Cs2  1  0.809519  0.627933  0.709402  1
  Cs  Cs3  1  0.190481  0.127933  0.790598  1
  Tl  Tl4  1  0.188936  0.629334  0.295974  1
  Tl  Tl5  1  0.811064  0.129334  0.204026  1
  Tl  Tl6  1  0.811064  0.370666  0.704026  1
  Tl  Tl7  1  0.188936  0.870666  0.795974  1
  I  I8  1  0.369230  0.743833  0.868179  1
  I  I9  1  0.630770  0.243833  0.631821  1
  I  I10  1  0.630770  0.256167  0.131821  1
  I  I11  1  0.369230  0.756167  0.368179  1
  I  I12  1  0.276338  0.951247  0.560291  1
  I  I13  1  0.723662  0.451247  0.939709  1
  I  I14  1  0.723662  0.048753  0.439709  1
  I  I15  1  0.276338  0.548753  0.060291  1
  I  I16  1  0.810649  0.660919  0.203799  1
  I  I17  1  0.189351  0.160919  0.296201  1
  I  I18  1  0.189351  0.339081  0.796201  1
  I  I19  1  0.810649  0.839081  0.703799  1
  I  I20  1  0.270996  0.550018  0.577897  1
  I  I21  1  0.729004  0.050018  0.922103  1
  I  I22  1  0.729004  0.449982  0.422103  1
  I  I23  1  0.270996  0.949982  0.077897  1
