# generated using pymatgen
data_RbGa2P2H5O11
_symmetry_space_group_name_H-M   'P 1'
_cell_length_a   9.76488261
_cell_length_b   9.74515892
_cell_length_c   12.28874237
_cell_angle_alpha   90.00000000
_cell_angle_beta   128.50464236
_cell_angle_gamma   90.00000000
_symmetry_Int_Tables_number   1
_chemical_formula_structural   RbGa2P2H5O11
_chemical_formula_sum   'Rb4 Ga8 P8 H20 O44'
_cell_volume   915.12362922
_cell_formula_units_Z   4
loop_
 _symmetry_equiv_pos_site_id
 _symmetry_equiv_pos_as_xyz
  1  'x, y, z'
loop_
 _atom_site_type_symbol
 _atom_site_label
 _atom_site_symmetry_multiplicity
 _atom_site_fract_x
 _atom_site_fract_y
 _atom_site_fract_z
 _atom_site_occupancy
  Rb  Rb0  1  0.382574  0.694035  0.399329  1
  Rb  Rb1  1  0.617426  0.194035  0.100671  1
  Rb  Rb2  1  0.617426  0.305965  0.600671  1
  Rb  Rb3  1  0.382574  0.805965  0.899329  1
  Ga  Ga4  1  0.717661  0.727967  0.815105  1
  Ga  Ga5  1  0.282339  0.227967  0.684895  1
  Ga  Ga6  1  0.282339  0.272033  0.184895  1
  Ga  Ga7  1  0.717661  0.772033  0.315105  1
  Ga  Ga8  1  0.982316  0.455008  0.370901  1
  Ga  Ga9  1  0.017684  0.955008  0.129099  1
  Ga  Ga10  1  0.017684  0.544992  0.629099  1
  Ga  Ga11  1  0.982316  0.044992  0.870901  1
  P  P12  1  0.354405  0.527121  0.649910  1
  P  P13  1  0.645595  0.027121  0.850090  1
  P  P14  1  0.645595  0.472879  0.350090  1
  P  P15  1  0.354405  0.972879  0.149910  1
  P  P16  1  0.841992  0.682897  0.132145  1
  P  P17  1  0.158008  0.182897  0.367855  1
  P  P18  1  0.158008  0.317103  0.867855  1
  P  P19  1  0.841992  0.817103  0.632145  1
  H  H20  1  0.800559  0.417588  0.032127  1
  H  H21  1  0.199441  0.917588  0.467873  1
  H  H22  1  0.199441  0.582412  0.967873  1
  H  H23  1  0.800559  0.082412  0.532127  1
  H  H24  1  0.647681  0.364629  0.879116  1
  H  H25  1  0.352319  0.864629  0.620884  1
  H  H26  1  0.352319  0.635371  0.120884  1
  H  H27  1  0.647681  0.135371  0.379116  1
  H  H28  1  0.930161  0.526777  0.823381  1
  H  H29  1  0.069839  0.026777  0.676619  1
  H  H30  1  0.069839  0.473223  0.176619  1
  H  H31  1  0.930161  0.973223  0.323381  1
  H  H32  1  0.840045  0.476203  0.894776  1
  H  H33  1  0.159955  0.976203  0.605224  1
  H  H34  1  0.159955  0.523797  0.105224  1
  H  H35  1  0.840045  0.023797  0.394776  1
  H  H36  1  0.048157  0.703718  0.478091  1
  H  H37  1  0.951843  0.203718  0.021909  1
  H  H38  1  0.951843  0.296282  0.521909  1
  H  H39  1  0.048157  0.796282  0.978091  1
  O  O40  1  0.776171  0.359769  0.956096  1
  O  O41  1  0.223829  0.859769  0.543904  1
  O  O42  1  0.223829  0.640231  0.043904  1
  O  O43  1  0.776171  0.140231  0.456096  1
  O  O44  1  0.854986  0.553669  0.848800  1
  O  O45  1  0.145014  0.053669  0.651200  1
  O  O46  1  0.145014  0.446331  0.151200  1
  O  O47  1  0.854986  0.946331  0.348800  1
  O  O48  1  0.946565  0.643637  0.442696  1
  O  O49  1  0.053435  0.143637  0.057304  1
  O  O50  1  0.053435  0.356363  0.557304  1
  O  O51  1  0.946565  0.856363  0.942696  1
  O  O52  1  0.227905  0.508882  0.488172  1
  O  O53  1  0.772095  0.008882  0.011828  1
  O  O54  1  0.772095  0.491118  0.511828  1
  O  O55  1  0.227905  0.991118  0.988172  1
  O  O56  1  0.567116  0.884037  0.779737  1
  O  O57  1  0.432884  0.384037  0.720263  1
  O  O58  1  0.432884  0.115963  0.220263  1
  O  O59  1  0.567116  0.615963  0.279737  1
  O  O60  1  0.743450  0.412091  0.298584  1
  O  O61  1  0.256550  0.912091  0.201416  1
  O  O62  1  0.256550  0.587909  0.701416  1
  O  O63  1  0.743450  0.087909  0.798584  1
  O  O64  1  0.502079  0.620359  0.683774  1
  O  O65  1  0.497921  0.120359  0.816226  1
  O  O66  1  0.497921  0.379641  0.316226  1
  O  O67  1  0.502079  0.879641  0.183774  1
  O  O68  1  0.920247  0.536722  0.197716  1
  O  O69  1  0.079753  0.036722  0.302284  1
  O  O70  1  0.079753  0.463278  0.802284  1
  O  O71  1  0.920247  0.963278  0.697716  1
  O  O72  1  0.999961  0.280829  0.303499  1
  O  O73  1  0.000039  0.780829  0.196501  1
  O  O74  1  0.000039  0.719171  0.696501  1
  O  O75  1  0.999961  0.219171  0.803499  1
  O  O76  1  0.716086  0.771165  0.660579  1
  O  O77  1  0.283914  0.271165  0.839421  1
  O  O78  1  0.283914  0.228835  0.339421  1
  O  O79  1  0.716086  0.728835  0.160579  1
  O  O80  1  0.733001  0.667785  0.973537  1
  O  O81  1  0.266999  0.167785  0.526463  1
  O  O82  1  0.266999  0.332215  0.026463  1
  O  O83  1  0.733001  0.832215  0.473537  1
