# generated using pymatgen
data_Sb4S5Cl2
_symmetry_space_group_name_H-M   'P 1'
_cell_length_a   9.56520405
_cell_length_b   11.20718614
_cell_length_c   12.05958025
_cell_angle_alpha   90.00000000
_cell_angle_beta   90.00000000
_cell_angle_gamma   90.00000000
_symmetry_Int_Tables_number   1
_chemical_formula_structural   Sb4S5Cl2
_chemical_formula_sum   'Sb16 S20 Cl8'
_cell_volume   1292.77521161
_cell_formula_units_Z   4
loop_
 _symmetry_equiv_pos_site_id
 _symmetry_equiv_pos_as_xyz
  1  'x, y, z'
loop_
 _atom_site_type_symbol
 _atom_site_label
 _atom_site_symmetry_multiplicity
 _atom_site_fract_x
 _atom_site_fract_y
 _atom_site_fract_z
 _atom_site_occupancy
  Sb  Sb0  1  0.750000  0.955311  0.995471  1
  Sb  Sb1  1  0.250000  0.044689  0.004529  1
  Sb  Sb2  1  0.750000  0.455311  0.504529  1
  Sb  Sb3  1  0.250000  0.544689  0.495471  1
  Sb  Sb4  1  0.250000  0.939980  0.454991  1
  Sb  Sb5  1  0.750000  0.060020  0.545009  1
  Sb  Sb6  1  0.250000  0.439980  0.045009  1
  Sb  Sb7  1  0.750000  0.560020  0.954991  1
  Sb  Sb8  1  0.531552  0.221545  0.157696  1
  Sb  Sb9  1  0.031552  0.778455  0.842304  1
  Sb  Sb10  1  0.968448  0.721545  0.342304  1
  Sb  Sb11  1  0.468448  0.278455  0.657696  1
  Sb  Sb12  1  0.468448  0.778455  0.842304  1
  Sb  Sb13  1  0.968448  0.221545  0.157696  1
  Sb  Sb14  1  0.031552  0.278455  0.657696  1
  Sb  Sb15  1  0.531552  0.721545  0.342304  1
  S  S16  1  0.941958  0.984394  0.856043  1
  S  S17  1  0.553642  0.189004  0.482578  1
  S  S18  1  0.446358  0.310996  0.982578  1
  S  S19  1  0.946358  0.689004  0.017422  1
  S  S20  1  0.441958  0.015606  0.143957  1
  S  S21  1  0.053642  0.810996  0.517422  1
  S  S22  1  0.058042  0.515606  0.356043  1
  S  S23  1  0.558042  0.484394  0.643957  1
  S  S24  1  0.250000  0.821520  0.969579  1
  S  S25  1  0.750000  0.178480  0.030421  1
  S  S26  1  0.250000  0.321520  0.530421  1
  S  S27  1  0.750000  0.678480  0.469579  1
  S  S28  1  0.946358  0.189004  0.482578  1
  S  S29  1  0.446358  0.810996  0.517422  1
  S  S30  1  0.553642  0.689004  0.017422  1
  S  S31  1  0.053642  0.310996  0.982578  1
  S  S32  1  0.441958  0.515606  0.356043  1
  S  S33  1  0.941958  0.484394  0.643957  1
  S  S34  1  0.058042  0.015606  0.143957  1
  S  S35  1  0.558042  0.984394  0.856043  1
  Cl  Cl36  1  0.750000  0.984227  0.345749  1
  Cl  Cl37  1  0.250000  0.015773  0.654251  1
  Cl  Cl38  1  0.250000  0.785790  0.271122  1
  Cl  Cl39  1  0.250000  0.515773  0.845749  1
  Cl  Cl40  1  0.750000  0.714210  0.771122  1
  Cl  Cl41  1  0.250000  0.285790  0.228878  1
  Cl  Cl42  1  0.750000  0.214210  0.728878  1
  Cl  Cl43  1  0.750000  0.484227  0.154251  1
