# generated using pymatgen
data_Mg(SbO2)2
_symmetry_space_group_name_H-M   'P 1'
_cell_length_a   8.59154916
_cell_length_b   8.59154916
_cell_length_c   6.07500989
_cell_angle_alpha   90.00000000
_cell_angle_beta   90.00000000
_cell_angle_gamma   90.00000000
_symmetry_Int_Tables_number   1
_chemical_formula_structural   Mg(SbO2)2
_chemical_formula_sum   'Mg4 Sb8 O16'
_cell_volume   448.42513561
_cell_formula_units_Z   4
loop_
 _symmetry_equiv_pos_site_id
 _symmetry_equiv_pos_as_xyz
  1  'x, y, z'
loop_
 _atom_site_type_symbol
 _atom_site_label
 _atom_site_symmetry_multiplicity
 _atom_site_fract_x
 _atom_site_fract_y
 _atom_site_fract_z
 _atom_site_occupancy
  Mg  Mg0  1  0.500000  0.000000  0.250000  1
  Mg  Mg1  1  0.000000  0.500000  0.750000  1
  Mg  Mg2  1  0.500000  0.000000  0.750000  1
  Mg  Mg3  1  0.000000  0.500000  0.250000  1
  Sb  Sb4  1  0.333527  0.324690  0.000000  1
  Sb  Sb5  1  0.324690  0.666473  0.500000  1
  Sb  Sb6  1  0.675310  0.333527  0.500000  1
  Sb  Sb7  1  0.166473  0.824690  0.000000  1
  Sb  Sb8  1  0.833527  0.175310  0.000000  1
  Sb  Sb9  1  0.666473  0.675310  0.000000  1
  Sb  Sb10  1  0.824690  0.833527  0.500000  1
  Sb  Sb11  1  0.175310  0.166473  0.500000  1
  O  O12  1  0.365051  0.098839  0.000000  1
  O  O13  1  0.098839  0.634949  0.500000  1
  O  O14  1  0.901161  0.365051  0.500000  1
  O  O15  1  0.134949  0.598839  0.000000  1
  O  O16  1  0.865051  0.401161  0.000000  1
  O  O17  1  0.634949  0.901161  0.000000  1
  O  O18  1  0.598839  0.865051  0.500000  1
  O  O19  1  0.401161  0.134949  0.500000  1
  O  O20  1  0.676570  0.176570  0.250000  1
  O  O21  1  0.176570  0.323430  0.750000  1
  O  O22  1  0.823430  0.676570  0.750000  1
  O  O23  1  0.323430  0.823430  0.250000  1
  O  O24  1  0.323430  0.823430  0.750000  1
  O  O25  1  0.823430  0.676570  0.250000  1
  O  O26  1  0.176570  0.323430  0.250000  1
  O  O27  1  0.676570  0.176570  0.750000  1
