# generated using pymatgen
data_Mg3P2
_symmetry_space_group_name_H-M   'P 1'
_cell_length_a   10.45233934
_cell_length_b   10.45233934
_cell_length_c   10.45233934
_cell_angle_alpha   109.47122063
_cell_angle_beta   109.47122063
_cell_angle_gamma   109.47122063
_symmetry_Int_Tables_number   1
_chemical_formula_structural   Mg3P2
_chemical_formula_sum   'Mg24 P16'
_cell_volume   879.06018752
_cell_formula_units_Z   8
loop_
 _symmetry_equiv_pos_site_id
 _symmetry_equiv_pos_as_xyz
  1  'x, y, z'
loop_
 _atom_site_type_symbol
 _atom_site_label
 _atom_site_symmetry_multiplicity
 _atom_site_fract_x
 _atom_site_fract_y
 _atom_site_fract_z
 _atom_site_occupancy
  Mg  Mg0  1  0.525985  0.766214  0.532767  1
  Mg  Mg1  1  0.993218  0.967233  0.733447  1
  Mg  Mg2  1  0.259771  0.766553  0.733786  1
  Mg  Mg3  1  0.506782  0.240229  0.974015  1
  Mg  Mg4  1  0.967233  0.733447  0.993218  1
  Mg  Mg5  1  0.733786  0.259771  0.766553  1
  Mg  Mg6  1  0.240229  0.974015  0.506782  1
  Mg  Mg7  1  0.532767  0.525985  0.766214  1
  Mg  Mg8  1  0.766214  0.532767  0.525985  1
  Mg  Mg9  1  0.733447  0.993218  0.967233  1
  Mg  Mg10  1  0.766553  0.733786  0.259771  1
  Mg  Mg11  1  0.974015  0.506782  0.240229  1
  Mg  Mg12  1  0.474015  0.233786  0.467233  1
  Mg  Mg13  1  0.006782  0.032767  0.266553  1
  Mg  Mg14  1  0.740229  0.233447  0.266214  1
  Mg  Mg15  1  0.493218  0.759771  0.025985  1
  Mg  Mg16  1  0.032767  0.266553  0.006782  1
  Mg  Mg17  1  0.266214  0.740229  0.233447  1
  Mg  Mg18  1  0.759771  0.025985  0.493218  1
  Mg  Mg19  1  0.467233  0.474015  0.233786  1
  Mg  Mg20  1  0.233786  0.467233  0.474015  1
  Mg  Mg21  1  0.266553  0.006782  0.032767  1
  Mg  Mg22  1  0.233447  0.266214  0.740229  1
  Mg  Mg23  1  0.025985  0.493218  0.759771  1
  P  P24  1  0.500000  0.500000  0.500000  1
  P  P25  1  1.000000  1.000000  0.500000  1
  P  P26  1  0.500000  1.000000  0.000000  1
  P  P27  1  1.000000  0.500000  0.000000  1
  P  P28  1  0.250000  0.226209  0.976209  1
  P  P29  1  0.273791  0.523791  0.750000  1
  P  P30  1  0.523791  0.750000  0.273791  1
  P  P31  1  0.226209  0.976209  0.250000  1
  P  P32  1  0.976209  0.250000  0.226209  1
  P  P33  1  0.750000  0.273791  0.523791  1
  P  P34  1  0.750000  0.773791  0.023791  1
  P  P35  1  0.726209  0.476209  0.250000  1
  P  P36  1  0.476209  0.250000  0.726209  1
  P  P37  1  0.773791  0.023791  0.750000  1
  P  P38  1  0.023791  0.750000  0.773791  1
  P  P39  1  0.250000  0.726209  0.476209  1
