# generated using pymatgen
data_NbSeCl9
_symmetry_space_group_name_H-M   'P 1'
_cell_length_a   12.57725409
_cell_length_b   19.74334307
_cell_length_c   13.01837098
_cell_angle_alpha   90.00000000
_cell_angle_beta   118.87076601
_cell_angle_gamma   90.00000000
_symmetry_Int_Tables_number   1
_chemical_formula_structural   NbSeCl9
_chemical_formula_sum   'Nb8 Se8 Cl72'
_cell_volume   2830.89638674
_cell_formula_units_Z   8
loop_
 _symmetry_equiv_pos_site_id
 _symmetry_equiv_pos_as_xyz
  1  'x, y, z'
loop_
 _atom_site_type_symbol
 _atom_site_label
 _atom_site_symmetry_multiplicity
 _atom_site_fract_x
 _atom_site_fract_y
 _atom_site_fract_z
 _atom_site_occupancy
  Nb  Nb0  1  0.411518  0.335536  0.828220  1
  Nb  Nb1  1  0.588482  0.835536  0.671780  1
  Nb  Nb2  1  0.588482  0.664464  0.171780  1
  Nb  Nb3  1  0.411518  0.164464  0.328220  1
  Nb  Nb4  1  0.164558  0.501628  0.331183  1
  Nb  Nb5  1  0.835442  0.001628  0.168817  1
  Nb  Nb6  1  0.835442  0.498372  0.668817  1
  Nb  Nb7  1  0.164558  0.998372  0.831183  1
  Se  Se8  1  0.597006  0.346301  0.185611  1
  Se  Se9  1  0.402994  0.846301  0.314389  1
  Se  Se10  1  0.402994  0.653699  0.814389  1
  Se  Se11  1  0.597006  0.153699  0.685611  1
  Se  Se12  1  0.063013  0.328537  0.142329  1
  Se  Se13  1  0.936987  0.828537  0.357671  1
  Se  Se14  1  0.936987  0.671463  0.857671  1
  Se  Se15  1  0.063013  0.171463  0.642329  1
  Cl  Cl16  1  0.758350  0.290007  0.313738  1
  Cl  Cl17  1  0.241650  0.790007  0.186262  1
  Cl  Cl18  1  0.241650  0.709993  0.686262  1
  Cl  Cl19  1  0.758350  0.209993  0.813738  1
  Cl  Cl20  1  0.691702  0.433075  0.166559  1
  Cl  Cl21  1  0.308298  0.933075  0.333441  1
  Cl  Cl22  1  0.308298  0.566925  0.833441  1
  Cl  Cl23  1  0.691702  0.066925  0.666559  1
  Cl  Cl24  1  0.542555  0.391161  0.307455  1
  Cl  Cl25  1  0.457445  0.891161  0.192545  1
  Cl  Cl26  1  0.457445  0.608839  0.692545  1
  Cl  Cl27  1  0.542555  0.108839  0.807455  1
  Cl  Cl28  1  0.974217  0.236213  0.164251  1
  Cl  Cl29  1  0.025783  0.736213  0.335749  1
  Cl  Cl30  1  0.025783  0.763787  0.835749  1
  Cl  Cl31  1  0.974217  0.263787  0.664251  1
  Cl  Cl32  1  0.109836  0.286244  0.010948  1
  Cl  Cl33  1  0.890164  0.786244  0.489052  1
  Cl  Cl34  1  0.890164  0.713756  0.989052  1
  Cl  Cl35  1  0.109836  0.213756  0.510948  1
  Cl  Cl36  1  0.896788  0.379545  0.017551  1
  Cl  Cl37  1  0.103212  0.879545  0.482449  1
  Cl  Cl38  1  0.103212  0.620455  0.982449  1
  Cl  Cl39  1  0.896788  0.120455  0.517551  1
  Cl  Cl40  1  0.533543  0.427129  0.839461  1
  Cl  Cl41  1  0.466457  0.927129  0.660539  1
  Cl  Cl42  1  0.466457  0.572871  0.160539  1
  Cl  Cl43  1  0.533543  0.072871  0.339461  1
  Cl  Cl44  1  0.305706  0.236464  0.837905  1
  Cl  Cl45  1  0.694294  0.736464  0.662095  1
  Cl  Cl46  1  0.694294  0.763536  0.162095  1
  Cl  Cl47  1  0.305706  0.263536  0.337905  1
  Cl  Cl48  1  0.383055  0.385648  0.987570  1
  Cl  Cl49  1  0.616945  0.885648  0.512430  1
  Cl  Cl50  1  0.616945  0.614352  0.012430  1
  Cl  Cl51  1  0.383055  0.114352  0.487570  1
  Cl  Cl52  1  0.233471  0.386621  0.694444  1
  Cl  Cl53  1  0.766529  0.886621  0.805556  1
  Cl  Cl54  1  0.766529  0.613379  0.305556  1
  Cl  Cl55  1  0.233471  0.113379  0.194444  1
  Cl  Cl56  1  0.449565  0.282726  0.686709  1
  Cl  Cl57  1  0.550435  0.782726  0.813291  1
  Cl  Cl58  1  0.550435  0.717274  0.313291  1
  Cl  Cl59  1  0.449565  0.217274  0.186709  1
  Cl  Cl60  1  0.594278  0.282249  0.991260  1
  Cl  Cl61  1  0.405722  0.782249  0.508740  1
  Cl  Cl62  1  0.405722  0.717751  0.008740  1
  Cl  Cl63  1  0.594278  0.217751  0.491260  1
  Cl  Cl64  1  0.264883  0.596603  0.317544  1
  Cl  Cl65  1  0.735117  0.096603  0.182456  1
  Cl  Cl66  1  0.735117  0.403397  0.682456  1
  Cl  Cl67  1  0.264883  0.903397  0.817544  1
  Cl  Cl68  1  0.191224  0.445086  0.171112  1
  Cl  Cl69  1  0.808776  0.945086  0.328888  1
  Cl  Cl70  1  0.808776  0.554914  0.828888  1
  Cl  Cl71  1  0.191224  0.054914  0.671112  1
  Cl  Cl72  1  0.058264  0.391593  0.325496  1
  Cl  Cl73  1  0.941736  0.891593  0.174504  1
  Cl  Cl74  1  0.941736  0.608407  0.674504  1
  Cl  Cl75  1  0.058264  0.108407  0.825496  1
  Cl  Cl76  1  0.345881  0.448423  0.464426  1
  Cl  Cl77  1  0.654119  0.948423  0.035574  1
  Cl  Cl78  1  0.654119  0.551577  0.535574  1
  Cl  Cl79  1  0.345881  0.051577  0.964426  1
  Cl  Cl80  1  0.125725  0.539783  0.477661  1
  Cl  Cl81  1  0.874275  0.039783  0.022339  1
  Cl  Cl82  1  0.874275  0.460217  0.522339  1
  Cl  Cl83  1  0.125725  0.960217  0.977661  1
  Cl  Cl84  1  0.975555  0.539888  0.182679  1
  Cl  Cl85  1  0.024445  0.039888  0.317321  1
  Cl  Cl86  1  0.024445  0.460112  0.817321  1
  Cl  Cl87  1  0.975555  0.960112  0.682679  1
