# generated using pymatgen
data_Nd2WO6
_symmetry_space_group_name_H-M   'P 1'
_cell_length_a   5.45120799
_cell_length_b   9.42486799
_cell_length_c   10.29167049
_cell_angle_alpha   90.00000000
_cell_angle_beta   90.00000000
_cell_angle_gamma   90.00000000
_symmetry_Int_Tables_number   1
_chemical_formula_structural   Nd2WO6
_chemical_formula_sum   'Nd8 W4 O24'
_cell_volume   528.75428709
_cell_formula_units_Z   4
loop_
 _symmetry_equiv_pos_site_id
 _symmetry_equiv_pos_as_xyz
  1  'x, y, z'
loop_
 _atom_site_type_symbol
 _atom_site_label
 _atom_site_symmetry_multiplicity
 _atom_site_fract_x
 _atom_site_fract_y
 _atom_site_fract_z
 _atom_site_occupancy
  Nd  Nd0  1  0.477063  0.603750  0.537731  1
  Nd  Nd1  1  0.977063  0.896250  0.462269  1
  Nd  Nd2  1  0.522937  0.103750  0.962269  1
  Nd  Nd3  1  0.022937  0.396250  0.037731  1
  Nd  Nd4  1  0.965395  0.781271  0.868159  1
  Nd  Nd5  1  0.465395  0.718729  0.131841  1
  Nd  Nd6  1  0.034605  0.281271  0.631841  1
  Nd  Nd7  1  0.534605  0.218729  0.368159  1
  W  W8  1  0.459076  0.996239  0.647915  1
  W  W9  1  0.959076  0.503761  0.352085  1
  W  W10  1  0.540924  0.496239  0.852085  1
  W  W11  1  0.040924  0.003761  0.147915  1
  O  O12  1  0.251004  0.088380  0.508650  1
  O  O13  1  0.751004  0.411620  0.491350  1
  O  O14  1  0.748996  0.588380  0.991350  1
  O  O15  1  0.248996  0.911620  0.008650  1
  O  O16  1  0.723023  0.112244  0.565170  1
  O  O17  1  0.223023  0.387756  0.434830  1
  O  O18  1  0.276977  0.612244  0.934830  1
  O  O19  1  0.776977  0.887756  0.065170  1
  O  O20  1  0.575261  0.848226  0.527646  1
  O  O21  1  0.075261  0.651774  0.472354  1
  O  O22  1  0.424739  0.348226  0.972354  1
  O  O23  1  0.924739  0.151774  0.027646  1
  O  O24  1  0.183542  0.861808  0.259498  1
  O  O25  1  0.683542  0.638192  0.740502  1
  O  O26  1  0.816458  0.361808  0.240502  1
  O  O27  1  0.316458  0.138192  0.759498  1
  O  O28  1  0.830044  0.049335  0.288774  1
  O  O29  1  0.330044  0.450665  0.711226  1
  O  O30  1  0.169956  0.549335  0.211226  1
  O  O31  1  0.669956  0.950665  0.788774  1
  O  O32  1  0.310084  0.134663  0.178870  1
  O  O33  1  0.810084  0.365337  0.821130  1
  O  O34  1  0.689916  0.634663  0.321130  1
  O  O35  1  0.189916  0.865337  0.678870  1
