# generated using pymatgen
data_SrBe3O4
_symmetry_space_group_name_H-M   'P 1'
_cell_length_a   4.62219191
_cell_length_b   4.62219191
_cell_length_c   8.98741167
_cell_angle_alpha   90.00000000
_cell_angle_beta   90.00000000
_cell_angle_gamma   120.00000000
_symmetry_Int_Tables_number   1
_chemical_formula_structural   SrBe3O4
_chemical_formula_sum   'Sr2 Be6 O8'
_cell_volume   166.28811578
_cell_formula_units_Z   2
loop_
 _symmetry_equiv_pos_site_id
 _symmetry_equiv_pos_as_xyz
  1  'x, y, z'
loop_
 _atom_site_type_symbol
 _atom_site_label
 _atom_site_symmetry_multiplicity
 _atom_site_fract_x
 _atom_site_fract_y
 _atom_site_fract_z
 _atom_site_occupancy
  Sr  Sr0  1  0.666667  0.333333  0.750000  1
  Sr  Sr1  1  0.333333  0.666667  0.250000  1
  Be  Be2  1  0.000000  0.000000  0.000000  1
  Be  Be3  1  0.000000  0.000000  0.500000  1
  Be  Be4  1  0.333333  0.666667  0.571253  1
  Be  Be5  1  0.333333  0.666667  0.928747  1
  Be  Be6  1  0.666667  0.333333  0.428747  1
  Be  Be7  1  0.666667  0.333333  0.071253  1
  O  O8  1  0.666117  0.000000  0.500000  1
  O  O9  1  0.333883  0.333883  0.000000  1
  O  O10  1  0.666667  0.333333  0.250000  1
  O  O11  1  0.333333  0.666667  0.750000  1
  O  O12  1  0.666117  0.000000  0.000000  1
  O  O13  1  0.333883  0.333883  0.500000  1
  O  O14  1  0.000000  0.666117  0.500000  1
  O  O15  1  0.000000  0.666117  0.000000  1
