# generated using pymatgen
data_P4(SO2)3
_symmetry_space_group_name_H-M   'P 1'
_cell_length_a   10.18478069
_cell_length_b   8.68306379
_cell_length_c   12.95302576
_cell_angle_alpha   90.00000000
_cell_angle_beta   91.10393759
_cell_angle_gamma   90.00000000
_symmetry_Int_Tables_number   1
_chemical_formula_structural   P4(SO2)3
_chemical_formula_sum   'P16 S12 O24'
_cell_volume   1145.28951724
_cell_formula_units_Z   4
loop_
 _symmetry_equiv_pos_site_id
 _symmetry_equiv_pos_as_xyz
  1  'x, y, z'
loop_
 _atom_site_type_symbol
 _atom_site_label
 _atom_site_symmetry_multiplicity
 _atom_site_fract_x
 _atom_site_fract_y
 _atom_site_fract_z
 _atom_site_occupancy
  P  P0  1  0.329142  0.515048  0.132997  1
  P  P1  1  0.170858  0.015048  0.867003  1
  P  P2  1  0.949567  0.214158  0.265862  1
  P  P3  1  0.829142  0.984952  0.132997  1
  P  P4  1  0.599007  0.560802  0.209554  1
  P  P5  1  0.900993  0.060802  0.790446  1
  P  P6  1  0.400993  0.439198  0.790446  1
  P  P7  1  0.099007  0.939198  0.209554  1
  P  P8  1  0.375989  0.581631  0.349250  1
  P  P9  1  0.124011  0.081631  0.650750  1
  P  P10  1  0.624011  0.418369  0.650750  1
  P  P11  1  0.875989  0.918369  0.349250  1
  P  P12  1  0.449567  0.285842  0.265862  1
  P  P13  1  0.050433  0.785842  0.734138  1
  P  P14  1  0.550433  0.714158  0.734138  1
  P  P15  1  0.670858  0.484952  0.867003  1
  S  S16  1  0.306743  0.682207  0.464163  1
  S  S17  1  0.693257  0.317793  0.535837  1
  S  S18  1  0.806743  0.817793  0.464163  1
  S  S19  1  0.210237  0.545279  0.021877  1
  S  S20  1  0.289763  0.045279  0.978123  1
  S  S21  1  0.789763  0.454721  0.978123  1
  S  S22  1  0.710237  0.954721  0.021877  1
  S  S23  1  0.459294  0.074086  0.294800  1
  S  S24  1  0.040706  0.574086  0.705200  1
  S  S25  1  0.540706  0.925914  0.705200  1
  S  S26  1  0.959294  0.425914  0.294800  1
  S  S27  1  0.193257  0.182207  0.535837  1
  O  O28  1  0.478194  0.576035  0.119616  1
  O  O29  1  0.211610  0.095769  0.758122  1
  O  O30  1  0.711610  0.404231  0.758122  1
  O  O31  1  0.788390  0.904231  0.241878  1
  O  O32  1  0.519785  0.634461  0.310890  1
  O  O33  1  0.980215  0.134461  0.689110  1
  O  O34  1  0.480215  0.365539  0.689110  1
  O  O35  1  0.019785  0.865539  0.310890  1
  O  O36  1  0.353222  0.336347  0.168860  1
  O  O37  1  0.146778  0.836347  0.831140  1
  O  O38  1  0.646778  0.663653  0.831140  1
  O  O39  1  0.853222  0.163653  0.168860  1
  O  O40  1  0.085016  0.127322  0.237495  1
  O  O41  1  0.288390  0.595769  0.241878  1
  O  O42  1  0.414984  0.627322  0.762505  1
  O  O43  1  0.914984  0.872678  0.762505  1
  O  O44  1  0.021806  0.076035  0.880384  1
  O  O45  1  0.521806  0.423965  0.880384  1
  O  O46  1  0.978194  0.923965  0.119616  1
  O  O47  1  0.393375  0.394478  0.358341  1
  O  O48  1  0.106625  0.894478  0.641659  1
  O  O49  1  0.606625  0.605522  0.641659  1
  O  O50  1  0.893375  0.105522  0.358341  1
  O  O51  1  0.585016  0.372678  0.237495  1
