# generated using pymatgen
data_Na3VS4
_symmetry_space_group_name_H-M   'P 1'
_cell_length_a   13.58783743
_cell_length_b   13.58783743
_cell_length_c   8.01002668
_cell_angle_alpha   90.00000000
_cell_angle_beta   90.00000000
_cell_angle_gamma   90.00000000
_symmetry_Int_Tables_number   1
_chemical_formula_structural   Na3VS4
_chemical_formula_sum   'Na24 V8 S32'
_cell_volume   1478.88582736
_cell_formula_units_Z   8
loop_
 _symmetry_equiv_pos_site_id
 _symmetry_equiv_pos_as_xyz
  1  'x, y, z'
loop_
 _atom_site_type_symbol
 _atom_site_label
 _atom_site_symmetry_multiplicity
 _atom_site_fract_x
 _atom_site_fract_y
 _atom_site_fract_z
 _atom_site_occupancy
  Na  Na0  1  0.000000  0.500000  0.574240  1
  Na  Na1  1  0.500000  0.000000  0.425760  1
  Na  Na2  1  0.500000  0.000000  0.925760  1
  Na  Na3  1  0.000000  0.500000  0.074240  1
  Na  Na4  1  0.500000  0.500000  0.712307  1
  Na  Na5  1  0.500000  0.500000  0.287693  1
  Na  Na6  1  0.000000  0.000000  0.787693  1
  Na  Na7  1  0.000000  0.000000  0.212307  1
  Na  Na8  1  0.755696  0.455150  0.853750  1
  Na  Na9  1  0.544850  0.755696  0.146250  1
  Na  Na10  1  0.455150  0.244304  0.146250  1
  Na  Na11  1  0.244304  0.544850  0.853750  1
  Na  Na12  1  0.255696  0.044850  0.646250  1
  Na  Na13  1  0.744304  0.955150  0.646250  1
  Na  Na14  1  0.955150  0.255696  0.353750  1
  Na  Na15  1  0.044850  0.744304  0.353750  1
  Na  Na16  1  0.753530  0.200089  0.936288  1
  Na  Na17  1  0.799911  0.753530  0.063712  1
  Na  Na18  1  0.200089  0.246470  0.063712  1
  Na  Na19  1  0.246470  0.799911  0.936288  1
  Na  Na20  1  0.253530  0.299911  0.563712  1
  Na  Na21  1  0.746470  0.700089  0.563712  1
  Na  Na22  1  0.700089  0.253530  0.436288  1
  Na  Na23  1  0.299911  0.746470  0.436288  1
  V  V24  1  0.011161  0.261555  0.779550  1
  V  V25  1  0.238445  0.488839  0.279550  1
  V  V26  1  0.761555  0.511161  0.279550  1
  V  V27  1  0.488839  0.761555  0.720450  1
  V  V28  1  0.511161  0.238445  0.720450  1
  V  V29  1  0.988839  0.738445  0.779550  1
  V  V30  1  0.261555  0.988839  0.220450  1
  V  V31  1  0.738445  0.011161  0.220450  1
  S  S32  1  0.607809  0.113230  0.681554  1
  S  S33  1  0.161747  0.920479  0.395848  1
  S  S34  1  0.838253  0.079521  0.395848  1
  S  S35  1  0.920479  0.838253  0.604152  1
  S  S36  1  0.079521  0.161747  0.604152  1
  S  S37  1  0.420479  0.661747  0.895848  1
  S  S38  1  0.338253  0.420479  0.104152  1
  S  S39  1  0.661747  0.579521  0.104152  1
  S  S40  1  0.686568  0.491219  0.512903  1
  S  S41  1  0.508781  0.686568  0.487097  1
  S  S42  1  0.491219  0.313432  0.487097  1
  S  S43  1  0.313432  0.508781  0.512903  1
  S  S44  1  0.186568  0.008781  0.987097  1
  S  S45  1  0.813432  0.991219  0.987097  1
  S  S46  1  0.991219  0.186568  0.012903  1
  S  S47  1  0.008781  0.813432  0.012903  1
  S  S48  1  0.870904  0.309920  0.678287  1
  S  S49  1  0.690080  0.870904  0.321713  1
  S  S50  1  0.309920  0.129096  0.321713  1
  S  S51  1  0.129096  0.690080  0.678287  1
  S  S52  1  0.386770  0.892191  0.181554  1
  S  S53  1  0.629096  0.809920  0.821713  1
  S  S54  1  0.809920  0.370904  0.178287  1
  S  S55  1  0.190080  0.629096  0.178287  1
  S  S56  1  0.579521  0.338253  0.895848  1
  S  S57  1  0.886770  0.607809  0.318446  1
  S  S58  1  0.113230  0.392191  0.318446  1
  S  S59  1  0.392191  0.886770  0.681554  1
  S  S60  1  0.107809  0.386770  0.818446  1
  S  S61  1  0.892191  0.613230  0.818446  1
  S  S62  1  0.613230  0.107809  0.181554  1
  S  S63  1  0.370904  0.190080  0.821713  1
