# generated using pymatgen
data_Er(HO)3
_symmetry_space_group_name_H-M   'P 1'
_cell_length_a   6.32688368
_cell_length_b   6.32688368
_cell_length_c   3.48495925
_cell_angle_alpha   90.00000000
_cell_angle_beta   90.00000000
_cell_angle_gamma   120.00000000
_symmetry_Int_Tables_number   1
_chemical_formula_structural   Er(HO)3
_chemical_formula_sum   'Er2 H6 O6'
_cell_volume   120.81143311
_cell_formula_units_Z   2
loop_
 _symmetry_equiv_pos_site_id
 _symmetry_equiv_pos_as_xyz
  1  'x, y, z'
loop_
 _atom_site_type_symbol
 _atom_site_label
 _atom_site_symmetry_multiplicity
 _atom_site_fract_x
 _atom_site_fract_y
 _atom_site_fract_z
 _atom_site_occupancy
  Er  Er0  1  0.666667  0.333333  0.750000  1
  Er  Er1  1  0.333333  0.666667  0.250000  1
  H  H2  1  0.718553  0.862052  0.750000  1
  H  H3  1  0.856501  0.718553  0.250000  1
  H  H4  1  0.143499  0.281447  0.750000  1
  H  H5  1  0.281447  0.137948  0.250000  1
  H  H6  1  0.862052  0.143499  0.250000  1
  H  H7  1  0.137948  0.856501  0.750000  1
  O  O8  1  0.913598  0.601223  0.250000  1
  O  O9  1  0.601223  0.687625  0.750000  1
  O  O10  1  0.086402  0.398777  0.750000  1
  O  O11  1  0.398777  0.312375  0.250000  1
  O  O12  1  0.687625  0.086402  0.250000  1
  O  O13  1  0.312375  0.913598  0.750000  1
