# generated using pymatgen
data_Sn3BF9
_symmetry_space_group_name_H-M   'P 1'
_cell_length_a   10.54952852
_cell_length_b   7.79006502
_cell_length_c   10.95898932
_cell_angle_alpha   90.00000000
_cell_angle_beta   97.23356674
_cell_angle_gamma   90.00000000
_symmetry_Int_Tables_number   1
_chemical_formula_structural   Sn3BF9
_chemical_formula_sum   'Sn12 B4 F36'
_cell_volume   893.45833363
_cell_formula_units_Z   4
loop_
 _symmetry_equiv_pos_site_id
 _symmetry_equiv_pos_as_xyz
  1  'x, y, z'
loop_
 _atom_site_type_symbol
 _atom_site_label
 _atom_site_symmetry_multiplicity
 _atom_site_fract_x
 _atom_site_fract_y
 _atom_site_fract_z
 _atom_site_occupancy
  Sn  Sn0  1  0.815867  0.600514  0.940140  1
  Sn  Sn1  1  0.184133  0.100514  0.559860  1
  Sn  Sn2  1  0.184133  0.399486  0.059860  1
  Sn  Sn3  1  0.815867  0.899486  0.440140  1
  Sn  Sn4  1  0.701844  0.362399  0.555730  1
  Sn  Sn5  1  0.298156  0.862399  0.944270  1
  Sn  Sn6  1  0.298156  0.637601  0.444270  1
  Sn  Sn7  1  0.701844  0.137601  0.055730  1
  Sn  Sn8  1  0.558087  0.834916  0.685219  1
  Sn  Sn9  1  0.441913  0.334916  0.814781  1
  Sn  Sn10  1  0.441913  0.165084  0.314781  1
  Sn  Sn11  1  0.558087  0.665084  0.185219  1
  B  B12  1  0.907870  0.075086  0.803435  1
  B  B13  1  0.092130  0.575086  0.696565  1
  B  B14  1  0.092130  0.924914  0.196565  1
  B  B15  1  0.907870  0.424914  0.303435  1
  F  F16  1  0.960478  0.547432  0.674824  1
  F  F17  1  0.039522  0.047432  0.825176  1
  F  F18  1  0.039522  0.452568  0.325176  1
  F  F19  1  0.960478  0.952568  0.174824  1
  F  F20  1  0.873278  0.224953  0.865523  1
  F  F21  1  0.126722  0.724953  0.634477  1
  F  F22  1  0.126722  0.775047  0.134477  1
  F  F23  1  0.873278  0.275047  0.365523  1
  F  F24  1  0.540972  0.386382  0.406621  1
  F  F25  1  0.459028  0.886382  0.093379  1
  F  F26  1  0.459028  0.613618  0.593379  1
  F  F27  1  0.540972  0.113618  0.906621  1
  F  F28  1  0.570955  0.239485  0.172737  1
  F  F29  1  0.429045  0.739485  0.327263  1
  F  F30  1  0.429045  0.760515  0.827263  1
  F  F31  1  0.570955  0.260515  0.672737  1
  F  F32  1  0.676579  0.873331  0.278263  1
  F  F33  1  0.323421  0.373331  0.221737  1
  F  F34  1  0.323421  0.126669  0.721737  1
  F  F35  1  0.676579  0.626669  0.778263  1
  F  F36  1  0.676086  0.099426  0.473337  1
  F  F37  1  0.323914  0.599426  0.026663  1
  F  F38  1  0.323914  0.900574  0.526663  1
  F  F39  1  0.676086  0.400574  0.973337  1
  F  F40  1  0.695080  0.753456  0.033672  1
  F  F41  1  0.304920  0.253456  0.466328  1
  F  F42  1  0.304920  0.246544  0.966328  1
  F  F43  1  0.695080  0.746544  0.533672  1
  F  F44  1  0.839197  0.567283  0.345675  1
  F  F45  1  0.160803  0.067283  0.154325  1
  F  F46  1  0.160803  0.432717  0.654325  1
  F  F47  1  0.839197  0.932717  0.845675  1
  F  F48  1  0.868800  0.404580  0.174193  1
  F  F49  1  0.131200  0.904580  0.325807  1
  F  F50  1  0.131200  0.595420  0.825807  1
  F  F51  1  0.868800  0.095420  0.674193  1
