# generated using pymatgen
data_InAg(PSe3)2
_symmetry_space_group_name_H-M   'P 1'
_cell_length_a   6.58871865
_cell_length_b   6.58871865
_cell_length_c   14.51090557
_cell_angle_alpha   90.00000000
_cell_angle_beta   90.00000000
_cell_angle_gamma   120.00000000
_symmetry_Int_Tables_number   1
_chemical_formula_structural   InAg(PSe3)2
_chemical_formula_sum   'In2 Ag2 P4 Se12'
_cell_volume   545.54059509
_cell_formula_units_Z   2
loop_
 _symmetry_equiv_pos_site_id
 _symmetry_equiv_pos_as_xyz
  1  'x, y, z'
loop_
 _atom_site_type_symbol
 _atom_site_label
 _atom_site_symmetry_multiplicity
 _atom_site_fract_x
 _atom_site_fract_y
 _atom_site_fract_z
 _atom_site_occupancy
  In  In0  1  0.000000  0.000000  0.250000  1
  In  In1  1  0.000000  0.000000  0.750000  1
  Ag  Ag2  1  0.666667  0.333333  0.250000  1
  Ag  Ag3  1  0.333333  0.666667  0.750000  1
  P  P4  1  0.666667  0.333333  0.671286  1
  P  P5  1  0.666667  0.333333  0.828714  1
  P  P6  1  0.333333  0.666667  0.328714  1
  P  P7  1  0.333333  0.666667  0.171286  1
  Se  Se8  1  0.981881  0.320596  0.873068  1
  Se  Se9  1  0.338715  0.320596  0.626932  1
  Se  Se10  1  0.981881  0.661285  0.626932  1
  Se  Se11  1  0.679404  0.018119  0.626932  1
  Se  Se12  1  0.320596  0.338715  0.126932  1
  Se  Se13  1  0.661285  0.981881  0.126932  1
  Se  Se14  1  0.018119  0.679404  0.126932  1
  Se  Se15  1  0.661285  0.679404  0.373068  1
  Se  Se16  1  0.018119  0.338715  0.373068  1
  Se  Se17  1  0.320596  0.981881  0.373068  1
  Se  Se18  1  0.679404  0.661285  0.873068  1
  Se  Se19  1  0.338715  0.018119  0.873068  1
