# generated using pymatgen
data_Zr(IO3)4
_symmetry_space_group_name_H-M   'P 1'
_cell_length_a   8.52943825
_cell_length_b   8.52943825
_cell_length_c   7.54299003
_cell_angle_alpha   90.00000000
_cell_angle_beta   90.00000000
_cell_angle_gamma   90.00000000
_symmetry_Int_Tables_number   1
_chemical_formula_structural   Zr(IO3)4
_chemical_formula_sum   'Zr2 I8 O24'
_cell_volume   548.76245775
_cell_formula_units_Z   2
loop_
 _symmetry_equiv_pos_site_id
 _symmetry_equiv_pos_as_xyz
  1  'x, y, z'
loop_
 _atom_site_type_symbol
 _atom_site_label
 _atom_site_symmetry_multiplicity
 _atom_site_fract_x
 _atom_site_fract_y
 _atom_site_fract_z
 _atom_site_occupancy
  Zr  Zr0  1  0.000000  0.500000  0.054523  1
  Zr  Zr1  1  0.500000  0.000000  0.945477  1
  I  I2  1  0.754372  0.721703  0.727685  1
  I  I3  1  0.778297  0.254372  0.727685  1
  I  I4  1  0.278297  0.754372  0.272315  1
  I  I5  1  0.254372  0.221703  0.272315  1
  I  I6  1  0.745628  0.778297  0.272315  1
  I  I7  1  0.721703  0.245628  0.272315  1
  I  I8  1  0.245628  0.278297  0.727685  1
  I  I9  1  0.221703  0.745628  0.727685  1
  O  O10  1  0.204379  0.589047  0.901328  1
  O  O11  1  0.089047  0.295621  0.901328  1
  O  O12  1  0.910953  0.704379  0.901328  1
  O  O13  1  0.795621  0.410953  0.901328  1
  O  O14  1  0.295621  0.910953  0.098672  1
  O  O15  1  0.410953  0.204379  0.098672  1
  O  O16  1  0.589047  0.795621  0.098672  1
  O  O17  1  0.704379  0.089047  0.098672  1
  O  O18  1  0.427622  0.793198  0.782744  1
  O  O19  1  0.293198  0.072378  0.782744  1
  O  O20  1  0.744168  0.400646  0.554531  1
  O  O21  1  0.900646  0.755832  0.554531  1
  O  O22  1  0.099354  0.244168  0.554531  1
  O  O23  1  0.255832  0.599354  0.554531  1
  O  O24  1  0.755832  0.099354  0.445469  1
  O  O25  1  0.599354  0.744168  0.445469  1
  O  O26  1  0.400646  0.255832  0.445469  1
  O  O27  1  0.244168  0.900646  0.445469  1
  O  O28  1  0.927622  0.293198  0.217256  1
  O  O29  1  0.793198  0.572378  0.217256  1
  O  O30  1  0.206802  0.427622  0.217256  1
  O  O31  1  0.072378  0.706802  0.217256  1
  O  O32  1  0.572378  0.206802  0.782744  1
  O  O33  1  0.706802  0.927622  0.782744  1
