# generated using pymatgen
data_K2AgBi
_symmetry_space_group_name_H-M   'P 1'
_cell_length_a   6.87111378
_cell_length_b   6.87111378
_cell_length_c   6.48468382
_cell_angle_alpha   90.00000000
_cell_angle_beta   90.00000000
_cell_angle_gamma   103.51263963
_symmetry_Int_Tables_number   1
_chemical_formula_structural   K2AgBi
_chemical_formula_sum   'K4 Ag2 Bi2'
_cell_volume   297.68132463
_cell_formula_units_Z   2
loop_
 _symmetry_equiv_pos_site_id
 _symmetry_equiv_pos_as_xyz
  1  'x, y, z'
loop_
 _atom_site_type_symbol
 _atom_site_label
 _atom_site_symmetry_multiplicity
 _atom_site_fract_x
 _atom_site_fract_y
 _atom_site_fract_z
 _atom_site_occupancy
  K  K0  1  0.021384  0.672895  0.250000  1
  K  K1  1  0.978616  0.327105  0.750000  1
  K  K2  1  0.672895  0.021384  0.250000  1
  K  K3  1  0.327105  0.978616  0.750000  1
  Ag  Ag4  1  0.500000  0.500000  1.000000  1
  Ag  Ag5  1  0.500000  0.500000  0.500000  1
  Bi  Bi6  1  0.228767  0.228767  0.250000  1
  Bi  Bi7  1  0.771233  0.771233  0.750000  1
