# generated using pymatgen
data_Rb2PdI6
_symmetry_space_group_name_H-M   'P 1'
_cell_length_a   8.32968156
_cell_length_b   12.65806368
_cell_length_c   14.68168255
_cell_angle_alpha   90.00000000
_cell_angle_beta   90.00000000
_cell_angle_gamma   90.00000000
_symmetry_Int_Tables_number   1
_chemical_formula_structural   Rb2PdI6
_chemical_formula_sum   'Rb8 Pd4 I24'
_cell_volume   1548.00195373
_cell_formula_units_Z   4
loop_
 _symmetry_equiv_pos_site_id
 _symmetry_equiv_pos_as_xyz
  1  'x, y, z'
loop_
 _atom_site_type_symbol
 _atom_site_label
 _atom_site_symmetry_multiplicity
 _atom_site_fract_x
 _atom_site_fract_y
 _atom_site_fract_z
 _atom_site_occupancy
  Rb  Rb0  1  0.289277  0.015771  0.860996  1
  Rb  Rb1  1  0.789277  0.484229  0.639004  1
  Rb  Rb2  1  0.710723  0.515771  0.139004  1
  Rb  Rb3  1  0.210723  0.984229  0.360996  1
  Rb  Rb4  1  0.710723  0.984229  0.139004  1
  Rb  Rb5  1  0.210723  0.515771  0.360996  1
  Rb  Rb6  1  0.289277  0.484229  0.860996  1
  Rb  Rb7  1  0.789277  0.015771  0.639004  1
  Pd  Pd8  1  0.266323  0.250000  0.597760  1
  Pd  Pd9  1  0.766323  0.250000  0.902240  1
  Pd  Pd10  1  0.733677  0.750000  0.402240  1
  Pd  Pd11  1  0.233677  0.750000  0.097760  1
  I  I12  1  0.450037  0.250000  0.411890  1
  I  I13  1  0.950037  0.250000  0.088110  1
  I  I14  1  0.549963  0.750000  0.588110  1
  I  I15  1  0.049963  0.750000  0.911890  1
  I  I16  1  0.494720  0.250000  0.216668  1
  I  I17  1  0.994720  0.250000  0.283332  1
  I  I18  1  0.505280  0.750000  0.783332  1
  I  I19  1  0.005280  0.750000  0.716668  1
  I  I20  1  0.486630  0.250000  0.995505  1
  I  I21  1  0.986630  0.250000  0.504495  1
  I  I22  1  0.513370  0.750000  0.004495  1
  I  I23  1  0.013370  0.750000  0.495505  1
  I  I24  1  0.021496  0.250000  0.793951  1
  I  I25  1  0.521496  0.250000  0.706049  1
  I  I26  1  0.978504  0.750000  0.206049  1
  I  I27  1  0.478504  0.750000  0.293951  1
  I  I28  1  0.264336  0.038941  0.605358  1
  I  I29  1  0.764336  0.461059  0.894642  1
  I  I30  1  0.735664  0.538941  0.394642  1
  I  I31  1  0.235664  0.961059  0.105358  1
  I  I32  1  0.735664  0.961059  0.394642  1
  I  I33  1  0.235664  0.538941  0.105358  1
  I  I34  1  0.264336  0.461059  0.605358  1
  I  I35  1  0.764336  0.038941  0.894642  1
