# generated using pymatgen
data_KBe(H2N)3
_symmetry_space_group_name_H-M   'P 1'
_cell_length_a   11.29711354
_cell_length_b   13.09319568
_cell_length_c   13.28703312
_cell_angle_alpha   90.00000000
_cell_angle_beta   90.00000000
_cell_angle_gamma   90.00000000
_symmetry_Int_Tables_number   1
_chemical_formula_structural   KBe(H2N)3
_chemical_formula_sum   'K16 Be16 H96 N48'
_cell_volume   1965.35573186
_cell_formula_units_Z   16
loop_
 _symmetry_equiv_pos_site_id
 _symmetry_equiv_pos_as_xyz
  1  'x, y, z'
loop_
 _atom_site_type_symbol
 _atom_site_label
 _atom_site_symmetry_multiplicity
 _atom_site_fract_x
 _atom_site_fract_y
 _atom_site_fract_z
 _atom_site_occupancy
  K  K0  1  0.162533  0.961321  0.700896  1
  K  K1  1  0.662533  0.038679  0.799104  1
  K  K2  1  0.337467  0.461321  0.299104  1
  K  K3  1  0.837467  0.538679  0.200896  1
  K  K4  1  0.837467  0.038679  0.299104  1
  K  K5  1  0.337467  0.961321  0.200896  1
  K  K6  1  0.662533  0.538679  0.700896  1
  K  K7  1  0.162533  0.461321  0.799104  1
  K  K8  1  0.944149  0.841782  0.479943  1
  K  K9  1  0.444149  0.158218  0.020057  1
  K  K10  1  0.555851  0.341782  0.520057  1
  K  K11  1  0.055851  0.658218  0.979943  1
  K  K12  1  0.055851  0.158218  0.520057  1
  K  K13  1  0.555851  0.841782  0.979943  1
  K  K14  1  0.444149  0.658218  0.479943  1
  K  K15  1  0.944149  0.341782  0.020057  1
  Be  Be16  1  0.205067  0.949766  0.443438  1
  Be  Be17  1  0.794933  0.550234  0.943438  1
  Be  Be18  1  0.294933  0.449766  0.556562  1
  Be  Be19  1  0.294933  0.949766  0.943438  1
  Be  Be20  1  0.794933  0.050234  0.556562  1
  Be  Be21  1  0.205067  0.449766  0.056562  1
  Be  Be22  1  0.705067  0.550234  0.443438  1
  Be  Be23  1  0.969815  0.258860  0.253610  1
  Be  Be24  1  0.469815  0.741140  0.246390  1
  Be  Be25  1  0.530185  0.758860  0.746390  1
  Be  Be26  1  0.030185  0.241140  0.753610  1
  Be  Be27  1  0.030185  0.741140  0.746390  1
  Be  Be28  1  0.530185  0.258860  0.753610  1
  Be  Be29  1  0.469815  0.241140  0.253610  1
  Be  Be30  1  0.969815  0.758860  0.246390  1
  Be  Be31  1  0.705067  0.050234  0.056562  1
  H  H32  1  0.155265  0.777291  0.178592  1
  H  H33  1  0.655265  0.222709  0.321408  1
  H  H34  1  0.344735  0.277291  0.821408  1
  H  H35  1  0.844735  0.722709  0.678592  1
  H  H36  1  0.844735  0.222709  0.821408  1
  H  H37  1  0.344735  0.777291  0.678592  1
  H  H38  1  0.655265  0.722709  0.178592  1
  H  H39  1  0.155265  0.277291  0.321408  1
  H  H40  1  0.059008  0.852650  0.121733  1
  H  H41  1  0.559008  0.147350  0.378267  1
  H  H42  1  0.440992  0.352650  0.878267  1
  H  H43  1  0.940992  0.647350  0.621733  1
  H  H44  1  0.940992  0.147350  0.878267  1
  H  H45  1  0.440992  0.852650  0.621733  1
  H  H46  1  0.559008  0.647350  0.121733  1
  H  H47  1  0.059008  0.352650  0.378267  1
  H  H48  1  0.808204  0.851869  0.190251  1
  H  H49  1  0.308204  0.148131  0.309749  1
  H  H50  1  0.691796  0.351869  0.809749  1
  H  H51  1  0.191796  0.648131  0.690251  1
  H  H52  1  0.191796  0.148131  0.809749  1
  H  H53  1  0.691796  0.851869  0.690251  1
  H  H54  1  0.308204  0.648131  0.190251  1
  H  H55  1  0.808204  0.351869  0.309749  1
  H  H56  1  0.777018  0.790336  0.294832  1
  H  H57  1  0.277018  0.209664  0.205168  1
  H  H58  1  0.722982  0.290336  0.705168  1
  H  H59  1  0.222982  0.709664  0.794832  1
  H  H60  1  0.222982  0.209664  0.705168  1
  H  H61  1  0.722982  0.790336  0.794832  1
  H  H62  1  0.277018  0.709664  0.294832  1
  H  H63  1  0.777018  0.290336  0.205168  1
  H  H64  1  0.933039  0.646865  0.380865  1
  H  H65  1  0.433039  0.353135  0.119135  1
  H  H66  1  0.566961  0.146865  0.619135  1
  H  H67  1  0.066961  0.853135  0.880865  1
  H  H68  1  0.066961  0.353135  0.619135  1
  H  H69  1  0.566961  0.646865  0.880865  1
  H  H70  1  0.433039  0.853135  0.380865  1
  H  H71  1  0.933039  0.146865  0.119135  1
  H  H72  1  0.071282  0.634790  0.342150  1
  H  H73  1  0.571282  0.365210  0.157850  1
  H  H74  1  0.428718  0.134790  0.657850  1
  H  H75  1  0.853458  0.493096  0.545136  1
  H  H76  1  0.928718  0.865210  0.842150  1
  H  H77  1  0.428718  0.634790  0.842150  1
  H  H78  1  0.571282  0.865210  0.342150  1
  H  H79  1  0.071282  0.134790  0.157850  1
  H  H80  1  0.612292  0.443200  0.324388  1
  H  H81  1  0.112292  0.556800  0.175612  1
  H  H82  1  0.887708  0.943200  0.675612  1
  H  H83  1  0.387708  0.056800  0.824388  1
  H  H84  1  0.387708  0.556800  0.675612  1
  H  H85  1  0.887708  0.443200  0.824388  1
  H  H86  1  0.112292  0.056800  0.324388  1
  H  H87  1  0.612292  0.943200  0.175612  1
  H  H88  1  0.582844  0.564426  0.304794  1
  H  H89  1  0.082844  0.435574  0.195206  1
  H  H90  1  0.917156  0.064426  0.695206  1
  H  H91  1  0.417156  0.935574  0.804794  1
  H  H92  1  0.417156  0.435574  0.695206  1
  H  H93  1  0.917156  0.564426  0.804794  1
  H  H94  1  0.082844  0.935574  0.304794  1
  H  H95  1  0.582844  0.064426  0.195206  1
  H  H96  1  0.668413  0.726292  0.438539  1
  H  H97  1  0.168413  0.273708  0.061461  1
  H  H98  1  0.831587  0.226292  0.561461  1
  H  H99  1  0.331587  0.773708  0.938539  1
  H  H100  1  0.331587  0.273708  0.561461  1
  H  H101  1  0.831587  0.726292  0.938539  1
  H  H102  1  0.168413  0.773708  0.438539  1
  H  H103  1  0.668413  0.226292  0.061461  1
  H  H104  1  0.756109  0.697208  0.533754  1
  H  H105  1  0.256109  0.302792  0.966246  1
  H  H106  1  0.743891  0.197208  0.466246  1
  H  H107  1  0.243891  0.802792  0.033754  1
  H  H108  1  0.243891  0.302792  0.466246  1
  H  H109  1  0.743891  0.697208  0.033754  1
  H  H110  1  0.256109  0.802792  0.533754  1
  H  H111  1  0.756109  0.197208  0.966246  1
  H  H112  1  0.802843  0.898765  0.020334  1
  H  H113  1  0.302843  0.101235  0.479666  1
  H  H114  1  0.697157  0.398765  0.979666  1
  H  H115  1  0.197157  0.601235  0.520334  1
  H  H116  1  0.197157  0.101235  0.979666  1
  H  H117  1  0.697157  0.898765  0.520334  1
  H  H118  1  0.302843  0.601235  0.020334  1
  H  H119  1  0.802843  0.398765  0.479666  1
  H  H120  1  0.853458  0.993096  0.954864  1
  H  H121  1  0.353458  0.006904  0.545136  1
  H  H122  1  0.646542  0.493096  0.045136  1
  H  H123  1  0.146542  0.506904  0.454864  1
  H  H124  1  0.146542  0.006904  0.045136  1
  H  H125  1  0.646542  0.993096  0.454864  1
  H  H126  1  0.353458  0.506904  0.954864  1
  H  H127  1  0.928718  0.365210  0.657850  1
  N  N128  1  0.278988  0.032417  0.509539  1
  N  N129  1  0.493256  0.328777  0.171137  1
  N  N130  1  0.506744  0.171223  0.671137  1
  N  N131  1  0.006744  0.828777  0.828863  1
  N  N132  1  0.006744  0.328777  0.671137  1
  N  N133  1  0.506744  0.671223  0.828863  1
  N  N134  1  0.493256  0.828777  0.328863  1
  N  N135  1  0.993256  0.171223  0.171137  1
  N  N136  1  0.612592  0.513528  0.357509  1
  N  N137  1  0.112592  0.486472  0.142491  1
  N  N138  1  0.887408  0.013528  0.642491  1
  N  N139  1  0.387408  0.986472  0.857509  1
  N  N140  1  0.387408  0.486472  0.642491  1
  N  N141  1  0.887408  0.513528  0.857509  1
  N  N142  1  0.112592  0.986472  0.357509  1
  N  N143  1  0.612592  0.013528  0.142491  1
  N  N144  1  0.704485  0.667395  0.478303  1
  N  N145  1  0.204485  0.332605  0.021697  1
  N  N146  1  0.795515  0.167395  0.521697  1
  N  N147  1  0.295515  0.832605  0.978303  1
  N  N148  1  0.295515  0.332605  0.521697  1
  N  N149  1  0.795515  0.667395  0.978303  1
  N  N150  1  0.204485  0.832605  0.478303  1
  N  N151  1  0.704485  0.167395  0.021697  1
  N  N152  1  0.844733  0.318656  0.247664  1
  N  N153  1  0.278988  0.532417  0.990461  1
  N  N154  1  0.721012  0.967583  0.490461  1
  N  N155  1  0.221012  0.032417  0.009539  1
  N  N156  1  0.221012  0.532417  0.490461  1
  N  N157  1  0.721012  0.467583  0.009539  1
  N  N158  1  0.993256  0.671223  0.328863  1
  N  N159  1  0.778988  0.967583  0.990461  1
  N  N160  1  0.344733  0.681344  0.252336  1
  N  N161  1  0.655267  0.818656  0.752336  1
  N  N162  1  0.155267  0.181344  0.747664  1
  N  N163  1  0.155267  0.681344  0.752336  1
  N  N164  1  0.655267  0.318656  0.747664  1
  N  N165  1  0.344733  0.181344  0.247664  1
  N  N166  1  0.844733  0.818656  0.252336  1
  N  N167  1  0.067757  0.286363  0.338552  1
  N  N168  1  0.567757  0.713637  0.161448  1
  N  N169  1  0.432243  0.786363  0.661448  1
  N  N170  1  0.932243  0.213637  0.838552  1
  N  N171  1  0.932243  0.713637  0.661448  1
  N  N172  1  0.432243  0.286363  0.838552  1
  N  N173  1  0.567757  0.213637  0.338552  1
  N  N174  1  0.067757  0.786363  0.161448  1
  N  N175  1  0.778988  0.467583  0.509539  1
