# generated using pymatgen
data_K2Te2As
_symmetry_space_group_name_H-M   'P 1'
_cell_length_a   8.36750758
_cell_length_b   9.22282252
_cell_length_c   20.49369578
_cell_angle_alpha   90.00000000
_cell_angle_beta   90.00000000
_cell_angle_gamma   90.00000000
_symmetry_Int_Tables_number   1
_chemical_formula_structural   K2Te2As
_chemical_formula_sum   'K16 Te16 As8'
_cell_volume   1581.54025607
_cell_formula_units_Z   8
loop_
 _symmetry_equiv_pos_site_id
 _symmetry_equiv_pos_as_xyz
  1  'x, y, z'
loop_
 _atom_site_type_symbol
 _atom_site_label
 _atom_site_symmetry_multiplicity
 _atom_site_fract_x
 _atom_site_fract_y
 _atom_site_fract_z
 _atom_site_occupancy
  K  K0  1  0.250000  0.419596  0.543421  1
  K  K1  1  0.750000  0.580404  0.456579  1
  K  K2  1  0.750000  0.919596  0.956579  1
  K  K3  1  0.250000  0.080404  0.043421  1
  K  K4  1  0.250000  0.498462  0.188204  1
  K  K5  1  0.750000  0.501538  0.811796  1
  K  K6  1  0.750000  0.998462  0.311796  1
  K  K7  1  0.250000  0.001538  0.688204  1
  K  K8  1  0.250000  0.603759  0.716436  1
  K  K9  1  0.750000  0.396241  0.283564  1
  K  K10  1  0.750000  0.103759  0.783564  1
  K  K11  1  0.250000  0.896241  0.216436  1
  K  K12  1  0.250000  0.925247  0.442562  1
  K  K13  1  0.750000  0.074753  0.557438  1
  K  K14  1  0.750000  0.425247  0.057438  1
  K  K15  1  0.250000  0.574753  0.942562  1
  Te  Te16  1  0.996713  0.238959  0.417982  1
  Te  Te17  1  0.496713  0.761041  0.582018  1
  Te  Te18  1  0.003287  0.738959  0.082018  1
  Te  Te19  1  0.503287  0.261041  0.917982  1
  Te  Te20  1  0.003287  0.761041  0.582018  1
  Te  Te21  1  0.503287  0.238959  0.417982  1
  Te  Te22  1  0.996713  0.261041  0.917982  1
  Te  Te23  1  0.496713  0.738959  0.082018  1
  Te  Te24  1  0.991970  0.180869  0.179146  1
  Te  Te25  1  0.491970  0.819131  0.820854  1
  Te  Te26  1  0.008030  0.680869  0.320854  1
  Te  Te27  1  0.508030  0.319131  0.679146  1
  Te  Te28  1  0.008030  0.819131  0.820854  1
  Te  Te29  1  0.508030  0.180869  0.179146  1
  Te  Te30  1  0.991970  0.319131  0.679146  1
  Te  Te31  1  0.491970  0.680869  0.320854  1
  As  As32  1  0.250000  0.312523  0.348967  1
  As  As33  1  0.750000  0.687477  0.651033  1
  As  As34  1  0.750000  0.812523  0.151033  1
  As  As35  1  0.250000  0.187477  0.848967  1
  As  As36  1  0.250000  0.573028  0.386786  1
  As  As37  1  0.750000  0.426972  0.613214  1
  As  As38  1  0.750000  0.073028  0.113214  1
  As  As39  1  0.250000  0.926972  0.886786  1
