# generated using pymatgen
data_Na3YBr6
_symmetry_space_group_name_H-M   'P 1'
_cell_length_a   7.30558208
_cell_length_b   7.76749609
_cell_length_c   13.08500819
_cell_angle_alpha   90.00000000
_cell_angle_beta   123.34595281
_cell_angle_gamma   90.00000000
_symmetry_Int_Tables_number   1
_chemical_formula_structural   Na3YBr6
_chemical_formula_sum   'Na6 Y2 Br12'
_cell_volume   620.27897074
_cell_formula_units_Z   2
loop_
 _symmetry_equiv_pos_site_id
 _symmetry_equiv_pos_as_xyz
  1  'x, y, z'
loop_
 _atom_site_type_symbol
 _atom_site_label
 _atom_site_symmetry_multiplicity
 _atom_site_fract_x
 _atom_site_fract_y
 _atom_site_fract_z
 _atom_site_occupancy
  Na  Na0  1  0.500000  0.500000  0.000000  1
  Na  Na1  1  0.707135  0.585100  0.735166  1
  Na  Na2  1  0.292865  0.085100  0.764834  1
  Na  Na3  1  0.500000  0.000000  0.500000  1
  Na  Na4  1  0.707135  0.914900  0.235166  1
  Na  Na5  1  0.292865  0.414900  0.264834  1
  Y  Y6  1  0.000000  0.500000  0.500000  1
  Y  Y7  1  0.000000  0.000000  0.000000  1
  Br  Br8  1  0.618586  0.678923  0.434700  1
  Br  Br9  1  0.381414  0.178923  0.065300  1
  Br  Br10  1  0.751440  0.306116  0.919806  1
  Br  Br11  1  0.248560  0.806116  0.580194  1
  Br  Br12  1  0.248560  0.693884  0.080194  1
  Br  Br13  1  0.751440  0.193884  0.419806  1
  Br  Br14  1  0.096674  0.062899  0.237976  1
  Br  Br15  1  0.903326  0.562899  0.262024  1
  Br  Br16  1  0.903326  0.937101  0.762024  1
  Br  Br17  1  0.096674  0.437101  0.737976  1
  Br  Br18  1  0.618586  0.821077  0.934700  1
  Br  Br19  1  0.381414  0.321077  0.565300  1
