# generated using pymatgen
data_NaZnP3(H4O5)2
_symmetry_space_group_name_H-M   'P 1'
_cell_length_a   9.34676271
_cell_length_b   14.84485349
_cell_length_c   14.98446890
_cell_angle_alpha   90.00000000
_cell_angle_beta   90.00000000
_cell_angle_gamma   90.00000000
_symmetry_Int_Tables_number   1
_chemical_formula_structural   NaZnP3(H4O5)2
_chemical_formula_sum   'Na8 Zn8 P24 H64 O80'
_cell_volume   2079.11488486
_cell_formula_units_Z   8
loop_
 _symmetry_equiv_pos_site_id
 _symmetry_equiv_pos_as_xyz
  1  'x, y, z'
loop_
 _atom_site_type_symbol
 _atom_site_label
 _atom_site_symmetry_multiplicity
 _atom_site_fract_x
 _atom_site_fract_y
 _atom_site_fract_z
 _atom_site_occupancy
  Na  Na0  1  0.074463  0.163876  0.426659  1
  Na  Na1  1  0.574463  0.336124  0.573341  1
  Na  Na2  1  0.925537  0.663876  0.073341  1
  Na  Na3  1  0.425537  0.836124  0.926659  1
  Na  Na4  1  0.925537  0.836124  0.573341  1
  Na  Na5  1  0.425537  0.663876  0.426659  1
  Na  Na6  1  0.074463  0.336124  0.926659  1
  Na  Na7  1  0.574463  0.163876  0.073341  1
  Zn  Zn8  1  0.448412  0.161629  0.452174  1
  Zn  Zn9  1  0.948412  0.338371  0.547826  1
  Zn  Zn10  1  0.551588  0.661629  0.047826  1
  Zn  Zn11  1  0.051588  0.838371  0.952174  1
  Zn  Zn12  1  0.551588  0.838371  0.547826  1
  Zn  Zn13  1  0.051588  0.661629  0.452174  1
  Zn  Zn14  1  0.448412  0.338371  0.952174  1
  Zn  Zn15  1  0.948412  0.161629  0.047826  1
  P  P16  1  0.239869  0.224691  0.616897  1
  P  P17  1  0.739869  0.275309  0.383103  1
  P  P18  1  0.760131  0.724691  0.883103  1
  P  P19  1  0.260131  0.775309  0.116897  1
  P  P20  1  0.760131  0.775309  0.383103  1
  P  P21  1  0.260131  0.724691  0.616897  1
  P  P22  1  0.239869  0.275309  0.116897  1
  P  P23  1  0.739869  0.224691  0.883103  1
  P  P24  1  0.465964  0.031634  0.261550  1
  P  P25  1  0.965964  0.468366  0.738450  1
  P  P26  1  0.534036  0.531634  0.238450  1
  P  P27  1  0.034036  0.968366  0.761550  1
  P  P28  1  0.534036  0.968366  0.738450  1
  P  P29  1  0.034036  0.531634  0.261550  1
  P  P30  1  0.465964  0.468366  0.761550  1
  P  P31  1  0.965964  0.031634  0.238450  1
  P  P32  1  0.277842  0.967650  0.483380  1
  P  P33  1  0.777842  0.532350  0.516620  1
  P  P34  1  0.722158  0.467650  0.016620  1
  P  P35  1  0.222158  0.032350  0.983380  1
  P  P36  1  0.722158  0.032350  0.516620  1
  P  P37  1  0.222158  0.467650  0.483380  1
  P  P38  1  0.277842  0.532350  0.983380  1
  P  P39  1  0.777842  0.967650  0.016620  1
  H  H40  1  0.235845  0.139516  0.657877  1
  H  H41  1  0.735845  0.360484  0.342123  1
  H  H42  1  0.764155  0.639516  0.842123  1
  H  H43  1  0.264155  0.860484  0.157877  1
  H  H44  1  0.764155  0.860484  0.342123  1
  H  H45  1  0.264155  0.639516  0.657877  1
  H  H46  1  0.235845  0.360484  0.157877  1
  H  H47  1  0.735845  0.139516  0.842123  1
  H  H48  1  0.315409  0.036286  0.262219  1
  H  H49  1  0.815409  0.463714  0.737781  1
  H  H50  1  0.684591  0.536286  0.237781  1
  H  H51  1  0.184591  0.963714  0.762219  1
  H  H52  1  0.684591  0.963714  0.737781  1
  H  H53  1  0.184591  0.536286  0.262219  1
  H  H54  1  0.315409  0.463714  0.762219  1
  H  H55  1  0.815409  0.036286  0.237781  1
  H  H56  1  0.238880  0.951847  0.572663  1
  H  H57  1  0.738880  0.548153  0.427337  1
  H  H58  1  0.761120  0.451847  0.927337  1
  H  H59  1  0.261120  0.048153  0.072663  1
  H  H60  1  0.761120  0.048153  0.427337  1
  H  H61  1  0.261120  0.451847  0.572663  1
  H  H62  1  0.238880  0.548153  0.072663  1
  H  H63  1  0.738880  0.951847  0.927337  1
  H  H64  1  0.293847  0.234680  0.311384  1
  H  H65  1  0.793847  0.265320  0.688616  1
  H  H66  1  0.706153  0.734680  0.188616  1
  H  H67  1  0.206153  0.765320  0.811384  1
  H  H68  1  0.706153  0.765320  0.688616  1
  H  H69  1  0.206153  0.734680  0.311384  1
  H  H70  1  0.293847  0.265320  0.811384  1
  H  H71  1  0.793847  0.234680  0.188616  1
  H  H72  1  0.313258  0.306604  0.389782  1
  H  H73  1  0.813258  0.193396  0.610218  1
  H  H74  1  0.686742  0.806604  0.110218  1
  H  H75  1  0.186742  0.693396  0.889782  1
  H  H76  1  0.686742  0.693396  0.610218  1
  H  H77  1  0.186742  0.806604  0.389782  1
  H  H78  1  0.313258  0.193396  0.889782  1
  H  H79  1  0.813258  0.306604  0.110218  1
  H  H80  1  0.151795  0.335829  0.695911  1
  H  H81  1  0.651795  0.164171  0.304089  1
  H  H82  1  0.848205  0.835829  0.804089  1
  H  H83  1  0.348205  0.664171  0.195911  1
  H  H84  1  0.848205  0.664171  0.304089  1
  H  H85  1  0.348205  0.835829  0.695911  1
  H  H86  1  0.151795  0.164171  0.195911  1
  H  H87  1  0.651795  0.335829  0.804089  1
  H  H88  1  0.473610  0.923496  0.361935  1
  H  H89  1  0.973610  0.576504  0.638065  1
  H  H90  1  0.526390  0.423496  0.138065  1
  H  H91  1  0.026390  0.076504  0.861935  1
  H  H92  1  0.526390  0.076504  0.638065  1
  H  H93  1  0.026390  0.423496  0.361935  1
  H  H94  1  0.473610  0.576504  0.861935  1
  H  H95  1  0.973610  0.923496  0.138065  1
  H  H96  1  0.095330  0.967586  0.386232  1
  H  H97  1  0.595330  0.532414  0.613768  1
  H  H98  1  0.904670  0.467586  0.113768  1
  H  H99  1  0.404670  0.032414  0.886232  1
  H  H100  1  0.904670  0.032414  0.613768  1
  H  H101  1  0.404670  0.467586  0.386232  1
  H  H102  1  0.095330  0.532414  0.886232  1
  H  H103  1  0.595330  0.967586  0.113768  1
  O  O104  1  0.381315  0.234511  0.567533  1
  O  O105  1  0.881315  0.265489  0.432467  1
  O  O106  1  0.618685  0.734511  0.932467  1
  O  O107  1  0.118685  0.765489  0.067533  1
  O  O108  1  0.618685  0.765489  0.432467  1
  O  O109  1  0.118685  0.734511  0.567533  1
  O  O110  1  0.381315  0.265489  0.067533  1
  O  O111  1  0.881315  0.234511  0.932467  1
  O  O112  1  0.520988  0.105626  0.324558  1
  O  O113  1  0.020988  0.394374  0.675442  1
  O  O114  1  0.479012  0.605626  0.175442  1
  O  O115  1  0.979012  0.894374  0.824558  1
  O  O116  1  0.479012  0.894374  0.675442  1
  O  O117  1  0.979012  0.605626  0.324558  1
  O  O118  1  0.520988  0.394374  0.824558  1
  O  O119  1  0.020988  0.105626  0.175442  1
  O  O120  1  0.584308  0.084357  0.535484  1
  O  O121  1  0.084308  0.415643  0.464516  1
  O  O122  1  0.415692  0.584357  0.964516  1
  O  O123  1  0.915692  0.915643  0.035484  1
  O  O124  1  0.415692  0.915643  0.464516  1
  O  O125  1  0.915692  0.584357  0.535484  1
  O  O126  1  0.584308  0.415643  0.035484  1
  O  O127  1  0.084308  0.084357  0.964516  1
  O  O128  1  0.280307  0.068559  0.465084  1
  O  O129  1  0.780307  0.431441  0.534916  1
  O  O130  1  0.719693  0.568559  0.034916  1
  O  O131  1  0.219693  0.931441  0.965084  1
  O  O132  1  0.719693  0.931441  0.534916  1
  O  O133  1  0.219693  0.568559  0.465084  1
  O  O134  1  0.280307  0.431441  0.965084  1
  O  O135  1  0.780307  0.068559  0.034916  1
  O  O136  1  0.603526  0.262275  0.437004  1
  O  O137  1  0.103526  0.237725  0.562996  1
  O  O138  1  0.396474  0.762275  0.062996  1
  O  O139  1  0.896474  0.737725  0.937004  1
  O  O140  1  0.396474  0.737725  0.562996  1
  O  O141  1  0.896474  0.762275  0.437004  1
  O  O142  1  0.603526  0.237725  0.937004  1
  O  O143  1  0.103526  0.262275  0.062996  1
  O  O144  1  0.293979  0.242294  0.377055  1
  O  O145  1  0.793979  0.257706  0.622945  1
  O  O146  1  0.706021  0.742294  0.122945  1
  O  O147  1  0.206021  0.757706  0.877055  1
  O  O148  1  0.706021  0.757706  0.622945  1
  O  O149  1  0.206021  0.742294  0.377055  1
  O  O150  1  0.293979  0.257706  0.877055  1
  O  O151  1  0.793979  0.242294  0.122945  1
  O  O152  1  0.239337  0.293337  0.699616  1
  O  O153  1  0.739337  0.206663  0.300384  1
  O  O154  1  0.760663  0.793337  0.800384  1
  O  O155  1  0.260663  0.706663  0.199616  1
  O  O156  1  0.760663  0.706663  0.300384  1
  O  O157  1  0.260663  0.793337  0.699616  1
  O  O158  1  0.239337  0.206663  0.199616  1
  O  O159  1  0.739337  0.293337  0.800384  1
  O  O160  1  0.503462  0.933976  0.297486  1
  O  O161  1  0.003462  0.566024  0.702514  1
  O  O162  1  0.496538  0.433976  0.202514  1
  O  O163  1  0.996538  0.066024  0.797486  1
  O  O164  1  0.496538  0.066024  0.702514  1
  O  O165  1  0.996538  0.433976  0.297486  1
  O  O166  1  0.503462  0.566024  0.797486  1
  O  O167  1  0.003462  0.933976  0.202514  1
  O  O168  1  0.520157  0.038846  0.166258  1
  O  O169  1  0.020157  0.461154  0.833742  1
  O  O170  1  0.479843  0.538846  0.333742  1
  O  O171  1  0.979843  0.961154  0.666258  1
  O  O172  1  0.479843  0.961154  0.833742  1
  O  O173  1  0.979843  0.538846  0.166258  1
  O  O174  1  0.520157  0.461154  0.666258  1
  O  O175  1  0.020157  0.038846  0.333742  1
  O  O176  1  0.151334  0.922798  0.427186  1
  O  O177  1  0.651334  0.577202  0.572814  1
  O  O178  1  0.848666  0.422798  0.072814  1
  O  O179  1  0.348666  0.077202  0.927186  1
  O  O180  1  0.848666  0.077202  0.572814  1
  O  O181  1  0.348666  0.422798  0.427186  1
  O  O182  1  0.151334  0.577202  0.927186  1
  O  O183  1  0.651334  0.922798  0.072814  1
