# generated using pymatgen
data_KGaSb2
_symmetry_space_group_name_H-M   'P 1'
_cell_length_a   9.97629679
_cell_length_b   9.97629679
_cell_length_c   30.08393161
_cell_angle_alpha   90.00000000
_cell_angle_beta   90.00000000
_cell_angle_gamma   133.83321097
_symmetry_Int_Tables_number   1
_chemical_formula_structural   KGaSb2
_chemical_formula_sum   'K16 Ga16 Sb32'
_cell_volume   2159.85559489
_cell_formula_units_Z   16
loop_
 _symmetry_equiv_pos_site_id
 _symmetry_equiv_pos_as_xyz
  1  'x, y, z'
loop_
 _atom_site_type_symbol
 _atom_site_label
 _atom_site_symmetry_multiplicity
 _atom_site_fract_x
 _atom_site_fract_y
 _atom_site_fract_z
 _atom_site_occupancy
  K  K0  1  0.280753  0.280753  0.000000  1
  K  K1  1  0.219247  0.219247  0.500000  1
  K  K2  1  0.719247  0.719247  0.000000  1
  K  K3  1  0.780753  0.780753  0.500000  1
  K  K4  1  0.343105  0.656895  0.193737  1
  K  K5  1  0.656895  0.343105  0.806263  1
  K  K6  1  0.156895  0.843105  0.693737  1
  K  K7  1  0.843105  0.156895  0.306263  1
  K  K8  1  0.201904  0.798096  0.010975  1
  K  K9  1  0.798096  0.201904  0.989025  1
  K  K10  1  0.298096  0.701904  0.510975  1
  K  K11  1  0.701904  0.298096  0.489025  1
  K  K12  1  0.651943  0.848057  0.750000  1
  K  K13  1  0.848057  0.651943  0.250000  1
  K  K14  1  0.348057  0.151943  0.250000  1
  K  K15  1  0.151943  0.348057  0.750000  1
  Ga  Ga16  1  0.449931  0.994421  0.375053  1
  Ga  Ga17  1  0.994421  0.449931  0.624947  1
  Ga  Ga18  1  0.050069  0.505579  0.875053  1
  Ga  Ga19  1  0.505579  0.050069  0.124947  1
  Ga  Ga20  1  0.550069  0.005579  0.624947  1
  Ga  Ga21  1  0.005579  0.550069  0.375053  1
  Ga  Ga22  1  0.949931  0.494421  0.124947  1
  Ga  Ga23  1  0.494421  0.949931  0.875053  1
  Ga  Ga24  1  0.734136  0.811314  0.129653  1
  Ga  Ga25  1  0.811314  0.734136  0.870347  1
  Ga  Ga26  1  0.765864  0.688686  0.629653  1
  Ga  Ga27  1  0.688686  0.765864  0.370347  1
  Ga  Ga28  1  0.265864  0.188686  0.870347  1
  Ga  Ga29  1  0.188686  0.265864  0.129653  1
  Ga  Ga30  1  0.234136  0.311314  0.370347  1
  Ga  Ga31  1  0.311314  0.234136  0.629653  1
  Sb  Sb32  1  0.848463  0.151537  0.846255  1
  Sb  Sb33  1  0.151537  0.848463  0.153745  1
  Sb  Sb34  1  0.651537  0.348463  0.346255  1
  Sb  Sb35  1  0.348463  0.651537  0.653745  1
  Sb  Sb36  1  0.264945  0.735055  0.307524  1
  Sb  Sb37  1  0.735055  0.264945  0.692476  1
  Sb  Sb38  1  0.235055  0.764945  0.807524  1
  Sb  Sb39  1  0.764945  0.235055  0.192476  1
  Sb  Sb40  1  0.453218  0.546782  0.584925  1
  Sb  Sb41  1  0.546782  0.453218  0.415075  1
  Sb  Sb42  1  0.046782  0.953218  0.084925  1
  Sb  Sb43  1  0.953218  0.046782  0.915075  1
  Sb  Sb44  1  0.138328  0.861672  0.420570  1
  Sb  Sb45  1  0.861672  0.138328  0.579430  1
  Sb  Sb46  1  0.361672  0.638328  0.920570  1
  Sb  Sb47  1  0.638328  0.361672  0.079430  1
  Sb  Sb48  1  0.956723  0.043277  0.654914  1
  Sb  Sb49  1  0.043277  0.956723  0.345086  1
  Sb  Sb50  1  0.543277  0.456723  0.154914  1
  Sb  Sb51  1  0.456723  0.543277  0.845086  1
  Sb  Sb52  1  0.420931  0.579069  0.304942  1
  Sb  Sb53  1  0.579069  0.420931  0.695058  1
  Sb  Sb54  1  0.079069  0.920931  0.804942  1
  Sb  Sb55  1  0.920931  0.079069  0.195058  1
  Sb  Sb56  1  0.336336  0.031276  0.576105  1
  Sb  Sb57  1  0.031276  0.336336  0.423895  1
  Sb  Sb58  1  0.163664  0.468724  0.076105  1
  Sb  Sb59  1  0.468724  0.163664  0.923895  1
  Sb  Sb60  1  0.663664  0.968724  0.423895  1
  Sb  Sb61  1  0.968724  0.663664  0.576105  1
  Sb  Sb62  1  0.836336  0.531276  0.923895  1
  Sb  Sb63  1  0.531276  0.836336  0.076105  1
