# generated using pymatgen
data_NdAl3(PbO4)2
_symmetry_space_group_name_H-M   'P 1'
_cell_length_a   9.63269295
_cell_length_b   9.63269295
_cell_length_c   9.63269295
_cell_angle_alpha   90.00000000
_cell_angle_beta   90.00000000
_cell_angle_gamma   90.00000000
_symmetry_Int_Tables_number   1
_chemical_formula_structural   NdAl3(PbO4)2
_chemical_formula_sum   'Nd4 Al12 Pb8 O32'
_cell_volume   893.80576403
_cell_formula_units_Z   4
loop_
 _symmetry_equiv_pos_site_id
 _symmetry_equiv_pos_as_xyz
  1  'x, y, z'
loop_
 _atom_site_type_symbol
 _atom_site_label
 _atom_site_symmetry_multiplicity
 _atom_site_fract_x
 _atom_site_fract_y
 _atom_site_fract_z
 _atom_site_occupancy
  Nd  Nd0  1  0.750000  0.750000  0.750000  1
  Nd  Nd1  1  0.250000  0.250000  0.750000  1
  Nd  Nd2  1  0.750000  0.250000  0.250000  1
  Nd  Nd3  1  0.250000  0.750000  0.250000  1
  Al  Al4  1  0.500000  0.000000  0.250000  1
  Al  Al5  1  0.500000  0.250000  0.000000  1
  Al  Al6  1  0.500000  0.750000  0.000000  1
  Al  Al7  1  0.500000  0.000000  0.750000  1
  Al  Al8  1  0.000000  0.500000  0.250000  1
  Al  Al9  1  0.250000  0.500000  0.000000  1
  Al  Al10  1  0.250000  0.000000  0.500000  1
  Al  Al11  1  0.000000  0.500000  0.750000  1
  Al  Al12  1  0.750000  0.000000  0.500000  1
  Al  Al13  1  0.000000  0.750000  0.500000  1
  Al  Al14  1  0.750000  0.500000  0.000000  1
  Al  Al15  1  0.000000  0.250000  0.500000  1
  Pb  Pb16  1  0.867231  0.132769  0.867231  1
  Pb  Pb17  1  0.867231  0.867231  0.132769  1
  Pb  Pb18  1  0.132769  0.132769  0.132769  1
  Pb  Pb19  1  0.367231  0.632769  0.632769  1
  Pb  Pb20  1  0.132769  0.867231  0.867231  1
  Pb  Pb21  1  0.632769  0.367231  0.632769  1
  Pb  Pb22  1  0.367231  0.367231  0.367231  1
  Pb  Pb23  1  0.632769  0.632769  0.367231  1
  O  O24  1  0.843563  0.513659  0.843563  1
  O  O25  1  0.986341  0.343563  0.343563  1
  O  O26  1  0.156437  0.486341  0.843563  1
  O  O27  1  0.843563  0.156437  0.486341  1
  O  O28  1  0.343563  0.343563  0.986341  1
  O  O29  1  0.343563  0.656437  0.013659  1
  O  O30  1  0.609235  0.390765  0.390765  1
  O  O31  1  0.390765  0.609235  0.390765  1
  O  O32  1  0.109235  0.890765  0.109235  1
  O  O33  1  0.890765  0.890765  0.890765  1
  O  O34  1  0.843563  0.486341  0.156437  1
  O  O35  1  0.656437  0.013659  0.343563  1
  O  O36  1  0.109235  0.109235  0.890765  1
  O  O37  1  0.890765  0.109235  0.109235  1
  O  O38  1  0.609235  0.609235  0.609235  1
  O  O39  1  0.156437  0.156437  0.513659  1
  O  O40  1  0.656437  0.343563  0.013659  1
  O  O41  1  0.986341  0.656437  0.656437  1
  O  O42  1  0.656437  0.986341  0.656437  1
  O  O43  1  0.486341  0.843563  0.156437  1
  O  O44  1  0.513659  0.843563  0.843563  1
  O  O45  1  0.156437  0.513659  0.156437  1
  O  O46  1  0.343563  0.013659  0.656437  1
  O  O47  1  0.843563  0.843563  0.513659  1
  O  O48  1  0.343563  0.986341  0.343563  1
  O  O49  1  0.156437  0.843563  0.486341  1
  O  O50  1  0.656437  0.656437  0.986341  1
  O  O51  1  0.390765  0.390765  0.609235  1
  O  O52  1  0.513659  0.156437  0.156437  1
  O  O53  1  0.013659  0.656437  0.343563  1
  O  O54  1  0.013659  0.343563  0.656437  1
  O  O55  1  0.486341  0.156437  0.843563  1
