# generated using pymatgen
data_Ga2TeO6
_symmetry_space_group_name_H-M   'P 1'
_cell_length_a   4.62573517
_cell_length_b   4.62573517
_cell_length_c   9.10721251
_cell_angle_alpha   90.00000000
_cell_angle_beta   90.00000000
_cell_angle_gamma   90.00000000
_symmetry_Int_Tables_number   1
_chemical_formula_structural   Ga2TeO6
_chemical_formula_sum   'Ga4 Te2 O12'
_cell_volume   194.87090450
_cell_formula_units_Z   2
loop_
 _symmetry_equiv_pos_site_id
 _symmetry_equiv_pos_as_xyz
  1  'x, y, z'
loop_
 _atom_site_type_symbol
 _atom_site_label
 _atom_site_symmetry_multiplicity
 _atom_site_fract_x
 _atom_site_fract_y
 _atom_site_fract_z
 _atom_site_occupancy
  Ga  Ga0  1  0.000000  0.000000  0.334803  1
  Ga  Ga1  1  0.500000  0.500000  0.834803  1
  Ga  Ga2  1  0.500000  0.500000  0.165197  1
  Ga  Ga3  1  0.000000  0.000000  0.665197  1
  Te  Te4  1  0.500000  0.500000  0.500000  1
  Te  Te5  1  0.000000  0.000000  0.000000  1
  O  O6  1  0.807454  0.807454  0.836516  1
  O  O7  1  0.192546  0.192546  0.836516  1
  O  O8  1  0.807454  0.807454  0.163484  1
  O  O9  1  0.307454  0.692546  0.336516  1
  O  O10  1  0.692546  0.307454  0.336516  1
  O  O11  1  0.692546  0.307454  0.663484  1
  O  O12  1  0.301455  0.698545  0.000000  1
  O  O13  1  0.801455  0.801455  0.500000  1
  O  O14  1  0.198545  0.198545  0.500000  1
  O  O15  1  0.698545  0.301455  0.000000  1
  O  O16  1  0.192546  0.192546  0.163484  1
  O  O17  1  0.307454  0.692546  0.663484  1
