# generated using pymatgen
data_Ga2TeSe2
_symmetry_space_group_name_H-M   'P 1'
_cell_length_a   7.60693112
_cell_length_b   7.60693112
_cell_length_c   7.60693112
_cell_angle_alpha   121.48964739
_cell_angle_beta   121.48964739
_cell_angle_gamma   87.43865645
_symmetry_Int_Tables_number   1
_chemical_formula_structural   Ga2TeSe2
_chemical_formula_sum   'Ga4 Te2 Se4'
_cell_volume   303.91472659
_cell_formula_units_Z   2
loop_
 _symmetry_equiv_pos_site_id
 _symmetry_equiv_pos_as_xyz
  1  'x, y, z'
loop_
 _atom_site_type_symbol
 _atom_site_label
 _atom_site_symmetry_multiplicity
 _atom_site_fract_x
 _atom_site_fract_y
 _atom_site_fract_z
 _atom_site_occupancy
  Ga  Ga0  1  0.651400  0.426169  0.225231  1
  Ga  Ga1  1  0.176169  0.450938  0.274769  1
  Ga  Ga2  1  0.176169  0.901400  0.725231  1
  Ga  Ga3  1  0.200938  0.426169  0.774769  1
  Te  Te4  1  0.030333  0.030333  0.000000  1
  Te  Te5  1  0.780333  0.280333  0.500000  1
  Se  Se6  1  0.901296  0.649165  0.252131  1
  Se  Se7  1  0.399165  0.647034  0.247869  1
  Se  Se8  1  0.399165  0.151296  0.752131  1
  Se  Se9  1  0.397034  0.649165  0.747869  1
