# generated using pymatgen
data_BF3
_symmetry_space_group_name_H-M   'P 1'
_cell_length_a   4.81414481
_cell_length_b   7.51828913
_cell_length_c   14.31127118
_cell_angle_alpha   92.89748412
_cell_angle_beta   89.16342402
_cell_angle_gamma   107.28023378
_symmetry_Int_Tables_number   1
_chemical_formula_structural   BF3
_chemical_formula_sum   'B8 F24'
_cell_volume   493.97161408
_cell_formula_units_Z   8
loop_
 _symmetry_equiv_pos_site_id
 _symmetry_equiv_pos_as_xyz
  1  'x, y, z'
loop_
 _atom_site_type_symbol
 _atom_site_label
 _atom_site_symmetry_multiplicity
 _atom_site_fract_x
 _atom_site_fract_y
 _atom_site_fract_z
 _atom_site_occupancy
  B  B0  1  0.864525  0.238785  0.364087  1
  B  B1  1  0.135475  0.761215  0.635913  1
  B  B2  1  0.479903  0.725714  0.383482  1
  B  B3  1  0.520097  0.274286  0.616518  1
  B  B4  1  0.860276  0.734400  0.134979  1
  B  B5  1  0.139724  0.265600  0.865021  1
  B  B6  1  0.525477  0.778805  0.883814  1
  B  B7  1  0.474523  0.221195  0.116186  1
  F  F8  1  0.770717  0.295572  0.444796  1
  F  F9  1  0.229283  0.704428  0.555204  1
  F  F10  1  0.073574  0.157401  0.362677  1
  F  F11  1  0.926426  0.842599  0.637323  1
  F  F12  1  0.746529  0.265451  0.284372  1
  F  F13  1  0.253471  0.734549  0.715628  1
  F  F14  1  0.712496  0.699849  0.421874  1
  F  F15  1  0.287504  0.300151  0.578126  1
  F  F16  1  0.266838  0.580462  0.349846  1
  F  F17  1  0.733162  0.419538  0.650154  1
  F  F18  1  0.457441  0.897155  0.377649  1
  F  F19  1  0.542559  0.102845  0.622351  1
  F  F20  1  0.070113  0.653844  0.135542  1
  F  F21  1  0.929887  0.346156  0.864458  1
  F  F22  1  0.750275  0.781192  0.215252  1
  F  F23  1  0.249725  0.218808  0.784748  1
  F  F24  1  0.757861  0.770658  0.054603  1
  F  F25  1  0.242139  0.229342  0.945397  1
  F  F26  1  0.539256  0.605883  0.866666  1
  F  F27  1  0.460744  0.394117  0.133334  1
  F  F28  1  0.296025  0.808154  0.926390  1
  F  F29  1  0.703975  0.191846  0.073610  1
  F  F30  1  0.744456  0.922015  0.857274  1
  F  F31  1  0.255544  0.077985  0.142726  1
