# generated using pymatgen
data_HfPbO3
_symmetry_space_group_name_H-M   'P 1'
_cell_length_a   5.89738698
_cell_length_b   8.24181270
_cell_length_c   11.78521845
_cell_angle_alpha   90.00000000
_cell_angle_beta   90.00000000
_cell_angle_gamma   90.00000000
_symmetry_Int_Tables_number   1
_chemical_formula_structural   HfPbO3
_chemical_formula_sum   'Hf8 Pb8 O24'
_cell_volume   572.82241553
_cell_formula_units_Z   8
loop_
 _symmetry_equiv_pos_site_id
 _symmetry_equiv_pos_as_xyz
  1  'x, y, z'
loop_
 _atom_site_type_symbol
 _atom_site_label
 _atom_site_symmetry_multiplicity
 _atom_site_fract_x
 _atom_site_fract_y
 _atom_site_fract_z
 _atom_site_occupancy
  Hf  Hf0  1  0.257213  0.250404  0.623875  1
  Hf  Hf1  1  0.757213  0.749596  0.876125  1
  Hf  Hf2  1  0.742787  0.250404  0.376125  1
  Hf  Hf3  1  0.242787  0.749596  0.123875  1
  Hf  Hf4  1  0.742787  0.749596  0.376125  1
  Hf  Hf5  1  0.242787  0.250404  0.123875  1
  Hf  Hf6  1  0.257213  0.749596  0.623875  1
  Hf  Hf7  1  0.757213  0.250404  0.876125  1
  Pb  Pb8  1  0.205365  0.500000  0.375418  1
  Pb  Pb9  1  0.705365  0.500000  0.124582  1
  Pb  Pb10  1  0.794635  0.500000  0.624582  1
  Pb  Pb11  1  0.294635  0.500000  0.875418  1
  Pb  Pb12  1  0.210045  0.000000  0.370102  1
  Pb  Pb13  1  0.710045  0.000000  0.129898  1
  Pb  Pb14  1  0.789955  0.000000  0.629898  1
  Pb  Pb15  1  0.289955  0.000000  0.870102  1
  O  O16  1  0.500000  0.269941  0.500000  1
  O  O17  1  0.000000  0.730059  0.000000  1
  O  O18  1  0.500000  0.730059  0.500000  1
  O  O19  1  0.000000  0.269941  0.000000  1
  O  O20  1  0.500000  0.290866  0.000000  1
  O  O21  1  0.000000  0.709134  0.500000  1
  O  O22  1  0.500000  0.709134  0.000000  1
  O  O23  1  0.000000  0.290866  0.500000  1
  O  O24  1  0.474817  0.221978  0.759190  1
  O  O25  1  0.974817  0.778022  0.740810  1
  O  O26  1  0.525183  0.221978  0.240810  1
  O  O27  1  0.025183  0.778022  0.259190  1
  O  O28  1  0.525183  0.778022  0.240810  1
  O  O29  1  0.025183  0.221978  0.259190  1
  O  O30  1  0.474817  0.778022  0.759190  1
  O  O31  1  0.974817  0.221978  0.740810  1
  O  O32  1  0.709973  0.000000  0.902066  1
  O  O33  1  0.209973  0.000000  0.597934  1
  O  O34  1  0.290027  0.000000  0.097934  1
  O  O35  1  0.790027  0.000000  0.402066  1
  O  O36  1  0.731206  0.500000  0.846378  1
  O  O37  1  0.231206  0.500000  0.653622  1
  O  O38  1  0.268794  0.500000  0.153622  1
  O  O39  1  0.768794  0.500000  0.346378  1
