# generated using pymatgen
data_Cd2As3Br
_symmetry_space_group_name_H-M   'P 1'
_cell_length_a   6.41327694
_cell_length_b   6.41327694
_cell_length_c   8.18268891
_cell_angle_alpha   82.66127338
_cell_angle_beta   97.33872662
_cell_angle_gamma   82.39405816
_symmetry_Int_Tables_number   1
_chemical_formula_structural   Cd2As3Br
_chemical_formula_sum   'Cd4 As6 Br2'
_cell_volume   327.26046374
_cell_formula_units_Z   2
loop_
 _symmetry_equiv_pos_site_id
 _symmetry_equiv_pos_as_xyz
  1  'x, y, z'
loop_
 _atom_site_type_symbol
 _atom_site_label
 _atom_site_symmetry_multiplicity
 _atom_site_fract_x
 _atom_site_fract_y
 _atom_site_fract_z
 _atom_site_occupancy
  Cd  Cd0  1  0.388226  0.912997  0.291951  1
  Cd  Cd1  1  0.912997  0.388226  0.208049  1
  Cd  Cd2  1  0.087003  0.611774  0.791951  1
  Cd  Cd3  1  0.611774  0.087003  0.708049  1
  As  As4  1  0.174159  0.920327  0.971700  1
  As  As5  1  0.920327  0.174159  0.528300  1
  As  As6  1  0.825841  0.079673  0.028300  1
  As  As7  1  0.790902  0.790902  0.250000  1
  As  As8  1  0.209098  0.209098  0.750000  1
  As  As9  1  0.079673  0.825841  0.471700  1
  Br  Br10  1  0.361627  0.361627  0.250000  1
  Br  Br11  1  0.638373  0.638373  0.750000  1
