# generated using pymatgen
data_AuSeCl7
_symmetry_space_group_name_H-M   'P 1'
_cell_length_a   9.07677188
_cell_length_b   10.50578020
_cell_length_c   13.04930780
_cell_angle_alpha   90.00000000
_cell_angle_beta   108.47027912
_cell_angle_gamma   90.00000000
_symmetry_Int_Tables_number   1
_chemical_formula_structural   AuSeCl7
_chemical_formula_sum   'Au4 Se4 Cl28'
_cell_volume   1180.26384243
_cell_formula_units_Z   4
loop_
 _symmetry_equiv_pos_site_id
 _symmetry_equiv_pos_as_xyz
  1  'x, y, z'
loop_
 _atom_site_type_symbol
 _atom_site_label
 _atom_site_symmetry_multiplicity
 _atom_site_fract_x
 _atom_site_fract_y
 _atom_site_fract_z
 _atom_site_occupancy
  Au  Au0  1  0.785960  0.078952  0.952245  1
  Au  Au1  1  0.214040  0.578952  0.547755  1
  Au  Au2  1  0.214040  0.921048  0.047755  1
  Au  Au3  1  0.785960  0.421048  0.452245  1
  Se  Se4  1  0.766803  0.719775  0.002706  1
  Se  Se5  1  0.233197  0.219775  0.497294  1
  Se  Se6  1  0.233197  0.280225  0.997294  1
  Se  Se7  1  0.766803  0.780225  0.502706  1
  Cl  Cl8  1  0.542702  0.707212  0.033847  1
  Cl  Cl9  1  0.457298  0.207212  0.466153  1
  Cl  Cl10  1  0.457298  0.292788  0.966153  1
  Cl  Cl11  1  0.542702  0.792788  0.533847  1
  Cl  Cl12  1  0.632716  0.583832  0.352179  1
  Cl  Cl13  1  0.367284  0.083832  0.147821  1
  Cl  Cl14  1  0.367284  0.416168  0.647821  1
  Cl  Cl15  1  0.632716  0.916168  0.852179  1
  Cl  Cl16  1  0.836008  0.542759  0.610830  1
  Cl  Cl17  1  0.163992  0.042759  0.889170  1
  Cl  Cl18  1  0.163992  0.457241  0.389170  1
  Cl  Cl19  1  0.836008  0.957241  0.110830  1
  Cl  Cl20  1  0.943465  0.260329  0.551557  1
  Cl  Cl21  1  0.056535  0.760329  0.948443  1
  Cl  Cl22  1  0.056535  0.739671  0.448443  1
  Cl  Cl23  1  0.943465  0.239671  0.051557  1
  Cl  Cl24  1  0.727593  0.299292  0.298288  1
  Cl  Cl25  1  0.272407  0.799292  0.201712  1
  Cl  Cl26  1  0.272407  0.700708  0.701712  1
  Cl  Cl27  1  0.727593  0.200708  0.798288  1
  Cl  Cl28  1  0.722545  0.571032  0.877091  1
  Cl  Cl29  1  0.277455  0.071032  0.622909  1
  Cl  Cl30  1  0.277455  0.428968  0.122909  1
  Cl  Cl31  1  0.722545  0.928968  0.377091  1
  Cl  Cl32  1  0.897886  0.892773  0.643993  1
  Cl  Cl33  1  0.102114  0.392773  0.856007  1
  Cl  Cl34  1  0.102114  0.107227  0.356007  1
  Cl  Cl35  1  0.897886  0.607227  0.143993  1
