# generated using pymatgen
data_CsNO3
_symmetry_space_group_name_H-M   'P 1'
_cell_length_a   5.21069754
_cell_length_b   5.72366880
_cell_length_c   6.25279838
_cell_angle_alpha   90.00000000
_cell_angle_beta   90.00000000
_cell_angle_gamma   90.00000000
_symmetry_Int_Tables_number   1
_chemical_formula_structural   CsNO3
_chemical_formula_sum   'Cs2 N2 O6'
_cell_volume   186.48537809
_cell_formula_units_Z   2
loop_
 _symmetry_equiv_pos_site_id
 _symmetry_equiv_pos_as_xyz
  1  'x, y, z'
loop_
 _atom_site_type_symbol
 _atom_site_label
 _atom_site_symmetry_multiplicity
 _atom_site_fract_x
 _atom_site_fract_y
 _atom_site_fract_z
 _atom_site_occupancy
  Cs  Cs0  1  0.595970  0.500000  0.000000  1
  Cs  Cs1  1  0.404030  0.000000  0.500000  1
  N  N2  1  0.003674  0.000000  0.000000  1
  N  N3  1  0.996326  0.500000  0.500000  1
  O  O4  1  0.118077  0.500000  0.676010  1
  O  O5  1  0.881923  0.000000  0.823990  1
  O  O6  1  0.751965  0.500000  0.500000  1
  O  O7  1  0.248035  0.000000  0.000000  1
  O  O8  1  0.118077  0.500000  0.323990  1
  O  O9  1  0.881923  0.000000  0.176010  1
