# generated using pymatgen
data_Li3Bi2(PO4)3
_symmetry_space_group_name_H-M   'P 1'
_cell_length_a   8.87366507
_cell_length_b   9.36366837
_cell_length_c   15.56377750
_cell_angle_alpha   90.00000000
_cell_angle_beta   123.31893078
_cell_angle_gamma   90.00000000
_symmetry_Int_Tables_number   1
_chemical_formula_structural   Li3Bi2(PO4)3
_chemical_formula_sum   'Li12 Bi8 P12 O48'
_cell_volume   1080.62738919
_cell_formula_units_Z   4
loop_
 _symmetry_equiv_pos_site_id
 _symmetry_equiv_pos_as_xyz
  1  'x, y, z'
loop_
 _atom_site_type_symbol
 _atom_site_label
 _atom_site_symmetry_multiplicity
 _atom_site_fract_x
 _atom_site_fract_y
 _atom_site_fract_z
 _atom_site_occupancy
  Li  Li0  1  0.594012  0.507516  0.649240  1
  Li  Li1  1  0.405988  0.492484  0.350760  1
  Li  Li2  1  0.775025  0.915528  0.682969  1
  Li  Li3  1  0.360967  0.218800  0.184689  1
  Li  Li4  1  0.639033  0.718800  0.315311  1
  Li  Li5  1  0.224975  0.415528  0.817031  1
  Li  Li6  1  0.594012  0.992484  0.149240  1
  Li  Li7  1  0.405988  0.007516  0.850760  1
  Li  Li8  1  0.775025  0.584472  0.182969  1
  Li  Li9  1  0.224975  0.084472  0.317031  1
  Li  Li10  1  0.639033  0.781200  0.815311  1
  Li  Li11  1  0.360967  0.281200  0.684689  1
  Bi  Bi12  1  0.334915  0.542833  0.094535  1
  Bi  Bi13  1  0.129523  0.959914  0.907850  1
  Bi  Bi14  1  0.665085  0.042833  0.405465  1
  Bi  Bi15  1  0.870477  0.459914  0.592150  1
  Bi  Bi16  1  0.129523  0.540086  0.407850  1
  Bi  Bi17  1  0.334915  0.957167  0.594535  1
  Bi  Bi18  1  0.870477  0.040086  0.092150  1
  Bi  Bi19  1  0.665085  0.457167  0.905465  1
  P  P20  1  0.291295  0.600745  0.664654  1
  P  P21  1  0.934364  0.880866  0.325135  1
  P  P22  1  0.552210  0.759087  0.992283  1
  P  P23  1  0.447790  0.240913  0.007717  1
  P  P24  1  0.065636  0.119134  0.674865  1
  P  P25  1  0.708705  0.399255  0.335346  1
  P  P26  1  0.291295  0.899255  0.164654  1
  P  P27  1  0.934364  0.619134  0.825135  1
  P  P28  1  0.447790  0.259087  0.507717  1
  P  P29  1  0.065636  0.380866  0.174865  1
  P  P30  1  0.708705  0.100745  0.835346  1
  P  P31  1  0.552210  0.740913  0.492283  1
  O  O32  1  0.353559  0.200788  0.560807  1
  O  O33  1  0.909803  0.778998  0.794452  1
  O  O34  1  0.363442  0.002055  0.259079  1
  O  O35  1  0.677893  0.629951  0.577332  1
  O  O36  1  0.257850  0.430925  0.203359  1
  O  O37  1  0.629388  0.328702  0.589230  1
  O  O38  1  0.915986  0.116397  0.895639  1
  O  O39  1  0.465524  0.134934  0.447374  1
  O  O40  1  0.534476  0.865066  0.552626  1
  O  O41  1  0.084014  0.883603  0.104361  1
  O  O42  1  0.370612  0.671298  0.410770  1
  O  O43  1  0.742150  0.569075  0.796641  1
  O  O44  1  0.322107  0.370049  0.422668  1
  O  O45  1  0.636558  0.997945  0.740921  1
  O  O46  1  0.090197  0.221002  0.205548  1
  O  O47  1  0.927338  0.393148  0.057945  1
  O  O48  1  0.614422  0.248778  0.800843  1
  O  O49  1  0.072662  0.606852  0.942055  1
  O  O50  1  0.005772  0.475121  0.233350  1
  O  O51  1  0.659361  0.026634  0.906899  1
  O  O52  1  0.340639  0.526634  0.593101  1
  O  O53  1  0.994228  0.975121  0.266650  1
  O  O54  1  0.646441  0.700788  0.939193  1
  O  O55  1  0.385578  0.748778  0.699157  1
  O  O56  1  0.072662  0.893148  0.442055  1
  O  O57  1  0.909803  0.721002  0.294452  1
  O  O58  1  0.363442  0.497945  0.759079  1
  O  O59  1  0.677893  0.870049  0.077332  1
  O  O60  1  0.257850  0.069075  0.703359  1
  O  O61  1  0.629388  0.171298  0.089230  1
  O  O62  1  0.465524  0.365066  0.947374  1
  O  O63  1  0.915986  0.383603  0.395639  1
  O  O64  1  0.084014  0.616397  0.604361  1
  O  O65  1  0.534476  0.634934  0.052626  1
  O  O66  1  0.370612  0.828702  0.910770  1
  O  O67  1  0.742150  0.930925  0.296641  1
  O  O68  1  0.322107  0.129951  0.922668  1
  O  O69  1  0.636558  0.502055  0.240921  1
  O  O70  1  0.090197  0.278998  0.705548  1
  O  O71  1  0.927338  0.106852  0.557945  1
  O  O72  1  0.385578  0.751222  0.199157  1
  O  O73  1  0.353559  0.299212  0.060807  1
  O  O74  1  0.005772  0.024879  0.733350  1
  O  O75  1  0.659361  0.473366  0.406899  1
  O  O76  1  0.340639  0.973366  0.093101  1
  O  O77  1  0.994228  0.524879  0.766650  1
  O  O78  1  0.646441  0.799212  0.439193  1
  O  O79  1  0.614422  0.251222  0.300843  1
