# generated using pymatgen
data_LiCu(PO3)2
_symmetry_space_group_name_H-M   'P 1'
_cell_length_a   7.57894294
_cell_length_b   7.57894294
_cell_length_c   4.78514465
_cell_angle_alpha   74.49965285
_cell_angle_beta   105.50034715
_cell_angle_gamma   88.23815209
_symmetry_Int_Tables_number   1
_chemical_formula_structural   LiCu(PO3)2
_chemical_formula_sum   'Li2 Cu2 P4 O12'
_cell_volume   253.68064149
_cell_formula_units_Z   2
loop_
 _symmetry_equiv_pos_site_id
 _symmetry_equiv_pos_as_xyz
  1  'x, y, z'
loop_
 _atom_site_type_symbol
 _atom_site_label
 _atom_site_symmetry_multiplicity
 _atom_site_fract_x
 _atom_site_fract_y
 _atom_site_fract_z
 _atom_site_occupancy
  Li  Li0  1  0.771715  0.771715  0.250000  1
  Li  Li1  1  0.228285  0.228285  0.750000  1
  Cu  Cu2  1  0.901098  0.901098  0.750000  1
  Cu  Cu3  1  0.098902  0.098902  0.250000  1
  P  P4  1  0.799205  0.370653  0.737034  1
  P  P5  1  0.200795  0.629347  0.262966  1
  P  P6  1  0.629347  0.200795  0.237034  1
  P  P7  1  0.370653  0.799205  0.762966  1
  O  O8  1  0.355835  0.707887  0.491319  1
  O  O9  1  0.567305  0.813055  0.901085  1
  O  O10  1  0.813055  0.567305  0.598915  1
  O  O11  1  0.975058  0.236652  0.849783  1
  O  O12  1  0.236652  0.975058  0.650217  1
  O  O13  1  0.024942  0.763348  0.150217  1
  O  O14  1  0.186945  0.432695  0.401085  1
  O  O15  1  0.707887  0.355835  0.008681  1
  O  O16  1  0.763348  0.024942  0.349783  1
  O  O17  1  0.292113  0.644165  0.991319  1
  O  O18  1  0.644165  0.292113  0.508681  1
  O  O19  1  0.432695  0.186945  0.098915  1
