# generated using pymatgen
data_K2ZrTe3
_symmetry_space_group_name_H-M   'P 1'
_cell_length_a   7.01039528
_cell_length_b   14.36595555
_cell_length_c   9.31569545
_cell_angle_alpha   90.00000000
_cell_angle_beta   106.00668414
_cell_angle_gamma   90.00000000
_symmetry_Int_Tables_number   1
_chemical_formula_structural   K2ZrTe3
_chemical_formula_sum   'K8 Zr4 Te12'
_cell_volume   901.81906583
_cell_formula_units_Z   4
loop_
 _symmetry_equiv_pos_site_id
 _symmetry_equiv_pos_as_xyz
  1  'x, y, z'
loop_
 _atom_site_type_symbol
 _atom_site_label
 _atom_site_symmetry_multiplicity
 _atom_site_fract_x
 _atom_site_fract_y
 _atom_site_fract_z
 _atom_site_occupancy
  K  K0  1  0.663271  0.963687  0.344312  1
  K  K1  1  0.836729  0.463687  0.655688  1
  K  K2  1  0.336729  0.036313  0.655688  1
  K  K3  1  0.163271  0.536313  0.344312  1
  K  K4  1  0.058010  0.862773  0.101754  1
  K  K5  1  0.441990  0.362773  0.898246  1
  K  K6  1  0.941990  0.137227  0.898246  1
  K  K7  1  0.558010  0.637227  0.101754  1
  Zr  Zr8  1  0.690761  0.749331  0.707368  1
  Zr  Zr9  1  0.809239  0.249331  0.292632  1
  Zr  Zr10  1  0.309239  0.250669  0.292632  1
  Zr  Zr11  1  0.190761  0.750669  0.707368  1
  Te  Te12  1  0.927205  0.915194  0.726214  1
  Te  Te13  1  0.572795  0.415194  0.273786  1
  Te  Te14  1  0.072795  0.084806  0.273786  1
  Te  Te15  1  0.427205  0.584806  0.726214  1
  Te  Te16  1  0.334782  0.812076  0.465291  1
  Te  Te17  1  0.165218  0.312076  0.534709  1
  Te  Te18  1  0.665218  0.187924  0.534709  1
  Te  Te19  1  0.834782  0.687924  0.465291  1
  Te  Te20  1  0.501057  0.849212  0.921731  1
  Te  Te21  1  0.998943  0.349212  0.078269  1
  Te  Te22  1  0.498943  0.150788  0.078269  1
  Te  Te23  1  0.001057  0.650788  0.921731  1
