# generated using pymatgen
data_Nd2MoO6
_symmetry_space_group_name_H-M   'P 1'
_cell_length_a   16.51126369
_cell_length_b   16.51126369
_cell_length_c   16.51126369
_cell_angle_alpha   159.98680805
_cell_angle_beta   159.98680805
_cell_angle_gamma   28.45065923
_symmetry_Int_Tables_number   1
_chemical_formula_structural   Nd2MoO6
_chemical_formula_sum   'Nd8 Mo4 O24'
_cell_volume   526.96648494
_cell_formula_units_Z   4
loop_
 _symmetry_equiv_pos_site_id
 _symmetry_equiv_pos_as_xyz
  1  'x, y, z'
loop_
 _atom_site_type_symbol
 _atom_site_label
 _atom_site_symmetry_multiplicity
 _atom_site_fract_x
 _atom_site_fract_y
 _atom_site_fract_z
 _atom_site_occupancy
  Nd  Nd0  1  0.837389  0.837389  0.000000  1
  Nd  Nd1  1  0.587389  0.087389  0.500000  1
  Nd  Nd2  1  0.412611  0.912611  0.500000  1
  Nd  Nd3  1  0.662611  0.662611  0.000000  1
  Nd  Nd4  1  0.912611  0.412611  0.500000  1
  Nd  Nd5  1  0.162611  0.162611  0.000000  1
  Nd  Nd6  1  0.337389  0.337389  0.000000  1
  Nd  Nd7  1  0.087389  0.587389  0.500000  1
  Mo  Mo8  1  0.000000  0.000000  0.000000  1
  Mo  Mo9  1  0.750000  0.250000  0.500000  1
  Mo  Mo10  1  0.250000  0.750000  0.500000  1
  Mo  Mo11  1  0.500000  0.500000  0.000000  1
  O  O12  1  0.868639  0.375000  0.993639  1
  O  O13  1  0.125000  0.631361  0.006361  1
  O  O14  1  0.625000  0.118639  0.993639  1
  O  O15  1  0.381361  0.875000  0.006361  1
  O  O16  1  0.881361  0.875000  0.506361  1
  O  O17  1  0.625000  0.618639  0.493639  1
  O  O18  1  0.125000  0.131361  0.506361  1
  O  O19  1  0.368639  0.375000  0.493639  1
  O  O20  1  0.044693  0.539743  0.157121  1
  O  O21  1  0.612428  0.117378  0.157121  1
  O  O22  1  0.960257  0.455307  0.842879  1
  O  O23  1  0.205307  0.862428  0.995051  1
  O  O24  1  0.367378  0.362428  0.657121  1
  O  O25  1  0.112428  0.955307  0.495051  1
  O  O26  1  0.460257  0.617378  0.504949  1
  O  O27  1  0.882622  0.039743  0.495051  1
  O  O28  1  0.544693  0.387572  0.504949  1
  O  O29  1  0.789743  0.794693  0.657121  1
  O  O30  1  0.137572  0.132622  0.342879  1
  O  O31  1  0.705307  0.710257  0.342879  1
  O  O32  1  0.382622  0.887572  0.842879  1
  O  O33  1  0.637572  0.294693  0.004949  1
  O  O34  1  0.289743  0.632622  0.995051  1
  O  O35  1  0.867378  0.210257  0.004949  1
