# generated using pymatgen
data_Te6Cl2O11
_symmetry_space_group_name_H-M   'P 1'
_cell_length_a   6.90434493
_cell_length_b   6.90434493
_cell_length_c   15.68020934
_cell_angle_alpha   90.00000000
_cell_angle_beta   90.00000000
_cell_angle_gamma   119.46009549
_symmetry_Int_Tables_number   1
_chemical_formula_structural   Te6Cl2O11
_chemical_formula_sum   'Te12 Cl4 O22'
_cell_volume   650.82553393
_cell_formula_units_Z   2
loop_
 _symmetry_equiv_pos_site_id
 _symmetry_equiv_pos_as_xyz
  1  'x, y, z'
loop_
 _atom_site_type_symbol
 _atom_site_label
 _atom_site_symmetry_multiplicity
 _atom_site_fract_x
 _atom_site_fract_y
 _atom_site_fract_z
 _atom_site_occupancy
  Te  Te0  1  0.476486  0.789779  0.913979  1
  Te  Te1  1  0.523514  0.210221  0.413979  1
  Te  Te2  1  0.523514  0.210221  0.086021  1
  Te  Te3  1  0.476486  0.789779  0.586021  1
  Te  Te4  1  0.789779  0.476486  0.913979  1
  Te  Te5  1  0.210221  0.523514  0.413979  1
  Te  Te6  1  0.210221  0.523514  0.086021  1
  Te  Te7  1  0.789779  0.476486  0.586021  1
  Te  Te8  1  0.075209  0.075209  0.858016  1
  Te  Te9  1  0.924791  0.924791  0.358016  1
  Te  Te10  1  0.924791  0.924791  0.141984  1
  Te  Te11  1  0.075209  0.075209  0.641984  1
  Cl  Cl12  1  0.130206  0.451721  0.750000  1
  Cl  Cl13  1  0.869794  0.548279  0.250000  1
  Cl  Cl14  1  0.451721  0.130206  0.750000  1
  Cl  Cl15  1  0.548279  0.869794  0.250000  1
  O  O16  1  0.576679  0.576679  0.885230  1
  O  O17  1  0.423321  0.423321  0.385230  1
  O  O18  1  0.423321  0.423321  0.114770  1
  O  O19  1  0.576679  0.576679  0.614770  1
  O  O20  1  0.183810  0.485836  0.963797  1
  O  O21  1  0.816190  0.514164  0.463797  1
  O  O22  1  0.816190  0.514164  0.036203  1
  O  O23  1  0.183810  0.485836  0.536203  1
  O  O24  1  0.485836  0.183810  0.963797  1
  O  O25  1  0.514164  0.816190  0.463797  1
  O  O26  1  0.514164  0.816190  0.036203  1
  O  O27  1  0.485836  0.183810  0.536203  1
  O  O28  1  0.041359  0.801608  0.904962  1
  O  O29  1  0.958641  0.198392  0.404962  1
  O  O30  1  0.958641  0.198392  0.095038  1
  O  O31  1  0.041359  0.801608  0.595038  1
  O  O32  1  0.070716  0.070716  0.250000  1
  O  O33  1  0.929284  0.929284  0.750000  1
  O  O34  1  0.801608  0.041359  0.595038  1
  O  O35  1  0.198392  0.958641  0.095038  1
  O  O36  1  0.198392  0.958641  0.404962  1
  O  O37  1  0.801608  0.041359  0.904962  1
