# generated using pymatgen
data_Li5Cu(PO4)2
_symmetry_space_group_name_H-M   'P 1'
_cell_length_a   5.36779098
_cell_length_b   6.19177366
_cell_length_c   9.94605429
_cell_angle_alpha   89.59999120
_cell_angle_beta   89.07205851
_cell_angle_gamma   89.25885013
_symmetry_Int_Tables_number   1
_chemical_formula_structural   Li5Cu(PO4)2
_chemical_formula_sum   'Li10 Cu2 P4 O16'
_cell_volume   330.48993335
_cell_formula_units_Z   2
loop_
 _symmetry_equiv_pos_site_id
 _symmetry_equiv_pos_as_xyz
  1  'x, y, z'
loop_
 _atom_site_type_symbol
 _atom_site_label
 _atom_site_symmetry_multiplicity
 _atom_site_fract_x
 _atom_site_fract_y
 _atom_site_fract_z
 _atom_site_occupancy
  Li  Li0  1  0.838561  0.996523  0.750600  1
  Li  Li1  1  0.850839  0.006962  0.252807  1
  Li  Li2  1  0.674309  0.249030  0.508220  1
  Li  Li3  1  0.674922  0.758095  0.501556  1
  Li  Li4  1  0.668457  0.747193  0.999536  1
  Li  Li5  1  0.334329  0.752358  0.249803  1
  Li  Li6  1  0.323298  0.739698  0.748004  1
  Li  Li7  1  0.149759  0.501056  0.997255  1
  Li  Li8  1  0.158836  0.499479  0.500350  1
  Li  Li9  1  0.320386  0.247396  0.751299  1
  Cu  Cu10  1  0.653840  0.246542  0.009672  1
  Cu  Cu11  1  0.371964  0.249522  0.237144  1
  P  P12  1  0.165193  0.989741  0.991920  1
  P  P13  1  0.834860  0.511713  0.253115  1
  P  P14  1  0.176237  0.999699  0.499534  1
  P  P15  1  0.821357  0.499505  0.744705  1
  O  O16  1  0.313481  0.791855  0.047109  1
  O  O17  1  0.311429  0.203741  0.552033  1
  O  O18  1  0.899602  0.999868  0.550416  1
  O  O19  1  0.169674  0.989492  0.836065  1
  O  O20  1  0.681806  0.290247  0.791266  1
  O  O21  1  0.893509  0.982993  0.049000  1
  O  O22  1  0.180656  0.000745  0.342358  1
  O  O23  1  0.314342  0.791538  0.550394  1
  O  O24  1  0.689953  0.716646  0.302405  1
  O  O25  1  0.680660  0.703817  0.799627  1
  O  O26  1  0.108687  0.516180  0.301534  1
  O  O27  1  0.830762  0.506094  0.096117  1
  O  O28  1  0.822001  0.504980  0.588351  1
  O  O29  1  0.094478  0.496036  0.796156  1
  O  O30  1  0.710247  0.302910  0.312465  1
  O  O31  1  0.281564  0.208345  0.037627  1
