# generated using pymatgen
data_Sr4Bi6Se13
_symmetry_space_group_name_H-M   'P 1'
_cell_length_a   17.27204783
_cell_length_b   4.27492968
_cell_length_c   18.73284449
_cell_angle_alpha   90.00000000
_cell_angle_beta   90.41517559
_cell_angle_gamma   90.00000000
_symmetry_Int_Tables_number   1
_chemical_formula_structural   Sr4Bi6Se13
_chemical_formula_sum   'Sr8 Bi12 Se26'
_cell_volume   1383.13678984
_cell_formula_units_Z   2
loop_
 _symmetry_equiv_pos_site_id
 _symmetry_equiv_pos_as_xyz
  1  'x, y, z'
loop_
 _atom_site_type_symbol
 _atom_site_label
 _atom_site_symmetry_multiplicity
 _atom_site_fract_x
 _atom_site_fract_y
 _atom_site_fract_z
 _atom_site_occupancy
  Sr  Sr0  1  0.511595  0.250000  0.753711  1
  Sr  Sr1  1  0.488405  0.750000  0.246289  1
  Sr  Sr2  1  0.770792  0.250000  0.819979  1
  Sr  Sr3  1  0.229208  0.750000  0.180021  1
  Sr  Sr4  1  0.986815  0.250000  0.659667  1
  Sr  Sr5  1  0.013185  0.750000  0.340333  1
  Sr  Sr6  1  0.242933  0.250000  0.728981  1
  Sr  Sr7  1  0.757067  0.750000  0.271019  1
  Bi  Bi8  1  0.170630  0.750000  0.522095  1
  Bi  Bi9  1  0.829370  0.250000  0.477905  1
  Bi  Bi10  1  0.326849  0.250000  0.380147  1
  Bi  Bi11  1  0.673151  0.750000  0.619853  1
  Bi  Bi12  1  0.583191  0.250000  0.421761  1
  Bi  Bi13  1  0.416809  0.750000  0.578239  1
  Bi  Bi14  1  0.812878  0.750000  0.044424  1
  Bi  Bi15  1  0.187122  0.250000  0.955576  1
  Bi  Bi16  1  0.010200  0.250000  0.119684  1
  Bi  Bi17  1  0.989800  0.750000  0.880316  1
  Bi  Bi18  1  0.606519  0.250000  0.018843  1
  Bi  Bi19  1  0.393481  0.750000  0.981157  1
  Se  Se20  1  0.383481  0.750000  0.722655  1
  Se  Se21  1  0.616519  0.250000  0.277345  1
  Se  Se22  1  0.123819  0.750000  0.665177  1
  Se  Se23  1  0.876181  0.250000  0.334823  1
  Se  Se24  1  0.930436  0.750000  0.514647  1
  Se  Se25  1  0.069564  0.250000  0.485353  1
  Se  Se26  1  0.264664  0.750000  0.873975  1
  Se  Se27  1  0.735336  0.250000  0.126025  1
  Se  Se28  1  0.894241  0.750000  0.762472  1
  Se  Se29  1  0.105759  0.250000  0.237528  1
  Se  Se30  1  0.894480  0.250000  0.960718  1
  Se  Se31  1  0.105520  0.750000  0.039282  1
  Se  Se32  1  0.642442  0.750000  0.764115  1
  Se  Se33  1  0.357558  0.250000  0.235885  1
  Se  Se34  1  0.920109  0.750000  0.177599  1
  Se  Se35  1  0.079891  0.250000  0.822401  1
  Se  Se36  1  0.695289  0.750000  0.938702  1
  Se  Se37  1  0.304711  0.250000  0.061298  1
  Se  Se38  1  0.521206  0.750000  0.087143  1
  Se  Se39  1  0.478794  0.250000  0.912857  1
  Se  Se40  1  0.301590  0.250000  0.555661  1
  Se  Se41  1  0.698410  0.750000  0.444339  1
  Se  Se42  1  0.540150  0.250000  0.589872  1
  Se  Se43  1  0.459850  0.750000  0.410128  1
  Se  Se44  1  0.780217  0.250000  0.638794  1
  Se  Se45  1  0.219783  0.750000  0.361206  1
