# generated using pymatgen
data_Sr5P3ClO12
_symmetry_space_group_name_H-M   'P 1'
_cell_length_a   10.07199695
_cell_length_b   10.07199695
_cell_length_c   7.22086881
_cell_angle_alpha   90.00000000
_cell_angle_beta   90.00000000
_cell_angle_gamma   120.00000000
_symmetry_Int_Tables_number   1
_chemical_formula_structural   Sr5P3ClO12
_chemical_formula_sum   'Sr10 P6 Cl2 O24'
_cell_volume   634.38259323
_cell_formula_units_Z   2
loop_
 _symmetry_equiv_pos_site_id
 _symmetry_equiv_pos_as_xyz
  1  'x, y, z'
loop_
 _atom_site_type_symbol
 _atom_site_label
 _atom_site_symmetry_multiplicity
 _atom_site_fract_x
 _atom_site_fract_y
 _atom_site_fract_z
 _atom_site_occupancy
  Sr  Sr0  1  0.666667  0.333333  0.501946  1
  Sr  Sr1  1  0.666667  0.333333  0.998054  1
  Sr  Sr2  1  0.999466  0.253834  0.250000  1
  Sr  Sr3  1  0.745632  0.999466  0.750000  1
  Sr  Sr4  1  0.253834  0.254368  0.750000  1
  Sr  Sr5  1  0.746166  0.745632  0.250000  1
  Sr  Sr6  1  0.254368  0.000534  0.250000  1
  Sr  Sr7  1  0.000534  0.746166  0.750000  1
  Sr  Sr8  1  0.333333  0.666667  0.001946  1
  Sr  Sr9  1  0.333333  0.666667  0.498054  1
  P  P10  1  0.408203  0.374358  0.250000  1
  P  P11  1  0.033845  0.408203  0.750000  1
  P  P12  1  0.374358  0.966155  0.750000  1
  P  P13  1  0.591797  0.625642  0.750000  1
  P  P14  1  0.625642  0.033845  0.250000  1
  P  P15  1  0.966155  0.591797  0.250000  1
  Cl  Cl16  1  0.000000  0.000000  0.500000  1
  Cl  Cl17  1  0.000000  0.000000  0.000000  1
  O  O18  1  0.343360  0.485731  0.250000  1
  O  O19  1  0.857629  0.343360  0.750000  1
  O  O20  1  0.485731  0.142371  0.750000  1
  O  O21  1  0.514269  0.857629  0.250000  1
  O  O22  1  0.142371  0.656640  0.250000  1
  O  O23  1  0.656640  0.514269  0.750000  1
  O  O24  1  0.587687  0.465073  0.250000  1
  O  O25  1  0.122613  0.587687  0.750000  1
  O  O26  1  0.465073  0.877387  0.750000  1
  O  O27  1  0.534927  0.122613  0.250000  1
  O  O28  1  0.877387  0.412313  0.250000  1
  O  O29  1  0.412313  0.534927  0.750000  1
  O  O30  1  0.355681  0.269309  0.075702  1
  O  O31  1  0.086372  0.355681  0.575702  1
  O  O32  1  0.269309  0.913628  0.575702  1
  O  O33  1  0.730691  0.086372  0.075702  1
  O  O34  1  0.913628  0.644319  0.075702  1
  O  O35  1  0.644319  0.730691  0.575702  1
  O  O36  1  0.644319  0.730691  0.924298  1
  O  O37  1  0.913628  0.644319  0.424298  1
  O  O38  1  0.730691  0.086372  0.424298  1
  O  O39  1  0.269309  0.913628  0.924298  1
  O  O40  1  0.086372  0.355681  0.924298  1
  O  O41  1  0.355681  0.269309  0.424298  1
