# generated using pymatgen
data_Sn2IF3
_symmetry_space_group_name_H-M   'P 1'
_cell_length_a   7.39768638
_cell_length_b   7.39768638
_cell_length_c   9.35353447
_cell_angle_alpha   90.00000000
_cell_angle_beta   90.00000000
_cell_angle_gamma   145.66204976
_symmetry_Int_Tables_number   1
_chemical_formula_structural   Sn2IF3
_chemical_formula_sum   'Sn4 I2 F6'
_cell_volume   288.73735178
_cell_formula_units_Z   2
loop_
 _symmetry_equiv_pos_site_id
 _symmetry_equiv_pos_as_xyz
  1  'x, y, z'
loop_
 _atom_site_type_symbol
 _atom_site_label
 _atom_site_symmetry_multiplicity
 _atom_site_fract_x
 _atom_site_fract_y
 _atom_site_fract_z
 _atom_site_occupancy
  Sn  Sn0  1  0.342644  0.622326  0.457855  1
  Sn  Sn1  1  0.377674  0.657356  0.042145  1
  Sn  Sn2  1  0.622326  0.342644  0.542145  1
  Sn  Sn3  1  0.657356  0.377674  0.957855  1
  I  I4  1  0.993452  0.006548  0.750000  1
  I  I5  1  0.006548  0.993452  0.250000  1
  F  F6  1  0.292618  0.707382  0.250000  1
  F  F7  1  0.707382  0.292618  0.750000  1
  F  F8  1  0.788079  0.205651  0.459662  1
  F  F9  1  0.205651  0.788079  0.540338  1
  F  F10  1  0.794349  0.211921  0.040338  1
  F  F11  1  0.211921  0.794349  0.959662  1
