# generated using pymatgen
data_Hf(Te4Cl3)2
_symmetry_space_group_name_H-M   'P 1'
_cell_length_a   7.32327239
_cell_length_b   9.00442779
_cell_length_c   16.99776136
_cell_angle_alpha   103.94775092
_cell_angle_beta   100.10607074
_cell_angle_gamma   93.66373416
_symmetry_Int_Tables_number   1
_chemical_formula_structural   Hf(Te4Cl3)2
_chemical_formula_sum   'Hf2 Te16 Cl12'
_cell_volume   1064.30326152
_cell_formula_units_Z   2
loop_
 _symmetry_equiv_pos_site_id
 _symmetry_equiv_pos_as_xyz
  1  'x, y, z'
loop_
 _atom_site_type_symbol
 _atom_site_label
 _atom_site_symmetry_multiplicity
 _atom_site_fract_x
 _atom_site_fract_y
 _atom_site_fract_z
 _atom_site_occupancy
  Hf  Hf0  1  0.000000  0.000000  0.500000  1
  Hf  Hf1  1  0.000000  0.000000  0.000000  1
  Te  Te2  1  0.540657  0.713146  0.598396  1
  Te  Te3  1  0.235038  0.666320  0.670338  1
  Te  Te4  1  0.764962  0.333680  0.329662  1
  Te  Te5  1  0.209886  0.447931  0.221869  1
  Te  Te6  1  0.548896  0.276145  0.173911  1
  Te  Te7  1  0.451104  0.723855  0.826089  1
  Te  Te8  1  0.646724  0.427973  0.609082  1
  Te  Te9  1  0.353276  0.572027  0.390918  1
  Te  Te10  1  0.790114  0.552069  0.778131  1
  Te  Te11  1  0.714868  0.499887  0.111468  1
  Te  Te12  1  0.714975  0.296466  0.837013  1
  Te  Te13  1  0.285025  0.703534  0.162987  1
  Te  Te14  1  0.341291  0.251206  0.768387  1
  Te  Te15  1  0.658709  0.748794  0.231613  1
  Te  Te16  1  0.285132  0.500113  0.888532  1
  Te  Te17  1  0.459343  0.286854  0.401604  1
  Cl  Cl18  1  0.904278  0.113524  0.630765  1
  Cl  Cl19  1  0.095722  0.886476  0.369235  1
  Cl  Cl20  1  0.675738  0.984156  0.424543  1
  Cl  Cl21  1  0.324262  0.015844  0.575457  1
  Cl  Cl22  1  0.930940  0.737480  0.517799  1
  Cl  Cl23  1  0.069060  0.262520  0.482201  1
  Cl  Cl24  1  0.995129  0.938536  0.851585  1
  Cl  Cl25  1  0.004871  0.061464  0.148415  1
  Cl  Cl26  1  0.698030  0.106295  0.976089  1
  Cl  Cl27  1  0.301970  0.893705  0.023911  1
  Cl  Cl28  1  0.835030  0.741256  0.984665  1
  Cl  Cl29  1  0.164970  0.258744  0.015335  1
