# generated using pymatgen
data_Ag2PbO2
_symmetry_space_group_name_H-M   'P 1'
_cell_length_a   6.32259941
_cell_length_b   6.32259941
_cell_length_c   6.22081296
_cell_angle_alpha   62.38755602
_cell_angle_beta   117.61244398
_cell_angle_gamma   88.74995504
_symmetry_Int_Tables_number   1
_chemical_formula_structural   Ag2PbO2
_chemical_formula_sum   'Ag4 Pb2 O4'
_cell_volume   186.17843050
_cell_formula_units_Z   2
loop_
 _symmetry_equiv_pos_site_id
 _symmetry_equiv_pos_as_xyz
  1  'x, y, z'
loop_
 _atom_site_type_symbol
 _atom_site_label
 _atom_site_symmetry_multiplicity
 _atom_site_fract_x
 _atom_site_fract_y
 _atom_site_fract_z
 _atom_site_occupancy
  Ag  Ag0  1  0.500000  0.500000  0.000000  1
  Ag  Ag1  1  0.500000  0.000000  0.000000  1
  Ag  Ag2  1  0.500000  0.500000  0.500000  1
  Ag  Ag3  1  0.000000  0.500000  0.500000  1
  Pb  Pb4  1  0.883951  0.883951  0.750000  1
  Pb  Pb5  1  0.116049  0.116049  0.250000  1
  O  O6  1  0.863764  0.249042  0.739149  1
  O  O7  1  0.136236  0.750958  0.260851  1
  O  O8  1  0.249042  0.863764  0.760851  1
  O  O9  1  0.750958  0.136236  0.239149  1
