# generated using pymatgen
data_B9H8S
_symmetry_space_group_name_H-M   'P 1'
_cell_length_a   6.80977437
_cell_length_b   9.94223786
_cell_length_c   13.62562343
_cell_angle_alpha   90.00000000
_cell_angle_beta   114.19077075
_cell_angle_gamma   90.00000000
_symmetry_Int_Tables_number   1
_chemical_formula_structural   B9H8S
_chemical_formula_sum   'B36 H32 S4'
_cell_volume   841.50503831
_cell_formula_units_Z   4
loop_
 _symmetry_equiv_pos_site_id
 _symmetry_equiv_pos_as_xyz
  1  'x, y, z'
loop_
 _atom_site_type_symbol
 _atom_site_label
 _atom_site_symmetry_multiplicity
 _atom_site_fract_x
 _atom_site_fract_y
 _atom_site_fract_z
 _atom_site_occupancy
  B  B0  1  0.162533  0.689772  0.764454  1
  B  B1  1  0.837467  0.189772  0.735546  1
  B  B2  1  0.837467  0.310228  0.235546  1
  B  B3  1  0.162533  0.810228  0.264454  1
  B  B4  1  0.417794  0.640283  0.847703  1
  B  B5  1  0.582206  0.140283  0.652297  1
  B  B6  1  0.582206  0.359717  0.152297  1
  B  B7  1  0.417794  0.859717  0.347703  1
  B  B8  1  0.322087  0.814816  0.844127  1
  B  B9  1  0.677913  0.314816  0.655873  1
  B  B10  1  0.677913  0.185184  0.155873  1
  B  B11  1  0.322087  0.685184  0.344127  1
  B  B12  1  0.079917  0.751949  0.858536  1
  B  B13  1  0.920083  0.251949  0.641464  1
  B  B14  1  0.920083  0.248051  0.141464  1
  B  B15  1  0.079917  0.748051  0.358536  1
  B  B16  1  0.175974  0.577431  0.862222  1
  B  B17  1  0.824026  0.077431  0.637778  1
  B  B18  1  0.824026  0.422569  0.137778  1
  B  B19  1  0.175974  0.922569  0.362222  1
  B  B20  1  0.540005  0.750386  0.958733  1
  B  B21  1  0.459995  0.250386  0.541267  1
  B  B22  1  0.459995  0.249614  0.041267  1
  B  B23  1  0.540005  0.749614  0.458733  1
  B  B24  1  0.291742  0.832061  0.966911  1
  B  B25  1  0.708258  0.332061  0.533089  1
  B  B26  1  0.708258  0.167939  0.033089  1
  B  B27  1  0.291742  0.667939  0.466911  1
  B  B28  1  0.184487  0.658021  0.980023  1
  B  B29  1  0.815513  0.158021  0.519977  1
  B  B30  1  0.815513  0.341979  0.019977  1
  B  B31  1  0.184487  0.841979  0.480023  1
  B  B32  1  0.434482  0.572597  0.972542  1
  B  B33  1  0.565518  0.072597  0.527458  1
  B  B34  1  0.565518  0.427403  0.027458  1
  B  B35  1  0.434482  0.927403  0.472542  1
  H  H36  1  0.069858  0.682776  0.669275  1
  H  H37  1  0.930142  0.182776  0.830725  1
  H  H38  1  0.930142  0.317224  0.330725  1
  H  H39  1  0.069858  0.817224  0.169275  1
  H  H40  1  0.530358  0.590575  0.809409  1
  H  H41  1  0.469642  0.090575  0.690591  1
  H  H42  1  0.469642  0.409425  0.190591  1
  H  H43  1  0.530358  0.909425  0.309409  1
  H  H44  1  0.353793  0.914449  0.803690  1
  H  H45  1  0.646207  0.414449  0.696310  1
  H  H46  1  0.646207  0.085551  0.196310  1
  H  H47  1  0.353793  0.585551  0.303690  1
  H  H48  1  0.903044  0.797670  0.830940  1
  H  H49  1  0.096956  0.297670  0.669060  1
  H  H50  1  0.096956  0.202330  0.169060  1
  H  H51  1  0.903044  0.702330  0.330940  1
  H  H52  1  0.919689  0.526377  0.163651  1
  H  H53  1  0.080311  0.026377  0.336349  1
  H  H54  1  0.080311  0.473623  0.836349  1
  H  H55  1  0.919689  0.973623  0.663651  1
  H  H56  1  0.719883  0.790253  0.988440  1
  H  H57  1  0.280117  0.290253  0.511560  1
  H  H58  1  0.280117  0.209747  0.011560  1
  H  H59  1  0.719883  0.709747  0.488440  1
  H  H60  1  0.272931  0.937132  0.004039  1
  H  H61  1  0.727069  0.437132  0.495961  1
  H  H62  1  0.727069  0.062868  0.995961  1
  H  H63  1  0.272931  0.562868  0.504039  1
  H  H64  1  0.079613  0.623897  0.027168  1
  H  H65  1  0.920387  0.123897  0.472832  1
  H  H66  1  0.920387  0.376103  0.972832  1
  H  H67  1  0.079613  0.876103  0.527168  1
  S  S68  1  0.469176  0.710794  0.078686  1
  S  S69  1  0.530824  0.210794  0.421314  1
  S  S70  1  0.530824  0.289206  0.921314  1
  S  S71  1  0.469176  0.789206  0.578686  1
