# generated using pymatgen
data_Ca2Al3Si3HO13
_symmetry_space_group_name_H-M   'P 1'
_cell_length_a   5.60632649
_cell_length_b   10.11876537
_cell_length_c   16.37346236
_cell_angle_alpha   90.00000000
_cell_angle_beta   90.00000000
_cell_angle_gamma   90.00000000
_symmetry_Int_Tables_number   1
_chemical_formula_structural   Ca2Al3Si3HO13
_chemical_formula_sum   'Ca8 Al12 Si12 H4 O52'
_cell_volume   928.85182188
_cell_formula_units_Z   4
loop_
 _symmetry_equiv_pos_site_id
 _symmetry_equiv_pos_as_xyz
  1  'x, y, z'
loop_
 _atom_site_type_symbol
 _atom_site_label
 _atom_site_symmetry_multiplicity
 _atom_site_fract_x
 _atom_site_fract_y
 _atom_site_fract_z
 _atom_site_occupancy
  Ca  Ca0  1  0.250000  0.383905  0.450861  1
  Ca  Ca1  1  0.750000  0.616095  0.549139  1
  Ca  Ca2  1  0.750000  0.883905  0.049139  1
  Ca  Ca3  1  0.250000  0.116095  0.950861  1
  Ca  Ca4  1  0.250000  0.064312  0.366972  1
  Ca  Ca5  1  0.750000  0.935688  0.633028  1
  Ca  Ca6  1  0.750000  0.564312  0.133028  1
  Ca  Ca7  1  0.250000  0.435688  0.866972  1
  Al  Al8  1  0.750000  0.199507  0.106211  1
  Al  Al9  1  0.250000  0.800493  0.893789  1
  Al  Al10  1  0.250000  0.699507  0.393789  1
  Al  Al11  1  0.750000  0.300493  0.606211  1
  Al  Al12  1  0.496698  0.689185  0.750705  1
  Al  Al13  1  0.996698  0.310815  0.249295  1
  Al  Al14  1  0.503302  0.189185  0.749295  1
  Al  Al15  1  0.003302  0.810815  0.250705  1
  Al  Al16  1  0.503302  0.310815  0.249295  1
  Al  Al17  1  0.003302  0.689185  0.750705  1
  Al  Al18  1  0.496698  0.810815  0.250705  1
  Al  Al19  1  0.996698  0.189185  0.749295  1
  Si  Si20  1  0.250000  0.065070  0.160292  1
  Si  Si21  1  0.750000  0.934930  0.839708  1
  Si  Si22  1  0.750000  0.565070  0.339708  1
  Si  Si23  1  0.250000  0.434930  0.660292  1
  Si  Si24  1  0.750000  0.217979  0.410768  1
  Si  Si25  1  0.250000  0.782021  0.589232  1
  Si  Si26  1  0.250000  0.717979  0.089232  1
  Si  Si27  1  0.750000  0.282021  0.910768  1
  Si  Si28  1  0.250000  0.393116  0.081578  1
  Si  Si29  1  0.750000  0.606884  0.918422  1
  Si  Si30  1  0.750000  0.893116  0.418422  1
  Si  Si31  1  0.250000  0.106884  0.581578  1
  H  H32  1  0.250000  0.524201  0.268694  1
  H  H33  1  0.750000  0.475799  0.731306  1
  H  H34  1  0.750000  0.024201  0.231306  1
  H  H35  1  0.250000  0.975799  0.768694  1
  O  O36  1  0.250000  0.426010  0.266307  1
  O  O37  1  0.750000  0.573990  0.733693  1
  O  O38  1  0.750000  0.926010  0.233693  1
  O  O39  1  0.250000  0.073990  0.766307  1
  O  O40  1  0.750000  0.056132  0.419564  1
  O  O41  1  0.250000  0.943868  0.580436  1
  O  O42  1  0.250000  0.556132  0.080436  1
  O  O43  1  0.750000  0.443868  0.919564  1
  O  O44  1  0.750000  0.206046  0.996907  1
  O  O45  1  0.250000  0.793954  0.003093  1
  O  O46  1  0.250000  0.706046  0.503093  1
  O  O47  1  0.750000  0.293954  0.496907  1
  O  O48  1  0.250000  0.336443  0.990900  1
  O  O49  1  0.750000  0.663557  0.009100  1
  O  O50  1  0.750000  0.836443  0.509100  1
  O  O51  1  0.250000  0.163557  0.490900  1
  O  O52  1  0.750000  0.440601  0.271356  1
  O  O53  1  0.250000  0.559399  0.728644  1
  O  O54  1  0.250000  0.940601  0.228644  1
  O  O55  1  0.750000  0.059399  0.771356  1
  O  O56  1  0.250000  0.188503  0.228245  1
  O  O57  1  0.750000  0.811497  0.771755  1
  O  O58  1  0.750000  0.688503  0.271755  1
  O  O59  1  0.250000  0.311497  0.728245  1
  O  O60  1  0.750000  0.198991  0.218928  1
  O  O61  1  0.250000  0.801009  0.781072  1
  O  O62  1  0.250000  0.698991  0.281072  1
  O  O63  1  0.750000  0.301009  0.718928  1
  O  O64  1  0.490965  0.743356  0.641001  1
  O  O65  1  0.990965  0.256644  0.358999  1
  O  O66  1  0.509035  0.243356  0.858999  1
  O  O67  1  0.009035  0.756644  0.141001  1
  O  O68  1  0.509035  0.256644  0.358999  1
  O  O69  1  0.009035  0.743356  0.641001  1
  O  O70  1  0.490965  0.756644  0.141001  1
  O  O71  1  0.990965  0.243356  0.858999  1
  O  O72  1  0.512255  0.930041  0.898386  1
  O  O73  1  0.012255  0.069959  0.101614  1
  O  O74  1  0.487745  0.430041  0.601614  1
  O  O75  1  0.987745  0.569959  0.398386  1
  O  O76  1  0.487745  0.069959  0.101614  1
  O  O77  1  0.987745  0.930041  0.898386  1
  O  O78  1  0.512255  0.569959  0.398386  1
  O  O79  1  0.012255  0.430041  0.601614  1
  O  O80  1  0.497437  0.646909  0.869945  1
  O  O81  1  0.997437  0.353091  0.130055  1
  O  O82  1  0.502563  0.146909  0.630055  1
  O  O83  1  0.002563  0.853091  0.369945  1
  O  O84  1  0.502563  0.353091  0.130055  1
  O  O85  1  0.002563  0.646909  0.869945  1
  O  O86  1  0.497437  0.853091  0.369945  1
  O  O87  1  0.997437  0.146909  0.630055  1
