# generated using pymatgen
data_ZnHgAsHO5
_symmetry_space_group_name_H-M   'P 1'
_cell_length_a   6.42726829
_cell_length_b   7.76168441
_cell_length_c   8.83815627
_cell_angle_alpha   90.00000000
_cell_angle_beta   90.00000000
_cell_angle_gamma   90.00000000
_symmetry_Int_Tables_number   1
_chemical_formula_structural   ZnHgAsHO5
_chemical_formula_sum   'Zn4 Hg4 As4 H4 O20'
_cell_volume   440.90404717
_cell_formula_units_Z   4
loop_
 _symmetry_equiv_pos_site_id
 _symmetry_equiv_pos_as_xyz
  1  'x, y, z'
loop_
 _atom_site_type_symbol
 _atom_site_label
 _atom_site_symmetry_multiplicity
 _atom_site_fract_x
 _atom_site_fract_y
 _atom_site_fract_z
 _atom_site_occupancy
  Zn  Zn0  1  0.000000  0.500000  0.500000  1
  Zn  Zn1  1  0.500000  0.500000  0.500000  1
  Zn  Zn2  1  0.500000  0.000000  0.000000  1
  Zn  Zn3  1  0.000000  0.000000  0.000000  1
  Hg  Hg4  1  0.250000  0.886794  0.324895  1
  Hg  Hg5  1  0.750000  0.113206  0.675105  1
  Hg  Hg6  1  0.250000  0.386794  0.175105  1
  Hg  Hg7  1  0.750000  0.613206  0.824895  1
  As  As8  1  0.250000  0.860618  0.678184  1
  As  As9  1  0.750000  0.139382  0.321816  1
  As  As10  1  0.250000  0.360618  0.821816  1
  As  As11  1  0.750000  0.639382  0.178184  1
  H  H12  1  0.250000  0.740633  0.042772  1
  H  H13  1  0.750000  0.259367  0.957228  1
  H  H14  1  0.250000  0.240633  0.457228  1
  H  H15  1  0.750000  0.759367  0.542772  1
  O  O16  1  0.250000  0.860932  0.080475  1
  O  O17  1  0.750000  0.139068  0.919525  1
  O  O18  1  0.250000  0.360932  0.419525  1
  O  O19  1  0.750000  0.639068  0.580475  1
  O  O20  1  0.250000  0.674099  0.568506  1
  O  O21  1  0.750000  0.325901  0.431494  1
  O  O22  1  0.250000  0.174099  0.931494  1
  O  O23  1  0.750000  0.825901  0.068506  1
  O  O24  1  0.974297  0.626266  0.284743  1
  O  O25  1  0.474297  0.373734  0.715257  1
  O  O26  1  0.525703  0.126266  0.215257  1
  O  O27  1  0.025703  0.873734  0.784743  1
  O  O28  1  0.025703  0.373734  0.715257  1
  O  O29  1  0.525703  0.626266  0.284743  1
  O  O30  1  0.474297  0.873734  0.784743  1
  O  O31  1  0.974297  0.126266  0.215257  1
  O  O32  1  0.750000  0.978154  0.460652  1
  O  O33  1  0.250000  0.021846  0.539348  1
  O  O34  1  0.750000  0.478154  0.039348  1
  O  O35  1  0.250000  0.521846  0.960652  1
