# generated using pymatgen
data_PAuCl8
_symmetry_space_group_name_H-M   'P 1'
_cell_length_a   12.01445585
_cell_length_b   12.01445585
_cell_length_c   12.01445585
_cell_angle_alpha   119.21452852
_cell_angle_beta   114.03798941
_cell_angle_gamma   96.00278119
_symmetry_Int_Tables_number   1
_chemical_formula_structural   PAuCl8
_chemical_formula_sum   'P4 Au4 Cl32'
_cell_volume   1278.33331075
_cell_formula_units_Z   4
loop_
 _symmetry_equiv_pos_site_id
 _symmetry_equiv_pos_as_xyz
  1  'x, y, z'
loop_
 _atom_site_type_symbol
 _atom_site_label
 _atom_site_symmetry_multiplicity
 _atom_site_fract_x
 _atom_site_fract_y
 _atom_site_fract_z
 _atom_site_occupancy
  P  P0  1  0.252438  0.252438  0.000000  1
  P  P1  1  0.247562  0.747562  0.500000  1
  P  P2  1  0.747562  0.747562  0.000000  1
  P  P3  1  0.752438  0.252438  0.500000  1
  Au  Au4  1  0.750000  0.174126  0.924126  1
  Au  Au5  1  0.250000  0.825874  0.075874  1
  Au  Au6  1  0.750000  0.690034  0.440034  1
  Au  Au7  1  0.250000  0.309966  0.559966  1
  Cl  Cl8  1  0.917777  0.406285  0.677063  1
  Cl  Cl9  1  0.582223  0.759286  0.988508  1
  Cl  Cl10  1  0.770778  0.593715  0.011492  1
  Cl  Cl11  1  0.729222  0.240714  0.322937  1
  Cl  Cl12  1  0.082223  0.593715  0.322937  1
  Cl  Cl13  1  0.417777  0.240714  0.011492  1
  Cl  Cl14  1  0.229222  0.406285  0.988508  1
  Cl  Cl15  1  0.270778  0.759286  0.677063  1
  Cl  Cl16  1  0.605063  0.284213  0.525675  1
  Cl  Cl17  1  0.894937  0.920612  0.179150  1
  Cl  Cl18  1  0.741462  0.715787  0.820850  1
  Cl  Cl19  1  0.758538  0.079388  0.474325  1
  Cl  Cl20  1  0.394937  0.715787  0.474325  1
  Cl  Cl21  1  0.105063  0.079388  0.820850  1
  Cl  Cl22  1  0.258538  0.284213  0.179150  1
  Cl  Cl23  1  0.241462  0.920612  0.525675  1
  Cl  Cl24  1  0.394302  0.453037  0.558735  1
  Cl  Cl25  1  0.105698  0.164433  0.558735  1
  Cl  Cl26  1  0.605698  0.546963  0.441265  1
  Cl  Cl27  1  0.894302  0.835567  0.441265  1
  Cl  Cl28  1  0.072511  0.310012  0.382523  1
  Cl  Cl29  1  0.427489  0.310012  0.737502  1
  Cl  Cl30  1  0.572511  0.689988  0.262498  1
  Cl  Cl31  1  0.927489  0.689988  0.617477  1
  Cl  Cl32  1  0.394238  0.969098  0.074859  1
  Cl  Cl33  1  0.105762  0.680621  0.074859  1
  Cl  Cl34  1  0.605762  0.030902  0.925141  1
  Cl  Cl35  1  0.894238  0.319379  0.925141  1
  Cl  Cl36  1  0.250000  0.634356  0.884356  1
  Cl  Cl37  1  0.750000  0.365644  0.115644  1
  Cl  Cl38  1  0.250000  0.016339  0.266339  1
  Cl  Cl39  1  0.750000  0.983661  0.733661  1
