# generated using pymatgen
data_Ca2B6O11
_symmetry_space_group_name_H-M   'P 1'
_cell_length_a   8.65754835
_cell_length_b   10.82059445
_cell_length_c   8.76008864
_cell_angle_alpha   90.00000000
_cell_angle_beta   111.55018187
_cell_angle_gamma   90.00000000
_symmetry_Int_Tables_number   1
_chemical_formula_structural   Ca2B6O11
_chemical_formula_sum   'Ca8 B24 O44'
_cell_volume   763.27743567
_cell_formula_units_Z   4
loop_
 _symmetry_equiv_pos_site_id
 _symmetry_equiv_pos_as_xyz
  1  'x, y, z'
loop_
 _atom_site_type_symbol
 _atom_site_label
 _atom_site_symmetry_multiplicity
 _atom_site_fract_x
 _atom_site_fract_y
 _atom_site_fract_z
 _atom_site_occupancy
  Ca  Ca0  1  0.415058  0.161109  0.138253  1
  Ca  Ca1  1  0.584942  0.661109  0.361747  1
  Ca  Ca2  1  0.584942  0.838891  0.861747  1
  Ca  Ca3  1  0.415058  0.338891  0.638253  1
  Ca  Ca4  1  0.024319  0.491703  0.279175  1
  Ca  Ca5  1  0.975681  0.991703  0.220825  1
  Ca  Ca6  1  0.975681  0.508297  0.720825  1
  Ca  Ca7  1  0.024319  0.008297  0.779175  1
  B  B8  1  0.415673  0.080249  0.766629  1
  B  B9  1  0.287584  0.063809  0.461278  1
  B  B10  1  0.712416  0.563809  0.038722  1
  B  B11  1  0.712416  0.936191  0.538722  1
  B  B12  1  0.287584  0.436191  0.961278  1
  B  B13  1  0.714273  0.344261  0.398358  1
  B  B14  1  0.285727  0.844261  0.101642  1
  B  B15  1  0.285727  0.655739  0.601642  1
  B  B16  1  0.714273  0.155739  0.898358  1
  B  B17  1  0.584327  0.580249  0.733371  1
  B  B18  1  0.584327  0.919751  0.233371  1
  B  B19  1  0.415673  0.419751  0.266629  1
  B  B20  1  0.008212  0.250047  0.987077  1
  B  B21  1  0.991788  0.750047  0.512923  1
  B  B22  1  0.991788  0.749953  0.012923  1
  B  B23  1  0.008212  0.249953  0.487077  1
  B  B24  1  0.759010  0.384385  0.879068  1
  B  B25  1  0.240990  0.884385  0.620932  1
  B  B26  1  0.240990  0.615615  0.120932  1
  B  B27  1  0.759010  0.115615  0.379068  1
  B  B28  1  0.195255  0.237509  0.806451  1
  B  B29  1  0.804745  0.737509  0.693549  1
  B  B30  1  0.804745  0.762491  0.193549  1
  B  B31  1  0.195255  0.262491  0.306451  1
  O  O32  1  0.929398  0.700950  0.846705  1
  O  O33  1  0.141727  0.194728  0.942177  1
  O  O34  1  0.858273  0.694728  0.557823  1
  O  O35  1  0.858273  0.805272  0.057823  1
  O  O36  1  0.141727  0.305272  0.442177  1
  O  O37  1  0.884925  0.134996  0.969720  1
  O  O38  1  0.115075  0.634996  0.530280  1
  O  O39  1  0.115075  0.865004  0.030280  1
  O  O40  1  0.224874  0.376153  0.809345  1
  O  O41  1  0.775126  0.876153  0.690655  1
  O  O42  1  0.775126  0.623847  0.190655  1
  O  O43  1  0.224874  0.123847  0.309345  1
  O  O44  1  0.672942  0.464381  0.735941  1
  O  O45  1  0.327058  0.964381  0.764059  1
  O  O46  1  0.327058  0.535619  0.264059  1
  O  O47  1  0.672942  0.035619  0.235941  1
  O  O48  1  0.360480  0.179505  0.846024  1
  O  O49  1  0.639520  0.679505  0.653976  1
  O  O50  1  0.639520  0.820495  0.153976  1
  O  O51  1  0.360480  0.320495  0.346024  1
  O  O52  1  0.398575  0.119807  0.597076  1
  O  O53  1  0.601425  0.619807  0.902924  1
  O  O54  1  0.601425  0.880193  0.402924  1
  O  O55  1  0.398575  0.380193  0.097076  1
  O  O56  1  0.070602  0.200950  0.653295  1
  O  O57  1  0.884925  0.365004  0.469720  1
  O  O58  1  0.929398  0.799050  0.346705  1
  O  O59  1  0.070602  0.299050  0.153295  1
  O  O60  1  0.653580  0.273705  0.861534  1
  O  O61  1  0.346420  0.773705  0.638466  1
  O  O62  1  0.346420  0.726295  0.138466  1
  O  O63  1  0.653580  0.226295  0.361534  1
  O  O64  1  0.778417  0.050514  0.536237  1
  O  O65  1  0.918961  0.151979  0.375475  1
  O  O66  1  0.221583  0.949486  0.463763  1
  O  O67  1  0.778417  0.449486  0.036237  1
  O  O68  1  0.600968  0.058950  0.861560  1
  O  O69  1  0.399032  0.558950  0.638440  1
  O  O70  1  0.399032  0.941050  0.138440  1
  O  O71  1  0.600968  0.441050  0.361560  1
  O  O72  1  0.918961  0.348021  0.875475  1
  O  O73  1  0.081039  0.848021  0.624525  1
  O  O74  1  0.081039  0.651979  0.124525  1
  O  O75  1  0.221583  0.550514  0.963763  1
