# generated using pymatgen
data_Mn4Be3Ge3SeO12
_symmetry_space_group_name_H-M   'P 1'
_cell_length_a   8.61584995
_cell_length_b   8.61584995
_cell_length_c   8.61584995
_cell_angle_alpha   90.00000000
_cell_angle_beta   90.00000000
_cell_angle_gamma   90.00000000
_symmetry_Int_Tables_number   1
_chemical_formula_structural   Mn4Be3Ge3SeO12
_chemical_formula_sum   'Mn8 Be6 Ge6 Se2 O24'
_cell_volume   639.57927239
_cell_formula_units_Z   2
loop_
 _symmetry_equiv_pos_site_id
 _symmetry_equiv_pos_as_xyz
  1  'x, y, z'
loop_
 _atom_site_type_symbol
 _atom_site_label
 _atom_site_symmetry_multiplicity
 _atom_site_fract_x
 _atom_site_fract_y
 _atom_site_fract_z
 _atom_site_occupancy
  Mn  Mn0  1  0.673921  0.673921  0.673921  1
  Mn  Mn1  1  0.826079  0.173921  0.826079  1
  Mn  Mn2  1  0.173921  0.826079  0.826079  1
  Mn  Mn3  1  0.826079  0.826079  0.173921  1
  Mn  Mn4  1  0.673921  0.326079  0.326079  1
  Mn  Mn5  1  0.326079  0.326079  0.673921  1
  Mn  Mn6  1  0.173921  0.173921  0.173921  1
  Mn  Mn7  1  0.326079  0.673921  0.326079  1
  Be  Be8  1  0.250000  0.500000  0.000000  1
  Be  Be9  1  0.500000  0.000000  0.750000  1
  Be  Be10  1  0.500000  0.000000  0.250000  1
  Be  Be11  1  0.000000  0.250000  0.500000  1
  Be  Be12  1  0.000000  0.750000  0.500000  1
  Be  Be13  1  0.750000  0.500000  0.000000  1
  Ge  Ge14  1  0.250000  0.000000  0.500000  1
  Ge  Ge15  1  0.500000  0.750000  0.000000  1
  Ge  Ge16  1  0.500000  0.250000  0.000000  1
  Ge  Ge17  1  0.000000  0.500000  0.250000  1
  Ge  Ge18  1  0.000000  0.500000  0.750000  1
  Ge  Ge19  1  0.750000  0.000000  0.500000  1
  Se  Se20  1  0.000000  0.000000  0.000000  1
  Se  Se21  1  0.500000  0.500000  0.500000  1
  O  O22  1  0.136060  0.852824  0.587599  1
  O  O23  1  0.636060  0.087599  0.352824  1
  O  O24  1  0.912401  0.647176  0.636060  1
  O  O25  1  0.087599  0.647176  0.363940  1
  O  O26  1  0.647176  0.636060  0.912401  1
  O  O27  1  0.352824  0.363940  0.912401  1
  O  O28  1  0.863940  0.852824  0.412401  1
  O  O29  1  0.863940  0.147176  0.587599  1
  O  O30  1  0.636060  0.912401  0.647176  1
  O  O31  1  0.147176  0.587599  0.863940  1
  O  O32  1  0.587599  0.136060  0.852824  1
  O  O33  1  0.587599  0.863940  0.147176  1
  O  O34  1  0.852824  0.412401  0.863940  1
  O  O35  1  0.412401  0.863940  0.852824  1
  O  O36  1  0.136060  0.147176  0.412401  1
  O  O37  1  0.363940  0.912401  0.352824  1
  O  O38  1  0.363940  0.087599  0.647176  1
  O  O39  1  0.852824  0.587599  0.136060  1
  O  O40  1  0.912401  0.352824  0.363940  1
  O  O41  1  0.647176  0.363940  0.087599  1
  O  O42  1  0.352824  0.636060  0.087599  1
  O  O43  1  0.412401  0.136060  0.147176  1
  O  O44  1  0.147176  0.412401  0.136060  1
  O  O45  1  0.087599  0.352824  0.636060  1
