# generated using pymatgen
data_Mg14Ge5O24
_symmetry_space_group_name_H-M   'P 1'
_cell_length_a   6.01783918
_cell_length_b   10.35443217
_cell_length_c   14.68811463
_cell_angle_alpha   90.00000000
_cell_angle_beta   90.00000000
_cell_angle_gamma   90.00000000
_symmetry_Int_Tables_number   1
_chemical_formula_structural   Mg14Ge5O24
_chemical_formula_sum   'Mg28 Ge10 O48'
_cell_volume   915.23562876
_cell_formula_units_Z   2
loop_
 _symmetry_equiv_pos_site_id
 _symmetry_equiv_pos_as_xyz
  1  'x, y, z'
loop_
 _atom_site_type_symbol
 _atom_site_label
 _atom_site_symmetry_multiplicity
 _atom_site_fract_x
 _atom_site_fract_y
 _atom_site_fract_z
 _atom_site_occupancy
  Mg  Mg0  1  0.500000  0.500000  0.000000  1
  Mg  Mg1  1  0.500000  0.000000  0.500000  1
  Mg  Mg2  1  0.500000  0.000000  0.000000  1
  Mg  Mg3  1  0.500000  0.500000  0.500000  1
  Mg  Mg4  1  0.000000  0.821466  0.824221  1
  Mg  Mg5  1  0.000000  0.178534  0.175779  1
  Mg  Mg6  1  0.000000  0.321466  0.675779  1
  Mg  Mg7  1  0.000000  0.678534  0.324221  1
  Mg  Mg8  1  0.500000  0.853430  0.674413  1
  Mg  Mg9  1  0.500000  0.146570  0.325587  1
  Mg  Mg10  1  0.500000  0.353430  0.825587  1
  Mg  Mg11  1  0.500000  0.646570  0.174413  1
  Mg  Mg12  1  0.757901  0.748688  0.004660  1
  Mg  Mg13  1  0.757901  0.251312  0.995340  1
  Mg  Mg14  1  0.242099  0.248688  0.495340  1
  Mg  Mg15  1  0.242099  0.751312  0.504660  1
  Mg  Mg16  1  0.242099  0.251312  0.995340  1
  Mg  Mg17  1  0.242099  0.748688  0.004660  1
  Mg  Mg18  1  0.757901  0.751312  0.504660  1
  Mg  Mg19  1  0.757901  0.248688  0.495340  1
  Mg  Mg20  1  0.753809  0.581049  0.668512  1
  Mg  Mg21  1  0.753809  0.418951  0.331488  1
  Mg  Mg22  1  0.246191  0.081049  0.831488  1
  Mg  Mg23  1  0.246191  0.918951  0.168512  1
  Mg  Mg24  1  0.246191  0.418951  0.331488  1
  Mg  Mg25  1  0.246191  0.581049  0.668512  1
  Mg  Mg26  1  0.753809  0.918951  0.168512  1
  Mg  Mg27  1  0.753809  0.081049  0.831488  1
  Ge  Ge28  1  0.000000  0.000000  0.000000  1
  Ge  Ge29  1  0.000000  0.500000  0.500000  1
  Ge  Ge30  1  0.000000  0.498704  0.874396  1
  Ge  Ge31  1  0.000000  0.501296  0.125604  1
  Ge  Ge32  1  0.000000  0.998704  0.625604  1
  Ge  Ge33  1  0.000000  0.001296  0.374396  1
  Ge  Ge34  1  0.500000  0.674501  0.813898  1
  Ge  Ge35  1  0.500000  0.325499  0.186102  1
  Ge  Ge36  1  0.500000  0.174501  0.686102  1
  Ge  Ge37  1  0.500000  0.825499  0.313898  1
  O  O38  1  0.000000  0.662839  0.916194  1
  O  O39  1  0.000000  0.337161  0.083806  1
  O  O40  1  0.000000  0.162839  0.583806  1
  O  O41  1  0.000000  0.837161  0.416194  1
  O  O42  1  0.000000  0.651877  0.578679  1
  O  O43  1  0.000000  0.348123  0.421321  1
  O  O44  1  0.000000  0.151877  0.921321  1
  O  O45  1  0.000000  0.848123  0.078679  1
  O  O46  1  0.000000  0.996449  0.748259  1
  O  O47  1  0.000000  0.003551  0.251741  1
  O  O48  1  0.000000  0.496449  0.751741  1
  O  O49  1  0.000000  0.503551  0.248259  1
  O  O50  1  0.500000  0.670294  0.932553  1
  O  O51  1  0.500000  0.329706  0.067447  1
  O  O52  1  0.500000  0.170294  0.567447  1
  O  O53  1  0.500000  0.829706  0.432553  1
  O  O54  1  0.500000  0.668532  0.585923  1
  O  O55  1  0.500000  0.331468  0.414077  1
  O  O56  1  0.500000  0.168532  0.914077  1
  O  O57  1  0.500000  0.831468  0.085923  1
  O  O58  1  0.500000  0.022100  0.744052  1
  O  O59  1  0.500000  0.977900  0.255948  1
  O  O60  1  0.500000  0.522100  0.755948  1
  O  O61  1  0.500000  0.477900  0.244052  1
  O  O62  1  0.775547  0.922242  0.924168  1
  O  O63  1  0.775547  0.077758  0.075832  1
  O  O64  1  0.224453  0.422242  0.575832  1
  O  O65  1  0.224453  0.577758  0.424168  1
  O  O66  1  0.224453  0.077758  0.075832  1
  O  O67  1  0.224453  0.922242  0.924168  1
  O  O68  1  0.775547  0.577758  0.424168  1
  O  O69  1  0.775547  0.422242  0.575832  1
  O  O70  1  0.751719  0.918677  0.585885  1
  O  O71  1  0.751719  0.081323  0.414115  1
  O  O72  1  0.248281  0.418677  0.914115  1
  O  O73  1  0.248281  0.581323  0.085885  1
  O  O74  1  0.248281  0.081323  0.414115  1
  O  O75  1  0.248281  0.918677  0.585885  1
  O  O76  1  0.751719  0.581323  0.085885  1
  O  O77  1  0.751719  0.418677  0.914115  1
  O  O78  1  0.727503  0.748741  0.756771  1
  O  O79  1  0.727503  0.251259  0.243229  1
  O  O80  1  0.272497  0.248741  0.743229  1
  O  O81  1  0.272497  0.751259  0.256771  1
  O  O82  1  0.272497  0.251259  0.243229  1
  O  O83  1  0.272497  0.748741  0.756771  1
  O  O84  1  0.727503  0.751259  0.256771  1
  O  O85  1  0.727503  0.248741  0.743229  1
