# generated using pymatgen
data_SbPbClO2
_symmetry_space_group_name_H-M   'P 1'
_cell_length_a   6.89805068
_cell_length_b   6.89805068
_cell_length_c   5.50581271
_cell_angle_alpha   90.00000000
_cell_angle_beta   90.00000000
_cell_angle_gamma   131.42074282
_symmetry_Int_Tables_number   1
_chemical_formula_structural   SbPbClO2
_chemical_formula_sum   'Sb2 Pb2 Cl2 O4'
_cell_volume   196.45410358
_cell_formula_units_Z   2
loop_
 _symmetry_equiv_pos_site_id
 _symmetry_equiv_pos_as_xyz
  1  'x, y, z'
loop_
 _atom_site_type_symbol
 _atom_site_label
 _atom_site_symmetry_multiplicity
 _atom_site_fract_x
 _atom_site_fract_y
 _atom_site_fract_z
 _atom_site_occupancy
  Sb  Sb0  1  0.077984  0.922016  0.250000  1
  Sb  Sb1  1  0.922016  0.077984  0.750000  1
  Pb  Pb2  1  0.381326  0.618674  0.250000  1
  Pb  Pb3  1  0.618674  0.381326  0.750000  1
  Cl  Cl4  1  0.252995  0.747005  0.750000  1
  Cl  Cl5  1  0.747005  0.252995  0.250000  1
  O  O6  1  0.227656  0.227656  0.500000  1
  O  O7  1  0.772344  0.772344  0.000000  1
  O  O8  1  0.772344  0.772344  0.500000  1
  O  O9  1  0.227656  0.227656  0.000000  1
