# generated using pymatgen
data_LiNiPO4
_symmetry_space_group_name_H-M   'P 1'
_cell_length_a   4.71658046
_cell_length_b   5.92917206
_cell_length_c   10.17100873
_cell_angle_alpha   90.00000000
_cell_angle_beta   90.00000000
_cell_angle_gamma   90.00000000
_symmetry_Int_Tables_number   1
_chemical_formula_structural   LiNiPO4
_chemical_formula_sum   'Li4 Ni4 P4 O16'
_cell_volume   284.43650128
_cell_formula_units_Z   4
loop_
 _symmetry_equiv_pos_site_id
 _symmetry_equiv_pos_as_xyz
  1  'x, y, z'
loop_
 _atom_site_type_symbol
 _atom_site_label
 _atom_site_symmetry_multiplicity
 _atom_site_fract_x
 _atom_site_fract_y
 _atom_site_fract_z
 _atom_site_occupancy
  Li  Li0  1  0.500000  0.000000  0.500000  1
  Li  Li1  1  0.000000  0.500000  0.000000  1
  Li  Li2  1  0.500000  0.500000  0.500000  1
  Li  Li3  1  0.000000  0.000000  0.000000  1
  Ni  Ni4  1  0.483715  0.750000  0.775926  1
  Ni  Ni5  1  0.016285  0.750000  0.275926  1
  Ni  Ni6  1  0.516285  0.250000  0.224074  1
  Ni  Ni7  1  0.983715  0.250000  0.724074  1
  P  P8  1  0.918801  0.750000  0.594550  1
  P  P9  1  0.581199  0.750000  0.094550  1
  P  P10  1  0.081199  0.250000  0.405450  1
  P  P11  1  0.418801  0.250000  0.905450  1
  O  O12  1  0.243806  0.750000  0.599745  1
  O  O13  1  0.256194  0.750000  0.099745  1
  O  O14  1  0.756194  0.250000  0.400255  1
  O  O15  1  0.743806  0.250000  0.900255  1
  O  O16  1  0.700586  0.750000  0.952027  1
  O  O17  1  0.799414  0.750000  0.452027  1
  O  O18  1  0.299414  0.250000  0.047973  1
  O  O19  1  0.200586  0.250000  0.547973  1
  O  O20  1  0.777103  0.957323  0.665762  1
  O  O21  1  0.722897  0.542677  0.165762  1
  O  O22  1  0.222897  0.457323  0.334238  1
  O  O23  1  0.277103  0.042677  0.834238  1
  O  O24  1  0.222897  0.042677  0.334238  1
  O  O25  1  0.277103  0.457323  0.834238  1
  O  O26  1  0.777103  0.542677  0.665762  1
  O  O27  1  0.722897  0.957323  0.165762  1
