# generated using pymatgen
data_Co3B7ClO13
_symmetry_space_group_name_H-M   'P 1'
_cell_length_a   8.65226333
_cell_length_b   8.65226333
_cell_length_c   8.65226333
_cell_angle_alpha   59.78750158
_cell_angle_beta   59.78750158
_cell_angle_gamma   59.78750158
_symmetry_Int_Tables_number   1
_chemical_formula_structural   Co3B7ClO13
_chemical_formula_sum   'Co6 B14 Cl2 O26'
_cell_volume   455.79962536
_cell_formula_units_Z   2
loop_
 _symmetry_equiv_pos_site_id
 _symmetry_equiv_pos_as_xyz
  1  'x, y, z'
loop_
 _atom_site_type_symbol
 _atom_site_label
 _atom_site_symmetry_multiplicity
 _atom_site_fract_x
 _atom_site_fract_y
 _atom_site_fract_z
 _atom_site_occupancy
  Co  Co0  1  0.029491  0.469941  0.027313  1
  Co  Co1  1  0.027313  0.029491  0.469941  1
  Co  Co2  1  0.469941  0.027313  0.029491  1
  Co  Co3  1  0.969941  0.529491  0.527313  1
  Co  Co4  1  0.529491  0.527313  0.969941  1
  Co  Co5  1  0.527313  0.969941  0.529491  1
  B  B6  1  0.428513  0.735605  0.428925  1
  B  B7  1  0.399554  0.399554  0.399554  1
  B  B8  1  0.899554  0.899554  0.899554  1
  B  B9  1  0.735605  0.428925  0.428513  1
  B  B10  1  0.428925  0.428513  0.735605  1
  B  B11  1  0.928513  0.928925  0.235605  1
  B  B12  1  0.928925  0.235605  0.928513  1
  B  B13  1  0.235605  0.928513  0.928925  1
  B  B14  1  0.248472  0.754413  0.755081  1
  B  B15  1  0.755081  0.248472  0.754413  1
  B  B16  1  0.754413  0.755081  0.248472  1
  B  B17  1  0.255081  0.254413  0.748472  1
  B  B18  1  0.748472  0.255081  0.254413  1
  B  B19  1  0.254413  0.748472  0.255081  1
  Cl  Cl20  1  0.232080  0.232080  0.232080  1
  Cl  Cl21  1  0.732080  0.732080  0.732080  1
  O  O22  1  0.253128  0.401707  0.787834  1
  O  O23  1  0.566846  0.813292  0.389778  1
  O  O24  1  0.901707  0.753128  0.287834  1
  O  O25  1  0.287834  0.901707  0.753128  1
  O  O26  1  0.753128  0.287834  0.901707  1
  O  O27  1  0.813292  0.389778  0.566846  1
  O  O28  1  0.787834  0.253128  0.401707  1
  O  O29  1  0.401707  0.787834  0.253128  1
  O  O30  1  0.014317  0.014317  0.014317  1
  O  O31  1  0.514317  0.514317  0.514317  1
  O  O32  1  0.389778  0.566846  0.813292  1
  O  O33  1  0.056808  0.737390  0.895794  1
  O  O34  1  0.895794  0.056808  0.737390  1
  O  O35  1  0.556808  0.395794  0.237390  1
  O  O36  1  0.237390  0.556808  0.395794  1
  O  O37  1  0.395794  0.237390  0.556808  1
  O  O38  1  0.066776  0.301886  0.748752  1
  O  O39  1  0.748752  0.066776  0.301886  1
  O  O40  1  0.301886  0.748752  0.066776  1
  O  O41  1  0.248752  0.801886  0.566776  1
  O  O42  1  0.566776  0.248752  0.801886  1
  O  O43  1  0.801886  0.566776  0.248752  1
  O  O44  1  0.313292  0.066846  0.889778  1
  O  O45  1  0.889778  0.313292  0.066846  1
  O  O46  1  0.066846  0.889778  0.313292  1
  O  O47  1  0.737390  0.895794  0.056808  1
