# generated using pymatgen
data_GeS
_symmetry_space_group_name_H-M   'P 1'
_cell_length_a   3.66588127
_cell_length_b   4.45453349
_cell_length_c   10.76962178
_cell_angle_alpha   90.00000000
_cell_angle_beta   90.00000000
_cell_angle_gamma   90.00000000
_symmetry_Int_Tables_number   1
_chemical_formula_structural   GeS
_chemical_formula_sum   'Ge4 S4'
_cell_volume   175.86567161
_cell_formula_units_Z   4
loop_
 _symmetry_equiv_pos_site_id
 _symmetry_equiv_pos_as_xyz
  1  'x, y, z'
loop_
 _atom_site_type_symbol
 _atom_site_label
 _atom_site_symmetry_multiplicity
 _atom_site_fract_x
 _atom_site_fract_y
 _atom_site_fract_z
 _atom_site_occupancy
  Ge  Ge0  1  0.250000  0.364672  0.874293  1
  Ge  Ge1  1  0.750000  0.635328  0.125707  1
  Ge  Ge2  1  0.750000  0.864672  0.625707  1
  Ge  Ge3  1  0.250000  0.135328  0.374293  1
  S  S4  1  0.250000  0.502149  0.652755  1
  S  S5  1  0.750000  0.497851  0.347245  1
  S  S6  1  0.750000  0.002149  0.847245  1
  S  S7  1  0.250000  0.997851  0.152755  1
