# generated using pymatgen
data_Na2Te2As
_symmetry_space_group_name_H-M   'P 1'
_cell_length_a   8.80608706
_cell_length_b   9.91581915
_cell_length_c   14.08409625
_cell_angle_alpha   90.00000000
_cell_angle_beta   90.00000000
_cell_angle_gamma   90.00000000
_symmetry_Int_Tables_number   1
_chemical_formula_structural   Na2Te2As
_chemical_formula_sum   'Na16 Te16 As8'
_cell_volume   1229.81718200
_cell_formula_units_Z   8
loop_
 _symmetry_equiv_pos_site_id
 _symmetry_equiv_pos_as_xyz
  1  'x, y, z'
loop_
 _atom_site_type_symbol
 _atom_site_label
 _atom_site_symmetry_multiplicity
 _atom_site_fract_x
 _atom_site_fract_y
 _atom_site_fract_z
 _atom_site_occupancy
  Na  Na0  1  0.588107  0.359016  0.629900  1
  Na  Na1  1  0.088107  0.140984  0.370100  1
  Na  Na2  1  0.411893  0.859016  0.870100  1
  Na  Na3  1  0.911893  0.640984  0.129900  1
  Na  Na4  1  0.924684  0.125491  0.623866  1
  Na  Na5  1  0.424684  0.374509  0.376134  1
  Na  Na6  1  0.075316  0.625491  0.876134  1
  Na  Na7  1  0.575316  0.874509  0.123866  1
  Na  Na8  1  0.768232  0.753067  0.691446  1
  Na  Na9  1  0.268232  0.746933  0.308554  1
  Na  Na10  1  0.231768  0.253067  0.808554  1
  Na  Na11  1  0.731768  0.246933  0.191446  1
  Na  Na12  1  0.323040  0.939412  0.562403  1
  Na  Na13  1  0.823040  0.560588  0.437597  1
  Na  Na14  1  0.676960  0.439412  0.937597  1
  Na  Na15  1  0.176960  0.060588  0.062403  1
  Te  Te16  1  0.736403  0.754389  0.933068  1
  Te  Te17  1  0.236403  0.745611  0.066932  1
  Te  Te18  1  0.263597  0.254389  0.566932  1
  Te  Te19  1  0.763597  0.245611  0.433068  1
  Te  Te20  1  0.603036  0.040839  0.714029  1
  Te  Te21  1  0.103036  0.459161  0.285971  1
  Te  Te22  1  0.396964  0.540839  0.785971  1
  Te  Te23  1  0.896964  0.959161  0.214029  1
  Te  Te24  1  0.517390  0.158914  0.000490  1
  Te  Te25  1  0.017390  0.341086  0.999510  1
  Te  Te26  1  0.482610  0.658914  0.499510  1
  Te  Te27  1  0.982610  0.841086  0.500490  1
  Te  Te28  1  0.083541  0.950531  0.792509  1
  Te  Te29  1  0.583541  0.549469  0.207491  1
  Te  Te30  1  0.916459  0.450531  0.707491  1
  Te  Te31  1  0.416459  0.049469  0.292509  1
  As  As32  1  0.900497  0.974483  0.939443  1
  As  As33  1  0.400497  0.525517  0.060557  1
  As  As34  1  0.099503  0.474483  0.560557  1
  As  As35  1  0.599503  0.025517  0.439443  1
  As  As36  1  0.725970  0.148438  0.865510  1
  As  As37  1  0.225970  0.351562  0.134490  1
  As  As38  1  0.274030  0.648438  0.634490  1
  As  As39  1  0.774030  0.851562  0.365510  1
