# generated using pymatgen
data_Ti2PCl13
_symmetry_space_group_name_H-M   'P 1'
_cell_length_a   11.13969066
_cell_length_b   12.12928630
_cell_length_c   30.16591942
_cell_angle_alpha   90.00000000
_cell_angle_beta   90.00000000
_cell_angle_gamma   90.00000000
_symmetry_Int_Tables_number   1
_chemical_formula_structural   Ti2PCl13
_chemical_formula_sum   'Ti16 P8 Cl104'
_cell_volume   4075.91337012
_cell_formula_units_Z   8
loop_
 _symmetry_equiv_pos_site_id
 _symmetry_equiv_pos_as_xyz
  1  'x, y, z'
loop_
 _atom_site_type_symbol
 _atom_site_label
 _atom_site_symmetry_multiplicity
 _atom_site_fract_x
 _atom_site_fract_y
 _atom_site_fract_z
 _atom_site_occupancy
  Ti  Ti0  1  0.250000  0.235916  0.279619  1
  Ti  Ti1  1  0.750000  0.764084  0.720381  1
  Ti  Ti2  1  0.750000  0.735916  0.220381  1
  Ti  Ti3  1  0.250000  0.264084  0.779619  1
  Ti  Ti4  1  0.250000  0.090233  0.181525  1
  Ti  Ti5  1  0.750000  0.909767  0.818475  1
  Ti  Ti6  1  0.750000  0.590233  0.318475  1
  Ti  Ti7  1  0.250000  0.409767  0.681525  1
  Ti  Ti8  1  0.250000  0.588233  0.090265  1
  Ti  Ti9  1  0.750000  0.411767  0.909735  1
  Ti  Ti10  1  0.750000  0.088233  0.409735  1
  Ti  Ti11  1  0.250000  0.911767  0.590265  1
  Ti  Ti12  1  0.250000  0.727927  0.991081  1
  Ti  Ti13  1  0.750000  0.272073  0.008919  1
  Ti  Ti14  1  0.750000  0.227927  0.508919  1
  Ti  Ti15  1  0.250000  0.772073  0.491081  1
  P  P16  1  0.250000  0.731343  0.304092  1
  P  P17  1  0.750000  0.268657  0.695908  1
  P  P18  1  0.750000  0.231343  0.195908  1
  P  P19  1  0.250000  0.768657  0.804092  1
  P  P20  1  0.250000  0.307300  0.457880  1
  P  P21  1  0.750000  0.692700  0.542120  1
  P  P22  1  0.750000  0.807300  0.042120  1
  P  P23  1  0.250000  0.192700  0.957880  1
  Cl  Cl24  1  0.250000  0.136039  0.342244  1
  Cl  Cl25  1  0.750000  0.863961  0.657756  1
  Cl  Cl26  1  0.750000  0.636039  0.157756  1
  Cl  Cl27  1  0.250000  0.363961  0.842244  1
  Cl  Cl28  1  0.250000  0.293733  0.200297  1
  Cl  Cl29  1  0.750000  0.706267  0.799703  1
  Cl  Cl30  1  0.750000  0.793733  0.299703  1
  Cl  Cl31  1  0.250000  0.206267  0.700297  1
  Cl  Cl32  1  0.098432  0.350686  0.295458  1
  Cl  Cl33  1  0.598432  0.649314  0.704542  1
  Cl  Cl34  1  0.901568  0.850686  0.204542  1
  Cl  Cl35  1  0.401568  0.149314  0.795458  1
  Cl  Cl36  1  0.901568  0.649314  0.704542  1
  Cl  Cl37  1  0.401568  0.350686  0.295458  1
  Cl  Cl38  1  0.098432  0.149314  0.795458  1
  Cl  Cl39  1  0.598432  0.850686  0.204542  1
  Cl  Cl40  1  0.106467  0.099371  0.245537  1
  Cl  Cl41  1  0.606467  0.900629  0.754463  1
  Cl  Cl42  1  0.893533  0.599371  0.254463  1
  Cl  Cl43  1  0.393533  0.400629  0.745537  1
  Cl  Cl44  1  0.893533  0.900629  0.754463  1
  Cl  Cl45  1  0.393533  0.099371  0.245537  1
  Cl  Cl46  1  0.106467  0.400629  0.745537  1
  Cl  Cl47  1  0.606467  0.599371  0.254463  1
  Cl  Cl48  1  0.098372  0.113734  0.133333  1
  Cl  Cl49  1  0.598372  0.886266  0.866667  1
  Cl  Cl50  1  0.901628  0.613734  0.366667  1
  Cl  Cl51  1  0.401628  0.386266  0.633333  1
  Cl  Cl52  1  0.901628  0.886266  0.866667  1
  Cl  Cl53  1  0.401628  0.113734  0.133333  1
  Cl  Cl54  1  0.098372  0.386266  0.633333  1
  Cl  Cl55  1  0.598372  0.613734  0.366667  1
  Cl  Cl56  1  0.250000  0.906989  0.184957  1
  Cl  Cl57  1  0.750000  0.093011  0.815043  1
  Cl  Cl58  1  0.750000  0.406989  0.315043  1
  Cl  Cl59  1  0.250000  0.593011  0.684957  1
  Cl  Cl60  1  0.250000  0.405038  0.087170  1
  Cl  Cl61  1  0.750000  0.594962  0.912830  1
  Cl  Cl62  1  0.750000  0.905038  0.412830  1
  Cl  Cl63  1  0.250000  0.094962  0.587170  1
  Cl  Cl64  1  0.250000  0.792367  0.069374  1
  Cl  Cl65  1  0.750000  0.207633  0.930626  1
  Cl  Cl66  1  0.750000  0.292367  0.430626  1
  Cl  Cl67  1  0.250000  0.707633  0.569374  1
  Cl  Cl68  1  0.097787  0.614495  0.137229  1
  Cl  Cl69  1  0.597787  0.385505  0.862771  1
  Cl  Cl70  1  0.902213  0.114495  0.362771  1
  Cl  Cl71  1  0.402213  0.885505  0.637229  1
  Cl  Cl72  1  0.902213  0.385505  0.862771  1
  Cl  Cl73  1  0.402213  0.614495  0.137229  1
  Cl  Cl74  1  0.097787  0.885505  0.637229  1
  Cl  Cl75  1  0.597787  0.114495  0.362771  1
  Cl  Cl76  1  0.106883  0.595903  0.025398  1
  Cl  Cl77  1  0.606883  0.404097  0.974602  1
  Cl  Cl78  1  0.893117  0.095903  0.474602  1
  Cl  Cl79  1  0.393117  0.904097  0.525398  1
  Cl  Cl80  1  0.893117  0.404097  0.974602  1
  Cl  Cl81  1  0.393117  0.595903  0.025398  1
  Cl  Cl82  1  0.106883  0.904097  0.525398  1
  Cl  Cl83  1  0.606883  0.095903  0.474602  1
  Cl  Cl84  1  0.098716  0.843692  0.973505  1
  Cl  Cl85  1  0.598716  0.156308  0.026495  1
  Cl  Cl86  1  0.901284  0.343692  0.526495  1
  Cl  Cl87  1  0.401284  0.656308  0.473505  1
  Cl  Cl88  1  0.901284  0.156308  0.026495  1
  Cl  Cl89  1  0.401284  0.843692  0.973505  1
  Cl  Cl90  1  0.098716  0.656308  0.473505  1
  Cl  Cl91  1  0.598716  0.343692  0.526495  1
  Cl  Cl92  1  0.250000  0.626480  0.928471  1
  Cl  Cl93  1  0.750000  0.373520  0.071529  1
  Cl  Cl94  1  0.750000  0.126480  0.571529  1
  Cl  Cl95  1  0.250000  0.873520  0.428471  1
  Cl  Cl96  1  0.106795  0.823495  0.307661  1
  Cl  Cl97  1  0.606795  0.176505  0.692339  1
  Cl  Cl98  1  0.893205  0.323495  0.192339  1
  Cl  Cl99  1  0.393205  0.676505  0.807661  1
  Cl  Cl100  1  0.893205  0.176505  0.692339  1
  Cl  Cl101  1  0.393205  0.823495  0.307661  1
  Cl  Cl102  1  0.106795  0.676505  0.807661  1
  Cl  Cl103  1  0.606795  0.323495  0.192339  1
  Cl  Cl104  1  0.250000  0.626371  0.353445  1
  Cl  Cl105  1  0.750000  0.373629  0.646555  1
  Cl  Cl106  1  0.750000  0.126371  0.146555  1
  Cl  Cl107  1  0.250000  0.873629  0.853445  1
  Cl  Cl108  1  0.250000  0.649438  0.248322  1
  Cl  Cl109  1  0.750000  0.350562  0.751678  1
  Cl  Cl110  1  0.750000  0.149438  0.251678  1
  Cl  Cl111  1  0.250000  0.850562  0.748322  1
  Cl  Cl112  1  0.106723  0.351652  0.424734  1
  Cl  Cl113  1  0.606723  0.648348  0.575266  1
  Cl  Cl114  1  0.893277  0.851652  0.075266  1
  Cl  Cl115  1  0.393277  0.148348  0.924734  1
  Cl  Cl116  1  0.893277  0.648348  0.575266  1
  Cl  Cl117  1  0.393277  0.351652  0.424734  1
  Cl  Cl118  1  0.106723  0.148348  0.924734  1
  Cl  Cl119  1  0.606723  0.851652  0.075266  1
  Cl  Cl120  1  0.250000  0.379486  0.515904  1
  Cl  Cl121  1  0.750000  0.620514  0.484096  1
  Cl  Cl122  1  0.750000  0.879486  0.984096  1
  Cl  Cl123  1  0.250000  0.120514  0.015904  1
  Cl  Cl124  1  0.250000  0.147875  0.465870  1
  Cl  Cl125  1  0.750000  0.852125  0.534130  1
  Cl  Cl126  1  0.750000  0.647875  0.034130  1
  Cl  Cl127  1  0.250000  0.352125  0.965870  1
