# generated using pymatgen
data_IrBr3
_symmetry_space_group_name_H-M   'P 1'
_cell_length_a   6.47685424
_cell_length_b   6.47685424
_cell_length_c   6.97408188
_cell_angle_alpha   81.41625747
_cell_angle_beta   98.58374253
_cell_angle_gamma   60.05102623
_symmetry_Int_Tables_number   1
_chemical_formula_structural   IrBr3
_chemical_formula_sum   'Ir2 Br6'
_cell_volume   241.95531704
_cell_formula_units_Z   2
loop_
 _symmetry_equiv_pos_site_id
 _symmetry_equiv_pos_as_xyz
  1  'x, y, z'
loop_
 _atom_site_type_symbol
 _atom_site_label
 _atom_site_symmetry_multiplicity
 _atom_site_fract_x
 _atom_site_fract_y
 _atom_site_fract_z
 _atom_site_occupancy
  Ir  Ir0  1  0.166716  0.166716  0.000000  1
  Ir  Ir1  1  0.833284  0.833284  0.000000  1
  Br  Br2  1  0.921412  0.432871  0.208933  1
  Br  Br3  1  0.432871  0.921412  0.791067  1
  Br  Br4  1  0.787062  0.212938  0.790990  1
  Br  Br5  1  0.212938  0.787062  0.209010  1
  Br  Br6  1  0.567129  0.078588  0.208933  1
  Br  Br7  1  0.078588  0.567129  0.791067  1
