# generated using pymatgen
data_Sr4Nb2O9
_symmetry_space_group_name_H-M   'P 1'
_cell_length_a   5.94911003
_cell_length_b   5.94911003
_cell_length_c   15.94286650
_cell_angle_alpha   90.00000000
_cell_angle_beta   90.00000000
_cell_angle_gamma   120.00000000
_symmetry_Int_Tables_number   1
_chemical_formula_structural   Sr4Nb2O9
_chemical_formula_sum   'Sr8 Nb4 O18'
_cell_volume   488.65353408
_cell_formula_units_Z   2
loop_
 _symmetry_equiv_pos_site_id
 _symmetry_equiv_pos_as_xyz
  1  'x, y, z'
loop_
 _atom_site_type_symbol
 _atom_site_label
 _atom_site_symmetry_multiplicity
 _atom_site_fract_x
 _atom_site_fract_y
 _atom_site_fract_z
 _atom_site_occupancy
  Sr  Sr0  1  0.666667  0.333333  0.137904  1
  Sr  Sr1  1  0.333333  0.666667  0.642834  1
  Sr  Sr2  1  0.333333  0.666667  0.862096  1
  Sr  Sr3  1  0.666667  0.333333  0.357166  1
  Sr  Sr4  1  0.000000  0.000000  0.250031  1
  Sr  Sr5  1  0.000000  0.000000  0.000000  1
  Sr  Sr6  1  0.000000  0.000000  0.749969  1
  Sr  Sr7  1  0.000000  0.000000  0.500000  1
  Nb  Nb8  1  0.666667  0.333333  0.655578  1
  Nb  Nb9  1  0.666667  0.333333  0.847379  1
  Nb  Nb10  1  0.333333  0.666667  0.344422  1
  Nb  Nb11  1  0.333333  0.666667  0.152621  1
  O  O12  1  0.082976  0.358718  0.099406  1
  O  O13  1  0.351475  0.272745  0.603826  1
  O  O14  1  0.648525  0.727255  0.396174  1
  O  O15  1  0.443304  0.036634  0.750993  1
  O  O16  1  0.406671  0.443304  0.249007  1
  O  O17  1  0.358718  0.275742  0.900594  1
  O  O18  1  0.275742  0.917024  0.099406  1
  O  O19  1  0.593329  0.556696  0.750993  1
  O  O20  1  0.917024  0.641282  0.900594  1
  O  O21  1  0.963366  0.406671  0.750993  1
  O  O22  1  0.036634  0.593329  0.249007  1
  O  O23  1  0.556696  0.963366  0.249007  1
  O  O24  1  0.272745  0.921270  0.396174  1
  O  O25  1  0.078730  0.351475  0.396174  1
  O  O26  1  0.727255  0.078730  0.603826  1
  O  O27  1  0.724258  0.082976  0.900594  1
  O  O28  1  0.921270  0.648525  0.603826  1
  O  O29  1  0.641282  0.724258  0.099406  1
