# generated using pymatgen
data_Nb3ClO7
_symmetry_space_group_name_H-M   'P 1'
_cell_length_a   3.90802560
_cell_length_b   11.07918046
_cell_length_c   15.86173605
_cell_angle_alpha   90.00000000
_cell_angle_beta   90.00000000
_cell_angle_gamma   90.00000000
_symmetry_Int_Tables_number   1
_chemical_formula_structural   Nb3ClO7
_chemical_formula_sum   'Nb12 Cl4 O28'
_cell_volume   686.77701992
_cell_formula_units_Z   4
loop_
 _symmetry_equiv_pos_site_id
 _symmetry_equiv_pos_as_xyz
  1  'x, y, z'
loop_
 _atom_site_type_symbol
 _atom_site_label
 _atom_site_symmetry_multiplicity
 _atom_site_fract_x
 _atom_site_fract_y
 _atom_site_fract_z
 _atom_site_occupancy
  Nb  Nb0  1  0.500888  0.037103  0.164437  1
  Nb  Nb1  1  0.049462  0.250000  0.469119  1
  Nb  Nb2  1  0.450538  0.250000  0.969119  1
  Nb  Nb3  1  0.950538  0.750000  0.530881  1
  Nb  Nb4  1  0.549462  0.750000  0.030881  1
  Nb  Nb5  1  0.000888  0.962897  0.335563  1
  Nb  Nb6  1  0.499112  0.537103  0.835563  1
  Nb  Nb7  1  0.999112  0.462897  0.664437  1
  Nb  Nb8  1  0.499112  0.962897  0.835563  1
  Nb  Nb9  1  0.999112  0.037103  0.664437  1
  Nb  Nb10  1  0.500888  0.462897  0.164437  1
  Nb  Nb11  1  0.000888  0.537103  0.335563  1
  Cl  Cl12  1  0.007364  0.750000  0.260088  1
  Cl  Cl13  1  0.507364  0.250000  0.239912  1
  Cl  Cl14  1  0.992636  0.250000  0.739912  1
  Cl  Cl15  1  0.492636  0.750000  0.760088  1
  O  O16  1  0.006751  0.126006  0.566971  1
  O  O17  1  0.514990  0.250000  0.474793  1
  O  O18  1  0.985010  0.250000  0.974793  1
  O  O19  1  0.485010  0.750000  0.525207  1
  O  O20  1  0.493035  0.115706  0.886588  1
  O  O21  1  0.993035  0.884294  0.613412  1
  O  O22  1  0.506965  0.615706  0.113412  1
  O  O23  1  0.006965  0.384294  0.386588  1
  O  O24  1  0.506965  0.884294  0.113412  1
  O  O25  1  0.006965  0.115706  0.386588  1
  O  O26  1  0.493035  0.384294  0.886588  1
  O  O27  1  0.993035  0.615706  0.613412  1
  O  O28  1  0.002436  0.469906  0.200217  1
  O  O29  1  0.502436  0.530094  0.299783  1
  O  O30  1  0.997564  0.969906  0.799783  1
  O  O31  1  0.493249  0.126006  0.066971  1
  O  O32  1  0.997564  0.530094  0.799783  1
  O  O33  1  0.497564  0.469906  0.700217  1
  O  O34  1  0.002436  0.030094  0.200217  1
  O  O35  1  0.502436  0.969906  0.299783  1
  O  O36  1  0.993249  0.626006  0.433029  1
  O  O37  1  0.493249  0.373994  0.066971  1
  O  O38  1  0.497564  0.030094  0.700217  1
  O  O39  1  0.506751  0.873994  0.933029  1
  O  O40  1  0.006751  0.373994  0.566971  1
  O  O41  1  0.506751  0.626006  0.933029  1
  O  O42  1  0.993249  0.873994  0.433029  1
  O  O43  1  0.014990  0.750000  0.025207  1
