# generated using pymatgen
data_As2SO6
_symmetry_space_group_name_H-M   'P 1'
_cell_length_a   4.85663163
_cell_length_b   5.07932858
_cell_length_c   11.57712596
_cell_angle_alpha   90.00000000
_cell_angle_beta   90.00000000
_cell_angle_gamma   90.00000000
_symmetry_Int_Tables_number   1
_chemical_formula_structural   As2SO6
_chemical_formula_sum   'As4 S2 O12'
_cell_volume   285.58949635
_cell_formula_units_Z   2
loop_
 _symmetry_equiv_pos_site_id
 _symmetry_equiv_pos_as_xyz
  1  'x, y, z'
loop_
 _atom_site_type_symbol
 _atom_site_label
 _atom_site_symmetry_multiplicity
 _atom_site_fract_x
 _atom_site_fract_y
 _atom_site_fract_z
 _atom_site_occupancy
  As  As0  1  0.759837  0.831491  0.309209  1
  As  As1  1  0.240163  0.831491  0.690791  1
  As  As2  1  0.259837  0.168509  0.190791  1
  As  As3  1  0.740163  0.168509  0.809209  1
  S  S4  1  0.000000  0.796000  0.000000  1
  S  S5  1  0.500000  0.204000  0.500000  1
  O  O6  1  0.885711  0.642707  0.094641  1
  O  O7  1  0.114289  0.642707  0.905359  1
  O  O8  1  0.385711  0.357293  0.405359  1
  O  O9  1  0.614289  0.357293  0.594641  1
  O  O10  1  0.413852  0.879267  0.259402  1
  O  O11  1  0.586148  0.879267  0.740598  1
  O  O12  1  0.272343  0.016028  0.543765  1
  O  O13  1  0.727657  0.016028  0.456235  1
  O  O14  1  0.772343  0.983972  0.956235  1
  O  O15  1  0.227657  0.983972  0.043765  1
  O  O16  1  0.086148  0.120733  0.759402  1
  O  O17  1  0.913852  0.120733  0.240598  1
