# generated using pymatgen
data_MnSeO3
_symmetry_space_group_name_H-M   'P 1'
_cell_length_a   5.20879867
_cell_length_b   6.19022030
_cell_length_c   8.02169598
_cell_angle_alpha   90.00000000
_cell_angle_beta   90.00000000
_cell_angle_gamma   90.00000000
_symmetry_Int_Tables_number   1
_chemical_formula_structural   MnSeO3
_chemical_formula_sum   'Mn4 Se4 O12'
_cell_volume   258.64844687
_cell_formula_units_Z   4
loop_
 _symmetry_equiv_pos_site_id
 _symmetry_equiv_pos_as_xyz
  1  'x, y, z'
loop_
 _atom_site_type_symbol
 _atom_site_label
 _atom_site_symmetry_multiplicity
 _atom_site_fract_x
 _atom_site_fract_y
 _atom_site_fract_z
 _atom_site_occupancy
  Mn  Mn0  1  0.500000  0.000000  0.000000  1
  Mn  Mn1  1  0.000000  0.500000  0.000000  1
  Mn  Mn2  1  0.000000  0.500000  0.500000  1
  Mn  Mn3  1  0.500000  0.000000  0.500000  1
  Se  Se4  1  0.982740  0.026714  0.250000  1
  Se  Se5  1  0.482740  0.473286  0.750000  1
  Se  Se6  1  0.517260  0.526714  0.250000  1
  Se  Se7  1  0.017260  0.973286  0.750000  1
  O  O8  1  0.865303  0.181339  0.417075  1
  O  O9  1  0.365303  0.318661  0.582925  1
  O  O10  1  0.634697  0.681339  0.082925  1
  O  O11  1  0.134697  0.818661  0.917075  1
  O  O12  1  0.134697  0.818661  0.582925  1
  O  O13  1  0.634697  0.681339  0.417075  1
  O  O14  1  0.365303  0.318661  0.917075  1
  O  O15  1  0.865303  0.181339  0.082925  1
  O  O16  1  0.311650  0.077967  0.250000  1
  O  O17  1  0.811650  0.422033  0.750000  1
  O  O18  1  0.188350  0.577967  0.250000  1
  O  O19  1  0.688350  0.922033  0.750000  1
