# generated using pymatgen
data_AgW3Br7
_symmetry_space_group_name_H-M   'P 1'
_cell_length_a   9.98730317
_cell_length_b   16.08264862
_cell_length_c   10.24130826
_cell_angle_alpha   90.00000000
_cell_angle_beta   120.34035478
_cell_angle_gamma   90.00000000
_symmetry_Int_Tables_number   1
_chemical_formula_structural   AgW3Br7
_chemical_formula_sum   'Ag4 W12 Br28'
_cell_volume   1419.68555288
_cell_formula_units_Z   4
loop_
 _symmetry_equiv_pos_site_id
 _symmetry_equiv_pos_as_xyz
  1  'x, y, z'
loop_
 _atom_site_type_symbol
 _atom_site_label
 _atom_site_symmetry_multiplicity
 _atom_site_fract_x
 _atom_site_fract_y
 _atom_site_fract_z
 _atom_site_occupancy
  Ag  Ag0  1  0.081488  0.287467  0.167541  1
  Ag  Ag1  1  0.918512  0.787467  0.332459  1
  Ag  Ag2  1  0.918512  0.712533  0.832459  1
  Ag  Ag3  1  0.081488  0.212533  0.667541  1
  W  W4  1  0.354185  0.059636  0.329524  1
  W  W5  1  0.593259  0.537936  0.891460  1
  W  W6  1  0.593259  0.962064  0.391460  1
  W  W7  1  0.406741  0.462064  0.108540  1
  W  W8  1  0.406741  0.037936  0.608540  1
  W  W9  1  0.645815  0.559636  0.170476  1
  W  W10  1  0.645815  0.940364  0.670476  1
  W  W11  1  0.354185  0.440364  0.829524  1
  W  W12  1  0.632037  0.092804  0.565051  1
  W  W13  1  0.367963  0.592804  0.934949  1
  W  W14  1  0.367963  0.907196  0.434949  1
  W  W15  1  0.632037  0.407196  0.065051  1
  Br  Br16  1  0.315321  0.571009  0.656016  1
  Br  Br17  1  0.189511  0.727304  0.845742  1
  Br  Br18  1  0.189511  0.772696  0.345742  1
  Br  Br19  1  0.810489  0.272696  0.154258  1
  Br  Br20  1  0.277846  0.087142  0.767793  1
  Br  Br21  1  0.722154  0.587142  0.732207  1
  Br  Br22  1  0.722154  0.912858  0.232207  1
  Br  Br23  1  0.277846  0.412858  0.267793  1
  Br  Br24  1  0.147104  0.141480  0.086128  1
  Br  Br25  1  0.852896  0.641480  0.413872  1
  Br  Br26  1  0.852896  0.858520  0.913872  1
  Br  Br27  1  0.147104  0.358520  0.586128  1
  Br  Br28  1  0.579132  0.385794  0.785514  1
  Br  Br29  1  0.420868  0.885794  0.714486  1
  Br  Br30  1  0.420868  0.614206  0.214486  1
  Br  Br31  1  0.392014  0.190190  0.503884  1
  Br  Br32  1  0.871115  0.504596  0.127425  1
  Br  Br33  1  0.128885  0.004596  0.372575  1
  Br  Br34  1  0.128885  0.495404  0.872575  1
  Br  Br35  1  0.871115  0.995404  0.627425  1
  Br  Br36  1  0.684679  0.428991  0.343984  1
  Br  Br37  1  0.315321  0.928991  0.156016  1
  Br  Br38  1  0.579132  0.114206  0.285514  1
  Br  Br39  1  0.684679  0.071009  0.843984  1
  Br  Br40  1  0.392014  0.309810  0.003884  1
  Br  Br41  1  0.607986  0.809810  0.496116  1
  Br  Br42  1  0.607986  0.690190  0.996116  1
  Br  Br43  1  0.810489  0.227304  0.654258  1
