# generated using pymatgen
data_Ge19(PBr)4
_symmetry_space_group_name_H-M   'P 1'
_cell_length_a   10.57329292
_cell_length_b   10.57329292
_cell_length_c   10.57329292
_cell_angle_alpha   90.00000000
_cell_angle_beta   90.00000000
_cell_angle_gamma   90.00000000
_symmetry_Int_Tables_number   1
_chemical_formula_structural   Ge19(PBr)4
_chemical_formula_sum   'Ge38 P8 Br8'
_cell_volume   1182.03624035
_cell_formula_units_Z   2
loop_
 _symmetry_equiv_pos_site_id
 _symmetry_equiv_pos_as_xyz
  1  'x, y, z'
loop_
 _atom_site_type_symbol
 _atom_site_label
 _atom_site_symmetry_multiplicity
 _atom_site_fract_x
 _atom_site_fract_y
 _atom_site_fract_z
 _atom_site_occupancy
  Ge  Ge0  1  0.997729  0.118476  0.306797  1
  Ge  Ge1  1  0.502271  0.806797  0.381524  1
  Ge  Ge2  1  0.502271  0.193203  0.618476  1
  Ge  Ge3  1  0.193203  0.381524  0.497729  1
  Ge  Ge4  1  0.806797  0.381524  0.502271  1
  Ge  Ge5  1  0.618476  0.502271  0.193203  1
  Ge  Ge6  1  0.381524  0.497729  0.193203  1
  Ge  Ge7  1  0.306797  0.997729  0.118476  1
  Ge  Ge8  1  0.118476  0.306797  0.997729  1
  Ge  Ge9  1  0.881524  0.693203  0.997729  1
  Ge  Ge10  1  0.306797  0.002271  0.881524  1
  Ge  Ge11  1  0.881524  0.306797  0.002271  1
  Ge  Ge12  1  0.693203  0.002271  0.118476  1
  Ge  Ge13  1  0.693203  0.997729  0.881524  1
  Ge  Ge14  1  0.118476  0.693203  0.002271  1
  Ge  Ge15  1  0.997729  0.881524  0.693203  1
  Ge  Ge16  1  0.002271  0.118476  0.693203  1
  Ge  Ge17  1  0.002271  0.881524  0.306797  1
  Ge  Ge18  1  0.381524  0.502271  0.806797  1
  Ge  Ge19  1  0.618476  0.497729  0.806797  1
  Ge  Ge20  1  0.193203  0.618476  0.502271  1
  Ge  Ge21  1  0.806797  0.618476  0.497729  1
  Ge  Ge22  1  0.497729  0.193203  0.381524  1
  Ge  Ge23  1  0.497729  0.806797  0.618476  1
  Ge  Ge24  1  0.184771  0.184771  0.184771  1
  Ge  Ge25  1  0.315229  0.684771  0.315229  1
  Ge  Ge26  1  0.315229  0.315229  0.684771  1
  Ge  Ge27  1  0.684771  0.315229  0.315229  1
  Ge  Ge28  1  0.815229  0.815229  0.184771  1
  Ge  Ge29  1  0.184771  0.815229  0.815229  1
  Ge  Ge30  1  0.815229  0.184771  0.815229  1
  Ge  Ge31  1  0.684771  0.684771  0.684771  1
  Ge  Ge32  1  0.000000  0.250000  0.500000  1
  Ge  Ge33  1  0.500000  0.000000  0.250000  1
  Ge  Ge34  1  0.500000  0.000000  0.750000  1
  Ge  Ge35  1  0.750000  0.500000  0.000000  1
  Ge  Ge36  1  0.250000  0.500000  0.000000  1
  Ge  Ge37  1  0.000000  0.750000  0.500000  1
  P  P38  1  0.815457  0.815457  0.815457  1
  P  P39  1  0.684543  0.315457  0.684543  1
  P  P40  1  0.684543  0.684543  0.315457  1
  P  P41  1  0.315457  0.684543  0.684543  1
  P  P42  1  0.184543  0.184543  0.815457  1
  P  P43  1  0.815457  0.184543  0.184543  1
  P  P44  1  0.184543  0.815457  0.184543  1
  P  P45  1  0.315457  0.315457  0.315457  1
  Br  Br46  1  0.000000  0.500000  0.250000  1
  Br  Br47  1  0.500000  0.750000  0.000000  1
  Br  Br48  1  0.500000  0.250000  0.000000  1
  Br  Br49  1  0.250000  0.000000  0.500000  1
  Br  Br50  1  0.750000  0.000000  0.500000  1
  Br  Br51  1  0.000000  0.500000  0.750000  1
  Br  Br52  1  0.000000  0.000000  0.000000  1
  Br  Br53  1  0.500000  0.500000  0.500000  1
