# generated using pymatgen
data_In3(PO4)2
_symmetry_space_group_name_H-M   'P 1'
_cell_length_a   9.81067271
_cell_length_b   9.81067271
_cell_length_c   9.81067271
_cell_angle_alpha   109.47122063
_cell_angle_beta   109.47122063
_cell_angle_gamma   109.47122063
_symmetry_Int_Tables_number   1
_chemical_formula_structural   In3(PO4)2
_chemical_formula_sum   'In12 P8 O32'
_cell_volume   726.89966994
_cell_formula_units_Z   4
loop_
 _symmetry_equiv_pos_site_id
 _symmetry_equiv_pos_as_xyz
  1  'x, y, z'
loop_
 _atom_site_type_symbol
 _atom_site_label
 _atom_site_symmetry_multiplicity
 _atom_site_fract_x
 _atom_site_fract_y
 _atom_site_fract_z
 _atom_site_occupancy
  In  In0  1  0.750000  0.994358  0.244358  1
  In  In1  1  0.750000  0.755642  0.005642  1
  In  In2  1  0.494358  0.250000  0.744358  1
  In  In3  1  0.744358  0.494358  0.250000  1
  In  In4  1  0.005642  0.750000  0.755642  1
  In  In5  1  0.755642  0.005642  0.750000  1
  In  In6  1  0.250000  0.505642  0.255642  1
  In  In7  1  0.505642  0.255642  0.250000  1
  In  In8  1  0.994358  0.244358  0.750000  1
  In  In9  1  0.244358  0.750000  0.994358  1
  In  In10  1  0.255642  0.250000  0.505642  1
  In  In11  1  0.250000  0.744358  0.494358  1
  P  P12  1  0.092248  0.092248  0.092248  1
  P  P13  1  0.907752  0.500000  0.000000  1
  P  P14  1  0.500000  1.000000  0.907752  1
  P  P15  1  1.000000  0.907752  0.500000  1
  P  P16  1  0.500000  1.000000  0.407752  1
  P  P17  1  1.000000  0.407752  0.500000  1
  P  P18  1  0.407752  0.500000  0.000000  1
  P  P19  1  0.592248  0.592248  0.592248  1
  O  O20  1  0.930701  0.930701  0.930701  1
  O  O21  1  0.069299  0.500000  0.000000  1
  O  O22  1  0.500000  1.000000  0.069299  1
  O  O23  1  1.000000  0.069299  0.500000  1
  O  O24  1  0.500000  1.000000  0.569299  1
  O  O25  1  1.000000  0.569299  0.500000  1
  O  O26  1  0.569299  0.500000  0.000000  1
  O  O27  1  0.430701  0.430701  0.430701  1
  O  O28  1  0.418137  0.508163  0.163676  1
  O  O29  1  0.991837  0.409974  0.655513  1
  O  O30  1  0.336324  0.844487  0.254461  1
  O  O31  1  0.081863  0.245539  0.090026  1
  O  O32  1  0.245539  0.090026  0.081863  1
  O  O33  1  0.090026  0.081863  0.245539  1
  O  O34  1  0.918137  0.663676  0.008163  1
  O  O35  1  0.155513  0.909974  0.491837  1
  O  O36  1  0.344487  0.836324  0.754461  1
  O  O37  1  0.590026  0.745539  0.581863  1
  O  O38  1  0.745539  0.581863  0.590026  1
  O  O39  1  0.008163  0.918137  0.663676  1
  O  O40  1  0.581863  0.590026  0.745539  1
  O  O41  1  0.409974  0.655513  0.991837  1
  O  O42  1  0.163676  0.418137  0.508163  1
  O  O43  1  0.508163  0.163676  0.418137  1
  O  O44  1  0.254461  0.336324  0.844487  1
  O  O45  1  0.844487  0.254461  0.336324  1
  O  O46  1  0.655513  0.991837  0.409974  1
  O  O47  1  0.836324  0.754461  0.344487  1
  O  O48  1  0.491837  0.155513  0.909974  1
  O  O49  1  0.663676  0.008163  0.918137  1
  O  O50  1  0.754461  0.344487  0.836324  1
  O  O51  1  0.909974  0.491837  0.155513  1
