# generated using pymatgen
data_Na2SbF5
_symmetry_space_group_name_H-M   'P 1'
_cell_length_a   5.55617192
_cell_length_b   8.24007661
_cell_length_c   11.41802502
_cell_angle_alpha   90.00000000
_cell_angle_beta   90.00000000
_cell_angle_gamma   90.00000000
_symmetry_Int_Tables_number   1
_chemical_formula_structural   Na2SbF5
_chemical_formula_sum   'Na8 Sb4 F20'
_cell_volume   522.75466256
_cell_formula_units_Z   4
loop_
 _symmetry_equiv_pos_site_id
 _symmetry_equiv_pos_as_xyz
  1  'x, y, z'
loop_
 _atom_site_type_symbol
 _atom_site_label
 _atom_site_symmetry_multiplicity
 _atom_site_fract_x
 _atom_site_fract_y
 _atom_site_fract_z
 _atom_site_occupancy
  Na  Na0  1  0.429812  0.856278  0.435131  1
  Na  Na1  1  0.929812  0.643722  0.564869  1
  Na  Na2  1  0.570188  0.356278  0.064869  1
  Na  Na3  1  0.070188  0.143722  0.935131  1
  Na  Na4  1  0.010859  0.602454  0.239345  1
  Na  Na5  1  0.510859  0.897546  0.760655  1
  Na  Na6  1  0.989141  0.102454  0.260655  1
  Na  Na7  1  0.489141  0.397546  0.739345  1
  Sb  Sb8  1  0.497746  0.424621  0.384242  1
  Sb  Sb9  1  0.997746  0.075379  0.615758  1
  Sb  Sb10  1  0.502254  0.924621  0.115758  1
  Sb  Sb11  1  0.002254  0.575379  0.884242  1
  F  F12  1  0.272157  0.398563  0.927612  1
  F  F13  1  0.772157  0.101437  0.072388  1
  F  F14  1  0.727843  0.898563  0.572388  1
  F  F15  1  0.227843  0.601437  0.427612  1
  F  F16  1  0.110102  0.508576  0.715010  1
  F  F17  1  0.610102  0.991424  0.284990  1
  F  F18  1  0.889898  0.008576  0.784990  1
  F  F19  1  0.389898  0.491424  0.215010  1
  F  F20  1  0.855095  0.554904  0.056157  1
  F  F21  1  0.355095  0.945096  0.943843  1
  F  F22  1  0.144905  0.054904  0.443843  1
  F  F23  1  0.644905  0.445096  0.556157  1
  F  F24  1  0.822681  0.354185  0.301515  1
  F  F25  1  0.322681  0.145815  0.698485  1
  F  F26  1  0.177319  0.854185  0.198485  1
  F  F27  1  0.677319  0.645815  0.801515  1
  F  F28  1  0.681991  0.635972  0.374210  1
  F  F29  1  0.181991  0.864028  0.625790  1
  F  F30  1  0.318009  0.135972  0.125790  1
  F  F31  1  0.818009  0.364028  0.874210  1
