# generated using pymatgen
data_SiAg2O3
_symmetry_space_group_name_H-M   'P 1'
_cell_length_a   4.61256773
_cell_length_b   7.12957008
_cell_length_c   10.25375802
_cell_angle_alpha   90.00000000
_cell_angle_beta   90.00000000
_cell_angle_gamma   90.00000000
_symmetry_Int_Tables_number   1
_chemical_formula_structural   SiAg2O3
_chemical_formula_sum   'Si4 Ag8 O12'
_cell_volume   337.20123985
_cell_formula_units_Z   4
loop_
 _symmetry_equiv_pos_site_id
 _symmetry_equiv_pos_as_xyz
  1  'x, y, z'
loop_
 _atom_site_type_symbol
 _atom_site_label
 _atom_site_symmetry_multiplicity
 _atom_site_fract_x
 _atom_site_fract_y
 _atom_site_fract_z
 _atom_site_occupancy
  Si  Si0  1  0.953069  0.141985  0.437124  1
  Si  Si1  1  0.046931  0.641985  0.062876  1
  Si  Si2  1  0.453069  0.358015  0.562876  1
  Si  Si3  1  0.546931  0.858015  0.937124  1
  Ag  Ag4  1  0.399679  0.863909  0.618025  1
  Ag  Ag5  1  0.100321  0.136091  0.118025  1
  Ag  Ag6  1  0.600321  0.363909  0.881975  1
  Ag  Ag7  1  0.899679  0.636091  0.381975  1
  Ag  Ag8  1  0.976479  0.592163  0.723691  1
  Ag  Ag9  1  0.476479  0.907837  0.276309  1
  Ag  Ag10  1  0.023521  0.092163  0.776309  1
  Ag  Ag11  1  0.523521  0.407837  0.223691  1
  O  O12  1  0.303795  0.345426  0.708823  1
  O  O13  1  0.803795  0.154574  0.291177  1
  O  O14  1  0.696205  0.845426  0.791177  1
  O  O15  1  0.196205  0.654574  0.208823  1
  O  O16  1  0.903310  0.437547  0.036966  1
  O  O17  1  0.403310  0.062453  0.963034  1
  O  O18  1  0.096690  0.937547  0.463034  1
  O  O19  1  0.198596  0.312700  0.451465  1
  O  O20  1  0.301404  0.687300  0.951465  1
  O  O21  1  0.801404  0.812700  0.048535  1
  O  O22  1  0.698596  0.187300  0.548535  1
  O  O23  1  0.596690  0.562453  0.536966  1
