# generated using pymatgen
data_Sb2TeF14
_symmetry_space_group_name_H-M   'P 1'
_cell_length_a   7.61106428
_cell_length_b   14.56543109
_cell_length_c   10.00291689
_cell_angle_alpha   90.00000000
_cell_angle_beta   91.50525938
_cell_angle_gamma   90.00000000
_symmetry_Int_Tables_number   1
_chemical_formula_structural   Sb2TeF14
_chemical_formula_sum   'Sb8 Te4 F56'
_cell_volume   1108.52502097
_cell_formula_units_Z   4
loop_
 _symmetry_equiv_pos_site_id
 _symmetry_equiv_pos_as_xyz
  1  'x, y, z'
loop_
 _atom_site_type_symbol
 _atom_site_label
 _atom_site_symmetry_multiplicity
 _atom_site_fract_x
 _atom_site_fract_y
 _atom_site_fract_z
 _atom_site_occupancy
  Sb  Sb0  1  0.666217  0.108263  0.730559  1
  Sb  Sb1  1  0.333783  0.608263  0.769441  1
  Sb  Sb2  1  0.333783  0.891737  0.269441  1
  Sb  Sb3  1  0.666217  0.391737  0.230559  1
  Sb  Sb4  1  0.097325  0.944289  0.758587  1
  Sb  Sb5  1  0.902675  0.444289  0.741413  1
  Sb  Sb6  1  0.902675  0.055711  0.241413  1
  Sb  Sb7  1  0.097325  0.555711  0.258587  1
  Te  Te8  1  0.783058  0.730333  0.973839  1
  Te  Te9  1  0.216942  0.230333  0.526161  1
  Te  Te10  1  0.216942  0.269667  0.026161  1
  Te  Te11  1  0.783058  0.769667  0.473839  1
  F  F12  1  0.529325  0.022938  0.824136  1
  F  F13  1  0.470675  0.522938  0.675864  1
  F  F14  1  0.470675  0.977062  0.175864  1
  F  F15  1  0.529325  0.477062  0.324136  1
  F  F16  1  0.831522  0.183871  0.642249  1
  F  F17  1  0.168478  0.683871  0.857751  1
  F  F18  1  0.168478  0.816129  0.357751  1
  F  F19  1  0.831522  0.316129  0.142249  1
  F  F20  1  0.643365  0.038620  0.571927  1
  F  F21  1  0.356635  0.538620  0.928073  1
  F  F22  1  0.356635  0.961380  0.428073  1
  F  F23  1  0.643365  0.461380  0.071927  1
  F  F24  1  0.632447  0.828176  0.591261  1
  F  F25  1  0.367553  0.328176  0.908739  1
  F  F26  1  0.367553  0.171824  0.408739  1
  F  F27  1  0.632447  0.671824  0.091261  1
  F  F28  1  0.899227  0.713770  0.620733  1
  F  F29  1  0.100773  0.213770  0.879267  1
  F  F30  1  0.100773  0.286230  0.379267  1
  F  F31  1  0.899227  0.786230  0.120733  1
  F  F32  1  0.635092  0.668096  0.459837  1
  F  F33  1  0.364908  0.168096  0.040163  1
  F  F34  1  0.364908  0.331904  0.540163  1
  F  F35  1  0.635092  0.831904  0.959837  1
  F  F36  1  0.964955  0.649178  0.351174  1
  F  F37  1  0.035045  0.149178  0.148826  1
  F  F38  1  0.035045  0.350822  0.648826  1
  F  F39  1  0.964955  0.850822  0.851174  1
  F  F40  1  0.980659  0.598246  0.096674  1
  F  F41  1  0.019341  0.098246  0.403326  1
  F  F42  1  0.019341  0.401754  0.903326  1
  F  F43  1  0.980659  0.901754  0.596674  1
  F  F44  1  0.461798  0.316114  0.183040  1
  F  F45  1  0.538202  0.816114  0.316960  1
  F  F46  1  0.538202  0.683886  0.816960  1
  F  F47  1  0.461798  0.183886  0.683040  1
  F  F48  1  0.172884  0.505997  0.423903  1
  F  F49  1  0.827116  0.005997  0.076097  1
  F  F50  1  0.827116  0.494003  0.576097  1
  F  F51  1  0.172884  0.994003  0.923903  1
  F  F52  1  0.182582  0.452629  0.162361  1
  F  F53  1  0.817418  0.952629  0.337639  1
  F  F54  1  0.817418  0.547371  0.837639  1
  F  F55  1  0.182582  0.047371  0.662361  1
  F  F56  1  0.292675  0.632064  0.234397  1
  F  F57  1  0.707325  0.132064  0.265603  1
  F  F58  1  0.707325  0.367936  0.765603  1
  F  F59  1  0.292675  0.867936  0.734397  1
  F  F60  1  0.877119  0.476834  0.283298  1
  F  F61  1  0.122881  0.976834  0.216702  1
  F  F62  1  0.122881  0.523166  0.716702  1
  F  F63  1  0.877119  0.023166  0.783298  1
  F  F64  1  0.713260  0.325618  0.389840  1
  F  F65  1  0.286740  0.825618  0.110160  1
  F  F66  1  0.286740  0.674382  0.610160  1
  F  F67  1  0.713260  0.174382  0.889840  1
