# generated using pymatgen
data_NbCl5
_symmetry_space_group_name_H-M   'P 1'
_cell_length_a   13.67769948
_cell_length_b   13.67769948
_cell_length_c   6.41346561
_cell_angle_alpha   89.41127810
_cell_angle_beta   90.58872190
_cell_angle_gamma   94.05334302
_symmetry_Int_Tables_number   1
_chemical_formula_structural   NbCl5
_chemical_formula_sum   'Nb6 Cl30'
_cell_volume   1196.70852349
_cell_formula_units_Z   6
loop_
 _symmetry_equiv_pos_site_id
 _symmetry_equiv_pos_as_xyz
  1  'x, y, z'
loop_
 _atom_site_type_symbol
 _atom_site_label
 _atom_site_symmetry_multiplicity
 _atom_site_fract_x
 _atom_site_fract_y
 _atom_site_fract_z
 _atom_site_occupancy
  Nb  Nb0  1  0.441497  0.774887  0.524798  1
  Nb  Nb1  1  0.774887  0.441497  0.475202  1
  Nb  Nb2  1  0.558503  0.225113  0.475202  1
  Nb  Nb3  1  0.225113  0.558503  0.524798  1
  Nb  Nb4  1  0.108155  0.108155  0.000000  1
  Nb  Nb5  1  0.891845  0.891845  0.000000  1
  Cl  Cl6  1  0.523522  0.669331  0.742432  1
  Cl  Cl7  1  0.669331  0.523522  0.257568  1
  Cl  Cl8  1  0.476478  0.330669  0.257568  1
  Cl  Cl9  1  0.330669  0.476478  0.742432  1
  Cl  Cl10  1  0.570294  0.798325  0.300677  1
  Cl  Cl11  1  0.798325  0.570294  0.699323  1
  Cl  Cl12  1  0.868484  0.762538  0.227487  1
  Cl  Cl13  1  0.762538  0.868484  0.772513  1
  Cl  Cl14  1  0.131516  0.237462  0.772513  1
  Cl  Cl15  1  0.237462  0.131516  0.227487  1
  Cl  Cl16  1  0.997321  0.810237  0.789844  1
  Cl  Cl17  1  0.810237  0.997321  0.210156  1
  Cl  Cl18  1  0.002679  0.189763  0.210156  1
  Cl  Cl19  1  0.189763  0.002679  0.789844  1
  Cl  Cl20  1  0.047910  0.952090  0.205285  1
  Cl  Cl21  1  0.952090  0.047910  0.794715  1
  Cl  Cl22  1  0.285786  0.714214  0.726431  1
  Cl  Cl23  1  0.714214  0.285786  0.273569  1
  Cl  Cl24  1  0.096226  0.534984  0.748673  1
  Cl  Cl25  1  0.534984  0.096226  0.251327  1
  Cl  Cl26  1  0.903774  0.465016  0.251327  1
  Cl  Cl27  1  0.465016  0.903774  0.748673  1
  Cl  Cl28  1  0.143218  0.664346  0.307718  1
  Cl  Cl29  1  0.664346  0.143218  0.692282  1
  Cl  Cl30  1  0.856782  0.335654  0.692282  1
  Cl  Cl31  1  0.335654  0.856782  0.307718  1
  Cl  Cl32  1  0.380956  0.619044  0.323521  1
  Cl  Cl33  1  0.619044  0.380956  0.676479  1
  Cl  Cl34  1  0.201675  0.429706  0.300677  1
  Cl  Cl35  1  0.429706  0.201675  0.699323  1
