# generated using pymatgen
data_Na4SnO3
_symmetry_space_group_name_H-M   'P 1'
_cell_length_a   8.92870691
_cell_length_b   8.92870691
_cell_length_c   5.94702592
_cell_angle_alpha   83.52458794
_cell_angle_beta   96.47541206
_cell_angle_gamma   38.44392386
_symmetry_Int_Tables_number   1
_chemical_formula_structural   Na4SnO3
_chemical_formula_sum   'Na8 Sn2 O6'
_cell_volume   276.94176723
_cell_formula_units_Z   2
loop_
 _symmetry_equiv_pos_site_id
 _symmetry_equiv_pos_as_xyz
  1  'x, y, z'
loop_
 _atom_site_type_symbol
 _atom_site_label
 _atom_site_symmetry_multiplicity
 _atom_site_fract_x
 _atom_site_fract_y
 _atom_site_fract_z
 _atom_site_occupancy
  Na  Na0  1  0.524166  0.543225  0.749978  1
  Na  Na1  1  0.962697  0.951226  0.781391  1
  Na  Na2  1  0.599007  0.683708  0.306419  1
  Na  Na3  1  0.316292  0.400993  0.806419  1
  Na  Na4  1  0.755745  0.736794  0.748296  1
  Na  Na5  1  0.263206  0.244255  0.248296  1
  Na  Na6  1  0.048774  0.037303  0.281391  1
  Na  Na7  1  0.456775  0.475834  0.249978  1
  Sn  Sn8  1  0.867939  0.844850  0.250576  1
  Sn  Sn9  1  0.155150  0.132061  0.750576  1
  O  O10  1  0.047330  0.628337  0.027797  1
  O  O11  1  0.371663  0.952670  0.527797  1
  O  O12  1  0.177480  0.689394  0.487601  1
  O  O13  1  0.310606  0.822520  0.987601  1
  O  O14  1  0.702218  0.171049  0.040441  1
  O  O15  1  0.828951  0.297782  0.540441  1
