# generated using pymatgen
data_RbGeBr3
_symmetry_space_group_name_H-M   'P 1'
_cell_length_a   7.78259945
_cell_length_b   8.36803851
_cell_length_c   11.40551749
_cell_angle_alpha   90.00000000
_cell_angle_beta   90.00000000
_cell_angle_gamma   90.00000000
_symmetry_Int_Tables_number   1
_chemical_formula_structural   RbGeBr3
_chemical_formula_sum   'Rb4 Ge4 Br12'
_cell_volume   742.78537477
_cell_formula_units_Z   4
loop_
 _symmetry_equiv_pos_site_id
 _symmetry_equiv_pos_as_xyz
  1  'x, y, z'
loop_
 _atom_site_type_symbol
 _atom_site_label
 _atom_site_symmetry_multiplicity
 _atom_site_fract_x
 _atom_site_fract_y
 _atom_site_fract_z
 _atom_site_occupancy
  Rb  Rb0  1  0.974931  0.422475  0.749414  1
  Rb  Rb1  1  0.474931  0.077525  0.249414  1
  Rb  Rb2  1  0.525069  0.922475  0.749414  1
  Rb  Rb3  1  0.025069  0.577525  0.249414  1
  Ge  Ge4  1  0.483716  0.469220  0.519058  1
  Ge  Ge5  1  0.516284  0.530780  0.019058  1
  Ge  Ge6  1  0.016284  0.969220  0.519058  1
  Ge  Ge7  1  0.983716  0.030780  0.019058  1
  Br  Br8  1  0.323681  0.781282  0.037429  1
  Br  Br9  1  0.176319  0.281282  0.037429  1
  Br  Br10  1  0.823681  0.718718  0.537429  1
  Br  Br11  1  0.292751  0.816267  0.468861  1
  Br  Br12  1  0.207249  0.316267  0.468861  1
  Br  Br13  1  0.792752  0.683733  0.968861  1
  Br  Br14  1  0.428152  0.498881  0.740437  1
  Br  Br15  1  0.707248  0.183733  0.968861  1
  Br  Br16  1  0.928152  0.001119  0.240437  1
  Br  Br17  1  0.571848  0.501119  0.240437  1
  Br  Br18  1  0.071848  0.998881  0.740437  1
  Br  Br19  1  0.676319  0.218718  0.537429  1
