# generated using pymatgen
data_Cs2SnTe4
_symmetry_space_group_name_H-M   'P 1'
_cell_length_a   7.80984487
_cell_length_b   12.13165061
_cell_length_c   12.92001251
_cell_angle_alpha   90.00000000
_cell_angle_beta   90.00000000
_cell_angle_gamma   90.00000000
_symmetry_Int_Tables_number   1
_chemical_formula_structural   Cs2SnTe4
_chemical_formula_sum   'Cs8 Sn4 Te16'
_cell_volume   1224.12350119
_cell_formula_units_Z   4
loop_
 _symmetry_equiv_pos_site_id
 _symmetry_equiv_pos_as_xyz
  1  'x, y, z'
loop_
 _atom_site_type_symbol
 _atom_site_label
 _atom_site_symmetry_multiplicity
 _atom_site_fract_x
 _atom_site_fract_y
 _atom_site_fract_z
 _atom_site_occupancy
  Cs  Cs0  1  0.894915  0.055267  0.853678  1
  Cs  Cs1  1  0.394915  0.944733  0.646322  1
  Cs  Cs2  1  0.105085  0.555267  0.146322  1
  Cs  Cs3  1  0.605085  0.444733  0.353678  1
  Cs  Cs4  1  0.105085  0.944733  0.146322  1
  Cs  Cs5  1  0.605085  0.055267  0.353678  1
  Cs  Cs6  1  0.894915  0.444733  0.853678  1
  Cs  Cs7  1  0.394915  0.555267  0.646322  1
  Sn  Sn8  1  0.497705  0.250000  0.065569  1
  Sn  Sn9  1  0.502295  0.750000  0.934431  1
  Sn  Sn10  1  0.002295  0.250000  0.565569  1
  Sn  Sn11  1  0.997705  0.750000  0.434431  1
  Te  Te12  1  0.159067  0.750000  0.875243  1
  Te  Te13  1  0.659067  0.250000  0.624757  1
  Te  Te14  1  0.840933  0.250000  0.124757  1
  Te  Te15  1  0.340933  0.750000  0.375243  1
  Te  Te16  1  0.748107  0.750000  0.275407  1
  Te  Te17  1  0.751893  0.750000  0.775407  1
  Te  Te18  1  0.248107  0.250000  0.224593  1
  Te  Te19  1  0.251893  0.250000  0.724593  1
  Te  Te20  1  0.908764  0.570660  0.570256  1
  Te  Te21  1  0.408764  0.429340  0.929744  1
  Te  Te22  1  0.091236  0.070660  0.429744  1
  Te  Te23  1  0.591236  0.929340  0.070256  1
  Te  Te24  1  0.091236  0.429340  0.429744  1
  Te  Te25  1  0.591236  0.570660  0.070256  1
  Te  Te26  1  0.908764  0.929340  0.570256  1
  Te  Te27  1  0.408764  0.070660  0.929744  1
