# generated using pymatgen
data_Ca3C3Cl2
_symmetry_space_group_name_H-M   'P 1'
_cell_length_a   7.02627847
_cell_length_b   7.02627847
_cell_length_c   11.56697812
_cell_angle_alpha   90.00000000
_cell_angle_beta   90.00000000
_cell_angle_gamma   148.10935631
_symmetry_Int_Tables_number   1
_chemical_formula_structural   Ca3C3Cl2
_chemical_formula_sum   'Ca6 C6 Cl4'
_cell_volume   301.68310413
_cell_formula_units_Z   2
loop_
 _symmetry_equiv_pos_site_id
 _symmetry_equiv_pos_as_xyz
  1  'x, y, z'
loop_
 _atom_site_type_symbol
 _atom_site_label
 _atom_site_symmetry_multiplicity
 _atom_site_fract_x
 _atom_site_fract_y
 _atom_site_fract_z
 _atom_site_occupancy
  Ca  Ca0  1  0.656782  0.343218  0.560910  1
  Ca  Ca1  1  0.343218  0.656782  0.439090  1
  Ca  Ca2  1  0.343218  0.656782  0.060910  1
  Ca  Ca3  1  0.656782  0.343218  0.939090  1
  Ca  Ca4  1  0.121279  0.878721  0.250000  1
  Ca  Ca5  1  0.878721  0.121279  0.750000  1
  C  C6  1  0.267288  0.732712  0.635148  1
  C  C7  1  0.732712  0.267288  0.364852  1
  C  C8  1  0.732712  0.267288  0.135148  1
  C  C9  1  0.267288  0.732712  0.864852  1
  C  C10  1  0.742173  0.257827  0.250000  1
  C  C11  1  0.257827  0.742173  0.750000  1
  Cl  Cl12  1  0.528993  0.471007  0.750000  1
  Cl  Cl13  1  0.471007  0.528993  0.250000  1
  Cl  Cl14  1  0.000000  0.000000  0.000000  1
  Cl  Cl15  1  0.000000  0.000000  0.500000  1
