# generated using pymatgen
data_K3NO4
_symmetry_space_group_name_H-M   'P 1'
_cell_length_a   5.78571077
_cell_length_b   8.08163313
_cell_length_c   11.01401771
_cell_angle_alpha   90.00000000
_cell_angle_beta   90.00000000
_cell_angle_gamma   90.00000000
_symmetry_Int_Tables_number   1
_chemical_formula_structural   K3NO4
_chemical_formula_sum   'K12 N4 O16'
_cell_volume   514.99335020
_cell_formula_units_Z   4
loop_
 _symmetry_equiv_pos_site_id
 _symmetry_equiv_pos_as_xyz
  1  'x, y, z'
loop_
 _atom_site_type_symbol
 _atom_site_label
 _atom_site_symmetry_multiplicity
 _atom_site_fract_x
 _atom_site_fract_y
 _atom_site_fract_z
 _atom_site_occupancy
  K  K0  1  0.173196  0.491269  0.355534  1
  K  K1  1  0.673196  0.508731  0.144466  1
  K  K2  1  0.826804  0.991269  0.644466  1
  K  K3  1  0.326804  0.008731  0.855534  1
  K  K4  1  0.826804  0.508731  0.644466  1
  K  K5  1  0.326804  0.491269  0.855534  1
  K  K6  1  0.173196  0.008731  0.355534  1
  K  K7  1  0.673196  0.991269  0.144466  1
  K  K8  1  0.374826  0.750000  0.567225  1
  K  K9  1  0.874826  0.250000  0.932775  1
  K  K10  1  0.625174  0.250000  0.432775  1
  K  K11  1  0.125174  0.750000  0.067225  1
  N  N12  1  0.786359  0.750000  0.383575  1
  N  N13  1  0.713641  0.750000  0.883575  1
  N  N14  1  0.213641  0.250000  0.616425  1
  N  N15  1  0.286359  0.250000  0.116425  1
  O  O16  1  0.850643  0.607329  0.891712  1
  O  O17  1  0.350643  0.392671  0.608288  1
  O  O18  1  0.149357  0.107329  0.108288  1
  O  O19  1  0.649357  0.892671  0.391712  1
  O  O20  1  0.593322  0.750000  0.772627  1
  O  O21  1  0.093322  0.250000  0.727373  1
  O  O22  1  0.406678  0.250000  0.227373  1
  O  O23  1  0.906678  0.750000  0.272627  1
  O  O24  1  0.149357  0.392671  0.108288  1
  O  O25  1  0.350643  0.107329  0.608288  1
  O  O26  1  0.850643  0.892671  0.891712  1
  O  O27  1  0.649357  0.607329  0.391712  1
  O  O28  1  0.948711  0.750000  0.479468  1
  O  O29  1  0.448711  0.250000  0.020532  1
  O  O30  1  0.051289  0.250000  0.520532  1
  O  O31  1  0.551289  0.750000  0.979468  1
