# generated using pymatgen
data_I2O5
_symmetry_space_group_name_H-M   'P 1'
_cell_length_a   8.46308027
_cell_length_b   5.22132806
_cell_length_c   11.13802591
_cell_angle_alpha   90.00000000
_cell_angle_beta   107.26140884
_cell_angle_gamma   90.00000000
_symmetry_Int_Tables_number   1
_chemical_formula_structural   I2O5
_chemical_formula_sum   'I8 O20'
_cell_volume   470.00582986
_cell_formula_units_Z   4
loop_
 _symmetry_equiv_pos_site_id
 _symmetry_equiv_pos_as_xyz
  1  'x, y, z'
loop_
 _atom_site_type_symbol
 _atom_site_label
 _atom_site_symmetry_multiplicity
 _atom_site_fract_x
 _atom_site_fract_y
 _atom_site_fract_z
 _atom_site_occupancy
  I  I0  1  0.335619  0.176907  0.626693  1
  I  I1  1  0.164381  0.676907  0.373307  1
  I  I2  1  0.664381  0.823093  0.373307  1
  I  I3  1  0.835619  0.323093  0.626693  1
  I  I4  1  0.279799  0.612095  0.873338  1
  I  I5  1  0.220201  0.112095  0.126662  1
  I  I6  1  0.720201  0.387905  0.126662  1
  I  I7  1  0.779799  0.887905  0.873338  1
  O  O8  1  0.378296  0.462138  0.751768  1
  O  O9  1  0.121704  0.962138  0.248232  1
  O  O10  1  0.621704  0.537862  0.248232  1
  O  O11  1  0.878296  0.037862  0.751768  1
  O  O12  1  0.201670  0.993289  0.691668  1
  O  O13  1  0.298330  0.493289  0.308332  1
  O  O14  1  0.798330  0.006711  0.308332  1
  O  O15  1  0.701670  0.506711  0.691668  1
  O  O16  1  0.841394  0.149021  0.988880  1
  O  O17  1  0.658606  0.649021  0.011120  1
  O  O18  1  0.158606  0.850979  0.011120  1
  O  O19  1  0.341394  0.350979  0.988880  1
  O  O20  1  0.564767  0.964266  0.802651  1
  O  O21  1  0.935233  0.464266  0.197349  1
  O  O22  1  0.435233  0.035734  0.197349  1
  O  O23  1  0.064767  0.535734  0.802651  1
  O  O24  1  0.666607  0.143354  0.511058  1
  O  O25  1  0.833393  0.643354  0.488942  1
  O  O26  1  0.333393  0.856646  0.488942  1
  O  O27  1  0.166607  0.356646  0.511058  1
