# generated using pymatgen
data_Sr5(AuO4)2
_symmetry_space_group_name_H-M   'P 1'
_cell_length_a   6.80998417
_cell_length_b   6.80998417
_cell_length_c   6.80998417
_cell_angle_alpha   103.63001217
_cell_angle_beta   103.63001217
_cell_angle_gamma   121.91749843
_symmetry_Int_Tables_number   1
_chemical_formula_structural   Sr5(AuO4)2
_chemical_formula_sum   'Sr5 Au2 O8'
_cell_volume   234.36606051
_cell_formula_units_Z   1
loop_
 _symmetry_equiv_pos_site_id
 _symmetry_equiv_pos_as_xyz
  1  'x, y, z'
loop_
 _atom_site_type_symbol
 _atom_site_label
 _atom_site_symmetry_multiplicity
 _atom_site_fract_x
 _atom_site_fract_y
 _atom_site_fract_z
 _atom_site_occupancy
  Sr  Sr0  1  0.721416  0.278584  0.000000  1
  Sr  Sr1  1  0.278584  0.721416  0.000000  1
  Sr  Sr2  1  0.721416  0.721416  0.442832  1
  Sr  Sr3  1  0.278584  0.278584  0.557168  1
  Sr  Sr4  1  0.000000  0.000000  0.000000  1
  Au  Au5  1  0.750000  0.250000  0.500000  1
  Au  Au6  1  0.250000  0.750000  0.500000  1
  O  O7  1  0.760448  0.505017  0.744570  1
  O  O8  1  0.760448  0.015878  0.255430  1
  O  O9  1  0.984122  0.239552  0.744570  1
  O  O10  1  0.494983  0.239552  0.255430  1
  O  O11  1  0.015878  0.760448  0.255430  1
  O  O12  1  0.505017  0.760448  0.744570  1
  O  O13  1  0.239552  0.494983  0.255430  1
  O  O14  1  0.239552  0.984122  0.744570  1
