# generated using pymatgen
data_BaBr2
_symmetry_space_group_name_H-M   'P 1'
_cell_length_a   5.07039402
_cell_length_b   8.40884152
_cell_length_c   10.09383651
_cell_angle_alpha   90.00000000
_cell_angle_beta   90.00000000
_cell_angle_gamma   90.00000000
_symmetry_Int_Tables_number   1
_chemical_formula_structural   BaBr2
_chemical_formula_sum   'Ba4 Br8'
_cell_volume   430.36222414
_cell_formula_units_Z   4
loop_
 _symmetry_equiv_pos_site_id
 _symmetry_equiv_pos_as_xyz
  1  'x, y, z'
loop_
 _atom_site_type_symbol
 _atom_site_label
 _atom_site_symmetry_multiplicity
 _atom_site_fract_x
 _atom_site_fract_y
 _atom_site_fract_z
 _atom_site_occupancy
  Ba  Ba0  1  0.250000  0.746068  0.612516  1
  Ba  Ba1  1  0.750000  0.253932  0.387484  1
  Ba  Ba2  1  0.250000  0.246068  0.887484  1
  Ba  Ba3  1  0.750000  0.753932  0.112516  1
  Br  Br4  1  0.250000  0.522704  0.334634  1
  Br  Br5  1  0.750000  0.477296  0.665366  1
  Br  Br6  1  0.250000  0.022704  0.165366  1
  Br  Br7  1  0.750000  0.977296  0.834634  1
  Br  Br8  1  0.750000  0.858380  0.426054  1
  Br  Br9  1  0.250000  0.141620  0.573946  1
  Br  Br10  1  0.750000  0.358380  0.073946  1
  Br  Br11  1  0.250000  0.641620  0.926054  1
