# generated using pymatgen
data_TlRe3(Se2Cl)2
_symmetry_space_group_name_H-M   'P 1'
_cell_length_a   6.68562939
_cell_length_b   9.11220421
_cell_length_c   9.16449934
_cell_angle_alpha   85.22973937
_cell_angle_beta   82.56066355
_cell_angle_gamma   69.43763752
_symmetry_Int_Tables_number   1
_chemical_formula_structural   TlRe3(Se2Cl)2
_chemical_formula_sum   'Tl2 Re6 Se8 Cl4'
_cell_volume   517.91187183
_cell_formula_units_Z   2
loop_
 _symmetry_equiv_pos_site_id
 _symmetry_equiv_pos_as_xyz
  1  'x, y, z'
loop_
 _atom_site_type_symbol
 _atom_site_label
 _atom_site_symmetry_multiplicity
 _atom_site_fract_x
 _atom_site_fract_y
 _atom_site_fract_z
 _atom_site_occupancy
  Tl  Tl0  1  0.178804  0.640399  0.469213  1
  Tl  Tl1  1  0.821196  0.359601  0.530787  1
  Re  Re2  1  0.272825  0.923909  0.022073  1
  Re  Re3  1  0.325571  0.178376  0.104326  1
  Re  Re4  1  0.674429  0.821624  0.895674  1
  Re  Re5  1  0.408479  0.102362  0.820837  1
  Re  Re6  1  0.591521  0.897638  0.179163  1
  Re  Re7  1  0.727175  0.076091  0.977927  1
  Se  Se8  1  0.974567  0.789913  0.055044  1
  Se  Se9  1  0.535720  0.657125  0.094369  1
  Se  Se10  1  0.360258  0.851782  0.754374  1
  Se  Se11  1  0.464280  0.342875  0.905631  1
  Se  Se12  1  0.202076  0.995190  0.291384  1
  Se  Se13  1  0.797924  0.004810  0.708616  1
  Se  Se14  1  0.639742  0.148218  0.245626  1
  Se  Se15  1  0.025433  0.210087  0.944956  1
  Cl  Cl16  1  0.097375  0.410626  0.239049  1
  Cl  Cl17  1  0.704836  0.761020  0.412967  1
  Cl  Cl18  1  0.902625  0.589374  0.760951  1
  Cl  Cl19  1  0.295164  0.238980  0.587033  1
