# generated using pymatgen
data_Sn5Sb2S9
_symmetry_space_group_name_H-M   'P 1'
_cell_length_a   11.53337316
_cell_length_b   11.62480984
_cell_length_c   11.66331637
_cell_angle_alpha   90.00000000
_cell_angle_beta   90.00000000
_cell_angle_gamma   90.00000000
_symmetry_Int_Tables_number   1
_chemical_formula_structural   Sn5Sb2S9
_chemical_formula_sum   'Sn20 Sb8 S36'
_cell_volume   1563.73896242
_cell_formula_units_Z   4
loop_
 _symmetry_equiv_pos_site_id
 _symmetry_equiv_pos_as_xyz
  1  'x, y, z'
loop_
 _atom_site_type_symbol
 _atom_site_label
 _atom_site_symmetry_multiplicity
 _atom_site_fract_x
 _atom_site_fract_y
 _atom_site_fract_z
 _atom_site_occupancy
  Sn  Sn0  1  0.000000  0.500000  0.000000  1
  Sn  Sn1  1  0.500000  0.500000  0.500000  1
  Sn  Sn2  1  0.000000  0.000000  0.500000  1
  Sn  Sn3  1  0.500000  0.000000  0.000000  1
  Sn  Sn4  1  0.936957  0.846881  0.195482  1
  Sn  Sn5  1  0.563043  0.153119  0.695482  1
  Sn  Sn6  1  0.063043  0.346881  0.304518  1
  Sn  Sn7  1  0.436957  0.653119  0.804518  1
  Sn  Sn8  1  0.063043  0.153119  0.804518  1
  Sn  Sn9  1  0.436957  0.846881  0.304518  1
  Sn  Sn10  1  0.936957  0.653119  0.695482  1
  Sn  Sn11  1  0.563043  0.346881  0.195482  1
  Sn  Sn12  1  0.648009  0.692405  0.062535  1
  Sn  Sn13  1  0.851991  0.307595  0.562535  1
  Sn  Sn14  1  0.351991  0.192405  0.437465  1
  Sn  Sn15  1  0.148009  0.807595  0.937465  1
  Sn  Sn16  1  0.351991  0.307595  0.937465  1
  Sn  Sn17  1  0.148009  0.692405  0.437465  1
  Sn  Sn18  1  0.648009  0.807595  0.562535  1
  Sn  Sn19  1  0.851991  0.192405  0.062535  1
  Sb  Sb20  1  0.796908  0.549475  0.360127  1
  Sb  Sb21  1  0.703092  0.450525  0.860127  1
  Sb  Sb22  1  0.203092  0.049475  0.139873  1
  Sb  Sb23  1  0.296908  0.950525  0.639873  1
  Sb  Sb24  1  0.203092  0.450525  0.639873  1
  Sb  Sb25  1  0.296908  0.549475  0.139873  1
  Sb  Sb26  1  0.796908  0.950525  0.860127  1
  Sb  Sb27  1  0.703092  0.049475  0.360127  1
  S  S28  1  0.571168  0.555542  0.293155  1
  S  S29  1  0.928832  0.444458  0.793155  1
  S  S30  1  0.428832  0.055542  0.206845  1
  S  S31  1  0.071168  0.944458  0.706845  1
  S  S32  1  0.428832  0.444458  0.706845  1
  S  S33  1  0.071168  0.555542  0.206845  1
  S  S34  1  0.571168  0.944458  0.793155  1
  S  S35  1  0.928832  0.055542  0.293155  1
  S  S36  1  0.946479  0.793879  0.445658  1
  S  S37  1  0.553521  0.206121  0.945658  1
  S  S38  1  0.053521  0.293879  0.054342  1
  S  S39  1  0.446479  0.706121  0.554342  1
  S  S40  1  0.053521  0.206121  0.554342  1
  S  S41  1  0.446479  0.793879  0.054342  1
  S  S42  1  0.946479  0.706121  0.945658  1
  S  S43  1  0.674598  0.836795  0.327585  1
  S  S44  1  0.553521  0.293879  0.445658  1
  S  S45  1  0.787234  0.053826  0.555587  1
  S  S46  1  0.287234  0.446174  0.444413  1
  S  S47  1  0.212766  0.553826  0.944413  1
  S  S48  1  0.287234  0.053826  0.944413  1
  S  S49  1  0.212766  0.946174  0.444413  1
  S  S50  1  0.712766  0.553826  0.555587  1
  S  S51  1  0.787234  0.446174  0.055587  1
  S  S52  1  0.500000  0.000000  0.500000  1
  S  S53  1  0.000000  0.000000  0.000000  1
  S  S54  1  0.500000  0.500000  0.000000  1
  S  S55  1  0.000000  0.500000  0.500000  1
  S  S56  1  0.825402  0.336795  0.327585  1
  S  S57  1  0.674598  0.663205  0.827585  1
  S  S58  1  0.174598  0.836795  0.172415  1
  S  S59  1  0.325402  0.163205  0.672415  1
  S  S60  1  0.174598  0.663205  0.672415  1
  S  S61  1  0.325402  0.336795  0.172415  1
  S  S62  1  0.825402  0.163205  0.827585  1
  S  S63  1  0.712766  0.946174  0.055587  1
