# generated using pymatgen
data_CoP4H16(NO8)2
_symmetry_space_group_name_H-M   'P 1'
_cell_length_a   7.16463209
_cell_length_b   7.40126065
_cell_length_c   7.82042402
_cell_angle_alpha   98.89680619
_cell_angle_beta   109.04948038
_cell_angle_gamma   90.02146448
_symmetry_Int_Tables_number   1
_chemical_formula_structural   CoP4H16(NO8)2
_chemical_formula_sum   'Co1 P4 H16 N2 O16'
_cell_volume   386.69530798
_cell_formula_units_Z   1
loop_
 _symmetry_equiv_pos_site_id
 _symmetry_equiv_pos_as_xyz
  1  'x, y, z'
loop_
 _atom_site_type_symbol
 _atom_site_label
 _atom_site_symmetry_multiplicity
 _atom_site_fract_x
 _atom_site_fract_y
 _atom_site_fract_z
 _atom_site_occupancy
  Co  Co0  1  0.000000  0.500000  0.000000  1
  P  P1  1  0.837562  0.250734  0.261734  1
  P  P2  1  0.162438  0.749266  0.738266  1
  P  P3  1  0.753651  0.782282  0.738809  1
  P  P4  1  0.246349  0.217718  0.261191  1
  H  H5  1  0.649094  0.828262  0.188973  1
  H  H6  1  0.350906  0.171738  0.811027  1
  H  H7  1  0.672387  0.598834  0.176314  1
  H  H8  1  0.327613  0.401166  0.823686  1
  H  H9  1  0.569281  0.714650  0.325493  1
  H  H10  1  0.554271  0.317751  0.904440  1
  H  H11  1  0.118226  0.704380  0.341762  1
  H  H12  1  0.881774  0.295620  0.658238  1
  H  H13  1  0.120491  0.836819  0.198179  1
  H  H14  1  0.432143  0.733042  0.574714  1
  H  H15  1  0.567857  0.266958  0.425286  1
  H  H16  1  0.879509  0.163181  0.801821  1
  H  H17  1  0.762690  0.017615  0.026252  1
  H  H18  1  0.237310  0.982385  0.973748  1
  H  H19  1  0.430719  0.285350  0.674507  1
  H  H20  1  0.445729  0.682249  0.095560  1
  N  N21  1  0.416429  0.294063  0.803865  1
  N  N22  1  0.583571  0.705937  0.196135  1
  O  O23  1  0.060842  0.720395  0.211654  1
  O  O24  1  0.073841  0.236361  0.354527  1
  O  O25  1  0.750976  0.052761  0.158924  1
  O  O26  1  0.926159  0.763639  0.645473  1
  O  O27  1  0.228502  0.023033  0.156608  1
  O  O28  1  0.939158  0.279605  0.788346  1
  O  O29  1  0.765121  0.301799  0.423115  1
  O  O30  1  0.771498  0.976967  0.843392  1
  O  O31  1  0.430615  0.243839  0.442325  1
  O  O32  1  0.569385  0.756161  0.557675  1
  O  O33  1  0.240814  0.368255  0.149923  1
  O  O34  1  0.200580  0.616779  0.875985  1
  O  O35  1  0.234879  0.698201  0.576885  1
  O  O36  1  0.759186  0.631745  0.850077  1
  O  O37  1  0.799420  0.383221  0.124015  1
  O  O38  1  0.249024  0.947239  0.841076  1
