# generated using pymatgen
data_K6Sn3As5
_symmetry_space_group_name_H-M   'P 1'
_cell_length_a   10.88137762
_cell_length_b   11.13857466
_cell_length_c   15.03822543
_cell_angle_alpha   90.00000000
_cell_angle_beta   90.00000000
_cell_angle_gamma   90.00000000
_symmetry_Int_Tables_number   1
_chemical_formula_structural   K6Sn3As5
_chemical_formula_sum   'K24 Sn12 As20'
_cell_volume   1822.67859357
_cell_formula_units_Z   4
loop_
 _symmetry_equiv_pos_site_id
 _symmetry_equiv_pos_as_xyz
  1  'x, y, z'
loop_
 _atom_site_type_symbol
 _atom_site_label
 _atom_site_symmetry_multiplicity
 _atom_site_fract_x
 _atom_site_fract_y
 _atom_site_fract_z
 _atom_site_occupancy
  K  K0  1  0.792080  0.895115  0.852696  1
  K  K1  1  0.292080  0.104885  0.647304  1
  K  K2  1  0.207920  0.895115  0.147304  1
  K  K3  1  0.707920  0.104885  0.352696  1
  K  K4  1  0.707920  0.104885  0.647304  1
  K  K5  1  0.207920  0.895115  0.852696  1
  K  K6  1  0.292080  0.104885  0.352696  1
  K  K7  1  0.792080  0.895115  0.147304  1
  K  K8  1  0.000000  0.588668  0.780395  1
  K  K9  1  0.500000  0.411332  0.719605  1
  K  K10  1  0.000000  0.588668  0.219605  1
  K  K11  1  0.500000  0.411332  0.280395  1
  K  K12  1  0.797996  0.300018  0.148517  1
  K  K13  1  0.297996  0.699982  0.351483  1
  K  K14  1  0.202004  0.300018  0.851483  1
  K  K15  1  0.702004  0.699982  0.648517  1
  K  K16  1  0.702004  0.699982  0.351483  1
  K  K17  1  0.202004  0.300018  0.148517  1
  K  K18  1  0.297996  0.699982  0.648517  1
  K  K19  1  0.797996  0.300018  0.851483  1
  K  K20  1  0.000000  0.099380  0.000000  1
  K  K21  1  0.500000  0.900620  0.500000  1
  K  K22  1  0.500000  0.417717  0.000000  1
  K  K23  1  0.000000  0.582283  0.500000  1
  Sn  Sn24  1  0.500000  0.732631  0.897690  1
  Sn  Sn25  1  0.000000  0.267369  0.602310  1
  Sn  Sn26  1  0.500000  0.732631  0.102310  1
  Sn  Sn27  1  0.000000  0.267369  0.397690  1
  Sn  Sn28  1  0.500000  0.119299  0.874415  1
  Sn  Sn29  1  0.000000  0.880701  0.625585  1
  Sn  Sn30  1  0.500000  0.119299  0.125585  1
  Sn  Sn31  1  0.669049  0.395768  0.500000  1
  Sn  Sn32  1  0.169049  0.604232  0.000000  1
  Sn  Sn33  1  0.330951  0.395768  0.500000  1
  Sn  Sn34  1  0.830951  0.604232  0.000000  1
  Sn  Sn35  1  0.000000  0.880701  0.374415  1
  As  As36  1  0.000000  0.089382  0.725591  1
  As  As37  1  0.500000  0.910618  0.225591  1
  As  As38  1  0.000000  0.089382  0.274409  1
  As  As39  1  0.692534  0.592013  0.855783  1
  As  As40  1  0.500000  0.910618  0.774409  1
  As  As41  1  0.192534  0.407987  0.644217  1
  As  As42  1  0.307466  0.592013  0.144217  1
  As  As43  1  0.807466  0.407987  0.355783  1
  As  As44  1  0.807466  0.407987  0.644217  1
  As  As45  1  0.307466  0.592013  0.855783  1
  As  As46  1  0.192534  0.407987  0.355783  1
  As  As47  1  0.692534  0.592013  0.144217  1
  As  As48  1  0.682082  0.101129  0.000000  1
  As  As49  1  0.182082  0.898871  0.500000  1
  As  As50  1  0.317918  0.101129  0.000000  1
  As  As51  1  0.817918  0.898871  0.500000  1
  As  As52  1  0.000000  0.782489  0.000000  1
  As  As53  1  0.500000  0.217511  0.500000  1
  As  As54  1  0.000000  0.425851  0.000000  1
  As  As55  1  0.500000  0.574149  0.500000  1
