# generated using pymatgen
data_LiSnPO4
_symmetry_space_group_name_H-M   'P 1'
_cell_length_a   5.01330334
_cell_length_b   8.28783481
_cell_length_c   18.72252111
_cell_angle_alpha   90.00000000
_cell_angle_beta   90.00000000
_cell_angle_gamma   90.00000000
_symmetry_Int_Tables_number   1
_chemical_formula_structural   LiSnPO4
_chemical_formula_sum   'Li8 Sn8 P8 O32'
_cell_volume   777.91007905
_cell_formula_units_Z   8
loop_
 _symmetry_equiv_pos_site_id
 _symmetry_equiv_pos_as_xyz
  1  'x, y, z'
loop_
 _atom_site_type_symbol
 _atom_site_label
 _atom_site_symmetry_multiplicity
 _atom_site_fract_x
 _atom_site_fract_y
 _atom_site_fract_z
 _atom_site_occupancy
  Li  Li0  1  0.947134  0.011196  0.943870  1
  Li  Li1  1  0.438344  0.174331  0.346132  1
  Li  Li2  1  0.938344  0.325669  0.846132  1
  Li  Li3  1  0.447134  0.488804  0.443870  1
  Li  Li4  1  0.947134  0.511196  0.556130  1
  Li  Li5  1  0.438344  0.674331  0.153868  1
  Li  Li6  1  0.938344  0.825669  0.653868  1
  Li  Li7  1  0.447134  0.988804  0.056130  1
  Sn  Sn8  1  0.467082  0.061401  0.776093  1
  Sn  Sn9  1  0.540172  0.159338  0.555119  1
  Sn  Sn10  1  0.040172  0.340662  0.055119  1
  Sn  Sn11  1  0.967082  0.438599  0.276093  1
  Sn  Sn12  1  0.467082  0.561401  0.723907  1
  Sn  Sn13  1  0.540172  0.659338  0.944881  1
  Sn  Sn14  1  0.040172  0.840662  0.444881  1
  Sn  Sn15  1  0.967082  0.938599  0.223907  1
  P  P16  1  0.944078  0.207510  0.678632  1
  P  P17  1  0.442987  0.235378  0.928976  1
  P  P18  1  0.942987  0.264622  0.428976  1
  P  P19  1  0.444078  0.292490  0.178632  1
  P  P20  1  0.944078  0.707510  0.821368  1
  P  P21  1  0.442987  0.735378  0.571024  1
  P  P22  1  0.942987  0.764622  0.071024  1
  P  P23  1  0.444078  0.792490  0.321368  1
  O  O24  1  0.814430  0.055094  0.641661  1
  O  O25  1  0.305625  0.097250  0.969662  1
  O  O26  1  0.876172  0.102021  0.470733  1
  O  O27  1  0.385844  0.144768  0.132497  1
  O  O28  1  0.249289  0.179822  0.688109  1
  O  O29  1  0.746132  0.213355  0.922509  1
  O  O30  1  0.814087  0.222009  0.754963  1
  O  O31  1  0.319796  0.252949  0.851803  1
  O  O32  1  0.819796  0.247051  0.351803  1
  O  O33  1  0.314087  0.277991  0.254963  1
  O  O34  1  0.246132  0.286645  0.422509  1
  O  O35  1  0.749289  0.320178  0.188109  1
  O  O36  1  0.885844  0.355232  0.632497  1
  O  O37  1  0.376172  0.397979  0.970733  1
  O  O38  1  0.805625  0.402750  0.469663  1
  O  O39  1  0.314430  0.444906  0.141661  1
  O  O40  1  0.814430  0.555094  0.858339  1
  O  O41  1  0.305625  0.597250  0.530338  1
  O  O42  1  0.876172  0.602021  0.029267  1
  O  O43  1  0.385844  0.644768  0.367503  1
  O  O44  1  0.249289  0.679822  0.811891  1
  O  O45  1  0.746132  0.713355  0.577491  1
  O  O46  1  0.814087  0.722009  0.745037  1
  O  O47  1  0.319796  0.752949  0.648197  1
  O  O48  1  0.819796  0.747051  0.148197  1
  O  O49  1  0.314087  0.777991  0.245037  1
  O  O50  1  0.246132  0.786645  0.077491  1
  O  O51  1  0.749289  0.820178  0.311891  1
  O  O52  1  0.885844  0.855232  0.867503  1
  O  O53  1  0.376172  0.897979  0.529267  1
  O  O54  1  0.805625  0.902750  0.030338  1
  O  O55  1  0.314430  0.944906  0.358339  1
