# generated using pymatgen
data_CsBiF6
_symmetry_space_group_name_H-M   'P 1'
_cell_length_a   5.55234948
_cell_length_b   5.55234948
_cell_length_c   5.55234948
_cell_angle_alpha   95.94963187
_cell_angle_beta   95.94963187
_cell_angle_gamma   95.94963187
_symmetry_Int_Tables_number   1
_chemical_formula_structural   CsBiF6
_chemical_formula_sum   'Cs1 Bi1 F6'
_cell_volume   168.19595131
_cell_formula_units_Z   1
loop_
 _symmetry_equiv_pos_site_id
 _symmetry_equiv_pos_as_xyz
  1  'x, y, z'
loop_
 _atom_site_type_symbol
 _atom_site_label
 _atom_site_symmetry_multiplicity
 _atom_site_fract_x
 _atom_site_fract_y
 _atom_site_fract_z
 _atom_site_occupancy
  Cs  Cs0  1  0.500000  0.500000  0.500000  1
  Bi  Bi1  1  0.000000  0.000000  0.000000  1
  F  F2  1  0.293846  0.915052  0.216768  1
  F  F3  1  0.216768  0.293846  0.915052  1
  F  F4  1  0.084948  0.783232  0.706154  1
  F  F5  1  0.783232  0.706154  0.084948  1
  F  F6  1  0.706154  0.084948  0.783232  1
  F  F7  1  0.915052  0.216768  0.293846  1
