# generated using pymatgen
data_P4Se5
_symmetry_space_group_name_H-M   'P 1'
_cell_length_a   6.93958501
_cell_length_b   11.81349642
_cell_length_c   13.55793438
_cell_angle_alpha   90.00000000
_cell_angle_beta   90.00000000
_cell_angle_gamma   90.00000000
_symmetry_Int_Tables_number   1
_chemical_formula_structural   P4Se5
_chemical_formula_sum   'P16 Se20'
_cell_volume   1111.48980073
_cell_formula_units_Z   4
loop_
 _symmetry_equiv_pos_site_id
 _symmetry_equiv_pos_as_xyz
  1  'x, y, z'
loop_
 _atom_site_type_symbol
 _atom_site_label
 _atom_site_symmetry_multiplicity
 _atom_site_fract_x
 _atom_site_fract_y
 _atom_site_fract_z
 _atom_site_occupancy
  P  P0  1  0.489861  0.471629  0.938139  1
  P  P1  1  0.510139  0.971629  0.061861  1
  P  P2  1  0.010139  0.471629  0.438139  1
  P  P3  1  0.989861  0.971629  0.561861  1
  P  P4  1  0.792331  0.520120  0.889712  1
  P  P5  1  0.207669  0.020120  0.110288  1
  P  P6  1  0.707669  0.520120  0.389712  1
  P  P7  1  0.292331  0.020120  0.610288  1
  P  P8  1  0.400293  0.650252  0.901141  1
  P  P9  1  0.599707  0.150252  0.098859  1
  P  P10  1  0.099707  0.650252  0.401141  1
  P  P11  1  0.900293  0.150252  0.598859  1
  P  P12  1  0.460050  0.488477  0.685210  1
  P  P13  1  0.539950  0.988477  0.314790  1
  P  P14  1  0.039950  0.488477  0.185210  1
  P  P15  1  0.960050  0.988477  0.814790  1
  Se  Se16  1  0.365411  0.371661  0.813895  1
  Se  Se17  1  0.634589  0.871661  0.186105  1
  Se  Se18  1  0.134589  0.371661  0.313895  1
  Se  Se19  1  0.865411  0.871661  0.686105  1
  Se  Se20  1  0.780824  0.500505  0.721305  1
  Se  Se21  1  0.219176  0.000505  0.278695  1
  Se  Se22  1  0.719176  0.500505  0.221305  1
  Se  Se23  1  0.280824  0.000505  0.778695  1
  Se  Se24  1  0.329044  0.656953  0.735846  1
  Se  Se25  1  0.670956  0.156953  0.264154  1
  Se  Se26  1  0.170956  0.656953  0.235846  1
  Se  Se27  1  0.829044  0.156953  0.764154  1
  Se  Se28  1  0.713521  0.706024  0.929273  1
  Se  Se29  1  0.286479  0.206024  0.070727  1
  Se  Se30  1  0.786479  0.706024  0.429273  1
  Se  Se31  1  0.213521  0.206024  0.570727  1
  Se  Se32  1  0.185724  0.738179  0.984111  1
  Se  Se33  1  0.814276  0.238179  0.015889  1
  Se  Se34  1  0.314276  0.738179  0.484111  1
  Se  Se35  1  0.685724  0.238179  0.515889  1
