# generated using pymatgen
data_LiCoAsO4
_symmetry_space_group_name_H-M   'P 1'
_cell_length_a   4.96329721
_cell_length_b   6.04573546
_cell_length_c   10.60438651
_cell_angle_alpha   90.00000000
_cell_angle_beta   90.00000000
_cell_angle_gamma   90.00000000
_symmetry_Int_Tables_number   1
_chemical_formula_structural   LiCoAsO4
_chemical_formula_sum   'Li4 Co4 As4 O16'
_cell_volume   318.20351362
_cell_formula_units_Z   4
loop_
 _symmetry_equiv_pos_site_id
 _symmetry_equiv_pos_as_xyz
  1  'x, y, z'
loop_
 _atom_site_type_symbol
 _atom_site_label
 _atom_site_symmetry_multiplicity
 _atom_site_fract_x
 _atom_site_fract_y
 _atom_site_fract_z
 _atom_site_occupancy
  Li  Li0  1  0.000000  0.000000  0.000000  1
  Li  Li1  1  0.500000  0.000000  0.500000  1
  Li  Li2  1  0.000000  0.500000  0.000000  1
  Li  Li3  1  0.500000  0.500000  0.500000  1
  Co  Co4  1  0.005986  0.750000  0.277215  1
  Co  Co5  1  0.994014  0.250000  0.722785  1
  Co  Co6  1  0.494014  0.750000  0.777215  1
  Co  Co7  1  0.505986  0.250000  0.222785  1
  As  As8  1  0.061762  0.250000  0.404587  1
  As  As9  1  0.438238  0.250000  0.904587  1
  As  As10  1  0.938238  0.750000  0.595413  1
  As  As11  1  0.561762  0.750000  0.095413  1
  O  O12  1  0.779730  0.530139  0.671892  1
  O  O13  1  0.220270  0.469861  0.328108  1
  O  O14  1  0.720270  0.530139  0.171892  1
  O  O15  1  0.779730  0.969861  0.671892  1
  O  O16  1  0.279730  0.030139  0.828108  1
  O  O17  1  0.782186  0.250000  0.904147  1
  O  O18  1  0.279730  0.469861  0.828108  1
  O  O19  1  0.220270  0.030139  0.328108  1
  O  O20  1  0.217814  0.750000  0.095853  1
  O  O21  1  0.717814  0.250000  0.404147  1
  O  O22  1  0.793224  0.750000  0.447338  1
  O  O23  1  0.282186  0.750000  0.595853  1
  O  O24  1  0.706776  0.750000  0.947338  1
  O  O25  1  0.293224  0.250000  0.052662  1
  O  O26  1  0.206776  0.250000  0.552662  1
  O  O27  1  0.720270  0.969861  0.171892  1
