# generated using pymatgen
data_TmFeO3
_symmetry_space_group_name_H-M   'P 1'
_cell_length_a   5.27251645
_cell_length_b   5.61182227
_cell_length_c   7.67266184
_cell_angle_alpha   90.00000000
_cell_angle_beta   90.00000000
_cell_angle_gamma   90.00000000
_symmetry_Int_Tables_number   1
_chemical_formula_structural   TmFeO3
_chemical_formula_sum   'Tm4 Fe4 O12'
_cell_volume   227.02198119
_cell_formula_units_Z   4
loop_
 _symmetry_equiv_pos_site_id
 _symmetry_equiv_pos_as_xyz
  1  'x, y, z'
loop_
 _atom_site_type_symbol
 _atom_site_label
 _atom_site_symmetry_multiplicity
 _atom_site_fract_x
 _atom_site_fract_y
 _atom_site_fract_z
 _atom_site_occupancy
  Tm  Tm0  1  0.021108  0.928389  0.750000  1
  Tm  Tm1  1  0.521108  0.571611  0.250000  1
  Tm  Tm2  1  0.478892  0.428389  0.750000  1
  Tm  Tm3  1  0.978892  0.071611  0.250000  1
  Fe  Fe4  1  0.000000  0.500000  0.500000  1
  Fe  Fe5  1  0.500000  0.000000  0.500000  1
  Fe  Fe6  1  0.500000  0.000000  0.000000  1
  Fe  Fe7  1  0.000000  0.500000  0.000000  1
  O  O8  1  0.688925  0.308003  0.436328  1
  O  O9  1  0.188925  0.191997  0.563672  1
  O  O10  1  0.811075  0.808003  0.063672  1
  O  O11  1  0.311075  0.691997  0.936328  1
  O  O12  1  0.311075  0.691997  0.563672  1
  O  O13  1  0.811075  0.808003  0.436328  1
  O  O14  1  0.188925  0.191997  0.936328  1
  O  O15  1  0.688925  0.308003  0.063672  1
  O  O16  1  0.125067  0.451080  0.250000  1
  O  O17  1  0.625067  0.048920  0.750000  1
  O  O18  1  0.374933  0.951080  0.250000  1
  O  O19  1  0.874933  0.548920  0.750000  1
