# generated using pymatgen
data_Na3ErCl6
_symmetry_space_group_name_H-M   'P 1'
_cell_length_a   6.91041857
_cell_length_b   7.30309860
_cell_length_c   12.30907327
_cell_angle_alpha   90.00000000
_cell_angle_beta   123.56720815
_cell_angle_gamma   90.00000000
_symmetry_Int_Tables_number   1
_chemical_formula_structural   Na3ErCl6
_chemical_formula_sum   'Na6 Er2 Cl12'
_cell_volume   517.61380548
_cell_formula_units_Z   2
loop_
 _symmetry_equiv_pos_site_id
 _symmetry_equiv_pos_as_xyz
  1  'x, y, z'
loop_
 _atom_site_type_symbol
 _atom_site_label
 _atom_site_symmetry_multiplicity
 _atom_site_fract_x
 _atom_site_fract_y
 _atom_site_fract_z
 _atom_site_occupancy
  Na  Na0  1  0.500000  0.000000  0.500000  1
  Na  Na1  1  0.500000  0.500000  0.000000  1
  Na  Na2  1  0.718327  0.924656  0.241956  1
  Na  Na3  1  0.281673  0.424656  0.258044  1
  Na  Na4  1  0.281673  0.075344  0.758044  1
  Na  Na5  1  0.718327  0.575344  0.741956  1
  Er  Er6  1  0.000000  0.000000  0.000000  1
  Er  Er7  1  0.000000  0.500000  0.500000  1
  Cl  Cl8  1  0.099717  0.064369  0.236895  1
  Cl  Cl9  1  0.753702  0.196970  0.421680  1
  Cl  Cl10  1  0.900283  0.935631  0.763105  1
  Cl  Cl11  1  0.900283  0.564369  0.263105  1
  Cl  Cl12  1  0.623190  0.678098  0.435055  1
  Cl  Cl13  1  0.099717  0.435631  0.736895  1
  Cl  Cl14  1  0.376810  0.178098  0.064945  1
  Cl  Cl15  1  0.246298  0.803030  0.578320  1
  Cl  Cl16  1  0.623190  0.821902  0.935055  1
  Cl  Cl17  1  0.376810  0.321902  0.564945  1
  Cl  Cl18  1  0.753702  0.303030  0.921680  1
  Cl  Cl19  1  0.246298  0.696970  0.078320  1
