# generated using pymatgen
data_In2(TeO3)3
_symmetry_space_group_name_H-M   'P 1'
_cell_length_a   5.54664963
_cell_length_b   8.22281023
_cell_length_c   18.57989867
_cell_angle_alpha   90.00000000
_cell_angle_beta   90.00000000
_cell_angle_gamma   90.00000000
_symmetry_Int_Tables_number   1
_chemical_formula_structural   In2(TeO3)3
_chemical_formula_sum   'In8 Te12 O36'
_cell_volume   847.41147764
_cell_formula_units_Z   4
loop_
 _symmetry_equiv_pos_site_id
 _symmetry_equiv_pos_as_xyz
  1  'x, y, z'
loop_
 _atom_site_type_symbol
 _atom_site_label
 _atom_site_symmetry_multiplicity
 _atom_site_fract_x
 _atom_site_fract_y
 _atom_site_fract_z
 _atom_site_occupancy
  In  In0  1  0.707166  0.685474  0.063391  1
  In  In1  1  0.792834  0.185474  0.436609  1
  In  In2  1  0.207166  0.814526  0.936609  1
  In  In3  1  0.292834  0.314526  0.936609  1
  In  In4  1  0.707166  0.685474  0.436609  1
  In  In5  1  0.292834  0.314526  0.563391  1
  In  In6  1  0.207166  0.814526  0.563391  1
  In  In7  1  0.792834  0.185474  0.063391  1
  Te  Te8  1  0.730556  0.157614  0.250000  1
  Te  Te9  1  0.813741  0.137964  0.869209  1
  Te  Te10  1  0.186259  0.862036  0.130791  1
  Te  Te11  1  0.230556  0.342386  0.750000  1
  Te  Te12  1  0.686259  0.637964  0.869209  1
  Te  Te13  1  0.686259  0.637964  0.630791  1
  Te  Te14  1  0.313741  0.362036  0.369209  1
  Te  Te15  1  0.186259  0.862036  0.369209  1
  Te  Te16  1  0.313741  0.362036  0.130791  1
  Te  Te17  1  0.813741  0.137964  0.630791  1
  Te  Te18  1  0.269444  0.842386  0.750000  1
  Te  Te19  1  0.769444  0.657614  0.250000  1
  O  O20  1  0.459832  0.149591  0.126143  1
  O  O21  1  0.374725  0.820200  0.041513  1
  O  O22  1  0.040168  0.649591  0.373857  1
  O  O23  1  0.040168  0.649591  0.126143  1
  O  O24  1  0.374725  0.820200  0.458487  1
  O  O25  1  0.047939  0.787098  0.673243  1
  O  O26  1  0.947515  0.859587  0.250000  1
  O  O27  1  0.459832  0.149591  0.373857  1
  O  O28  1  0.540168  0.850409  0.626143  1
  O  O29  1  0.959832  0.350409  0.626143  1
  O  O30  1  0.590925  0.432736  0.427546  1
  O  O31  1  0.409075  0.567264  0.572454  1
  O  O32  1  0.452061  0.287098  0.673243  1
  O  O33  1  0.590925  0.432736  0.072454  1
  O  O34  1  0.052485  0.140413  0.750000  1
  O  O35  1  0.540168  0.850409  0.873857  1
  O  O36  1  0.090925  0.067264  0.572454  1
  O  O37  1  0.625275  0.179800  0.958487  1
  O  O38  1  0.447515  0.640413  0.750000  1
  O  O39  1  0.625275  0.179800  0.541513  1
  O  O40  1  0.125275  0.320200  0.041513  1
  O  O41  1  0.090925  0.067264  0.927546  1
  O  O42  1  0.874725  0.679800  0.958487  1
  O  O43  1  0.452061  0.287098  0.826757  1
  O  O44  1  0.409075  0.567264  0.927546  1
  O  O45  1  0.547939  0.712902  0.326757  1
  O  O46  1  0.959832  0.350409  0.873857  1
  O  O47  1  0.047939  0.787098  0.826757  1
  O  O48  1  0.952061  0.212902  0.326757  1
  O  O49  1  0.552485  0.359587  0.250000  1
  O  O50  1  0.125275  0.320200  0.458487  1
  O  O51  1  0.952061  0.212902  0.173243  1
  O  O52  1  0.909075  0.932736  0.072454  1
  O  O53  1  0.874725  0.679800  0.541513  1
  O  O54  1  0.909075  0.932736  0.427546  1
  O  O55  1  0.547939  0.712902  0.173243  1
