# generated using pymatgen
data_HfFeCl6
_symmetry_space_group_name_H-M   'P 1'
_cell_length_a   6.36160510
_cell_length_b   6.36160510
_cell_length_c   12.87187743
_cell_angle_alpha   90.00000000
_cell_angle_beta   90.00000000
_cell_angle_gamma   120.00000000
_symmetry_Int_Tables_number   1
_chemical_formula_structural   HfFeCl6
_chemical_formula_sum   'Hf2 Fe2 Cl12'
_cell_volume   451.13439565
_cell_formula_units_Z   2
loop_
 _symmetry_equiv_pos_site_id
 _symmetry_equiv_pos_as_xyz
  1  'x, y, z'
loop_
 _atom_site_type_symbol
 _atom_site_label
 _atom_site_symmetry_multiplicity
 _atom_site_fract_x
 _atom_site_fract_y
 _atom_site_fract_z
 _atom_site_occupancy
  Hf  Hf0  1  0.333333  0.666667  0.250000  1
  Hf  Hf1  1  0.666667  0.333333  0.750000  1
  Fe  Fe2  1  0.000000  0.000000  0.250000  1
  Fe  Fe3  1  0.000000  0.000000  0.750000  1
  Cl  Cl4  1  0.664340  0.968434  0.139935  1
  Cl  Cl5  1  0.031566  0.695906  0.139935  1
  Cl  Cl6  1  0.304094  0.335660  0.139935  1
  Cl  Cl7  1  0.031566  0.335660  0.360065  1
  Cl  Cl8  1  0.335660  0.304094  0.639935  1
  Cl  Cl9  1  0.695906  0.031566  0.639935  1
  Cl  Cl10  1  0.968434  0.664340  0.639935  1
  Cl  Cl11  1  0.695906  0.664340  0.860065  1
  Cl  Cl12  1  0.968434  0.304094  0.860065  1
  Cl  Cl13  1  0.335660  0.031566  0.860065  1
  Cl  Cl14  1  0.664340  0.695906  0.360065  1
  Cl  Cl15  1  0.304094  0.968434  0.360065  1
