# generated using pymatgen
data_Tl4HgBr6
_symmetry_space_group_name_H-M   'P 1'
_cell_length_a   9.11194414
_cell_length_b   9.11194414
_cell_length_c   9.13436889
_cell_angle_alpha   90.00000000
_cell_angle_beta   90.00000000
_cell_angle_gamma   90.00000000
_symmetry_Int_Tables_number   1
_chemical_formula_structural   Tl4HgBr6
_chemical_formula_sum   'Tl8 Hg2 Br12'
_cell_volume   758.40405060
_cell_formula_units_Z   2
loop_
 _symmetry_equiv_pos_site_id
 _symmetry_equiv_pos_as_xyz
  1  'x, y, z'
loop_
 _atom_site_type_symbol
 _atom_site_label
 _atom_site_symmetry_multiplicity
 _atom_site_fract_x
 _atom_site_fract_y
 _atom_site_fract_z
 _atom_site_occupancy
  Tl  Tl0  1  0.346983  0.846983  0.750000  1
  Tl  Tl1  1  0.846983  0.653017  0.750000  1
  Tl  Tl2  1  0.846983  0.653017  0.250000  1
  Tl  Tl3  1  0.346983  0.846983  0.250000  1
  Tl  Tl4  1  0.653017  0.153017  0.250000  1
  Tl  Tl5  1  0.153017  0.346983  0.250000  1
  Tl  Tl6  1  0.653017  0.153017  0.750000  1
  Tl  Tl7  1  0.153017  0.346983  0.750000  1
  Hg  Hg8  1  0.000000  0.000000  0.000000  1
  Hg  Hg9  1  0.500000  0.500000  0.500000  1
  Br  Br10  1  0.363049  0.185938  0.500000  1
  Br  Br11  1  0.636951  0.814062  0.500000  1
  Br  Br12  1  0.185938  0.636951  0.500000  1
  Br  Br13  1  0.814062  0.363049  0.500000  1
  Br  Br14  1  0.685938  0.863049  0.000000  1
  Br  Br15  1  0.136951  0.685938  0.000000  1
  Br  Br16  1  0.863049  0.314062  0.000000  1
  Br  Br17  1  0.314062  0.136951  0.000000  1
  Br  Br18  1  0.500000  0.500000  0.784221  1
  Br  Br19  1  0.000000  0.000000  0.715779  1
  Br  Br20  1  0.000000  0.000000  0.284221  1
  Br  Br21  1  0.500000  0.500000  0.215779  1
