# generated using pymatgen
data_Mn3H2Se3O10
_symmetry_space_group_name_H-M   'P 1'
_cell_length_a   8.46156410
_cell_length_b   8.46262810
_cell_length_c   9.12874719
_cell_angle_alpha   65.63018458
_cell_angle_beta   68.89062050
_cell_angle_gamma   68.02033206
_symmetry_Int_Tables_number   1
_chemical_formula_structural   Mn3H2Se3O10
_chemical_formula_sum   'Mn6 H4 Se6 O20'
_cell_volume   535.53732715
_cell_formula_units_Z   2
loop_
 _symmetry_equiv_pos_site_id
 _symmetry_equiv_pos_as_xyz
  1  'x, y, z'
loop_
 _atom_site_type_symbol
 _atom_site_label
 _atom_site_symmetry_multiplicity
 _atom_site_fract_x
 _atom_site_fract_y
 _atom_site_fract_z
 _atom_site_occupancy
  Mn  Mn0  1  0.827954  0.696967  0.422409  1
  Mn  Mn1  1  0.172046  0.303033  0.577591  1
  Mn  Mn2  1  0.000000  0.000000  0.000000  1
  Mn  Mn3  1  0.500000  0.500000  0.500000  1
  Mn  Mn4  1  0.963792  0.342568  0.200548  1
  Mn  Mn5  1  0.036208  0.657432  0.799452  1
  H  H6  1  0.190390  0.046645  0.398387  1
  H  H7  1  0.809610  0.953355  0.601613  1
  H  H8  1  0.126482  0.969215  0.301982  1
  H  H9  1  0.873518  0.030785  0.698018  1
  Se  Se10  1  0.335114  0.218618  0.899373  1
  Se  Se11  1  0.664886  0.781382  0.100627  1
  Se  Se12  1  0.670063  0.162720  0.311146  1
  Se  Se13  1  0.329937  0.837280  0.688854  1
  Se  Se14  1  0.791634  0.425138  0.780274  1
  Se  Se15  1  0.208366  0.574862  0.219726  1
  O  O16  1  0.145383  0.077417  0.300067  1
  O  O17  1  0.854617  0.922583  0.699933  1
  O  O18  1  0.250397  0.046532  0.946081  1
  O  O19  1  0.749603  0.953468  0.053919  1
  O  O20  1  0.358562  0.305819  0.684431  1
  O  O21  1  0.641438  0.694181  0.315569  1
  O  O22  1  0.156414  0.387155  0.960212  1
  O  O23  1  0.843586  0.612845  0.039788  1
  O  O24  1  0.319254  0.493868  0.372447  1
  O  O25  1  0.680746  0.506132  0.627553  1
  O  O26  1  0.055732  0.444885  0.335363  1
  O  O27  1  0.944268  0.555115  0.664637  1
  O  O28  1  0.063324  0.777199  0.241017  1
  O  O29  1  0.936676  0.222801  0.758983  1
  O  O30  1  0.294221  0.700088  0.611855  1
  O  O31  1  0.705779  0.299912  0.388145  1
  O  O32  1  0.146453  0.817905  0.857152  1
  O  O33  1  0.853547  0.182095  0.142848  1
  O  O34  1  0.266301  0.047167  0.548788  1
  O  O35  1  0.733699  0.952833  0.451212  1
