# generated using pymatgen
data_Rb5Au3O2
_symmetry_space_group_name_H-M   'P 1'
_cell_length_a   5.79539014
_cell_length_b   7.52879844
_cell_length_c   14.58215476
_cell_angle_alpha   90.00000000
_cell_angle_beta   90.00000000
_cell_angle_gamma   90.00000000
_symmetry_Int_Tables_number   1
_chemical_formula_structural   Rb5Au3O2
_chemical_formula_sum   'Rb10 Au6 O4'
_cell_volume   636.25330468
_cell_formula_units_Z   2
loop_
 _symmetry_equiv_pos_site_id
 _symmetry_equiv_pos_as_xyz
  1  'x, y, z'
loop_
 _atom_site_type_symbol
 _atom_site_label
 _atom_site_symmetry_multiplicity
 _atom_site_fract_x
 _atom_site_fract_y
 _atom_site_fract_z
 _atom_site_occupancy
  Rb  Rb0  1  0.500000  0.171263  0.896872  1
  Rb  Rb1  1  0.500000  0.828737  0.103128  1
  Rb  Rb2  1  0.000000  0.000000  0.500000  1
  Rb  Rb3  1  0.000000  0.500000  0.000000  1
  Rb  Rb4  1  0.000000  0.114061  0.235440  1
  Rb  Rb5  1  0.000000  0.885939  0.764560  1
  Rb  Rb6  1  0.000000  0.614061  0.264560  1
  Rb  Rb7  1  0.000000  0.385939  0.735440  1
  Rb  Rb8  1  0.500000  0.328737  0.396872  1
  Rb  Rb9  1  0.500000  0.671263  0.603128  1
  Au  Au10  1  0.500000  0.147527  0.644430  1
  Au  Au11  1  0.500000  0.852473  0.355570  1
  Au  Au12  1  0.500000  0.647527  0.855570  1
  Au  Au13  1  0.500000  0.352473  0.144430  1
  Au  Au14  1  0.000000  0.500000  0.500000  1
  Au  Au15  1  0.000000  0.000000  0.000000  1
  O  O16  1  0.000000  0.172988  0.891517  1
  O  O17  1  0.000000  0.827012  0.108483  1
  O  O18  1  0.000000  0.672988  0.608483  1
  O  O19  1  0.000000  0.327012  0.391517  1
