# generated using pymatgen
data_LiPPbO4
_symmetry_space_group_name_H-M   'P 1'
_cell_length_a   5.03773644
_cell_length_b   8.12173718
_cell_length_c   18.88610841
_cell_angle_alpha   90.00000000
_cell_angle_beta   90.00000000
_cell_angle_gamma   90.00000000
_symmetry_Int_Tables_number   1
_chemical_formula_structural   LiPPbO4
_chemical_formula_sum   'Li8 P8 Pb8 O32'
_cell_volume   772.72836169
_cell_formula_units_Z   8
loop_
 _symmetry_equiv_pos_site_id
 _symmetry_equiv_pos_as_xyz
  1  'x, y, z'
loop_
 _atom_site_type_symbol
 _atom_site_label
 _atom_site_symmetry_multiplicity
 _atom_site_fract_x
 _atom_site_fract_y
 _atom_site_fract_z
 _atom_site_occupancy
  Li  Li0  1  0.696263  0.322850  0.348845  1
  Li  Li1  1  0.196263  0.677150  0.651155  1
  Li  Li2  1  0.196263  0.177150  0.848845  1
  Li  Li3  1  0.696263  0.822850  0.151155  1
  Li  Li4  1  0.196776  0.489316  0.943294  1
  Li  Li5  1  0.696776  0.510684  0.056706  1
  Li  Li6  1  0.696776  0.010684  0.443294  1
  Li  Li7  1  0.196776  0.989316  0.556706  1
  P  P8  1  0.193188  0.232600  0.429086  1
  P  P9  1  0.693188  0.767400  0.570914  1
  P  P10  1  0.693188  0.267400  0.929086  1
  P  P11  1  0.193188  0.732600  0.070914  1
  P  P12  1  0.690223  0.712703  0.320308  1
  P  P13  1  0.190223  0.287297  0.679692  1
  P  P14  1  0.190223  0.787297  0.820308  1
  P  P15  1  0.690223  0.212703  0.179692  1
  Pb  Pb16  1  0.235367  0.532672  0.228820  1
  Pb  Pb17  1  0.735367  0.467328  0.771180  1
  Pb  Pb18  1  0.735367  0.967328  0.728820  1
  Pb  Pb19  1  0.235367  0.032672  0.271180  1
  Pb  Pb20  1  0.255694  0.672846  0.445721  1
  Pb  Pb21  1  0.755694  0.327154  0.554279  1
  Pb  Pb22  1  0.755694  0.827154  0.945721  1
  Pb  Pb23  1  0.255694  0.172846  0.054279  1
  O  O24  1  0.078864  0.248240  0.352426  1
  O  O25  1  0.578864  0.751760  0.647574  1
  O  O26  1  0.578864  0.251760  0.852426  1
  O  O27  1  0.078864  0.748240  0.147574  1
  O  O28  1  0.116091  0.393462  0.471618  1
  O  O29  1  0.616091  0.606538  0.528382  1
  O  O30  1  0.616091  0.106538  0.971618  1
  O  O31  1  0.116091  0.893462  0.028382  1
  O  O32  1  0.579921  0.231013  0.257016  1
  O  O33  1  0.079921  0.768987  0.742984  1
  O  O34  1  0.079921  0.268987  0.757016  1
  O  O35  1  0.579921  0.731013  0.242984  1
  O  O36  1  0.558718  0.054563  0.147589  1
  O  O37  1  0.058718  0.945437  0.852411  1
  O  O38  1  0.058718  0.445437  0.647589  1
  O  O39  1  0.558718  0.554563  0.352411  1
  O  O40  1  0.997514  0.194467  0.182209  1
  O  O41  1  0.497514  0.805533  0.817791  1
  O  O42  1  0.497514  0.305533  0.682209  1
  O  O43  1  0.997514  0.694467  0.317791  1
  O  O44  1  0.608605  0.363906  0.135058  1
  O  O45  1  0.108605  0.636094  0.864942  1
  O  O46  1  0.108605  0.136094  0.635058  1
  O  O47  1  0.608605  0.863906  0.364942  1
  O  O48  1  0.499112  0.716521  0.073120  1
  O  O49  1  0.999112  0.283479  0.926880  1
  O  O50  1  0.999112  0.783479  0.573120  1
  O  O51  1  0.499112  0.216521  0.426880  1
  O  O52  1  0.061665  0.585626  0.032289  1
  O  O53  1  0.561665  0.414374  0.967711  1
  O  O54  1  0.561665  0.914374  0.532289  1
  O  O55  1  0.061665  0.085626  0.467711  1
