# generated using pymatgen
data_Tl3PbI5
_symmetry_space_group_name_H-M   'P 1'
_cell_length_a   9.12259905
_cell_length_b   9.83322841
_cell_length_c   16.58972016
_cell_angle_alpha   90.00000000
_cell_angle_beta   90.00000000
_cell_angle_gamma   90.00000000
_symmetry_Int_Tables_number   1
_chemical_formula_structural   Tl3PbI5
_chemical_formula_sum   'Tl12 Pb4 I20'
_cell_volume   1488.17421358
_cell_formula_units_Z   4
loop_
 _symmetry_equiv_pos_site_id
 _symmetry_equiv_pos_as_xyz
  1  'x, y, z'
loop_
 _atom_site_type_symbol
 _atom_site_label
 _atom_site_symmetry_multiplicity
 _atom_site_fract_x
 _atom_site_fract_y
 _atom_site_fract_z
 _atom_site_occupancy
  Tl  Tl0  1  0.775968  0.703501  0.446784  1
  Tl  Tl1  1  0.275968  0.796499  0.553216  1
  Tl  Tl2  1  0.224032  0.203501  0.053216  1
  Tl  Tl3  1  0.724032  0.296499  0.946784  1
  Tl  Tl4  1  0.920971  0.168060  0.525937  1
  Tl  Tl5  1  0.420971  0.331940  0.474063  1
  Tl  Tl6  1  0.079029  0.668060  0.974063  1
  Tl  Tl7  1  0.579029  0.831940  0.025937  1
  Tl  Tl8  1  0.937973  0.090632  0.216919  1
  Tl  Tl9  1  0.437973  0.409368  0.783081  1
  Tl  Tl10  1  0.062027  0.590632  0.283081  1
  Tl  Tl11  1  0.562027  0.909368  0.716919  1
  Pb  Pb12  1  0.578725  0.451227  0.205384  1
  Pb  Pb13  1  0.078725  0.048773  0.794616  1
  Pb  Pb14  1  0.421275  0.951227  0.294616  1
  Pb  Pb15  1  0.921275  0.548773  0.705384  1
  I  I16  1  0.727828  0.650716  0.852903  1
  I  I17  1  0.227828  0.849284  0.147097  1
  I  I18  1  0.272172  0.150716  0.647097  1
  I  I19  1  0.772172  0.349284  0.352903  1
  I  I20  1  0.272346  0.285104  0.276307  1
  I  I21  1  0.772346  0.214896  0.723693  1
  I  I22  1  0.727654  0.785104  0.223693  1
  I  I23  1  0.227654  0.714896  0.776307  1
  I  I24  1  0.915026  0.855188  0.635668  1
  I  I25  1  0.415026  0.644812  0.364332  1
  I  I26  1  0.084974  0.355188  0.864332  1
  I  I27  1  0.584974  0.144812  0.135668  1
  I  I28  1  0.597378  0.559230  0.609677  1
  I  I29  1  0.097378  0.940770  0.390323  1
  I  I30  1  0.402622  0.059230  0.890323  1
  I  I31  1  0.902622  0.440770  0.109677  1
  I  I32  1  0.079747  0.496458  0.527451  1
  I  I33  1  0.579747  0.003542  0.472549  1
  I  I34  1  0.920253  0.996458  0.972549  1
  I  I35  1  0.420253  0.503542  0.027451  1
