# generated using pymatgen
data_Li2MnPCO7
_symmetry_space_group_name_H-M   'P 1'
_cell_length_a   5.17848617
_cell_length_b   6.29741670
_cell_length_c   8.58304574
_cell_angle_alpha   90.00000000
_cell_angle_beta   92.25603520
_cell_angle_gamma   90.00000000
_symmetry_Int_Tables_number   1
_chemical_formula_structural   Li2MnPCO7
_chemical_formula_sum   'Li4 Mn2 P2 C2 O14'
_cell_volume   279.68548308
_cell_formula_units_Z   2
loop_
 _symmetry_equiv_pos_site_id
 _symmetry_equiv_pos_as_xyz
  1  'x, y, z'
loop_
 _atom_site_type_symbol
 _atom_site_label
 _atom_site_symmetry_multiplicity
 _atom_site_fract_x
 _atom_site_fract_y
 _atom_site_fract_z
 _atom_site_occupancy
  Li  Li0  1  0.780602  0.020722  0.213372  1
  Li  Li1  1  0.219398  0.979278  0.786628  1
  Li  Li2  1  0.219398  0.520722  0.786628  1
  Li  Li3  1  0.780602  0.479278  0.213372  1
  Mn  Mn4  1  0.773414  0.750000  0.648238  1
  Mn  Mn5  1  0.226586  0.250000  0.351762  1
  P  P6  1  0.707736  0.250000  0.567959  1
  P  P7  1  0.292264  0.750000  0.432041  1
  C  C8  1  0.719177  0.750000  0.945107  1
  C  C9  1  0.280823  0.250000  0.054893  1
  O  O10  1  0.507904  0.750000  0.859287  1
  O  O11  1  0.935291  0.750000  0.864767  1
  O  O12  1  0.492096  0.250000  0.140713  1
  O  O13  1  0.195436  0.943321  0.335523  1
  O  O14  1  0.195436  0.556679  0.335523  1
  O  O15  1  0.189643  0.750000  0.598478  1
  O  O16  1  0.810357  0.250000  0.401522  1
  O  O17  1  0.804564  0.443321  0.664477  1
  O  O18  1  0.804564  0.056679  0.664477  1
  O  O19  1  0.404281  0.250000  0.555045  1
  O  O20  1  0.732486  0.750000  0.092752  1
  O  O21  1  0.267514  0.250000  0.907248  1
  O  O22  1  0.595719  0.750000  0.444955  1
  O  O23  1  0.064709  0.250000  0.135233  1
