# generated using pymatgen
data_CsPdCl3
_symmetry_space_group_name_H-M   'P 1'
_cell_length_a   9.94113891
_cell_length_b   9.94113891
_cell_length_c   9.94113891
_cell_angle_alpha   124.74724317
_cell_angle_beta   115.07152144
_cell_angle_gamma   90.36059394
_symmetry_Int_Tables_number   1
_chemical_formula_structural   CsPdCl3
_chemical_formula_sum   'Cs4 Pd4 Cl12'
_cell_volume   689.46791642
_cell_formula_units_Z   4
loop_
 _symmetry_equiv_pos_site_id
 _symmetry_equiv_pos_as_xyz
  1  'x, y, z'
loop_
 _atom_site_type_symbol
 _atom_site_label
 _atom_site_symmetry_multiplicity
 _atom_site_fract_x
 _atom_site_fract_y
 _atom_site_fract_z
 _atom_site_occupancy
  Cs  Cs0  1  0.824463  0.574463  0.750000  1
  Cs  Cs1  1  0.175537  0.925537  0.750000  1
  Cs  Cs2  1  0.175537  0.425537  0.250000  1
  Cs  Cs3  1  0.824463  0.074463  0.250000  1
  Pd  Pd4  1  0.405304  0.551596  0.853708  1
  Pd  Pd5  1  0.594696  0.448404  0.146292  1
  Pd  Pd6  1  0.302111  0.948404  0.353708  1
  Pd  Pd7  1  0.697889  0.051596  0.646292  1
  Cl  Cl8  1  0.333506  0.396218  0.937289  1
  Cl  Cl9  1  0.666494  0.603782  0.062711  1
  Cl  Cl10  1  0.541071  0.103782  0.437289  1
  Cl  Cl11  1  0.458929  0.896218  0.562711  1
  Cl  Cl12  1  0.146733  0.496002  0.650730  1
  Cl  Cl13  1  0.853267  0.503998  0.349270  1
  Cl  Cl14  1  0.154728  0.003998  0.150730  1
  Cl  Cl15  1  0.845272  0.996002  0.849270  1
  Cl  Cl16  1  0.924729  0.207055  0.717673  1
  Cl  Cl17  1  0.075271  0.792945  0.282327  1
  Cl  Cl18  1  0.510618  0.292945  0.217673  1
  Cl  Cl19  1  0.489382  0.707055  0.782327  1
