# generated using pymatgen
data_PrZr3F15
_symmetry_space_group_name_H-M   'P 1'
_cell_length_a   7.52251895
_cell_length_b   7.52251895
_cell_length_c   7.52251895
_cell_angle_alpha   112.67178335
_cell_angle_beta   112.67178335
_cell_angle_gamma   112.67178335
_symmetry_Int_Tables_number   1
_chemical_formula_structural   PrZr3F15
_chemical_formula_sum   'Pr1 Zr3 F15'
_cell_volume   282.28683944
_cell_formula_units_Z   1
loop_
 _symmetry_equiv_pos_site_id
 _symmetry_equiv_pos_as_xyz
  1  'x, y, z'
loop_
 _atom_site_type_symbol
 _atom_site_label
 _atom_site_symmetry_multiplicity
 _atom_site_fract_x
 _atom_site_fract_y
 _atom_site_fract_z
 _atom_site_occupancy
  Pr  Pr0  1  0.506088  0.506088  0.506088  1
  Zr  Zr1  1  0.713648  0.144822  0.144822  1
  Zr  Zr2  1  0.144822  0.713648  0.144822  1
  Zr  Zr3  1  0.144822  0.144822  0.713648  1
  F  F4  1  0.071198  0.401328  0.857434  1
  F  F5  1  0.857434  0.071198  0.401328  1
  F  F6  1  0.401328  0.857434  0.071198  1
  F  F7  1  0.401328  0.071198  0.857434  1
  F  F8  1  0.403754  0.403754  0.743710  1
  F  F9  1  0.403754  0.743710  0.403754  1
  F  F10  1  0.743710  0.403754  0.403754  1
  F  F11  1  0.862828  0.862828  0.640422  1
  F  F12  1  0.862828  0.640422  0.862828  1
  F  F13  1  0.640422  0.862828  0.862828  1
  F  F14  1  0.321198  0.321198  0.083841  1
  F  F15  1  0.321198  0.083841  0.321198  1
  F  F16  1  0.083841  0.321198  0.321198  1
  F  F17  1  0.071198  0.857434  0.401328  1
  F  F18  1  0.857434  0.401328  0.071198  1
