# generated using pymatgen
data_CaAl2O4
_symmetry_space_group_name_H-M   'P 1'
_cell_length_a   8.78282043
_cell_length_b   8.21673466
_cell_length_c   17.65328915
_cell_angle_alpha   90.00000000
_cell_angle_beta   119.59668197
_cell_angle_gamma   90.00000000
_symmetry_Int_Tables_number   1
_chemical_formula_structural   CaAl2O4
_chemical_formula_sum   'Ca12 Al24 O48'
_cell_volume   1107.74612898
_cell_formula_units_Z   12
loop_
 _symmetry_equiv_pos_site_id
 _symmetry_equiv_pos_as_xyz
  1  'x, y, z'
loop_
 _atom_site_type_symbol
 _atom_site_label
 _atom_site_symmetry_multiplicity
 _atom_site_fract_x
 _atom_site_fract_y
 _atom_site_fract_z
 _atom_site_occupancy
  Ca  Ca0  1  0.491874  0.954502  0.253401  1
  Ca  Ca1  1  0.508126  0.454502  0.246599  1
  Ca  Ca2  1  0.508126  0.045498  0.746599  1
  Ca  Ca3  1  0.491874  0.545498  0.753401  1
  Ca  Ca4  1  0.197546  0.032035  0.429699  1
  Ca  Ca5  1  0.802454  0.532035  0.070301  1
  Ca  Ca6  1  0.802454  0.967965  0.570301  1
  Ca  Ca7  1  0.197546  0.467965  0.929699  1
  Ca  Ca8  1  0.149575  0.465192  0.410127  1
  Ca  Ca9  1  0.850425  0.965192  0.089873  1
  Ca  Ca10  1  0.850425  0.534808  0.589873  1
  Ca  Ca11  1  0.149575  0.034808  0.910127  1
  Al  Al12  1  0.846468  0.164173  0.407581  1
  Al  Al13  1  0.153532  0.664173  0.092419  1
  Al  Al14  1  0.153532  0.835827  0.592419  1
  Al  Al15  1  0.846468  0.335827  0.907581  1
  Al  Al16  1  0.846321  0.773265  0.409241  1
  Al  Al17  1  0.153679  0.273265  0.090759  1
  Al  Al18  1  0.153679  0.226735  0.590759  1
  Al  Al19  1  0.846321  0.726735  0.909241  1
  Al  Al20  1  0.532459  0.279844  0.420616  1
  Al  Al21  1  0.467541  0.779844  0.079384  1
  Al  Al22  1  0.467541  0.720156  0.579384  1
  Al  Al23  1  0.532459  0.220156  0.920616  1
  Al  Al24  1  0.520936  0.668707  0.422015  1
  Al  Al25  1  0.479064  0.168707  0.077985  1
  Al  Al26  1  0.479064  0.331293  0.577985  1
  Al  Al27  1  0.520936  0.831293  0.922015  1
  Al  Al28  1  0.184475  0.775599  0.267270  1
  Al  Al29  1  0.815525  0.275599  0.232730  1
  Al  Al30  1  0.815525  0.224401  0.732730  1
  Al  Al31  1  0.184475  0.724401  0.767270  1
  Al  Al32  1  0.186663  0.170382  0.262019  1
  Al  Al33  1  0.813337  0.670382  0.237981  1
  Al  Al34  1  0.813337  0.829618  0.737981  1
  Al  Al35  1  0.186663  0.329618  0.762019  1
  O  O36  1  0.727080  0.256520  0.303906  1
  O  O37  1  0.272920  0.756520  0.196094  1
  O  O38  1  0.272920  0.743480  0.696094  1
  O  O39  1  0.727080  0.243480  0.803906  1
  O  O40  1  0.615020  0.772967  0.367137  1
  O  O41  1  0.384980  0.272967  0.132863  1
  O  O42  1  0.384980  0.227033  0.632863  1
  O  O43  1  0.615020  0.727033  0.867137  1
  O  O44  1  0.709855  0.143359  0.454449  1
  O  O45  1  0.290145  0.643359  0.045551  1
  O  O46  1  0.290145  0.856641  0.545551  1
  O  O47  1  0.709855  0.356641  0.954449  1
  O  O48  1  0.624947  0.476277  0.446981  1
  O  O49  1  0.375053  0.976277  0.053019  1
  O  O50  1  0.375053  0.523723  0.553019  1
  O  O51  1  0.624947  0.023723  0.946981  1
  O  O52  1  0.389959  0.272678  0.305660  1
  O  O53  1  0.610041  0.772678  0.194340  1
  O  O54  1  0.610041  0.727322  0.694340  1
  O  O55  1  0.389959  0.227322  0.805660  1
  O  O56  1  0.907037  0.636148  0.351362  1
  O  O57  1  0.244109  0.974636  0.312043  1
  O  O58  1  0.755891  0.025364  0.687957  1
  O  O59  1  0.244109  0.525364  0.812043  1
  O  O60  1  0.290580  0.645314  0.358731  1
  O  O61  1  0.709420  0.145314  0.141269  1
  O  O62  1  0.709420  0.354686  0.641269  1
  O  O63  1  0.290580  0.854686  0.858731  1
  O  O64  1  0.409033  0.240149  0.473952  1
  O  O65  1  0.590967  0.740149  0.026048  1
  O  O66  1  0.590967  0.759851  0.526048  1
  O  O67  1  0.409033  0.259851  0.973952  1
  O  O68  1  0.046391  0.255258  0.297046  1
  O  O69  1  0.953609  0.755258  0.202954  1
  O  O70  1  0.953609  0.744742  0.702954  1
  O  O71  1  0.046391  0.244742  0.797046  1
  O  O72  1  0.052447  0.239891  0.975975  1
  O  O73  1  0.947553  0.739891  0.524025  1
  O  O74  1  0.947553  0.760109  0.024025  1
  O  O75  1  0.052447  0.260109  0.475975  1
  O  O76  1  0.906166  0.532035  0.889766  1
  O  O77  1  0.093834  0.032035  0.610234  1
  O  O78  1  0.093834  0.467965  0.110234  1
  O  O79  1  0.906166  0.967965  0.389766  1
  O  O80  1  0.907037  0.863852  0.851362  1
  O  O81  1  0.092963  0.363852  0.648638  1
  O  O82  1  0.092963  0.136148  0.148638  1
  O  O83  1  0.755891  0.474636  0.187957  1
