# generated using pymatgen
data_Bi2P4O13
_symmetry_space_group_name_H-M   'P 1'
_cell_length_a   7.01177914
_cell_length_b   7.01177914
_cell_length_c   13.39076242
_cell_angle_alpha   76.14585425
_cell_angle_beta   103.85414575
_cell_angle_gamma   120.25017049
_symmetry_Int_Tables_number   1
_chemical_formula_structural   Bi2P4O13
_chemical_formula_sum   'Bi4 P8 O26'
_cell_volume   546.59746325
_cell_formula_units_Z   2
loop_
 _symmetry_equiv_pos_site_id
 _symmetry_equiv_pos_as_xyz
  1  'x, y, z'
loop_
 _atom_site_type_symbol
 _atom_site_label
 _atom_site_symmetry_multiplicity
 _atom_site_fract_x
 _atom_site_fract_y
 _atom_site_fract_z
 _atom_site_occupancy
  Bi  Bi0  1  0.696772  0.300955  0.058901  1
  Bi  Bi1  1  0.300955  0.696772  0.441099  1
  Bi  Bi2  1  0.303228  0.699045  0.941099  1
  Bi  Bi3  1  0.699045  0.303228  0.558901  1
  P  P4  1  0.865389  0.844887  0.363550  1
  P  P5  1  0.844887  0.865389  0.136450  1
  P  P6  1  0.134611  0.155113  0.636450  1
  P  P7  1  0.155113  0.134611  0.863550  1
  P  P8  1  0.762707  0.223395  0.341576  1
  P  P9  1  0.223395  0.762707  0.158424  1
  P  P10  1  0.237293  0.776605  0.658424  1
  P  P11  1  0.776605  0.237293  0.841576  1
  O  O12  1  0.766840  0.766840  0.250000  1
  O  O13  1  0.233160  0.233160  0.750000  1
  O  O14  1  0.688583  0.693468  0.065808  1
  O  O15  1  0.693468  0.688583  0.434192  1
  O  O16  1  0.311417  0.306532  0.934192  1
  O  O17  1  0.306532  0.311417  0.565808  1
  O  O18  1  0.881942  0.102662  0.106441  1
  O  O19  1  0.102662  0.881942  0.393559  1
  O  O20  1  0.118058  0.897338  0.893559  1
  O  O21  1  0.897338  0.118058  0.606441  1
  O  O22  1  0.899858  0.093331  0.344735  1
  O  O23  1  0.093331  0.899858  0.155265  1
  O  O24  1  0.306058  0.708085  0.771615  1
  O  O25  1  0.708085  0.306058  0.728385  1
  O  O26  1  0.693942  0.291915  0.228385  1
  O  O27  1  0.291915  0.693942  0.271615  1
  O  O28  1  0.925316  0.433294  0.904140  1
  O  O29  1  0.433294  0.925316  0.595860  1
  O  O30  1  0.074684  0.566706  0.095860  1
  O  O31  1  0.566706  0.074684  0.404140  1
  O  O32  1  0.580675  0.077922  0.902695  1
  O  O33  1  0.077922  0.580675  0.597305  1
  O  O34  1  0.419325  0.922078  0.097305  1
  O  O35  1  0.922078  0.419325  0.402695  1
  O  O36  1  0.906669  0.100142  0.844735  1
  O  O37  1  0.100142  0.906669  0.655265  1
