# generated using pymatgen
data_Zr6FeCl14
_symmetry_space_group_name_H-M   'P 1'
_cell_length_a   9.87499053
_cell_length_b   9.87499053
_cell_length_c   12.01198070
_cell_angle_alpha   90.00000000
_cell_angle_beta   90.00000000
_cell_angle_gamma   96.19092688
_symmetry_Int_Tables_number   1
_chemical_formula_structural   Zr6FeCl14
_chemical_formula_sum   'Zr12 Fe2 Cl28'
_cell_volume   1164.52228753
_cell_formula_units_Z   2
loop_
 _symmetry_equiv_pos_site_id
 _symmetry_equiv_pos_as_xyz
  1  'x, y, z'
loop_
 _atom_site_type_symbol
 _atom_site_label
 _atom_site_symmetry_multiplicity
 _atom_site_fract_x
 _atom_site_fract_y
 _atom_site_fract_z
 _atom_site_occupancy
  Zr  Zr0  1  0.047504  0.807810  0.381064  1
  Zr  Zr1  1  0.848286  0.848286  0.611246  1
  Zr  Zr2  1  0.151714  0.151714  0.388754  1
  Zr  Zr3  1  0.348286  0.348286  0.888754  1
  Zr  Zr4  1  0.452496  0.692190  0.881064  1
  Zr  Zr5  1  0.651714  0.651714  0.111246  1
  Zr  Zr6  1  0.192190  0.952496  0.618936  1
  Zr  Zr7  1  0.307810  0.547504  0.118936  1
  Zr  Zr8  1  0.547504  0.307810  0.118936  1
  Zr  Zr9  1  0.952496  0.192190  0.618936  1
  Zr  Zr10  1  0.807810  0.047504  0.381064  1
  Zr  Zr11  1  0.692190  0.452496  0.881064  1
  Fe  Fe12  1  0.000000  0.000000  0.500000  1
  Fe  Fe13  1  0.500000  0.500000  0.000000  1
  Cl  Cl14  1  0.360776  0.117530  0.507870  1
  Cl  Cl15  1  0.100538  0.600538  0.250000  1
  Cl  Cl16  1  0.247882  0.752118  0.500000  1
  Cl  Cl17  1  0.252118  0.747882  0.000000  1
  Cl  Cl18  1  0.752118  0.247882  0.500000  1
  Cl  Cl19  1  0.747882  0.252118  0.000000  1
  Cl  Cl20  1  0.843523  0.843523  0.244289  1
  Cl  Cl21  1  0.656477  0.656477  0.744289  1
  Cl  Cl22  1  0.343523  0.343523  0.255711  1
  Cl  Cl23  1  0.156477  0.156477  0.755711  1
  Cl  Cl24  1  0.600538  0.100538  0.250000  1
  Cl  Cl25  1  0.899462  0.399462  0.750000  1
  Cl  Cl26  1  0.963797  0.207104  0.255186  1
  Cl  Cl27  1  0.536203  0.292896  0.755186  1
  Cl  Cl28  1  0.382470  0.139224  0.007870  1
  Cl  Cl29  1  0.792896  0.036203  0.744814  1
  Cl  Cl30  1  0.036203  0.792896  0.744814  1
  Cl  Cl31  1  0.463797  0.707104  0.244814  1
  Cl  Cl32  1  0.292896  0.536203  0.755186  1
  Cl  Cl33  1  0.207104  0.963797  0.255186  1
  Cl  Cl34  1  0.139224  0.382470  0.007870  1
  Cl  Cl35  1  0.707104  0.463797  0.244814  1
  Cl  Cl36  1  0.882470  0.639224  0.492130  1
  Cl  Cl37  1  0.617530  0.860776  0.992130  1
  Cl  Cl38  1  0.860776  0.617530  0.992130  1
  Cl  Cl39  1  0.639224  0.882470  0.492130  1
  Cl  Cl40  1  0.117530  0.360776  0.507870  1
  Cl  Cl41  1  0.399462  0.899462  0.750000  1
