# generated using pymatgen
data_Cl2
_symmetry_space_group_name_H-M   'P 1'
_cell_length_a   4.40745493
_cell_length_b   4.40745493
_cell_length_c   8.26065876
_cell_angle_alpha   90.00000000
_cell_angle_beta   90.00000000
_cell_angle_gamma   116.12129136
_symmetry_Int_Tables_number   1
_chemical_formula_structural   Cl2
_chemical_formula_sum   Cl4
_cell_volume   144.07910967
_cell_formula_units_Z   2
loop_
 _symmetry_equiv_pos_site_id
 _symmetry_equiv_pos_as_xyz
  1  'x, y, z'
loop_
 _atom_site_type_symbol
 _atom_site_label
 _atom_site_symmetry_multiplicity
 _atom_site_fract_x
 _atom_site_fract_y
 _atom_site_fract_z
 _atom_site_occupancy
  Cl  Cl0  1  0.388552  0.388552  0.604044  1
  Cl  Cl1  1  0.611448  0.611448  0.395956  1
  Cl  Cl2  1  0.111448  0.111448  0.104044  1
  Cl  Cl3  1  0.888552  0.888552  0.895956  1
