# generated using pymatgen
data_KVP2O7
_symmetry_space_group_name_H-M   'P 1'
_cell_length_a   7.50195428
_cell_length_b   10.25862741
_cell_length_c   8.33943537
_cell_angle_alpha   90.00000000
_cell_angle_beta   106.88336541
_cell_angle_gamma   90.00000000
_symmetry_Int_Tables_number   1
_chemical_formula_structural   KVP2O7
_chemical_formula_sum   'K4 V4 P8 O28'
_cell_volume   614.13795364
_cell_formula_units_Z   4
loop_
 _symmetry_equiv_pos_site_id
 _symmetry_equiv_pos_as_xyz
  1  'x, y, z'
loop_
 _atom_site_type_symbol
 _atom_site_label
 _atom_site_symmetry_multiplicity
 _atom_site_fract_x
 _atom_site_fract_y
 _atom_site_fract_z
 _atom_site_occupancy
  K  K0  1  0.176464  0.176563  0.058765  1
  K  K1  1  0.823536  0.823437  0.941235  1
  K  K2  1  0.176464  0.323437  0.558765  1
  K  K3  1  0.823536  0.676563  0.441235  1
  V  V4  1  0.236885  0.600480  0.260120  1
  V  V5  1  0.763115  0.100480  0.239880  1
  V  V6  1  0.763115  0.399520  0.739880  1
  V  V7  1  0.236885  0.899520  0.760120  1
  P  P8  1  0.131512  0.901293  0.328804  1
  P  P9  1  0.131512  0.598707  0.828804  1
  P  P10  1  0.868488  0.098707  0.671196  1
  P  P11  1  0.868488  0.401293  0.171196  1
  P  P12  1  0.440596  0.863678  0.192009  1
  P  P13  1  0.440596  0.636322  0.692009  1
  P  P14  1  0.559404  0.136322  0.807991  1
  P  P15  1  0.559404  0.363678  0.307991  1
  O  O16  1  0.336977  0.938264  0.313660  1
  O  O17  1  0.663023  0.438264  0.186340  1
  O  O18  1  0.663023  0.061736  0.686340  1
  O  O19  1  0.336977  0.561736  0.813660  1
  O  O20  1  0.080410  0.764287  0.253398  1
  O  O21  1  0.919590  0.264287  0.246602  1
  O  O22  1  0.919590  0.235713  0.746602  1
  O  O23  1  0.080410  0.735713  0.753398  1
  O  O24  1  0.364377  0.423727  0.264910  1
  O  O25  1  0.635623  0.923727  0.235090  1
  O  O26  1  0.635623  0.576273  0.735090  1
  O  O27  1  0.364377  0.076273  0.764910  1
  O  O28  1  0.455417  0.719152  0.241341  1
  O  O29  1  0.544583  0.219152  0.258659  1
  O  O30  1  0.544583  0.280848  0.758659  1
  O  O31  1  0.455417  0.780848  0.741341  1
  O  O32  1  0.141323  0.905558  0.512096  1
  O  O33  1  0.858677  0.405558  0.987904  1
  O  O34  1  0.858677  0.094442  0.487904  1
  O  O35  1  0.141323  0.594442  0.012096  1
  O  O36  1  0.320488  0.892322  0.013816  1
  O  O37  1  0.679512  0.392322  0.486184  1
  O  O38  1  0.679512  0.107678  0.986184  1
  O  O39  1  0.320488  0.607678  0.513816  1
  O  O40  1  0.000832  0.997961  0.778660  1
  O  O41  1  0.999168  0.497961  0.721340  1
  O  O42  1  0.999168  0.002039  0.221340  1
  O  O43  1  0.000832  0.502039  0.278660  1
