# generated using pymatgen
data_NbCl3O
_symmetry_space_group_name_H-M   'P 1'
_cell_length_a   11.80775024
_cell_length_b   11.80775024
_cell_length_c   3.87029144
_cell_angle_alpha   90.00000000
_cell_angle_beta   90.00000000
_cell_angle_gamma   90.00000000
_symmetry_Int_Tables_number   1
_chemical_formula_structural   NbCl3O
_chemical_formula_sum   'Nb4 Cl12 O4'
_cell_volume   539.60751081
_cell_formula_units_Z   4
loop_
 _symmetry_equiv_pos_site_id
 _symmetry_equiv_pos_as_xyz
  1  'x, y, z'
loop_
 _atom_site_type_symbol
 _atom_site_label
 _atom_site_symmetry_multiplicity
 _atom_site_fract_x
 _atom_site_fract_y
 _atom_site_fract_z
 _atom_site_occupancy
  Nb  Nb0  1  0.879801  0.879801  0.000000  1
  Nb  Nb1  1  0.379801  0.620199  0.500000  1
  Nb  Nb2  1  0.620199  0.379801  0.500000  1
  Nb  Nb3  1  0.120199  0.120199  0.000000  1
  Cl  Cl4  1  0.902316  0.097684  0.000000  1
  Cl  Cl5  1  0.597684  0.597684  0.500000  1
  Cl  Cl6  1  0.402316  0.402316  0.500000  1
  Cl  Cl7  1  0.097684  0.902316  0.000000  1
  Cl  Cl8  1  0.099515  0.313761  0.000000  1
  Cl  Cl9  1  0.813761  0.400485  0.500000  1
  Cl  Cl10  1  0.186239  0.599515  0.500000  1
  Cl  Cl11  1  0.900485  0.686239  0.000000  1
  Cl  Cl12  1  0.400485  0.813761  0.500000  1
  Cl  Cl13  1  0.599515  0.186239  0.500000  1
  Cl  Cl14  1  0.313761  0.099515  0.000000  1
  Cl  Cl15  1  0.686239  0.900485  0.000000  1
  O  O16  1  0.391301  0.608699  0.000000  1
  O  O17  1  0.108699  0.108699  0.500000  1
  O  O18  1  0.891301  0.891301  0.500000  1
  O  O19  1  0.608699  0.391301  0.000000  1
