# generated using pymatgen
data_Sc2GeO5
_symmetry_space_group_name_H-M   'P 1'
_cell_length_a   7.64409143
_cell_length_b   7.64409143
_cell_length_c   10.76477868
_cell_angle_alpha   87.51123669
_cell_angle_beta   92.48876331
_cell_angle_gamma   92.28575693
_symmetry_Int_Tables_number   1
_chemical_formula_structural   Sc2GeO5
_chemical_formula_sum   'Sc12 Ge6 O30'
_cell_volume   627.36781583
_cell_formula_units_Z   6
loop_
 _symmetry_equiv_pos_site_id
 _symmetry_equiv_pos_as_xyz
  1  'x, y, z'
loop_
 _atom_site_type_symbol
 _atom_site_label
 _atom_site_symmetry_multiplicity
 _atom_site_fract_x
 _atom_site_fract_y
 _atom_site_fract_z
 _atom_site_occupancy
  Sc  Sc0  1  0.695951  0.006000  0.061559  1
  Sc  Sc1  1  0.006000  0.695951  0.438441  1
  Sc  Sc2  1  0.304049  0.994000  0.938441  1
  Sc  Sc3  1  0.994000  0.304049  0.561559  1
  Sc  Sc4  1  0.370000  0.348279  0.429424  1
  Sc  Sc5  1  0.348279  0.370000  0.070576  1
  Sc  Sc6  1  0.630000  0.651721  0.570576  1
  Sc  Sc7  1  0.651721  0.630000  0.929424  1
  Sc  Sc8  1  0.360714  0.007150  0.245394  1
  Sc  Sc9  1  0.007150  0.360714  0.254606  1
  Sc  Sc10  1  0.639286  0.992850  0.754606  1
  Sc  Sc11  1  0.992850  0.639286  0.745394  1
  Ge  Ge12  1  0.643468  0.643468  0.250000  1
  Ge  Ge13  1  0.356532  0.356532  0.750000  1
  Ge  Ge14  1  0.725639  0.061134  0.456158  1
  Ge  Ge15  1  0.061134  0.725639  0.043842  1
  Ge  Ge16  1  0.274361  0.938866  0.543842  1
  Ge  Ge17  1  0.938866  0.274361  0.956158  1
  O  O18  1  0.518361  0.125155  0.395896  1
  O  O19  1  0.125155  0.518361  0.104104  1
  O  O20  1  0.481639  0.874845  0.604104  1
  O  O21  1  0.874845  0.481639  0.895896  1
  O  O22  1  0.222024  0.869217  0.387870  1
  O  O23  1  0.869217  0.222024  0.112130  1
  O  O24  1  0.777976  0.130783  0.612130  1
  O  O25  1  0.130783  0.777976  0.887870  1
  O  O26  1  0.198889  0.889714  0.113457  1
  O  O27  1  0.889714  0.198889  0.386543  1
  O  O28  1  0.801111  0.110286  0.886543  1
  O  O29  1  0.110286  0.801111  0.613457  1
  O  O30  1  0.463275  0.130455  0.075392  1
  O  O31  1  0.130455  0.463275  0.424608  1
  O  O32  1  0.536725  0.869545  0.924608  1
  O  O33  1  0.869545  0.536725  0.575392  1
  O  O34  1  0.593937  0.867600  0.219439  1
  O  O35  1  0.867600  0.593937  0.280561  1
  O  O36  1  0.161873  0.224940  0.953902  1
  O  O37  1  0.224940  0.161873  0.546098  1
  O  O38  1  0.838127  0.775060  0.046098  1
  O  O39  1  0.775060  0.838127  0.453902  1
  O  O40  1  0.737572  0.737572  0.750000  1
  O  O41  1  0.262428  0.262428  0.250000  1
  O  O42  1  0.440140  0.464317  0.885518  1
  O  O43  1  0.464317  0.440140  0.614482  1
  O  O44  1  0.559860  0.535683  0.114482  1
  O  O45  1  0.535683  0.559860  0.385518  1
  O  O46  1  0.132400  0.406063  0.719439  1
  O  O47  1  0.406063  0.132400  0.780561  1
