# generated using pymatgen
data_TlFeBr4
_symmetry_space_group_name_H-M   'P 1'
_cell_length_a   7.79709961
_cell_length_b   10.67410120
_cell_length_c   10.73809522
_cell_angle_alpha   90.00000000
_cell_angle_beta   90.00000000
_cell_angle_gamma   90.00000000
_symmetry_Int_Tables_number   1
_chemical_formula_structural   TlFeBr4
_chemical_formula_sum   'Tl4 Fe4 Br16'
_cell_volume   893.69977628
_cell_formula_units_Z   4
loop_
 _symmetry_equiv_pos_site_id
 _symmetry_equiv_pos_as_xyz
  1  'x, y, z'
loop_
 _atom_site_type_symbol
 _atom_site_label
 _atom_site_symmetry_multiplicity
 _atom_site_fract_x
 _atom_site_fract_y
 _atom_site_fract_z
 _atom_site_occupancy
  Tl  Tl0  1  0.836260  0.250000  0.250000  1
  Tl  Tl1  1  0.663740  0.250000  0.750000  1
  Tl  Tl2  1  0.163740  0.750000  0.750000  1
  Tl  Tl3  1  0.336260  0.750000  0.250000  1
  Fe  Fe4  1  0.750000  0.818437  0.000000  1
  Fe  Fe5  1  0.250000  0.318437  0.500000  1
  Fe  Fe6  1  0.250000  0.181563  0.000000  1
  Fe  Fe7  1  0.750000  0.681563  0.500000  1
  Br  Br8  1  0.491511  0.189978  0.460004  1
  Br  Br9  1  0.008489  0.310022  0.960004  1
  Br  Br10  1  0.008489  0.189978  0.539996  1
  Br  Br11  1  0.491511  0.310022  0.039996  1
  Br  Br12  1  0.674617  0.941810  0.173866  1
  Br  Br13  1  0.674617  0.558190  0.326134  1
  Br  Br14  1  0.825383  0.941810  0.826134  1
  Br  Br15  1  0.825383  0.558190  0.673866  1
  Br  Br16  1  0.325383  0.058190  0.826134  1
  Br  Br17  1  0.325383  0.441810  0.673866  1
  Br  Br18  1  0.174617  0.058190  0.173866  1
  Br  Br19  1  0.174617  0.441810  0.326134  1
  Br  Br20  1  0.991511  0.689978  0.039996  1
  Br  Br21  1  0.991511  0.810022  0.460004  1
  Br  Br22  1  0.508489  0.689978  0.960004  1
  Br  Br23  1  0.508489  0.810022  0.539996  1
