# generated using pymatgen
data_BiSeI
_symmetry_space_group_name_H-M   'P 1'
_cell_length_a   4.27399060
_cell_length_b   9.03710559
_cell_length_c   11.27748786
_cell_angle_alpha   90.00000000
_cell_angle_beta   90.00000000
_cell_angle_gamma   90.00000000
_symmetry_Int_Tables_number   1
_chemical_formula_structural   BiSeI
_chemical_formula_sum   'Bi4 Se4 I4'
_cell_volume   435.58737883
_cell_formula_units_Z   4
loop_
 _symmetry_equiv_pos_site_id
 _symmetry_equiv_pos_as_xyz
  1  'x, y, z'
loop_
 _atom_site_type_symbol
 _atom_site_label
 _atom_site_symmetry_multiplicity
 _atom_site_fract_x
 _atom_site_fract_y
 _atom_site_fract_z
 _atom_site_occupancy
  Bi  Bi0  1  0.750000  0.110746  0.128102  1
  Bi  Bi1  1  0.250000  0.889254  0.871898  1
  Bi  Bi2  1  0.750000  0.610746  0.371898  1
  Bi  Bi3  1  0.250000  0.389254  0.628102  1
  Se  Se4  1  0.250000  0.171597  0.961276  1
  Se  Se5  1  0.750000  0.328403  0.461276  1
  Se  Se6  1  0.250000  0.671597  0.538724  1
  Se  Se7  1  0.750000  0.828403  0.038724  1
  I  I8  1  0.250000  0.476062  0.184248  1
  I  I9  1  0.750000  0.023938  0.684248  1
  I  I10  1  0.250000  0.976062  0.315752  1
  I  I11  1  0.750000  0.523938  0.815752  1
