# generated using pymatgen
data_YBO3
_symmetry_space_group_name_H-M   'P 1'
_cell_length_a   6.60470982
_cell_length_b   6.60470982
_cell_length_c   8.90402254
_cell_angle_alpha   90.00000000
_cell_angle_beta   90.00000000
_cell_angle_gamma   120.08248709
_symmetry_Int_Tables_number   1
_chemical_formula_structural   YBO3
_chemical_formula_sum   'Y6 B6 O18'
_cell_volume   336.09556475
_cell_formula_units_Z   6
loop_
 _symmetry_equiv_pos_site_id
 _symmetry_equiv_pos_as_xyz
  1  'x, y, z'
loop_
 _atom_site_type_symbol
 _atom_site_label
 _atom_site_symmetry_multiplicity
 _atom_site_fract_x
 _atom_site_fract_y
 _atom_site_fract_z
 _atom_site_occupancy
  Y  Y0  1  0.670705  0.329295  0.000000  1
  Y  Y1  1  0.670705  0.329295  0.500000  1
  Y  Y2  1  0.000000  0.000000  0.000000  1
  Y  Y3  1  0.000000  0.000000  0.500000  1
  Y  Y4  1  0.329295  0.670705  1.000000  1
  Y  Y5  1  0.329295  0.670705  0.500000  1
  B  B6  1  0.665819  0.906114  0.250000  1
  B  B7  1  0.906114  0.665819  0.250000  1
  B  B8  1  0.424371  0.424371  0.250000  1
  B  B9  1  0.575629  0.575629  0.750000  1
  B  B10  1  0.334181  0.093886  0.750000  1
  B  B11  1  0.093886  0.334181  0.750000  1
  O  O12  1  0.551650  0.334526  0.750000  1
  O  O13  1  0.334526  0.551650  0.750000  1
  O  O14  1  0.118008  0.118008  0.750000  1
  O  O15  1  0.881992  0.881992  0.250000  1
  O  O16  1  0.448350  0.665474  0.250000  1
  O  O17  1  0.665474  0.448350  0.250000  1
  O  O18  1  0.984122  0.333533  0.608490  1
  O  O19  1  0.984122  0.333533  0.891510  1
  O  O20  1  0.333533  0.984122  0.608490  1
  O  O21  1  0.333533  0.984122  0.891510  1
  O  O22  1  0.683934  0.683934  0.606876  1
  O  O23  1  0.683934  0.683934  0.893124  1
  O  O24  1  0.316066  0.316066  0.106876  1
  O  O25  1  0.316066  0.316066  0.393124  1
  O  O26  1  0.015878  0.666467  0.108490  1
  O  O27  1  0.015878  0.666467  0.391510  1
  O  O28  1  0.666467  0.015878  0.108490  1
  O  O29  1  0.666467  0.015878  0.391510  1
