# generated using pymatgen
data_Tl4Bi2S5
_symmetry_space_group_name_H-M   'P 1'
_cell_length_a   4.15355426
_cell_length_b   17.38057606
_cell_length_c   17.77288145
_cell_angle_alpha   90.00000000
_cell_angle_beta   90.00000000
_cell_angle_gamma   90.00000000
_symmetry_Int_Tables_number   1
_chemical_formula_structural   Tl4Bi2S5
_chemical_formula_sum   'Tl16 Bi8 S20'
_cell_volume   1283.04503035
_cell_formula_units_Z   4
loop_
 _symmetry_equiv_pos_site_id
 _symmetry_equiv_pos_as_xyz
  1  'x, y, z'
loop_
 _atom_site_type_symbol
 _atom_site_label
 _atom_site_symmetry_multiplicity
 _atom_site_fract_x
 _atom_site_fract_y
 _atom_site_fract_z
 _atom_site_occupancy
  Tl  Tl0  1  0.250000  0.188999  0.919898  1
  Tl  Tl1  1  0.250000  0.688999  0.580102  1
  Tl  Tl2  1  0.750000  0.811001  0.080102  1
  Tl  Tl3  1  0.250000  0.430481  0.916423  1
  Tl  Tl4  1  0.750000  0.569519  0.083577  1
  Tl  Tl5  1  0.250000  0.930481  0.583577  1
  Tl  Tl6  1  0.750000  0.069519  0.416423  1
  Tl  Tl7  1  0.250000  0.184722  0.261117  1
  Tl  Tl8  1  0.750000  0.815278  0.738883  1
  Tl  Tl9  1  0.250000  0.684722  0.238883  1
  Tl  Tl10  1  0.750000  0.315278  0.761117  1
  Tl  Tl11  1  0.250000  0.183301  0.572067  1
  Tl  Tl12  1  0.750000  0.816699  0.427933  1
  Tl  Tl13  1  0.250000  0.683301  0.927933  1
  Tl  Tl14  1  0.750000  0.316699  0.072067  1
  Tl  Tl15  1  0.750000  0.311001  0.419898  1
  Bi  Bi16  1  0.750000  0.569709  0.756615  1
  Bi  Bi17  1  0.250000  0.430291  0.243385  1
  Bi  Bi18  1  0.250000  0.930291  0.256615  1
  Bi  Bi19  1  0.750000  0.069709  0.743385  1
  Bi  Bi20  1  0.250000  0.442430  0.588653  1
  Bi  Bi21  1  0.750000  0.557570  0.411347  1
  Bi  Bi22  1  0.250000  0.942430  0.911347  1
  Bi  Bi23  1  0.750000  0.057570  0.088653  1
  S  S24  1  0.250000  0.435781  0.418469  1
  S  S25  1  0.750000  0.564219  0.581531  1
  S  S26  1  0.250000  0.935781  0.081531  1
  S  S27  1  0.750000  0.064219  0.918469  1
  S  S28  1  0.750000  0.549599  0.906529  1
  S  S29  1  0.250000  0.950401  0.406529  1
  S  S30  1  0.750000  0.049599  0.593471  1
  S  S31  1  0.250000  0.179348  0.736184  1
  S  S32  1  0.750000  0.820652  0.263816  1
  S  S33  1  0.250000  0.679348  0.763816  1
  S  S34  1  0.750000  0.320652  0.236184  1
  S  S35  1  0.250000  0.455758  0.741608  1
  S  S36  1  0.750000  0.544242  0.258392  1
  S  S37  1  0.250000  0.955758  0.758392  1
  S  S38  1  0.750000  0.044242  0.241608  1
  S  S39  1  0.750000  0.336767  0.595957  1
  S  S40  1  0.250000  0.663233  0.404043  1
  S  S41  1  0.250000  0.450401  0.093471  1
  S  S42  1  0.250000  0.163233  0.095957  1
  S  S43  1  0.750000  0.836767  0.904043  1
