# generated using pymatgen
data_AlH10N2OF5
_symmetry_space_group_name_H-M   'P 1'
_cell_length_a   7.67078304
_cell_length_b   8.17604291
_cell_length_c   10.56227663
_cell_angle_alpha   90.00000000
_cell_angle_beta   90.00000000
_cell_angle_gamma   90.00000000
_symmetry_Int_Tables_number   1
_chemical_formula_structural   AlH10N2OF5
_chemical_formula_sum   'Al4 H40 N8 O4 F20'
_cell_volume   662.43062021
_cell_formula_units_Z   4
loop_
 _symmetry_equiv_pos_site_id
 _symmetry_equiv_pos_as_xyz
  1  'x, y, z'
loop_
 _atom_site_type_symbol
 _atom_site_label
 _atom_site_symmetry_multiplicity
 _atom_site_fract_x
 _atom_site_fract_y
 _atom_site_fract_z
 _atom_site_occupancy
  Al  Al0  1  0.750000  0.303575  0.500000  1
  Al  Al1  1  0.250000  0.196425  0.000000  1
  Al  Al2  1  0.250000  0.696425  0.500000  1
  Al  Al3  1  0.750000  0.803575  0.000000  1
  H  H4  1  0.897655  0.510342  0.118754  1
  H  H5  1  0.397655  0.989658  0.381246  1
  H  H6  1  0.602345  0.510342  0.881246  1
  H  H7  1  0.102345  0.989658  0.618754  1
  H  H8  1  0.102345  0.489658  0.881246  1
  H  H9  1  0.602345  0.010342  0.618754  1
  H  H10  1  0.397655  0.489658  0.118754  1
  H  H11  1  0.897655  0.010342  0.381246  1
  H  H12  1  0.044059  0.371493  0.177677  1
  H  H13  1  0.544059  0.128507  0.322323  1
  H  H14  1  0.455941  0.371493  0.822323  1
  H  H15  1  0.955941  0.128507  0.677677  1
  H  H16  1  0.955941  0.628507  0.822323  1
  H  H17  1  0.455941  0.871493  0.677677  1
  H  H18  1  0.544059  0.628507  0.177677  1
  H  H19  1  0.044059  0.871493  0.322323  1
  H  H20  1  0.862984  0.415000  0.259233  1
  H  H21  1  0.362984  0.085000  0.240767  1
  H  H22  1  0.637016  0.415000  0.740767  1
  H  H23  1  0.862984  0.915000  0.240767  1
  H  H24  1  0.137016  0.585000  0.740767  1
  H  H25  1  0.637016  0.915000  0.759233  1
  H  H26  1  0.362984  0.585000  0.259233  1
  H  H27  1  0.024031  0.056391  0.253019  1
  H  H28  1  0.024031  0.556392  0.246981  1
  H  H29  1  0.524031  0.943608  0.253019  1
  H  H30  1  0.475969  0.556392  0.753019  1
  H  H31  1  0.975969  0.943608  0.746981  1
  H  H32  1  0.644127  0.106434  0.018797  1
  H  H33  1  0.144127  0.393566  0.481203  1
  H  H34  1  0.855873  0.106434  0.981203  1
  H  H35  1  0.355873  0.393566  0.518797  1
  H  H36  1  0.355873  0.893566  0.981203  1
  H  H37  1  0.855873  0.606434  0.518797  1
  H  H38  1  0.144127  0.893566  0.018797  1
  H  H39  1  0.644127  0.606434  0.481203  1
  H  H40  1  0.475969  0.056391  0.746981  1
  H  H41  1  0.524031  0.443609  0.246981  1
  H  H42  1  0.975969  0.443609  0.753019  1
  H  H43  1  0.137016  0.085000  0.759233  1
  N  N44  1  0.043069  0.035456  0.700036  1
  N  N45  1  0.543069  0.464544  0.799964  1
  N  N46  1  0.456931  0.035456  0.299964  1
  N  N47  1  0.956931  0.464544  0.200036  1
  N  N48  1  0.043069  0.535456  0.799964  1
  N  N49  1  0.456931  0.535456  0.200036  1
  N  N50  1  0.956931  0.964544  0.299964  1
  N  N51  1  0.543069  0.964544  0.700036  1
  O  O52  1  0.750000  0.538407  0.500000  1
  O  O53  1  0.250000  0.961593  0.000000  1
  O  O54  1  0.250000  0.461593  0.500000  1
  O  O55  1  0.750000  0.038407  0.000000  1
  F  F56  1  0.676308  0.806261  0.167681  1
  F  F57  1  0.176308  0.193739  0.167681  1
  F  F58  1  0.823692  0.306261  0.667681  1
  F  F59  1  0.323692  0.193739  0.832319  1
  F  F60  1  0.323692  0.693739  0.667681  1
  F  F61  1  0.823692  0.806261  0.832319  1
  F  F62  1  0.176308  0.693739  0.332319  1
  F  F63  1  0.676308  0.306261  0.332319  1
  F  F64  1  0.974595  0.302089  0.447136  1
  F  F65  1  0.474595  0.197911  0.052864  1
  F  F66  1  0.750000  0.579553  0.000000  1
  F  F67  1  0.025405  0.197911  0.947136  1
  F  F68  1  0.025405  0.697911  0.552864  1
  F  F69  1  0.525405  0.802089  0.947136  1
  F  F70  1  0.474595  0.697911  0.447136  1
  F  F71  1  0.974595  0.802089  0.052864  1
  F  F72  1  0.750000  0.079553  0.500000  1
  F  F73  1  0.250000  0.420447  0.000000  1
  F  F74  1  0.250000  0.920447  0.500000  1
  F  F75  1  0.525405  0.302089  0.552864  1
