# generated using pymatgen
data_Ge7F16
_symmetry_space_group_name_H-M   'P 1'
_cell_length_a   9.99755046
_cell_length_b   9.99755046
_cell_length_c   10.43556299
_cell_angle_alpha   89.39921179
_cell_angle_beta   90.60078821
_cell_angle_gamma   134.33736782
_symmetry_Int_Tables_number   1
_chemical_formula_structural   Ge7F16
_chemical_formula_sum   'Ge14 F32'
_cell_volume   745.97626186
_cell_formula_units_Z   2
loop_
 _symmetry_equiv_pos_site_id
 _symmetry_equiv_pos_as_xyz
  1  'x, y, z'
loop_
 _atom_site_type_symbol
 _atom_site_label
 _atom_site_symmetry_multiplicity
 _atom_site_fract_x
 _atom_site_fract_y
 _atom_site_fract_z
 _atom_site_occupancy
  Ge  Ge0  1  0.928052  0.232307  0.972483  1
  Ge  Ge1  1  0.767693  0.071948  0.472483  1
  Ge  Ge2  1  0.735807  0.607080  0.409894  1
  Ge  Ge3  1  0.392920  0.264193  0.909894  1
  Ge  Ge4  1  0.265647  0.435122  0.592607  1
  Ge  Ge5  1  0.564878  0.734353  0.092607  1
  Ge  Ge6  1  0.332860  0.768848  0.807930  1
  Ge  Ge7  1  0.231152  0.667140  0.307930  1
  Ge  Ge8  1  0.232955  0.964379  0.542658  1
  Ge  Ge9  1  0.035621  0.767045  0.042658  1
  Ge  Ge10  1  0.763207  0.359120  0.696167  1
  Ge  Ge11  1  0.640880  0.236793  0.196167  1
  Ge  Ge12  1  0.177338  0.175597  0.248181  1
  Ge  Ge13  1  0.824403  0.822662  0.748181  1
  F  F14  1  0.972795  0.128186  0.200111  1
  F  F15  1  0.871814  0.027205  0.700111  1
  F  F16  1  0.054311  0.934176  0.186662  1
  F  F17  1  0.065824  0.945689  0.686662  1
  F  F18  1  0.300897  0.409819  0.301031  1
  F  F19  1  0.590181  0.699103  0.801031  1
  F  F20  1  0.273907  0.270161  0.081612  1
  F  F21  1  0.729839  0.726093  0.581612  1
  F  F22  1  0.078586  0.074788  0.405847  1
  F  F23  1  0.925212  0.921414  0.905847  1
  F  F24  1  0.379001  0.212505  0.286295  1
  F  F25  1  0.787495  0.620999  0.786295  1
  F  F26  1  0.765355  0.217372  0.347813  1
  F  F27  1  0.782628  0.234645  0.847813  1
  F  F28  1  0.202094  0.515779  0.737172  1
  F  F29  1  0.484221  0.797906  0.237172  1
  F  F30  1  0.020596  0.322297  0.518830  1
  F  F31  1  0.677703  0.979404  0.018830  1
  F  F32  1  0.376514  0.653781  0.507625  1
  F  F33  1  0.346219  0.623486  0.007625  1
  F  F34  1  0.217743  0.794557  0.654038  1
  F  F35  1  0.205443  0.782257  0.154038  1
  F  F36  1  0.641761  0.403774  0.510189  1
  F  F37  1  0.596226  0.358239  0.010189  1
  F  F38  1  0.661600  0.123933  0.595390  1
  F  F39  1  0.876067  0.338400  0.095390  1
  F  F40  1  0.513278  0.208456  0.751562  1
  F  F41  1  0.791544  0.486722  0.251562  1
  F  F42  1  0.109766  0.653480  0.894224  1
  F  F43  1  0.346520  0.890234  0.394224  1
  F  F44  1  0.992548  0.730845  0.466211  1
  F  F45  1  0.269155  0.007452  0.966211  1
