# generated using pymatgen
data_AlCuCl4
_symmetry_space_group_name_H-M   'P 1'
_cell_length_a   5.55590208
_cell_length_b   5.55590208
_cell_length_c   10.08405955
_cell_angle_alpha   90.00000000
_cell_angle_beta   90.00000000
_cell_angle_gamma   90.00000000
_symmetry_Int_Tables_number   1
_chemical_formula_structural   AlCuCl4
_chemical_formula_sum   'Al2 Cu2 Cl8'
_cell_volume   311.27523344
_cell_formula_units_Z   2
loop_
 _symmetry_equiv_pos_site_id
 _symmetry_equiv_pos_as_xyz
  1  'x, y, z'
loop_
 _atom_site_type_symbol
 _atom_site_label
 _atom_site_symmetry_multiplicity
 _atom_site_fract_x
 _atom_site_fract_y
 _atom_site_fract_z
 _atom_site_occupancy
  Al  Al0  1  0.500000  0.000000  0.250000  1
  Al  Al1  1  0.000000  0.500000  0.750000  1
  Cu  Cu2  1  0.000000  0.000000  0.000000  1
  Cu  Cu3  1  0.000000  0.000000  0.500000  1
  Cl  Cl4  1  0.773521  0.272988  0.872547  1
  Cl  Cl5  1  0.226479  0.727012  0.872547  1
  Cl  Cl6  1  0.727012  0.226479  0.372547  1
  Cl  Cl7  1  0.226479  0.272988  0.627453  1
  Cl  Cl8  1  0.773521  0.727012  0.627453  1
  Cl  Cl9  1  0.272988  0.226479  0.127453  1
  Cl  Cl10  1  0.727012  0.773521  0.127453  1
  Cl  Cl11  1  0.272988  0.773521  0.372547  1
