# generated using pymatgen
data_Tl5Se2Cl
_symmetry_space_group_name_H-M   'P 1'
_cell_length_a   8.77104412
_cell_length_b   8.77104412
_cell_length_c   13.33014315
_cell_angle_alpha   90.00000000
_cell_angle_beta   90.00000000
_cell_angle_gamma   90.00000000
_symmetry_Int_Tables_number   1
_chemical_formula_structural   Tl5Se2Cl
_chemical_formula_sum   'Tl20 Se8 Cl4'
_cell_volume   1025.50410805
_cell_formula_units_Z   4
loop_
 _symmetry_equiv_pos_site_id
 _symmetry_equiv_pos_as_xyz
  1  'x, y, z'
loop_
 _atom_site_type_symbol
 _atom_site_label
 _atom_site_symmetry_multiplicity
 _atom_site_fract_x
 _atom_site_fract_y
 _atom_site_fract_z
 _atom_site_occupancy
  Tl  Tl0  1  0.373121  0.665620  0.607175  1
  Tl  Tl1  1  0.834380  0.873121  0.607175  1
  Tl  Tl2  1  0.165620  0.126879  0.607175  1
  Tl  Tl3  1  0.873121  0.834380  0.892825  1
  Tl  Tl4  1  0.126879  0.165620  0.892825  1
  Tl  Tl5  1  0.626879  0.334380  0.607175  1
  Tl  Tl6  1  0.665620  0.373121  0.892825  1
  Tl  Tl7  1  0.334380  0.626879  0.892825  1
  Tl  Tl8  1  0.165620  0.873121  0.107175  1
  Tl  Tl9  1  0.834380  0.126879  0.107175  1
  Tl  Tl10  1  0.873121  0.165620  0.392825  1
  Tl  Tl11  1  0.373121  0.334380  0.107175  1
  Tl  Tl12  1  0.626879  0.665620  0.107175  1
  Tl  Tl13  1  0.334380  0.373121  0.392825  1
  Tl  Tl14  1  0.665620  0.626879  0.392825  1
  Tl  Tl15  1  0.126879  0.834380  0.392825  1
  Tl  Tl16  1  0.500000  0.000000  0.792102  1
  Tl  Tl17  1  0.000000  0.500000  0.707898  1
  Tl  Tl18  1  0.000000  0.500000  0.207898  1
  Tl  Tl19  1  0.500000  0.000000  0.292102  1
  Se  Se20  1  0.660679  0.339321  0.250000  1
  Se  Se21  1  0.160679  0.160679  0.250000  1
  Se  Se22  1  0.839321  0.839321  0.250000  1
  Se  Se23  1  0.339321  0.660679  0.250000  1
  Se  Se24  1  0.160679  0.839321  0.750000  1
  Se  Se25  1  0.660679  0.660679  0.750000  1
  Se  Se26  1  0.339321  0.339321  0.750000  1
  Se  Se27  1  0.839321  0.160679  0.750000  1
  Cl  Cl28  1  0.500000  0.000000  0.542225  1
  Cl  Cl29  1  0.000000  0.500000  0.957775  1
  Cl  Cl30  1  0.000000  0.500000  0.457775  1
  Cl  Cl31  1  0.500000  0.000000  0.042225  1
