# generated using pymatgen
data_ZnP4H16(NO8)2
_symmetry_space_group_name_H-M   'P 1'
_cell_length_a   7.14772428
_cell_length_b   7.41927038
_cell_length_c   7.83863606
_cell_angle_alpha   99.26811304
_cell_angle_beta   108.91014547
_cell_angle_gamma   89.75051168
_symmetry_Int_Tables_number   1
_chemical_formula_structural   ZnP4H16(NO8)2
_chemical_formula_sum   'Zn1 P4 H16 N2 O16'
_cell_volume   387.61072526
_cell_formula_units_Z   1
loop_
 _symmetry_equiv_pos_site_id
 _symmetry_equiv_pos_as_xyz
  1  'x, y, z'
loop_
 _atom_site_type_symbol
 _atom_site_label
 _atom_site_symmetry_multiplicity
 _atom_site_fract_x
 _atom_site_fract_y
 _atom_site_fract_z
 _atom_site_occupancy
  Zn  Zn0  1  0.000000  0.500000  0.000000  1
  P  P1  1  0.834824  0.253999  0.257425  1
  P  P2  1  0.165176  0.746001  0.742575  1
  P  P3  1  0.246042  0.216804  0.258362  1
  P  P4  1  0.753958  0.783196  0.741638  1
  H  H5  1  0.573690  0.718083  0.328620  1
  H  H6  1  0.426310  0.281917  0.671380  1
  H  H7  1  0.445423  0.683472  0.100201  1
  H  H8  1  0.554577  0.316528  0.899799  1
  H  H9  1  0.676191  0.607329  0.175929  1
  H  H10  1  0.356140  0.165074  0.810793  1
  H  H11  1  0.120070  0.701753  0.347502  1
  H  H12  1  0.879930  0.298247  0.652498  1
  H  H13  1  0.643860  0.834926  0.189207  1
  H  H14  1  0.877895  0.165561  0.794164  1
  H  H15  1  0.757702  0.020972  0.022690  1
  H  H16  1  0.242298  0.979028  0.977310  1
  H  H17  1  0.566203  0.273726  0.422723  1
  H  H18  1  0.433797  0.726274  0.577277  1
  H  H19  1  0.323809  0.392671  0.824071  1
  H  H20  1  0.122105  0.834439  0.205836  1
  N  N21  1  0.584314  0.711019  0.198285  1
  N  N22  1  0.415686  0.288981  0.801715  1
  O  O23  1  0.071172  0.237644  0.349296  1
  O  O24  1  0.941496  0.279105  0.780761  1
  O  O25  1  0.058504  0.720895  0.219239  1
  O  O26  1  0.237112  0.691099  0.581243  1
  O  O27  1  0.254218  0.943108  0.844626  1
  O  O28  1  0.202383  0.615569  0.880899  1
  O  O29  1  0.745782  0.056892  0.155374  1
  O  O30  1  0.928828  0.762356  0.650704  1
  O  O31  1  0.232074  0.020116  0.159206  1
  O  O32  1  0.767926  0.979884  0.840794  1
  O  O33  1  0.429073  0.249033  0.440055  1
  O  O34  1  0.570927  0.750967  0.559945  1
  O  O35  1  0.239930  0.362816  0.143230  1
  O  O36  1  0.760070  0.637184  0.856770  1
  O  O37  1  0.762888  0.308901  0.418757  1
  O  O38  1  0.797617  0.384431  0.119101  1
