# generated using pymatgen
data_Li3Bi5(PO4)6
_symmetry_space_group_name_H-M   'P 1'
_cell_length_a   8.74772758
_cell_length_b   8.84558163
_cell_length_c   8.85348163
_cell_angle_alpha   108.70041348
_cell_angle_beta   109.74956568
_cell_angle_gamma   109.27278822
_symmetry_Int_Tables_number   1
_chemical_formula_structural   Li3Bi5(PO4)6
_chemical_formula_sum   'Li3 Bi5 P6 O24'
_cell_volume   531.78358280
_cell_formula_units_Z   1
loop_
 _symmetry_equiv_pos_site_id
 _symmetry_equiv_pos_as_xyz
  1  'x, y, z'
loop_
 _atom_site_type_symbol
 _atom_site_label
 _atom_site_symmetry_multiplicity
 _atom_site_fract_x
 _atom_site_fract_y
 _atom_site_fract_z
 _atom_site_occupancy
  Li  Li0  1  0.505119  0.973692  0.774647  1
  Li  Li1  1  0.996652  0.280156  0.491739  1
  Li  Li2  1  0.700648  0.731158  0.718443  1
  Bi  Bi3  1  0.833771  0.490810  0.989348  1
  Bi  Bi4  1  0.513656  0.012441  0.352927  1
  Bi  Bi5  1  0.342983  0.501123  0.987474  1
  Bi  Bi6  1  0.144019  0.161308  0.163197  1
  Bi  Bi7  1  0.001935  0.840300  0.512777  1
  P  P8  1  0.748410  0.876150  0.120500  1
  P  P9  1  0.252940  0.622687  0.373797  1
  P  P10  1  0.121258  0.752563  0.881250  1
  P  P11  1  0.625064  0.378885  0.253187  1
  P  P12  1  0.368650  0.244041  0.626577  1
  P  P13  1  0.874176  0.127775  0.746871  1
  O  O14  1  0.923365  0.066679  0.265377  1
  O  O15  1  0.921172  0.689158  0.848304  1
  O  O16  1  0.336543  0.186945  0.424788  1
  O  O17  1  0.841180  0.161412  0.580078  1
  O  O18  1  0.741765  0.158816  0.816461  1
  O  O19  1  0.257710  0.918294  0.082228  1
  O  O20  1  0.086787  0.665576  0.343291  1
  O  O21  1  0.302899  0.646266  0.224479  1
  O  O22  1  0.588003  0.847864  0.172366  1
  O  O23  1  0.164916  0.417980  0.329514  1
  O  O24  1  0.159776  0.822824  0.751001  1
  O  O25  1  0.800252  0.728014  0.146345  1
  O  O26  1  0.422635  0.749587  0.562237  1
  O  O27  1  0.570962  0.407731  0.756044  1
  O  O28  1  0.655048  0.351738  0.086128  1
  O  O29  1  0.158964  0.588516  0.850660  1
  O  O30  1  0.419337  0.342210  0.184868  1
  O  O31  1  0.235022  0.311803  0.658663  1
  O  O32  1  0.755403  0.575091  0.418112  1
  O  O33  1  0.854732  0.935819  0.695354  1
  O  O34  1  0.657155  0.241995  0.316406  1
  O  O35  1  0.079002  0.269690  0.914803  1
  O  O36  1  0.676348  0.848532  0.927767  1
  O  O37  1  0.339594  0.074372  0.651990  1
