# generated using pymatgen
data_BaH3C3O7
_symmetry_space_group_name_H-M   'P 1'
_cell_length_a   5.76005441
_cell_length_b   18.31064297
_cell_length_c   8.24136148
_cell_angle_alpha   90.00000000
_cell_angle_beta   125.52957683
_cell_angle_gamma   90.00000000
_symmetry_Int_Tables_number   1
_chemical_formula_structural   BaH3C3O7
_chemical_formula_sum   'Ba4 H12 C12 O28'
_cell_volume   707.38391088
_cell_formula_units_Z   4
loop_
 _symmetry_equiv_pos_site_id
 _symmetry_equiv_pos_as_xyz
  1  'x, y, z'
loop_
 _atom_site_type_symbol
 _atom_site_label
 _atom_site_symmetry_multiplicity
 _atom_site_fract_x
 _atom_site_fract_y
 _atom_site_fract_z
 _atom_site_occupancy
  Ba  Ba0  1  0.853838  0.415907  0.122691  1
  Ba  Ba1  1  0.146162  0.915907  0.377309  1
  Ba  Ba2  1  0.146162  0.584093  0.877309  1
  Ba  Ba3  1  0.853838  0.084093  0.622691  1
  H  H4  1  0.151911  0.104403  0.345891  1
  H  H5  1  0.342325  0.250099  0.851509  1
  H  H6  1  0.657675  0.750099  0.648491  1
  H  H7  1  0.657675  0.749901  0.148491  1
  H  H8  1  0.342325  0.249901  0.351509  1
  H  H9  1  0.848089  0.604403  0.154109  1
  H  H10  1  0.848089  0.895597  0.654109  1
  H  H11  1  0.151911  0.395597  0.845891  1
  H  H12  1  0.756122  0.566180  0.286240  1
  H  H13  1  0.243878  0.433820  0.713760  1
  H  H14  1  0.756122  0.933820  0.786240  1
  H  H15  1  0.243878  0.066180  0.213760  1
  C  C16  1  0.515792  0.984386  0.918189  1
  C  C17  1  0.924775  0.264932  0.851976  1
  C  C18  1  0.075225  0.764932  0.648024  1
  C  C19  1  0.075225  0.735068  0.148024  1
  C  C20  1  0.924775  0.235068  0.351976  1
  C  C21  1  0.484208  0.484386  0.581811  1
  C  C22  1  0.484208  0.015614  0.081811  1
  C  C23  1  0.515792  0.515614  0.418189  1
  C  C24  1  0.667484  0.272346  0.335569  1
  C  C25  1  0.332516  0.772346  0.164431  1
  C  C26  1  0.332516  0.727654  0.664431  1
  C  C27  1  0.667484  0.227654  0.835569  1
  O  O28  1  0.266450  0.064404  0.344382  1
  O  O29  1  0.733550  0.564404  0.155618  1
  O  O30  1  0.733550  0.935596  0.655618  1
  O  O31  1  0.266450  0.435596  0.844382  1
  O  O32  1  0.741388  0.551667  0.479882  1
  O  O33  1  0.526348  0.272929  0.873825  1
  O  O34  1  0.473652  0.772929  0.626175  1
  O  O35  1  0.473652  0.727071  0.126175  1
  O  O36  1  0.526348  0.227071  0.373825  1
  O  O37  1  0.965076  0.331879  0.892696  1
  O  O38  1  0.034924  0.831879  0.607304  1
  O  O39  1  0.034924  0.668121  0.107304  1
  O  O40  1  0.069488  0.277113  0.319084  1
  O  O41  1  0.930512  0.777113  0.180916  1
  O  O42  1  0.930512  0.722887  0.680916  1
  O  O43  1  0.069488  0.222887  0.819084  1
  O  O44  1  0.317327  0.997215  0.737044  1
  O  O45  1  0.682673  0.497215  0.762956  1
  O  O46  1  0.682673  0.002785  0.262956  1
  O  O47  1  0.317327  0.502785  0.237044  1
  O  O48  1  0.965076  0.168121  0.392696  1
  O  O49  1  0.741388  0.948333  0.979882  1
  O  O50  1  0.258612  0.448333  0.520118  1
  O  O51  1  0.258612  0.051667  0.020118  1
  O  O52  1  0.607425  0.337046  0.288823  1
  O  O53  1  0.392575  0.837046  0.211177  1
  O  O54  1  0.392575  0.662954  0.711177  1
  O  O55  1  0.607425  0.162954  0.788823  1
