# generated using pymatgen
data_ErSeClO3
_symmetry_space_group_name_H-M   'P 1'
_cell_length_a   6.96103560
_cell_length_b   7.30294152
_cell_length_c   8.80097443
_cell_angle_alpha   90.00000000
_cell_angle_beta   90.00000000
_cell_angle_gamma   90.00000000
_symmetry_Int_Tables_number   1
_chemical_formula_structural   ErSeClO3
_chemical_formula_sum   'Er4 Se4 Cl4 O12'
_cell_volume   447.40665213
_cell_formula_units_Z   4
loop_
 _symmetry_equiv_pos_site_id
 _symmetry_equiv_pos_as_xyz
  1  'x, y, z'
loop_
 _atom_site_type_symbol
 _atom_site_label
 _atom_site_symmetry_multiplicity
 _atom_site_fract_x
 _atom_site_fract_y
 _atom_site_fract_z
 _atom_site_occupancy
  Er  Er0  1  0.250000  0.601883  0.960441  1
  Er  Er1  1  0.750000  0.398117  0.039559  1
  Er  Er2  1  0.250000  0.101883  0.539559  1
  Er  Er3  1  0.750000  0.898117  0.460441  1
  Se  Se4  1  0.250000  0.209861  0.133103  1
  Se  Se5  1  0.750000  0.790139  0.866897  1
  Se  Se6  1  0.750000  0.290139  0.633103  1
  Se  Se7  1  0.250000  0.709861  0.366897  1
  Cl  Cl8  1  0.750000  0.562987  0.316754  1
  Cl  Cl9  1  0.750000  0.062987  0.183246  1
  Cl  Cl10  1  0.250000  0.437013  0.683246  1
  Cl  Cl11  1  0.250000  0.937013  0.816754  1
  O  O12  1  0.928122  0.639727  0.932479  1
  O  O13  1  0.428122  0.360273  0.067521  1
  O  O14  1  0.571878  0.139727  0.567521  1
  O  O15  1  0.071878  0.860273  0.432479  1
  O  O16  1  0.071878  0.360273  0.067521  1
  O  O17  1  0.571878  0.639727  0.932479  1
  O  O18  1  0.428122  0.860273  0.432479  1
  O  O19  1  0.750000  0.749073  0.676785  1
  O  O20  1  0.250000  0.750927  0.176785  1
  O  O21  1  0.750000  0.249073  0.823215  1
  O  O22  1  0.250000  0.250927  0.323215  1
  O  O23  1  0.928122  0.139727  0.567521  1
