# generated using pymatgen
data_KTlBr4
_symmetry_space_group_name_H-M   'P 1'
_cell_length_a   8.14915056
_cell_length_b   10.84226597
_cell_length_c   10.89050013
_cell_angle_alpha   90.00000000
_cell_angle_beta   90.00000000
_cell_angle_gamma   90.00000000
_symmetry_Int_Tables_number   1
_chemical_formula_structural   KTlBr4
_chemical_formula_sum   'K4 Tl4 Br16'
_cell_volume   962.23294657
_cell_formula_units_Z   4
loop_
 _symmetry_equiv_pos_site_id
 _symmetry_equiv_pos_as_xyz
  1  'x, y, z'
loop_
 _atom_site_type_symbol
 _atom_site_label
 _atom_site_symmetry_multiplicity
 _atom_site_fract_x
 _atom_site_fract_y
 _atom_site_fract_z
 _atom_site_occupancy
  K  K0  1  0.180954  0.250000  0.750000  1
  K  K1  1  0.319046  0.750000  0.750000  1
  K  K2  1  0.819046  0.750000  0.250000  1
  K  K3  1  0.680954  0.250000  0.250000  1
  Tl  Tl4  1  0.750000  0.500000  0.676926  1
  Tl  Tl5  1  0.750000  0.000000  0.823074  1
  Tl  Tl6  1  0.250000  0.500000  0.323074  1
  Tl  Tl7  1  0.250000  0.000000  0.176926  1
  Br  Br8  1  0.350999  0.189701  0.047436  1
  Br  Br9  1  0.350999  0.310299  0.452564  1
  Br  Br10  1  0.149001  0.689701  0.452564  1
  Br  Br11  1  0.149001  0.810299  0.047436  1
  Br  Br12  1  0.649001  0.810299  0.952564  1
  Br  Br13  1  0.649001  0.689701  0.547436  1
  Br  Br14  1  0.850999  0.310299  0.547436  1
  Br  Br15  1  0.850999  0.189701  0.952564  1
  Br  Br16  1  0.993158  0.040784  0.318636  1
  Br  Br17  1  0.993158  0.459216  0.181364  1
  Br  Br18  1  0.506842  0.540784  0.181364  1
  Br  Br19  1  0.506842  0.959216  0.318636  1
  Br  Br20  1  0.006842  0.959216  0.681364  1
  Br  Br21  1  0.006842  0.540784  0.818636  1
  Br  Br22  1  0.493158  0.459216  0.818636  1
  Br  Br23  1  0.493158  0.040784  0.681364  1
