# generated using pymatgen
data_P4Ru
_symmetry_space_group_name_H-M   'P 1'
_cell_length_a   4.74580547
_cell_length_b   7.20179086
_cell_length_c   7.57953230
_cell_angle_alpha   111.19389094
_cell_angle_beta   90.36261889
_cell_angle_gamma   100.43713593
_symmetry_Int_Tables_number   1
_chemical_formula_structural   P4Ru
_chemical_formula_sum   'P12 Ru3'
_cell_volume   236.80746488
_cell_formula_units_Z   3
loop_
 _symmetry_equiv_pos_site_id
 _symmetry_equiv_pos_as_xyz
  1  'x, y, z'
loop_
 _atom_site_type_symbol
 _atom_site_label
 _atom_site_symmetry_multiplicity
 _atom_site_fract_x
 _atom_site_fract_y
 _atom_site_fract_z
 _atom_site_occupancy
  P  P0  1  0.608530  0.831377  0.768562  1
  P  P1  1  0.391470  0.168623  0.231438  1
  P  P2  1  0.794667  0.295966  0.124626  1
  P  P3  1  0.598699  0.368185  0.900764  1
  P  P4  1  0.401301  0.631815  0.099236  1
  P  P5  1  0.177638  0.162245  0.785501  1
  P  P6  1  0.822362  0.837755  0.214499  1
  P  P7  1  0.272614  0.427345  0.451347  1
  P  P8  1  0.727386  0.572655  0.548653  1
  P  P9  1  0.659278  0.085918  0.437352  1
  P  P10  1  0.340722  0.914082  0.562648  1
  P  P11  1  0.205333  0.704034  0.875374  1
  Ru  Ru12  1  0.058486  0.626557  0.328462  1
  Ru  Ru13  1  0.941514  0.373443  0.671538  1
  Ru  Ru14  1  0.000000  0.000000  0.000000  1
