# generated using pymatgen
data_BaH4O3
_symmetry_space_group_name_H-M   'P 1'
_cell_length_a   3.93837513
_cell_length_b   6.41867855
_cell_length_c   7.04331791
_cell_angle_alpha   90.00000000
_cell_angle_beta   90.00000000
_cell_angle_gamma   90.00000000
_symmetry_Int_Tables_number   1
_chemical_formula_structural   BaH4O3
_chemical_formula_sum   'Ba2 H8 O6'
_cell_volume   178.04918833
_cell_formula_units_Z   2
loop_
 _symmetry_equiv_pos_site_id
 _symmetry_equiv_pos_as_xyz
  1  'x, y, z'
loop_
 _atom_site_type_symbol
 _atom_site_label
 _atom_site_symmetry_multiplicity
 _atom_site_fract_x
 _atom_site_fract_y
 _atom_site_fract_z
 _atom_site_occupancy
  Ba  Ba0  1  0.000000  0.642749  0.747450  1
  Ba  Ba1  1  0.000000  0.357251  0.247450  1
  H  H2  1  0.500000  0.305177  0.601990  1
  H  H3  1  0.500000  0.694823  0.101990  1
  H  H4  1  0.500000  0.983800  0.592562  1
  H  H5  1  0.500000  0.016200  0.092562  1
  H  H6  1  0.201071  0.123644  0.812549  1
  H  H7  1  0.798929  0.876356  0.312549  1
  H  H8  1  0.201071  0.876356  0.312549  1
  H  H9  1  0.798929  0.123644  0.812549  1
  O  O10  1  0.000000  0.205970  0.863041  1
  O  O11  1  0.500000  0.563875  0.031316  1
  O  O12  1  0.500000  0.967028  0.730443  1
  O  O13  1  0.500000  0.032972  0.230443  1
  O  O14  1  0.000000  0.794030  0.363041  1
  O  O15  1  0.500000  0.436125  0.531316  1
