# generated using pymatgen
data_CCl3F
_symmetry_space_group_name_H-M   'P 1'
_cell_length_a   6.29014904
_cell_length_b   10.20946852
_cell_length_c   16.97105475
_cell_angle_alpha   90.00000000
_cell_angle_beta   90.00000000
_cell_angle_gamma   90.00000000
_symmetry_Int_Tables_number   1
_chemical_formula_structural   CCl3F
_chemical_formula_sum   'C8 Cl24 F8'
_cell_volume   1089.86549908
_cell_formula_units_Z   8
loop_
 _symmetry_equiv_pos_site_id
 _symmetry_equiv_pos_as_xyz
  1  'x, y, z'
loop_
 _atom_site_type_symbol
 _atom_site_label
 _atom_site_symmetry_multiplicity
 _atom_site_fract_x
 _atom_site_fract_y
 _atom_site_fract_z
 _atom_site_occupancy
  C  C0  1  0.098903  0.412042  0.361197  1
  C  C1  1  0.598903  0.087958  0.638803  1
  C  C2  1  0.901097  0.912042  0.138803  1
  C  C3  1  0.401097  0.587958  0.861197  1
  C  C4  1  0.901097  0.587958  0.638803  1
  C  C5  1  0.401097  0.912042  0.361197  1
  C  C6  1  0.098903  0.087958  0.861197  1
  C  C7  1  0.598903  0.412042  0.138803  1
  Cl  Cl8  1  0.946819  0.324869  0.431806  1
  Cl  Cl9  1  0.446819  0.175131  0.568194  1
  Cl  Cl10  1  0.053181  0.824869  0.068194  1
  Cl  Cl11  1  0.553181  0.675131  0.931806  1
  Cl  Cl12  1  0.053181  0.675131  0.568194  1
  Cl  Cl13  1  0.553181  0.824869  0.431806  1
  Cl  Cl14  1  0.946819  0.175131  0.931806  1
  Cl  Cl15  1  0.446819  0.324869  0.068194  1
  Cl  Cl16  1  0.359014  0.440887  0.396890  1
  Cl  Cl17  1  0.859014  0.059113  0.603110  1
  Cl  Cl18  1  0.640986  0.940887  0.103110  1
  Cl  Cl19  1  0.140986  0.559113  0.896890  1
  Cl  Cl20  1  0.640986  0.559113  0.603110  1
  Cl  Cl21  1  0.140986  0.940887  0.396890  1
  Cl  Cl22  1  0.359014  0.059113  0.896890  1
  Cl  Cl23  1  0.859014  0.440887  0.103110  1
  Cl  Cl24  1  0.972808  0.560692  0.335643  1
  Cl  Cl25  1  0.472808  0.939308  0.664357  1
  Cl  Cl26  1  0.027192  0.060692  0.164357  1
  Cl  Cl27  1  0.527192  0.439308  0.835643  1
  Cl  Cl28  1  0.027192  0.439308  0.664357  1
  Cl  Cl29  1  0.527192  0.060692  0.335643  1
  Cl  Cl30  1  0.972808  0.939308  0.835643  1
  Cl  Cl31  1  0.472808  0.560692  0.164357  1
  F  F32  1  0.113916  0.336342  0.294858  1
  F  F33  1  0.613916  0.163658  0.705142  1
  F  F34  1  0.886084  0.836342  0.205142  1
  F  F35  1  0.386084  0.663658  0.794858  1
  F  F36  1  0.886084  0.663658  0.705142  1
  F  F37  1  0.386084  0.836342  0.294858  1
  F  F38  1  0.113916  0.163658  0.794858  1
  F  F39  1  0.613916  0.336342  0.205142  1
