# generated using pymatgen
data_Bi2(SeO3)3
_symmetry_space_group_name_H-M   'P 1'
_cell_length_a   13.72754283
_cell_length_b   4.78517452
_cell_length_c   15.57132436
_cell_angle_alpha   90.00000000
_cell_angle_beta   117.33895780
_cell_angle_gamma   90.00000000
_symmetry_Int_Tables_number   1
_chemical_formula_structural   Bi2(SeO3)3
_chemical_formula_sum   'Bi8 Se12 O36'
_cell_volume   908.61171357
_cell_formula_units_Z   4
loop_
 _symmetry_equiv_pos_site_id
 _symmetry_equiv_pos_as_xyz
  1  'x, y, z'
loop_
 _atom_site_type_symbol
 _atom_site_label
 _atom_site_symmetry_multiplicity
 _atom_site_fract_x
 _atom_site_fract_y
 _atom_site_fract_z
 _atom_site_occupancy
  Bi  Bi0  1  0.652037  0.367454  0.344602  1
  Bi  Bi1  1  0.347963  0.867454  0.155398  1
  Bi  Bi2  1  0.347963  0.632546  0.655398  1
  Bi  Bi3  1  0.652037  0.132546  0.844602  1
  Bi  Bi4  1  0.832357  0.364626  0.690706  1
  Bi  Bi5  1  0.167643  0.864626  0.809294  1
  Bi  Bi6  1  0.167643  0.635374  0.309294  1
  Bi  Bi7  1  0.832357  0.135374  0.190706  1
  Se  Se8  1  0.430919  0.289217  0.376058  1
  Se  Se9  1  0.569081  0.789217  0.123942  1
  Se  Se10  1  0.569081  0.710783  0.623942  1
  Se  Se11  1  0.430919  0.210783  0.876058  1
  Se  Se12  1  0.173941  0.384784  0.981765  1
  Se  Se13  1  0.826059  0.884784  0.518235  1
  Se  Se14  1  0.826059  0.615216  0.018235  1
  Se  Se15  1  0.173941  0.115216  0.481765  1
  Se  Se16  1  0.070644  0.408273  0.631642  1
  Se  Se17  1  0.929356  0.908273  0.868358  1
  Se  Se18  1  0.929356  0.591727  0.368358  1
  Se  Se19  1  0.070644  0.091727  0.131642  1
  O  O20  1  0.814782  0.252529  0.010896  1
  O  O21  1  0.185218  0.752529  0.489104  1
  O  O22  1  0.185218  0.747471  0.989104  1
  O  O23  1  0.814782  0.247471  0.510896  1
  O  O24  1  0.798429  0.460116  0.294591  1
  O  O25  1  0.201571  0.960116  0.205409  1
  O  O26  1  0.201571  0.539884  0.705409  1
  O  O27  1  0.798429  0.039884  0.794591  1
  O  O28  1  0.989313  0.462649  0.300252  1
  O  O29  1  0.010687  0.962649  0.199748  1
  O  O30  1  0.010687  0.537351  0.699748  1
  O  O31  1  0.989313  0.037351  0.800252  1
  O  O32  1  0.556629  0.452391  0.433384  1
  O  O33  1  0.443371  0.952391  0.066616  1
  O  O34  1  0.443371  0.547609  0.566616  1
  O  O35  1  0.556629  0.047609  0.933384  1
  O  O36  1  0.656804  0.436216  0.683530  1
  O  O37  1  0.343196  0.936216  0.816470  1
  O  O38  1  0.343196  0.563784  0.316470  1
  O  O39  1  0.656804  0.063784  0.183530  1
  O  O40  1  0.086024  0.056909  0.658067  1
  O  O41  1  0.913976  0.556909  0.841933  1
  O  O42  1  0.913976  0.943091  0.341933  1
  O  O43  1  0.086024  0.443091  0.158067  1
  O  O44  1  0.456884  0.153959  0.282545  1
  O  O45  1  0.543116  0.653959  0.217455  1
  O  O46  1  0.543116  0.846041  0.717455  1
  O  O47  1  0.456884  0.346041  0.782545  1
  O  O48  1  0.290358  0.192239  0.589709  1
  O  O49  1  0.709642  0.692239  0.910291  1
  O  O50  1  0.709642  0.807761  0.410291  1
  O  O51  1  0.290358  0.307761  0.089709  1
  O  O52  1  0.212787  0.171498  0.391898  1
  O  O53  1  0.787213  0.671498  0.108102  1
  O  O54  1  0.787213  0.828502  0.608102  1
  O  O55  1  0.212787  0.328502  0.891898  1
