# generated using pymatgen
data_AuSe
_symmetry_space_group_name_H-M   'P 1'
_cell_length_a   5.10703066
_cell_length_b   5.10703066
_cell_length_c   6.44855267
_cell_angle_alpha   77.02671923
_cell_angle_beta   102.97328077
_cell_angle_gamma   136.94237641
_symmetry_Int_Tables_number   1
_chemical_formula_structural   AuSe
_chemical_formula_sum   'Au2 Se2'
_cell_volume   111.43460930
_cell_formula_units_Z   2
loop_
 _symmetry_equiv_pos_site_id
 _symmetry_equiv_pos_as_xyz
  1  'x, y, z'
loop_
 _atom_site_type_symbol
 _atom_site_label
 _atom_site_symmetry_multiplicity
 _atom_site_fract_x
 _atom_site_fract_y
 _atom_site_fract_z
 _atom_site_occupancy
  Au  Au0  1  0.500000  0.500000  0.500000  1
  Au  Au1  1  0.000000  0.000000  0.000000  1
  Se  Se2  1  0.136808  0.863192  0.723986  1
  Se  Se3  1  0.863192  0.136808  0.276014  1
