# generated using pymatgen
data_CsXeF7
_symmetry_space_group_name_H-M   'P 1'
_cell_length_a   8.80969902
_cell_length_b   8.80969902
_cell_length_c   8.80969902
_cell_angle_alpha   90.00000000
_cell_angle_beta   90.00000000
_cell_angle_gamma   90.00000000
_symmetry_Int_Tables_number   1
_chemical_formula_structural   CsXeF7
_chemical_formula_sum   'Cs4 Xe4 F28'
_cell_volume   683.72776071
_cell_formula_units_Z   4
loop_
 _symmetry_equiv_pos_site_id
 _symmetry_equiv_pos_as_xyz
  1  'x, y, z'
loop_
 _atom_site_type_symbol
 _atom_site_label
 _atom_site_symmetry_multiplicity
 _atom_site_fract_x
 _atom_site_fract_y
 _atom_site_fract_z
 _atom_site_occupancy
  Cs  Cs0  1  0.900007  0.599993  0.400007  1
  Cs  Cs1  1  0.599993  0.400007  0.900007  1
  Cs  Cs2  1  0.400007  0.900007  0.599993  1
  Cs  Cs3  1  0.099993  0.099993  0.099993  1
  Xe  Xe4  1  0.596899  0.903101  0.096899  1
  Xe  Xe5  1  0.903101  0.096899  0.596899  1
  Xe  Xe6  1  0.096899  0.596899  0.903101  1
  Xe  Xe7  1  0.403101  0.403101  0.403101  1
  F  F8  1  0.104909  0.696188  0.116904  1
  F  F9  1  0.604909  0.803812  0.883096  1
  F  F10  1  0.895091  0.196188  0.383096  1
  F  F11  1  0.803812  0.883096  0.604909  1
  F  F12  1  0.383096  0.895091  0.196188  1
  F  F13  1  0.883096  0.604909  0.803812  1
  F  F14  1  0.696188  0.116904  0.104909  1
  F  F15  1  0.116904  0.104909  0.696188  1
  F  F16  1  0.176237  0.348363  0.414567  1
  F  F17  1  0.414567  0.176237  0.348363  1
  F  F18  1  0.348363  0.414567  0.176237  1
  F  F19  1  0.151637  0.585433  0.676237  1
  F  F20  1  0.914567  0.323763  0.651637  1
  F  F21  1  0.651637  0.914567  0.323763  1
  F  F22  1  0.085433  0.823763  0.848363  1
  F  F23  1  0.585433  0.676237  0.151637  1
  F  F24  1  0.848363  0.085433  0.823763  1
  F  F25  1  0.676237  0.151637  0.585433  1
  F  F26  1  0.823763  0.848363  0.085433  1
  F  F27  1  0.323763  0.651637  0.914567  1
  F  F28  1  0.543272  0.543272  0.543272  1
  F  F29  1  0.956728  0.456728  0.043272  1
  F  F30  1  0.043272  0.956728  0.456728  1
  F  F31  1  0.456728  0.043272  0.956728  1
  F  F32  1  0.395091  0.303812  0.616904  1
  F  F33  1  0.616904  0.395091  0.303812  1
  F  F34  1  0.303812  0.616904  0.395091  1
  F  F35  1  0.196188  0.383096  0.895091  1
