# generated using pymatgen
data_CdH4(BrO4)2
_symmetry_space_group_name_H-M   'P 1'
_cell_length_a   6.59854205
_cell_length_b   9.40557126
_cell_length_c   12.44246263
_cell_angle_alpha   90.00000000
_cell_angle_beta   90.00000000
_cell_angle_gamma   90.00000000
_symmetry_Int_Tables_number   1
_chemical_formula_structural   CdH4(BrO4)2
_chemical_formula_sum   'Cd4 H16 Br8 O32'
_cell_volume   772.21727319
_cell_formula_units_Z   4
loop_
 _symmetry_equiv_pos_site_id
 _symmetry_equiv_pos_as_xyz
  1  'x, y, z'
loop_
 _atom_site_type_symbol
 _atom_site_label
 _atom_site_symmetry_multiplicity
 _atom_site_fract_x
 _atom_site_fract_y
 _atom_site_fract_z
 _atom_site_occupancy
  Cd  Cd0  1  0.472248  0.451783  0.788626  1
  Cd  Cd1  1  0.972248  0.048217  0.211374  1
  Cd  Cd2  1  0.527752  0.951783  0.711374  1
  Cd  Cd3  1  0.027752  0.548217  0.288626  1
  H  H4  1  0.373316  0.066609  0.135962  1
  H  H5  1  0.873316  0.433391  0.864038  1
  H  H6  1  0.626684  0.566609  0.364038  1
  H  H7  1  0.126684  0.933391  0.635962  1
  H  H8  1  0.284607  0.936547  0.071025  1
  H  H9  1  0.784607  0.563453  0.928975  1
  H  H10  1  0.715393  0.436547  0.428975  1
  H  H11  1  0.215393  0.063453  0.571025  1
  H  H12  1  0.686563  0.006844  0.925255  1
  H  H13  1  0.813437  0.993156  0.425255  1
  H  H14  1  0.313437  0.506844  0.574745  1
  H  H15  1  0.186563  0.493156  0.074745  1
  H  H16  1  0.305865  0.613174  0.130108  1
  H  H17  1  0.694135  0.113174  0.369892  1
  H  H18  1  0.805865  0.886826  0.869892  1
  H  H19  1  0.194135  0.386826  0.630108  1
  Br  Br20  1  0.174470  0.172143  0.884668  1
  Br  Br21  1  0.674470  0.327857  0.115332  1
  Br  Br22  1  0.825530  0.672143  0.615332  1
  Br  Br23  1  0.325530  0.827857  0.384668  1
  Br  Br24  1  0.243979  0.727505  0.895791  1
  Br  Br25  1  0.743979  0.772495  0.104209  1
  Br  Br26  1  0.756021  0.227505  0.604209  1
  Br  Br27  1  0.256021  0.272495  0.395791  1
  O  O28  1  0.937875  0.769888  0.194671  1
  O  O29  1  0.654048  0.271578  0.483856  1
  O  O30  1  0.845952  0.728422  0.983856  1
  O  O31  1  0.345952  0.771578  0.016144  1
  O  O32  1  0.562125  0.230112  0.694671  1
  O  O33  1  0.062125  0.269888  0.305329  1
  O  O34  1  0.437875  0.730112  0.805329  1
  O  O35  1  0.154048  0.228422  0.516144  1
  O  O36  1  0.434931  0.734689  0.285364  1
  O  O37  1  0.934931  0.765311  0.714636  1
  O  O38  1  0.565069  0.234689  0.214636  1
  O  O39  1  0.065069  0.265311  0.785364  1
  O  O40  1  0.741522  0.515780  0.668284  1
  O  O41  1  0.241522  0.984220  0.331716  1
  O  O42  1  0.213519  0.548757  0.904546  1
  O  O43  1  0.758478  0.484220  0.168284  1
  O  O44  1  0.111020  0.734333  0.411306  1
  O  O45  1  0.611020  0.765667  0.588694  1
  O  O46  1  0.888980  0.234333  0.088694  1
  O  O47  1  0.388980  0.265667  0.911306  1
  O  O48  1  0.248734  0.518303  0.143829  1
  O  O49  1  0.748734  0.981697  0.856171  1
  O  O50  1  0.751266  0.018303  0.356171  1
  O  O51  1  0.251266  0.481697  0.643829  1
  O  O52  1  0.747784  0.534198  0.402904  1
  O  O53  1  0.247784  0.965802  0.597096  1
  O  O54  1  0.252216  0.034198  0.097096  1
  O  O55  1  0.752216  0.465802  0.902904  1
  O  O56  1  0.713519  0.951243  0.095454  1
  O  O57  1  0.258478  0.015780  0.831716  1
  O  O58  1  0.286481  0.451243  0.404546  1
  O  O59  1  0.786481  0.048757  0.595454  1
