# generated using pymatgen
data_YF3
_symmetry_space_group_name_H-M   'P 1'
_cell_length_a   4.60698408
_cell_length_b   6.32867972
_cell_length_c   6.95635502
_cell_angle_alpha   90.00000000
_cell_angle_beta   90.00000000
_cell_angle_gamma   90.00000000
_symmetry_Int_Tables_number   1
_chemical_formula_structural   YF3
_chemical_formula_sum   'Y4 F12'
_cell_volume   202.82036845
_cell_formula_units_Z   4
loop_
 _symmetry_equiv_pos_site_id
 _symmetry_equiv_pos_as_xyz
  1  'x, y, z'
loop_
 _atom_site_type_symbol
 _atom_site_label
 _atom_site_symmetry_multiplicity
 _atom_site_fract_x
 _atom_site_fract_y
 _atom_site_fract_z
 _atom_site_occupancy
  Y  Y0  1  0.951746  0.633763  0.750000  1
  Y  Y1  1  0.451746  0.866237  0.250000  1
  Y  Y2  1  0.548254  0.133763  0.750000  1
  Y  Y3  1  0.048254  0.366237  0.250000  1
  F  F4  1  0.362114  0.162943  0.436488  1
  F  F5  1  0.862114  0.337057  0.563512  1
  F  F6  1  0.137886  0.662943  0.063512  1
  F  F7  1  0.637886  0.837057  0.936488  1
  F  F8  1  0.609511  0.528971  0.250000  1
  F  F9  1  0.109511  0.971029  0.750000  1
  F  F10  1  0.890489  0.028971  0.250000  1
  F  F11  1  0.390489  0.471029  0.750000  1
  F  F12  1  0.362114  0.162943  0.063512  1
  F  F13  1  0.862114  0.337057  0.936488  1
  F  F14  1  0.137886  0.662943  0.436488  1
  F  F15  1  0.637886  0.837057  0.563512  1
