# generated using pymatgen
data_P4S7
_symmetry_space_group_name_H-M   'P 1'
_cell_length_a   7.50331246
_cell_length_b   18.73190714
_cell_length_c   11.65516851
_cell_angle_alpha   90.00000000
_cell_angle_beta   123.65180573
_cell_angle_gamma   90.00000000
_symmetry_Int_Tables_number   1
_chemical_formula_structural   P4S7
_chemical_formula_sum   'P16 S28'
_cell_volume   1363.62944524
_cell_formula_units_Z   4
loop_
 _symmetry_equiv_pos_site_id
 _symmetry_equiv_pos_as_xyz
  1  'x, y, z'
loop_
 _atom_site_type_symbol
 _atom_site_label
 _atom_site_symmetry_multiplicity
 _atom_site_fract_x
 _atom_site_fract_y
 _atom_site_fract_z
 _atom_site_occupancy
  P  P0  1  0.397790  0.623779  0.714784  1
  P  P1  1  0.602210  0.123779  0.785216  1
  P  P2  1  0.602210  0.376221  0.285216  1
  P  P3  1  0.397790  0.876221  0.214784  1
  P  P4  1  0.111587  0.704361  0.651207  1
  P  P5  1  0.888413  0.204361  0.848793  1
  P  P6  1  0.888413  0.295639  0.348793  1
  P  P7  1  0.111587  0.795639  0.151207  1
  P  P8  1  0.022121  0.546161  0.738538  1
  P  P9  1  0.977879  0.046161  0.761462  1
  P  P10  1  0.977879  0.453839  0.261462  1
  P  P11  1  0.022121  0.953839  0.238538  1
  P  P12  1  0.388337  0.669943  0.985386  1
  P  P13  1  0.611663  0.169943  0.514614  1
  P  P14  1  0.611663  0.330057  0.014614  1
  P  P15  1  0.388337  0.830057  0.485386  1
  S  S16  1  0.182265  0.582243  0.946860  1
  S  S17  1  0.817735  0.082243  0.553140  1
  S  S18  1  0.817735  0.417757  0.053140  1
  S  S19  1  0.182265  0.917757  0.446860  1
  S  S20  1  0.840248  0.467492  0.716031  1
  S  S21  1  0.159752  0.967492  0.783969  1
  S  S22  1  0.159752  0.532508  0.283969  1
  S  S23  1  0.840248  0.032508  0.216031  1
  S  S24  1  0.526727  0.696696  0.176820  1
  S  S25  1  0.473273  0.196696  0.323180  1
  S  S26  1  0.473273  0.303304  0.823180  1
  S  S27  1  0.526727  0.803304  0.676820  1
  S  S28  1  0.253880  0.523075  0.694593  1
  S  S29  1  0.746120  0.023075  0.805407  1
  S  S30  1  0.746120  0.476925  0.305407  1
  S  S31  1  0.253880  0.976925  0.194593  1
  S  S32  1  0.859889  0.633399  0.605536  1
  S  S33  1  0.140111  0.133399  0.894464  1
  S  S34  1  0.140111  0.366601  0.394464  1
  S  S35  1  0.859889  0.866601  0.105536  1
  S  S36  1  0.210901  0.752266  0.843020  1
  S  S37  1  0.789099  0.252266  0.656980  1
  S  S38  1  0.789099  0.247734  0.156980  1
  S  S39  1  0.210901  0.747734  0.343020  1
  S  S40  1  0.603984  0.642061  0.930146  1
  S  S41  1  0.396016  0.142061  0.569854  1
  S  S42  1  0.396016  0.357939  0.069854  1
  S  S43  1  0.603984  0.857939  0.430146  1
