# generated using pymatgen
data_K2ReH9
_symmetry_space_group_name_H-M   'P 1'
_cell_length_a   9.59676685
_cell_length_b   9.59676685
_cell_length_c   5.60728706
_cell_angle_alpha   90.00000000
_cell_angle_beta   90.00000000
_cell_angle_gamma   120.00000000
_symmetry_Int_Tables_number   1
_chemical_formula_structural   K2ReH9
_chemical_formula_sum   'K6 Re3 H27'
_cell_volume   447.23245190
_cell_formula_units_Z   3
loop_
 _symmetry_equiv_pos_site_id
 _symmetry_equiv_pos_as_xyz
  1  'x, y, z'
loop_
 _atom_site_type_symbol
 _atom_site_label
 _atom_site_symmetry_multiplicity
 _atom_site_fract_x
 _atom_site_fract_y
 _atom_site_fract_z
 _atom_site_occupancy
  K  K0  1  0.000000  0.261559  0.500000  1
  K  K1  1  0.738441  0.738441  0.500000  1
  K  K2  1  0.261559  0.000000  0.500000  1
  K  K3  1  0.000000  0.588862  0.000000  1
  K  K4  1  0.411138  0.411138  0.000000  1
  K  K5  1  0.588862  0.000000  0.000000  1
  Re  Re6  1  0.666667  0.333333  0.500000  1
  Re  Re7  1  0.333333  0.666667  0.500000  1
  Re  Re8  1  0.000000  0.000000  0.000000  1
  H  H9  1  0.776175  0.308050  0.719936  1
  H  H10  1  0.691950  0.468124  0.719936  1
  H  H11  1  0.531876  0.223825  0.719936  1
  H  H12  1  0.223825  0.531876  0.280064  1
  H  H13  1  0.531876  0.223825  0.280064  1
  H  H14  1  0.776175  0.308050  0.280064  1
  H  H15  1  0.691950  0.468124  0.280064  1
  H  H16  1  0.308050  0.776175  0.719936  1
  H  H17  1  0.468124  0.691950  0.719936  1
  H  H18  1  0.175725  0.000000  0.000000  1
  H  H19  1  0.824275  0.824275  0.000000  1
  H  H20  1  0.000000  0.175725  0.000000  1
  H  H21  1  0.872929  0.000000  0.213510  1
  H  H22  1  0.127071  0.127071  0.786490  1
  H  H23  1  0.000000  0.872929  0.786490  1
  H  H24  1  0.000000  0.872929  0.213510  1
  H  H25  1  0.127071  0.127071  0.213510  1
  H  H26  1  0.872929  0.000000  0.786490  1
  H  H27  1  0.142886  0.631486  0.500000  1
  H  H28  1  0.488600  0.857114  0.500000  1
  H  H29  1  0.368514  0.511400  0.500000  1
  H  H30  1  0.511400  0.368514  0.500000  1
  H  H31  1  0.857114  0.488600  0.500000  1
  H  H32  1  0.631486  0.142886  0.500000  1
  H  H33  1  0.223825  0.531876  0.719936  1
  H  H34  1  0.308050  0.776175  0.280064  1
  H  H35  1  0.468124  0.691950  0.280064  1
