# generated using pymatgen
data_NaAlH24(SO10)2
_symmetry_space_group_name_H-M   'P 1'
_cell_length_a   12.27965978
_cell_length_b   12.27965978
_cell_length_c   12.27965978
_cell_angle_alpha   90.00000000
_cell_angle_beta   90.00000000
_cell_angle_gamma   90.00000000
_symmetry_Int_Tables_number   1
_chemical_formula_structural   NaAlH24(SO10)2
_chemical_formula_sum   'Na4 Al4 H96 S8 O80'
_cell_volume   1851.65044237
_cell_formula_units_Z   4
loop_
 _symmetry_equiv_pos_site_id
 _symmetry_equiv_pos_as_xyz
  1  'x, y, z'
loop_
 _atom_site_type_symbol
 _atom_site_label
 _atom_site_symmetry_multiplicity
 _atom_site_fract_x
 _atom_site_fract_y
 _atom_site_fract_z
 _atom_site_occupancy
  Na  Na0  1  0.500000  0.500000  0.500000  1
  Na  Na1  1  0.000000  0.500000  0.000000  1
  Na  Na2  1  0.000000  0.000000  0.500000  1
  Na  Na3  1  0.500000  0.000000  0.000000  1
  Al  Al4  1  0.000000  0.000000  0.000000  1
  Al  Al5  1  0.500000  0.000000  0.500000  1
  Al  Al6  1  0.500000  0.500000  0.000000  1
  Al  Al7  1  0.000000  0.500000  0.500000  1
  H  H8  1  0.090429  0.343041  0.388221  1
  H  H9  1  0.590429  0.156959  0.611779  1
  H  H10  1  0.909571  0.843041  0.111779  1
  H  H11  1  0.156959  0.611779  0.590429  1
  H  H12  1  0.111779  0.909571  0.843041  1
  H  H13  1  0.611779  0.590429  0.156959  1
  H  H14  1  0.343041  0.388221  0.090429  1
  H  H15  1  0.388221  0.090429  0.343041  1
  H  H16  1  0.843041  0.111779  0.909571  1
  H  H17  1  0.656959  0.888221  0.409571  1
  H  H18  1  0.888221  0.409571  0.656959  1
  H  H19  1  0.409571  0.656959  0.888221  1
  H  H20  1  0.909571  0.656959  0.611779  1
  H  H21  1  0.409571  0.843041  0.388221  1
  H  H22  1  0.090429  0.156959  0.888221  1
  H  H23  1  0.843041  0.388221  0.409571  1
  H  H24  1  0.888221  0.090429  0.156959  1
  H  H25  1  0.388221  0.409571  0.843041  1
  H  H26  1  0.656959  0.611779  0.909571  1
  H  H27  1  0.611779  0.909571  0.656959  1
  H  H28  1  0.156959  0.888221  0.090429  1
  H  H29  1  0.343041  0.111779  0.590429  1
  H  H30  1  0.111779  0.590429  0.343041  1
  H  H31  1  0.590429  0.343041  0.111779  1
  H  H32  1  0.051364  0.207118  0.006994  1
  H  H33  1  0.551364  0.292882  0.993006  1
  H  H34  1  0.948636  0.707118  0.493006  1
  H  H35  1  0.292882  0.993006  0.551364  1
  H  H36  1  0.493006  0.948636  0.707118  1
  H  H37  1  0.993006  0.551364  0.292882  1
  H  H38  1  0.207118  0.006994  0.051364  1
  H  H39  1  0.006994  0.051364  0.207118  1
  H  H40  1  0.707118  0.493006  0.948636  1
  H  H41  1  0.792882  0.506994  0.448636  1
  H  H42  1  0.506994  0.448636  0.792882  1
  H  H43  1  0.448636  0.792882  0.506994  1
  H  H44  1  0.948636  0.792882  0.993006  1
  H  H45  1  0.448636  0.707118  0.006994  1
  H  H46  1  0.051364  0.292882  0.506994  1
  H  H47  1  0.707118  0.006994  0.448636  1
  H  H48  1  0.506994  0.051364  0.292882  1
  H  H49  1  0.006994  0.448636  0.707118  1
  H  H50  1  0.792882  0.993006  0.948636  1
  H  H51  1  0.993006  0.948636  0.792882  1
  H  H52  1  0.292882  0.506994  0.051364  1
  H  H53  1  0.207118  0.493006  0.551364  1
  H  H54  1  0.493006  0.551364  0.207118  1
  H  H55  1  0.588355  0.313885  0.357497  1
  H  H56  1  0.965124  0.308257  0.112932  1
  H  H57  1  0.465124  0.191743  0.887068  1
  H  H58  1  0.034876  0.808257  0.387068  1
  H  H59  1  0.191743  0.887068  0.465124  1
  H  H60  1  0.387068  0.034876  0.808257  1
  H  H61  1  0.887068  0.465124  0.191743  1
  H  H62  1  0.308257  0.112932  0.965124  1
  H  H63  1  0.112932  0.965124  0.308257  1
  H  H64  1  0.808257  0.387068  0.034876  1
  H  H65  1  0.691743  0.612932  0.534876  1
  H  H66  1  0.612932  0.534876  0.691743  1
  H  H67  1  0.534876  0.691743  0.612932  1
  H  H68  1  0.034876  0.691743  0.887068  1
  H  H69  1  0.534876  0.808257  0.112932  1
  H  H70  1  0.965124  0.191743  0.612932  1
  H  H71  1  0.808257  0.112932  0.534876  1
  H  H72  1  0.612932  0.965124  0.191743  1
  H  H73  1  0.112932  0.534876  0.808257  1
  H  H74  1  0.691743  0.887068  0.034876  1
  H  H75  1  0.887068  0.034876  0.691743  1
  H  H76  1  0.191743  0.612932  0.965124  1
  H  H77  1  0.308257  0.387068  0.465124  1
  H  H78  1  0.387068  0.465124  0.308257  1
  H  H79  1  0.465124  0.308257  0.387068  1
  H  H80  1  0.088355  0.313885  0.142503  1
  H  H81  1  0.588355  0.186115  0.857497  1
  H  H82  1  0.911645  0.813885  0.357497  1
  H  H83  1  0.186115  0.857497  0.588355  1
  H  H84  1  0.357497  0.911645  0.813885  1
  H  H85  1  0.857497  0.588355  0.186115  1
  H  H86  1  0.313885  0.142503  0.088355  1
  H  H87  1  0.142503  0.088355  0.313885  1
  H  H88  1  0.813885  0.357497  0.911645  1
  H  H89  1  0.686115  0.642503  0.411645  1
  H  H90  1  0.642503  0.411645  0.686115  1
  H  H91  1  0.411645  0.686115  0.642503  1
  H  H92  1  0.911645  0.686115  0.857497  1
  H  H93  1  0.411645  0.813885  0.142503  1
  H  H94  1  0.088355  0.186115  0.642503  1
  H  H95  1  0.813885  0.142503  0.411645  1
  H  H96  1  0.642503  0.088355  0.186115  1
  H  H97  1  0.142503  0.411645  0.813885  1
  H  H98  1  0.686115  0.857497  0.911645  1
  H  H99  1  0.857497  0.911645  0.686115  1
  H  H100  1  0.186115  0.642503  0.088355  1
  H  H101  1  0.313885  0.357497  0.588355  1
  H  H102  1  0.357497  0.588355  0.313885  1
  H  H103  1  0.551364  0.207118  0.493006  1
  S  S104  1  0.265789  0.265789  0.265789  1
  S  S105  1  0.234211  0.734211  0.765789  1
  S  S106  1  0.765789  0.234211  0.734211  1
  S  S107  1  0.734211  0.765789  0.234211  1
  S  S108  1  0.734211  0.734211  0.734211  1
  S  S109  1  0.765789  0.265789  0.234211  1
  S  S110  1  0.234211  0.765789  0.265789  1
  S  S111  1  0.265789  0.234211  0.765789  1
  O  O112  1  0.638895  0.960129  0.443076  1
  O  O113  1  0.138895  0.539871  0.556924  1
  O  O114  1  0.361105  0.460129  0.056924  1
  O  O115  1  0.539871  0.556924  0.138895  1
  O  O116  1  0.056924  0.361105  0.460129  1
  O  O117  1  0.556924  0.138895  0.539871  1
  O  O118  1  0.960129  0.443076  0.638895  1
  O  O119  1  0.443076  0.638895  0.960129  1
  O  O120  1  0.460129  0.056924  0.361105  1
  O  O121  1  0.039871  0.943076  0.861105  1
  O  O122  1  0.943076  0.861105  0.039871  1
  O  O123  1  0.861105  0.039871  0.943076  1
  O  O124  1  0.361105  0.039871  0.556924  1
  O  O125  1  0.861105  0.460129  0.443076  1
  O  O126  1  0.638895  0.539871  0.943076  1
  O  O127  1  0.460129  0.443076  0.861105  1
  O  O128  1  0.943076  0.638895  0.539871  1
  O  O129  1  0.443076  0.861105  0.460129  1
  O  O130  1  0.039871  0.556924  0.361105  1
  O  O131  1  0.556924  0.361105  0.039871  1
  O  O132  1  0.539871  0.943076  0.638895  1
  O  O133  1  0.960129  0.056924  0.138895  1
  O  O134  1  0.056924  0.138895  0.960129  1
  O  O135  1  0.138895  0.960129  0.056924  1
  O  O136  1  0.578771  0.038129  0.184744  1
  O  O137  1  0.078771  0.461871  0.815256  1
  O  O138  1  0.421229  0.538129  0.315256  1
  O  O139  1  0.461871  0.815256  0.078771  1
  O  O140  1  0.315256  0.421229  0.538129  1
  O  O141  1  0.815256  0.078771  0.461871  1
  O  O142  1  0.038129  0.184744  0.578771  1
  O  O143  1  0.184744  0.578771  0.038129  1
  O  O144  1  0.538129  0.315256  0.421229  1
  O  O145  1  0.961871  0.684744  0.921229  1
  O  O146  1  0.684744  0.921229  0.961871  1
  O  O147  1  0.921229  0.961871  0.684744  1
  O  O148  1  0.421229  0.961871  0.815256  1
  O  O149  1  0.921229  0.538129  0.184744  1
  O  O150  1  0.578771  0.461871  0.684744  1
  O  O151  1  0.538129  0.184744  0.921229  1
  O  O152  1  0.684744  0.578771  0.461871  1
  O  O153  1  0.184744  0.921229  0.538129  1
  O  O154  1  0.961871  0.815256  0.421229  1
  O  O155  1  0.815256  0.421229  0.961871  1
  O  O156  1  0.461871  0.684744  0.578771  1
  O  O157  1  0.038129  0.315256  0.078771  1
  O  O158  1  0.315256  0.078771  0.038129  1
  O  O159  1  0.078771  0.038129  0.315256  1
  O  O160  1  0.807772  0.269278  0.348004  1
  O  O161  1  0.307772  0.230722  0.651996  1
  O  O162  1  0.192228  0.769278  0.151996  1
  O  O163  1  0.230722  0.651996  0.307772  1
  O  O164  1  0.151996  0.192228  0.769278  1
  O  O165  1  0.651996  0.307772  0.230722  1
  O  O166  1  0.269278  0.348004  0.807772  1
  O  O167  1  0.348004  0.807772  0.269278  1
  O  O168  1  0.769278  0.151996  0.192228  1
  O  O169  1  0.730722  0.848004  0.692228  1
  O  O170  1  0.848004  0.692228  0.730722  1
  O  O171  1  0.692228  0.730722  0.848004  1
  O  O172  1  0.192228  0.730722  0.651996  1
  O  O173  1  0.692228  0.769278  0.348004  1
  O  O174  1  0.807772  0.230722  0.848004  1
  O  O175  1  0.769278  0.348004  0.692228  1
  O  O176  1  0.848004  0.807772  0.230722  1
  O  O177  1  0.348004  0.692228  0.769278  1
  O  O178  1  0.730722  0.651996  0.192228  1
  O  O179  1  0.651996  0.192228  0.730722  1
  O  O180  1  0.230722  0.848004  0.807772  1
  O  O181  1  0.269278  0.151996  0.307772  1
  O  O182  1  0.151996  0.307772  0.269278  1
  O  O183  1  0.307772  0.269278  0.151996  1
  O  O184  1  0.336514  0.336514  0.336514  1
  O  O185  1  0.163486  0.836514  0.336514  1
  O  O186  1  0.836514  0.336514  0.163486  1
  O  O187  1  0.663486  0.663486  0.663486  1
  O  O188  1  0.663486  0.836514  0.163486  1
  O  O189  1  0.836514  0.163486  0.663486  1
  O  O190  1  0.163486  0.663486  0.836514  1
  O  O191  1  0.336514  0.163486  0.836514  1
