# generated using pymatgen
data_Ca2MnP2(H2O5)2
_symmetry_space_group_name_H-M   'P 1'
_cell_length_a   5.57282327
_cell_length_b   5.84820981
_cell_length_c   6.64024010
_cell_angle_alpha   90.14698434
_cell_angle_beta   102.47564625
_cell_angle_gamma   108.80144388
_symmetry_Int_Tables_number   1
_chemical_formula_structural   Ca2MnP2(H2O5)2
_chemical_formula_sum   'Ca2 Mn1 P2 H4 O10'
_cell_volume   199.41653576
_cell_formula_units_Z   1
loop_
 _symmetry_equiv_pos_site_id
 _symmetry_equiv_pos_as_xyz
  1  'x, y, z'
loop_
 _atom_site_type_symbol
 _atom_site_label
 _atom_site_symmetry_multiplicity
 _atom_site_fract_x
 _atom_site_fract_y
 _atom_site_fract_z
 _atom_site_occupancy
  Ca  Ca0  1  0.335131  0.602945  0.233765  1
  Ca  Ca1  1  0.664869  0.397055  0.766235  1
  Mn  Mn2  1  0.000000  0.000000  0.000000  1
  P  P3  1  0.351650  0.752961  0.767155  1
  P  P4  1  0.648350  0.247039  0.232845  1
  H  H5  1  0.810896  0.070879  0.563231  1
  H  H6  1  0.189104  0.929121  0.436769  1
  H  H7  1  0.080726  0.283956  0.657570  1
  H  H8  1  0.919274  0.716044  0.342430  1
  O  O9  1  0.931764  0.157691  0.697772  1
  O  O10  1  0.396563  0.246095  0.070837  1
  O  O11  1  0.603437  0.753905  0.929163  1
  O  O12  1  0.876883  0.306864  0.117433  1
  O  O13  1  0.123117  0.693136  0.882567  1
  O  O14  1  0.617010  0.004629  0.329835  1
  O  O15  1  0.382990  0.995371  0.670165  1
  O  O16  1  0.697612  0.458449  0.398413  1
  O  O17  1  0.302388  0.541551  0.601587  1
  O  O18  1  0.068236  0.842309  0.302228  1
