# generated using pymatgen
data_Cu2HgI4
_symmetry_space_group_name_H-M   'P 1'
_cell_length_a   7.67149463
_cell_length_b   7.67149463
_cell_length_c   7.67149463
_cell_angle_alpha   132.28374655
_cell_angle_beta   132.28374655
_cell_angle_gamma   69.78124757
_symmetry_Int_Tables_number   1
_chemical_formula_structural   Cu2HgI4
_chemical_formula_sum   'Cu2 Hg1 I4'
_cell_volume   242.33913618
_cell_formula_units_Z   1
loop_
 _symmetry_equiv_pos_site_id
 _symmetry_equiv_pos_as_xyz
  1  'x, y, z'
loop_
 _atom_site_type_symbol
 _atom_site_label
 _atom_site_symmetry_multiplicity
 _atom_site_fract_x
 _atom_site_fract_y
 _atom_site_fract_z
 _atom_site_occupancy
  Cu  Cu0  1  0.750000  0.250000  0.500000  1
  Cu  Cu1  1  0.250000  0.750000  0.500000  1
  Hg  Hg2  1  0.500000  0.500000  0.000000  1
  I  I3  1  0.366824  0.901429  0.000000  1
  I  I4  1  0.098571  0.098571  0.465395  1
  I  I5  1  0.901429  0.366824  0.000000  1
  I  I6  1  0.633176  0.633176  0.534605  1
