# generated using pymatgen
data_Ag2PdCl4
_symmetry_space_group_name_H-M   'P 1'
_cell_length_a   6.55283669
_cell_length_b   6.55283669
_cell_length_c   8.24756559
_cell_angle_alpha   90.00000000
_cell_angle_beta   90.00000000
_cell_angle_gamma   100.90585445
_symmetry_Int_Tables_number   1
_chemical_formula_structural   Ag2PdCl4
_chemical_formula_sum   'Ag4 Pd2 Cl8'
_cell_volume   347.75160847
_cell_formula_units_Z   2
loop_
 _symmetry_equiv_pos_site_id
 _symmetry_equiv_pos_as_xyz
  1  'x, y, z'
loop_
 _atom_site_type_symbol
 _atom_site_label
 _atom_site_symmetry_multiplicity
 _atom_site_fract_x
 _atom_site_fract_y
 _atom_site_fract_z
 _atom_site_occupancy
  Ag  Ag0  1  0.528808  0.028808  0.750000  1
  Ag  Ag1  1  0.971192  0.471192  0.250000  1
  Ag  Ag2  1  0.028808  0.528808  0.750000  1
  Ag  Ag3  1  0.471192  0.971192  0.250000  1
  Pd  Pd4  1  0.500000  0.500000  0.000000  1
  Pd  Pd5  1  0.000000  0.000000  0.500000  1
  Cl  Cl6  1  0.692693  0.692693  0.794698  1
  Cl  Cl7  1  0.807307  0.807307  0.294698  1
  Cl  Cl8  1  0.192693  0.192693  0.705302  1
  Cl  Cl9  1  0.307307  0.307307  0.205302  1
  Cl  Cl10  1  0.230231  0.769769  0.500000  1
  Cl  Cl11  1  0.269769  0.730231  0.000000  1
  Cl  Cl12  1  0.730231  0.269769  0.000000  1
  Cl  Cl13  1  0.769769  0.230231  0.500000  1
