# generated using pymatgen
data_Sm2Si2O7
_symmetry_space_group_name_H-M   'P 1'
_cell_length_a   6.75389718
_cell_length_b   6.75389718
_cell_length_c   24.62441641
_cell_angle_alpha   90.00000000
_cell_angle_beta   90.00000000
_cell_angle_gamma   90.00000000
_symmetry_Int_Tables_number   1
_chemical_formula_structural   Sm2Si2O7
_chemical_formula_sum   'Sm16 Si16 O56'
_cell_volume   1123.24588475
_cell_formula_units_Z   8
loop_
 _symmetry_equiv_pos_site_id
 _symmetry_equiv_pos_as_xyz
  1  'x, y, z'
loop_
 _atom_site_type_symbol
 _atom_site_label
 _atom_site_symmetry_multiplicity
 _atom_site_fract_x
 _atom_site_fract_y
 _atom_site_fract_z
 _atom_site_occupancy
  Sm  Sm0  1  0.283906  0.217882  0.751135  1
  Sm  Sm1  1  0.838545  0.520929  0.397474  1
  Sm  Sm2  1  0.479071  0.838545  0.647474  1
  Sm  Sm3  1  0.653713  0.084694  0.501834  1
  Sm  Sm4  1  0.716094  0.782118  0.251135  1
  Sm  Sm5  1  0.752256  0.866185  0.888425  1
  Sm  Sm6  1  0.782118  0.283906  0.001135  1
  Sm  Sm7  1  0.866185  0.247744  0.638425  1
  Sm  Sm8  1  0.161455  0.479071  0.897474  1
  Sm  Sm9  1  0.346287  0.915306  0.001834  1
  Sm  Sm10  1  0.084694  0.346287  0.251834  1
  Sm  Sm11  1  0.520929  0.161455  0.147474  1
  Sm  Sm12  1  0.915306  0.653713  0.751834  1
  Sm  Sm13  1  0.217882  0.716094  0.501135  1
  Sm  Sm14  1  0.133815  0.752256  0.138425  1
  Sm  Sm15  1  0.247744  0.133815  0.388425  1
  Si  Si16  1  0.247754  0.858933  0.263867  1
  Si  Si17  1  0.278877  0.982064  0.870184  1
  Si  Si18  1  0.314928  0.605604  0.363385  1
  Si  Si19  1  0.858933  0.752246  0.013867  1
  Si  Si20  1  0.394396  0.314928  0.613385  1
  Si  Si21  1  0.627421  0.269854  0.268283  1
  Si  Si22  1  0.982064  0.721123  0.620184  1
  Si  Si23  1  0.730146  0.627421  0.518283  1
  Si  Si24  1  0.685072  0.394396  0.863385  1
  Si  Si25  1  0.269854  0.372579  0.018283  1
  Si  Si26  1  0.141067  0.247754  0.513867  1
  Si  Si27  1  0.017936  0.278877  0.120184  1
  Si  Si28  1  0.372579  0.730146  0.768283  1
  Si  Si29  1  0.752246  0.141067  0.763867  1
  Si  Si30  1  0.721123  0.017936  0.370184  1
  Si  Si31  1  0.605604  0.685072  0.113385  1
  O  O32  1  0.725922  0.933537  0.988674  1
  O  O33  1  0.134441  0.232371  0.977356  1
  O  O34  1  0.948636  0.163661  0.546059  1
  O  O35  1  0.812049  0.198044  0.094781  1
  O  O36  1  0.933537  0.274078  0.738674  1
  O  O37  1  0.891492  0.165735  0.393500  1
  O  O38  1  0.121725  0.417759  0.070761  1
  O  O39  1  0.107660  0.403957  0.463491  1
  O  O40  1  0.444874  0.858032  0.093998  1
  O  O41  1  0.834265  0.891492  0.643500  1
  O  O42  1  0.425808  0.328238  0.236956  1
  O  O43  1  0.233237  0.543398  0.786832  1
  O  O44  1  0.417759  0.878275  0.820761  1
  O  O45  1  0.865559  0.767629  0.477356  1
  O  O46  1  0.525574  0.494901  0.636961  1
  O  O47  1  0.275439  0.386357  0.556487  1
  O  O48  1  0.505099  0.525574  0.886961  1
  O  O49  1  0.596043  0.107660  0.713491  1
  O  O50  1  0.724561  0.613643  0.056487  1
  O  O51  1  0.328238  0.574192  0.986956  1
  O  O52  1  0.066463  0.725922  0.238674  1
  O  O53  1  0.108508  0.834265  0.893500  1
  O  O54  1  0.671762  0.425808  0.486956  1
  O  O55  1  0.791074  0.233846  0.903973  1
  O  O56  1  0.574192  0.671762  0.736956  1
  O  O57  1  0.165735  0.108508  0.143500  1
  O  O58  1  0.494901  0.474426  0.386961  1
  O  O59  1  0.232371  0.865559  0.727356  1
  O  O60  1  0.555126  0.141968  0.593998  1
  O  O61  1  0.858032  0.555126  0.843998  1
  O  O62  1  0.474426  0.505099  0.136961  1
  O  O63  1  0.198044  0.187951  0.844781  1
  O  O64  1  0.878275  0.582241  0.570761  1
  O  O65  1  0.582241  0.121725  0.320761  1
  O  O66  1  0.613643  0.275439  0.806487  1
  O  O67  1  0.801956  0.812049  0.344781  1
  O  O68  1  0.552490  0.994777  0.416762  1
  O  O69  1  0.456602  0.233237  0.036832  1
  O  O70  1  0.051364  0.836339  0.046059  1
  O  O71  1  0.994777  0.447510  0.166762  1
  O  O72  1  0.163661  0.051364  0.296059  1
  O  O73  1  0.005223  0.552490  0.666762  1
  O  O74  1  0.386357  0.724561  0.306487  1
  O  O75  1  0.187951  0.801956  0.594781  1
  O  O76  1  0.141968  0.444874  0.343998  1
  O  O77  1  0.836339  0.948636  0.796059  1
  O  O78  1  0.767629  0.134441  0.227356  1
  O  O79  1  0.892340  0.596043  0.963491  1
  O  O80  1  0.274078  0.066463  0.488674  1
  O  O81  1  0.543398  0.766763  0.536832  1
  O  O82  1  0.208926  0.766154  0.403973  1
  O  O83  1  0.766763  0.456602  0.286832  1
  O  O84  1  0.447510  0.005223  0.916762  1
  O  O85  1  0.233846  0.208926  0.653973  1
  O  O86  1  0.766154  0.791074  0.153973  1
  O  O87  1  0.403957  0.892340  0.213491  1
