# generated using pymatgen
data_H2SeO4
_symmetry_space_group_name_H-M   'P 1'
_cell_length_a   4.71127054
_cell_length_b   8.43967899
_cell_length_c   9.09317355
_cell_angle_alpha   90.00000000
_cell_angle_beta   90.00000000
_cell_angle_gamma   90.00000000
_symmetry_Int_Tables_number   1
_chemical_formula_structural   H2SeO4
_chemical_formula_sum   'H8 Se4 O16'
_cell_volume   361.55922938
_cell_formula_units_Z   4
loop_
 _symmetry_equiv_pos_site_id
 _symmetry_equiv_pos_as_xyz
  1  'x, y, z'
loop_
 _atom_site_type_symbol
 _atom_site_label
 _atom_site_symmetry_multiplicity
 _atom_site_fract_x
 _atom_site_fract_y
 _atom_site_fract_z
 _atom_site_occupancy
  H  H0  1  0.173300  0.279269  0.293000  1
  H  H1  1  0.673300  0.220731  0.707000  1
  H  H2  1  0.826700  0.779269  0.207000  1
  H  H3  1  0.326700  0.720731  0.793000  1
  H  H4  1  0.734201  0.540394  0.485480  1
  H  H5  1  0.234201  0.959606  0.514520  1
  H  H6  1  0.265799  0.040394  0.014520  1
  H  H7  1  0.765799  0.459606  0.985480  1
  Se  Se8  1  0.176891  0.537853  0.379006  1
  Se  Se9  1  0.323109  0.462147  0.879006  1
  Se  Se10  1  0.823109  0.037853  0.120994  1
  Se  Se11  1  0.676891  0.962147  0.620994  1
  O  O12  1  0.822618  0.143151  0.670478  1
  O  O13  1  0.177382  0.643151  0.829522  1
  O  O14  1  0.677382  0.856849  0.170478  1
  O  O15  1  0.970054  0.125329  0.262482  1
  O  O16  1  0.029946  0.625329  0.237518  1
  O  O17  1  0.529946  0.874671  0.762482  1
  O  O18  1  0.556825  0.128810  0.041006  1
  O  O19  1  0.470054  0.374671  0.737518  1
  O  O20  1  0.443175  0.628810  0.458994  1
  O  O21  1  0.943175  0.871190  0.541006  1
  O  O22  1  0.576071  0.514627  0.009181  1
  O  O23  1  0.056825  0.371190  0.958994  1
  O  O24  1  0.923929  0.485373  0.509181  1
  O  O25  1  0.423929  0.014627  0.490819  1
  O  O26  1  0.076071  0.985373  0.990819  1
  O  O27  1  0.322618  0.356849  0.329522  1
