# generated using pymatgen
data_Hg6S4IBr2Cl
_symmetry_space_group_name_H-M   'P 1'
_cell_length_a   9.70192414
_cell_length_b   13.24384094
_cell_length_c   13.33467471
_cell_angle_alpha   90.00000000
_cell_angle_beta   90.00000000
_cell_angle_gamma   90.00000000
_symmetry_Int_Tables_number   1
_chemical_formula_structural   Hg6S4IBr2Cl
_chemical_formula_sum   'Hg24 S16 I4 Br8 Cl4'
_cell_volume   1713.38222278
_cell_formula_units_Z   4
loop_
 _symmetry_equiv_pos_site_id
 _symmetry_equiv_pos_as_xyz
  1  'x, y, z'
loop_
 _atom_site_type_symbol
 _atom_site_label
 _atom_site_symmetry_multiplicity
 _atom_site_fract_x
 _atom_site_fract_y
 _atom_site_fract_z
 _atom_site_occupancy
  Hg  Hg0  1  0.485532  0.653454  0.882687  1
  Hg  Hg1  1  0.985532  0.346546  0.117313  1
  Hg  Hg2  1  0.514468  0.153454  0.617313  1
  Hg  Hg3  1  0.014468  0.846546  0.382687  1
  Hg  Hg4  1  0.514468  0.346546  0.117313  1
  Hg  Hg5  1  0.014468  0.653454  0.882687  1
  Hg  Hg6  1  0.485532  0.846546  0.382687  1
  Hg  Hg7  1  0.985532  0.153454  0.617313  1
  Hg  Hg8  1  0.250000  0.527725  0.691921  1
  Hg  Hg9  1  0.750000  0.472275  0.308079  1
  Hg  Hg10  1  0.750000  0.027725  0.808079  1
  Hg  Hg11  1  0.250000  0.972275  0.191921  1
  Hg  Hg12  1  0.492721  0.619838  0.154347  1
  Hg  Hg13  1  0.992721  0.380162  0.845653  1
  Hg  Hg14  1  0.507279  0.119838  0.345653  1
  Hg  Hg15  1  0.007279  0.880162  0.654347  1
  Hg  Hg16  1  0.507279  0.380162  0.845653  1
  Hg  Hg17  1  0.007279  0.619838  0.154347  1
  Hg  Hg18  1  0.492721  0.880162  0.654347  1
  Hg  Hg19  1  0.992721  0.119838  0.345653  1
  Hg  Hg20  1  0.250000  0.199692  0.976407  1
  Hg  Hg21  1  0.750000  0.800308  0.023593  1
  Hg  Hg22  1  0.750000  0.699692  0.523593  1
  Hg  Hg23  1  0.250000  0.300308  0.476407  1
  S  S24  1  0.997255  0.033407  0.756539  1
  S  S25  1  0.497255  0.966593  0.243461  1
  S  S26  1  0.502745  0.466593  0.256539  1
  S  S27  1  0.497255  0.533407  0.743461  1
  S  S28  1  0.997255  0.466593  0.256539  1
  S  S29  1  0.502745  0.033407  0.756539  1
  S  S30  1  0.002745  0.966593  0.243461  1
  S  S31  1  0.001127  0.259041  0.466840  1
  S  S32  1  0.501127  0.740959  0.533160  1
  S  S33  1  0.998873  0.759041  0.033160  1
  S  S34  1  0.498873  0.240959  0.966840  1
  S  S35  1  0.998873  0.740959  0.533160  1
  S  S36  1  0.498873  0.259041  0.466840  1
  S  S37  1  0.001127  0.240959  0.966840  1
  S  S38  1  0.501127  0.759041  0.033160  1
  S  S39  1  0.002745  0.533407  0.743461  1
  I  I40  1  0.750000  0.492566  0.991691  1
  I  I41  1  0.250000  0.507434  0.008309  1
  I  I42  1  0.750000  0.007434  0.491691  1
  I  I43  1  0.250000  0.992566  0.508309  1
  Br  Br44  1  0.250000  0.728807  0.270127  1
  Br  Br45  1  0.750000  0.782214  0.784325  1
  Br  Br46  1  0.750000  0.271193  0.729873  1
  Br  Br47  1  0.750000  0.717786  0.284325  1
  Br  Br48  1  0.750000  0.228807  0.229873  1
  Br  Br49  1  0.250000  0.282214  0.715675  1
  Br  Br50  1  0.250000  0.217786  0.215675  1
  Br  Br51  1  0.250000  0.771193  0.770127  1
  Cl  Cl52  1  0.250000  0.998826  0.997164  1
  Cl  Cl53  1  0.250000  0.501174  0.497164  1
  Cl  Cl54  1  0.750000  0.498826  0.502836  1
  Cl  Cl55  1  0.750000  0.001174  0.002836  1
