# generated using pymatgen
data_Pd(SeCl3)2
_symmetry_space_group_name_H-M   'P 1'
_cell_length_a   9.86033091
_cell_length_b   9.86033091
_cell_length_c   7.70904682
_cell_angle_alpha   80.09147031
_cell_angle_beta   99.90852969
_cell_angle_gamma   126.99091117
_symmetry_Int_Tables_number   1
_chemical_formula_structural   Pd(SeCl3)2
_chemical_formula_sum   'Pd2 Se4 Cl12'
_cell_volume   587.49380175
_cell_formula_units_Z   2
loop_
 _symmetry_equiv_pos_site_id
 _symmetry_equiv_pos_as_xyz
  1  'x, y, z'
loop_
 _atom_site_type_symbol
 _atom_site_label
 _atom_site_symmetry_multiplicity
 _atom_site_fract_x
 _atom_site_fract_y
 _atom_site_fract_z
 _atom_site_occupancy
  Pd  Pd0  1  0.837365  0.837365  0.250000  1
  Pd  Pd1  1  0.162635  0.162635  0.750000  1
  Se  Se2  1  0.930809  0.735309  0.065626  1
  Se  Se3  1  0.735309  0.930809  0.434374  1
  Se  Se4  1  0.069191  0.264691  0.934374  1
  Se  Se5  1  0.264691  0.069191  0.565626  1
  Cl  Cl6  1  0.688539  0.476532  0.043826  1
  Cl  Cl7  1  0.476532  0.688539  0.456174  1
  Cl  Cl8  1  0.311461  0.523468  0.956174  1
  Cl  Cl9  1  0.523468  0.311461  0.543826  1
  Cl  Cl10  1  0.086368  0.665071  0.232426  1
  Cl  Cl11  1  0.665071  0.086368  0.267574  1
  Cl  Cl12  1  0.087255  0.237122  0.465246  1
  Cl  Cl13  1  0.237122  0.087255  0.034754  1
  Cl  Cl14  1  0.912745  0.762878  0.534754  1
  Cl  Cl15  1  0.762878  0.912745  0.965246  1
  Cl  Cl16  1  0.334929  0.913632  0.732426  1
  Cl  Cl17  1  0.913632  0.334929  0.767574  1
