# generated using pymatgen
data_SiTePt
_symmetry_space_group_name_H-M   'P 1'
_cell_length_a   6.22307989
_cell_length_b   6.32116829
_cell_length_c   12.63211593
_cell_angle_alpha   90.00000000
_cell_angle_beta   90.00000000
_cell_angle_gamma   90.00000000
_symmetry_Int_Tables_number   1
_chemical_formula_structural   SiTePt
_chemical_formula_sum   'Si8 Te8 Pt8'
_cell_volume   496.91125304
_cell_formula_units_Z   8
loop_
 _symmetry_equiv_pos_site_id
 _symmetry_equiv_pos_as_xyz
  1  'x, y, z'
loop_
 _atom_site_type_symbol
 _atom_site_label
 _atom_site_symmetry_multiplicity
 _atom_site_fract_x
 _atom_site_fract_y
 _atom_site_fract_z
 _atom_site_occupancy
  Si  Si0  1  0.871054  0.333399  0.439066  1
  Si  Si1  1  0.371054  0.166601  0.560934  1
  Si  Si2  1  0.628946  0.666601  0.939066  1
  Si  Si3  1  0.371054  0.333399  0.060934  1
  Si  Si4  1  0.871054  0.166601  0.939066  1
  Si  Si5  1  0.628946  0.833399  0.439066  1
  Si  Si6  1  0.128946  0.666601  0.560934  1
  Si  Si7  1  0.128946  0.833399  0.060934  1
  Te  Te8  1  0.616977  0.083675  0.174655  1
  Te  Te9  1  0.883023  0.916325  0.674655  1
  Te  Te10  1  0.383023  0.583675  0.325345  1
  Te  Te11  1  0.883023  0.583675  0.174655  1
  Te  Te12  1  0.616977  0.416325  0.674655  1
  Te  Te13  1  0.116977  0.083675  0.325345  1
  Te  Te14  1  0.116977  0.416325  0.825345  1
  Te  Te15  1  0.383023  0.916325  0.825345  1
  Pt  Pt16  1  0.525472  0.312906  0.886363  1
  Pt  Pt17  1  0.025472  0.187094  0.113637  1
  Pt  Pt18  1  0.474528  0.812906  0.613637  1
  Pt  Pt19  1  0.974528  0.687094  0.386363  1
  Pt  Pt20  1  0.474528  0.687094  0.113637  1
  Pt  Pt21  1  0.974528  0.812906  0.886363  1
  Pt  Pt22  1  0.525472  0.187094  0.386363  1
  Pt  Pt23  1  0.025472  0.312906  0.613637  1
