# generated using pymatgen
data_Hg3TeBr4
_symmetry_space_group_name_H-M   'P 1'
_cell_length_a   13.03067403
_cell_length_b   13.25382620
_cell_length_c   13.38468700
_cell_angle_alpha   90.00000000
_cell_angle_beta   90.00000000
_cell_angle_gamma   90.00000000
_symmetry_Int_Tables_number   1
_chemical_formula_structural   Hg3TeBr4
_chemical_formula_sum   'Hg24 Te8 Br32'
_cell_volume   2311.61961936
_cell_formula_units_Z   8
loop_
 _symmetry_equiv_pos_site_id
 _symmetry_equiv_pos_as_xyz
  1  'x, y, z'
loop_
 _atom_site_type_symbol
 _atom_site_label
 _atom_site_symmetry_multiplicity
 _atom_site_fract_x
 _atom_site_fract_y
 _atom_site_fract_z
 _atom_site_occupancy
  Hg  Hg0  1  0.619525  0.089347  0.188576  1
  Hg  Hg1  1  0.319798  0.309060  0.234850  1
  Hg  Hg2  1  0.180202  0.690940  0.734850  1
  Hg  Hg3  1  0.680202  0.809060  0.265150  1
  Hg  Hg4  1  0.180202  0.809060  0.234850  1
  Hg  Hg5  1  0.680202  0.690940  0.765150  1
  Hg  Hg6  1  0.819798  0.309060  0.265150  1
  Hg  Hg7  1  0.319798  0.190940  0.734850  1
  Hg  Hg8  1  0.819798  0.190940  0.765150  1
  Hg  Hg9  1  0.119525  0.410653  0.811424  1
  Hg  Hg10  1  0.380475  0.589347  0.311424  1
  Hg  Hg11  1  0.880475  0.910653  0.688576  1
  Hg  Hg12  1  0.380475  0.910653  0.811424  1
  Hg  Hg13  1  0.880475  0.589347  0.188576  1
  Hg  Hg14  1  0.619525  0.410653  0.688576  1
  Hg  Hg15  1  0.119525  0.089347  0.311424  1
  Hg  Hg16  1  0.230939  0.096891  0.012901  1
  Hg  Hg17  1  0.730939  0.403109  0.987099  1
  Hg  Hg18  1  0.769061  0.596891  0.487099  1
  Hg  Hg19  1  0.269061  0.903109  0.512901  1
  Hg  Hg20  1  0.769061  0.903109  0.987099  1
  Hg  Hg21  1  0.269061  0.596891  0.012901  1
  Hg  Hg22  1  0.230939  0.403109  0.512901  1
  Hg  Hg23  1  0.730939  0.096891  0.487099  1
  Te  Te24  1  0.402705  0.096076  0.897401  1
  Te  Te25  1  0.902705  0.403924  0.102599  1
  Te  Te26  1  0.597295  0.596076  0.602599  1
  Te  Te27  1  0.097295  0.903924  0.397401  1
  Te  Te28  1  0.597295  0.903924  0.102599  1
  Te  Te29  1  0.097295  0.596076  0.897401  1
  Te  Te30  1  0.402705  0.403924  0.397401  1
  Te  Te31  1  0.902705  0.096076  0.602599  1
  Br  Br32  1  0.331866  0.098145  0.228602  1
  Br  Br33  1  0.831866  0.401855  0.771398  1
  Br  Br34  1  0.668134  0.598145  0.271398  1
  Br  Br35  1  0.168134  0.901855  0.728602  1
  Br  Br36  1  0.668134  0.901855  0.771398  1
  Br  Br37  1  0.168134  0.598145  0.228602  1
  Br  Br38  1  0.331866  0.401855  0.728602  1
  Br  Br39  1  0.831866  0.098145  0.271398  1
  Br  Br40  1  0.057914  0.084941  0.100208  1
  Br  Br41  1  0.557914  0.415059  0.899792  1
  Br  Br42  1  0.942086  0.584941  0.399792  1
  Br  Br43  1  0.442086  0.915059  0.600208  1
  Br  Br44  1  0.942086  0.915059  0.899792  1
  Br  Br45  1  0.442086  0.584941  0.100208  1
  Br  Br46  1  0.057914  0.415059  0.600208  1
  Br  Br47  1  0.595565  0.216522  0.676315  1
  Br  Br48  1  0.761917  0.165026  0.948299  1
  Br  Br49  1  0.261917  0.334974  0.051701  1
  Br  Br50  1  0.238083  0.665026  0.551701  1
  Br  Br51  1  0.738083  0.834974  0.448299  1
  Br  Br52  1  0.238083  0.834974  0.051701  1
  Br  Br53  1  0.738083  0.665026  0.948299  1
  Br  Br54  1  0.761917  0.334974  0.448299  1
  Br  Br55  1  0.261917  0.165026  0.551701  1
  Br  Br56  1  0.095565  0.216522  0.823685  1
  Br  Br57  1  0.595565  0.283478  0.176315  1
  Br  Br58  1  0.904435  0.716522  0.676315  1
  Br  Br59  1  0.404435  0.783478  0.323685  1
  Br  Br60  1  0.904435  0.783478  0.176315  1
  Br  Br61  1  0.404435  0.716522  0.823685  1
  Br  Br62  1  0.095565  0.283478  0.323685  1
  Br  Br63  1  0.557914  0.084941  0.399792  1
