# generated using pymatgen
data_In(IO3)3
_symmetry_space_group_name_H-M   'P 1'
_cell_length_a   7.57657421
_cell_length_b   7.57657421
_cell_length_c   7.57657421
_cell_angle_alpha   81.56050763
_cell_angle_beta   81.56050763
_cell_angle_gamma   81.56050763
_symmetry_Int_Tables_number   1
_chemical_formula_structural   In(IO3)3
_chemical_formula_sum   'In2 I6 O18'
_cell_volume   422.06134782
_cell_formula_units_Z   2
loop_
 _symmetry_equiv_pos_site_id
 _symmetry_equiv_pos_as_xyz
  1  'x, y, z'
loop_
 _atom_site_type_symbol
 _atom_site_label
 _atom_site_symmetry_multiplicity
 _atom_site_fract_x
 _atom_site_fract_y
 _atom_site_fract_z
 _atom_site_occupancy
  In  In0  1  0.821357  0.821357  0.821357  1
  In  In1  1  0.178643  0.178643  0.178643  1
  I  I2  1  0.130140  0.419267  0.720670  1
  I  I3  1  0.580733  0.279330  0.869860  1
  I  I4  1  0.279330  0.869860  0.580733  1
  I  I5  1  0.869860  0.580733  0.279330  1
  I  I6  1  0.720670  0.130140  0.419267  1
  I  I7  1  0.419267  0.720670  0.130140  1
  O  O8  1  0.575359  0.785111  0.266508  1
  O  O9  1  0.785111  0.266508  0.575359  1
  O  O10  1  0.266508  0.575359  0.785111  1
  O  O11  1  0.424641  0.214889  0.733492  1
  O  O12  1  0.214889  0.733492  0.424641  1
  O  O13  1  0.733492  0.424641  0.214889  1
  O  O14  1  0.572418  0.701114  0.916837  1
  O  O15  1  0.701114  0.916837  0.572418  1
  O  O16  1  0.945704  0.706295  0.062080  1
  O  O17  1  0.062080  0.945704  0.706295  1
  O  O18  1  0.706295  0.062080  0.945704  1
  O  O19  1  0.054296  0.293705  0.937920  1
  O  O20  1  0.937920  0.054296  0.293705  1
  O  O21  1  0.293705  0.937920  0.054296  1
  O  O22  1  0.083163  0.427582  0.298886  1
  O  O23  1  0.298886  0.083163  0.427582  1
  O  O24  1  0.427582  0.298886  0.083163  1
  O  O25  1  0.916837  0.572418  0.701114  1
