# generated using pymatgen
data_AgClO3
_symmetry_space_group_name_H-M   'P 1'
_cell_length_a   7.36708762
_cell_length_b   7.36708762
_cell_length_c   7.36708762
_cell_angle_alpha   107.88482526
_cell_angle_beta   107.88482526
_cell_angle_gamma   112.69284559
_symmetry_Int_Tables_number   1
_chemical_formula_structural   AgClO3
_chemical_formula_sum   'Ag4 Cl4 O12'
_cell_volume   307.06360106
_cell_formula_units_Z   4
loop_
 _symmetry_equiv_pos_site_id
 _symmetry_equiv_pos_as_xyz
  1  'x, y, z'
loop_
 _atom_site_type_symbol
 _atom_site_label
 _atom_site_symmetry_multiplicity
 _atom_site_fract_x
 _atom_site_fract_y
 _atom_site_fract_z
 _atom_site_occupancy
  Ag  Ag0  1  0.702593  0.702593  0.000000  1
  Ag  Ag1  1  0.297407  0.297407  0.000000  1
  Ag  Ag2  1  0.250000  0.750000  0.500000  1
  Ag  Ag3  1  0.750000  0.250000  0.500000  1
  Cl  Cl4  1  0.262314  0.809043  0.071357  1
  Cl  Cl5  1  0.190957  0.262314  0.453271  1
  Cl  Cl6  1  0.809043  0.737686  0.546729  1
  Cl  Cl7  1  0.737686  0.190957  0.928643  1
  O  O8  1  0.422608  0.741559  0.164168  1
  O  O9  1  0.258440  0.422608  0.681049  1
  O  O10  1  0.741559  0.577391  0.318951  1
  O  O11  1  0.577391  0.258440  0.835832  1
  O  O12  1  0.596453  0.937098  0.832854  1
  O  O13  1  0.763599  0.596453  0.659355  1
  O  O14  1  0.937098  0.104244  0.340645  1
  O  O15  1  0.104244  0.763599  0.167146  1
  O  O16  1  0.895756  0.236401  0.832854  1
  O  O17  1  0.062902  0.895756  0.659355  1
  O  O18  1  0.236401  0.403547  0.340645  1
  O  O19  1  0.403547  0.062902  0.167146  1
