# generated using pymatgen
data_Fe4Ni3(PO4)6
_symmetry_space_group_name_H-M   'P 1'
_cell_length_a   6.38020886
_cell_length_b   8.00470893
_cell_length_c   9.32780912
_cell_angle_alpha   104.49159963
_cell_angle_beta   108.49847834
_cell_angle_gamma   101.22832446
_symmetry_Int_Tables_number   1
_chemical_formula_structural   Fe4Ni3(PO4)6
_chemical_formula_sum   'Fe4 Ni3 P6 O24'
_cell_volume   417.45205943
_cell_formula_units_Z   1
loop_
 _symmetry_equiv_pos_site_id
 _symmetry_equiv_pos_as_xyz
  1  'x, y, z'
loop_
 _atom_site_type_symbol
 _atom_site_label
 _atom_site_symmetry_multiplicity
 _atom_site_fract_x
 _atom_site_fract_y
 _atom_site_fract_z
 _atom_site_occupancy
  Fe  Fe0  1  0.388007  0.452088  0.117675  1
  Fe  Fe1  1  0.611993  0.547912  0.882325  1
  Fe  Fe2  1  0.952851  0.275912  0.474078  1
  Fe  Fe3  1  0.047149  0.724088  0.525922  1
  Ni  Ni4  1  0.730436  0.198187  0.721335  1
  Ni  Ni5  1  0.269564  0.801813  0.278665  1
  Ni  Ni6  1  0.000000  0.000000  0.000000  1
  P  P7  1  0.397652  0.225236  0.372404  1
  P  P8  1  0.602348  0.774764  0.627596  1
  P  P9  1  0.233514  0.146987  0.773512  1
  P  P10  1  0.766486  0.853013  0.226488  1
  P  P11  1  0.091069  0.595968  0.833691  1
  P  P12  1  0.908931  0.404032  0.166309  1
  O  O13  1  0.789150  0.051462  0.293384  1
  O  O14  1  0.210850  0.948538  0.706616  1
  O  O15  1  0.452206  0.364748  0.291870  1
  O  O16  1  0.547794  0.635252  0.708130  1
  O  O17  1  0.275089  0.036819  0.238419  1
  O  O18  1  0.724911  0.963181  0.761581  1
  O  O19  1  0.538233  0.735982  0.223732  1
  O  O20  1  0.461767  0.264018  0.776268  1
  O  O21  1  0.632755  0.229566  0.497580  1
  O  O22  1  0.367245  0.770434  0.502420  1
  O  O23  1  0.751316  0.727196  0.533098  1
  O  O24  1  0.248684  0.272804  0.466902  1
  O  O25  1  0.115802  0.788265  0.921530  1
  O  O26  1  0.768511  0.805867  0.052818  1
  O  O27  1  0.231489  0.194133  0.947182  1
  O  O28  1  0.126161  0.532768  0.162789  1
  O  O29  1  0.873839  0.467232  0.837211  1
  O  O30  1  0.935921  0.447981  0.345785  1
  O  O31  1  0.064079  0.552019  0.654215  1
  O  O32  1  0.978373  0.806994  0.332590  1
  O  O33  1  0.021627  0.193006  0.667410  1
  O  O34  1  0.692438  0.463492  0.084755  1
  O  O35  1  0.307562  0.536508  0.915245  1
  O  O36  1  0.884198  0.211735  0.078470  1
