# generated using pymatgen
data_Na5SnSb3
_symmetry_space_group_name_H-M   'P 1'
_cell_length_a   12.57594266
_cell_length_b   9.29013640
_cell_length_c   18.71360202
_cell_angle_alpha   90.00000000
_cell_angle_beta   98.20354268
_cell_angle_gamma   90.00000000
_symmetry_Int_Tables_number   1
_chemical_formula_structural   Na5SnSb3
_chemical_formula_sum   'Na40 Sn8 Sb24'
_cell_volume   2163.97967755
_cell_formula_units_Z   8
loop_
 _symmetry_equiv_pos_site_id
 _symmetry_equiv_pos_as_xyz
  1  'x, y, z'
loop_
 _atom_site_type_symbol
 _atom_site_label
 _atom_site_symmetry_multiplicity
 _atom_site_fract_x
 _atom_site_fract_y
 _atom_site_fract_z
 _atom_site_occupancy
  Na  Na0  1  0.636182  0.928539  0.994464  1
  Na  Na1  1  0.863818  0.428539  0.005536  1
  Na  Na2  1  0.363818  0.071461  0.005536  1
  Na  Na3  1  0.136182  0.571461  0.994464  1
  Na  Na4  1  0.987906  0.931279  0.652032  1
  Na  Na5  1  0.512094  0.431279  0.347968  1
  Na  Na6  1  0.012094  0.068721  0.347968  1
  Na  Na7  1  0.487906  0.568721  0.652032  1
  Na  Na8  1  0.443505  0.175478  0.699919  1
  Na  Na9  1  0.056495  0.675478  0.300081  1
  Na  Na10  1  0.556495  0.824522  0.300081  1
  Na  Na11  1  0.943505  0.324522  0.699919  1
  Na  Na12  1  0.325941  0.929103  0.818859  1
  Na  Na13  1  0.174059  0.429103  0.181141  1
  Na  Na14  1  0.674059  0.070897  0.181141  1
  Na  Na15  1  0.825941  0.570897  0.818859  1
  Na  Na16  1  0.627102  0.937640  0.485008  1
  Na  Na17  1  0.872898  0.437640  0.514992  1
  Na  Na18  1  0.372898  0.062360  0.514992  1
  Na  Na19  1  0.127102  0.562360  0.485008  1
  Na  Na20  1  0.776527  0.182529  0.871544  1
  Na  Na21  1  0.723473  0.682529  0.128456  1
  Na  Na22  1  0.223473  0.817471  0.128456  1
  Na  Na23  1  0.276527  0.317471  0.871544  1
  Na  Na24  1  0.598123  0.846527  0.804516  1
  Na  Na25  1  0.901877  0.346527  0.195484  1
  Na  Na26  1  0.401877  0.153473  0.195484  1
  Na  Na27  1  0.098123  0.653473  0.804516  1
  Na  Na28  1  0.918150  0.840212  0.972854  1
  Na  Na29  1  0.581850  0.340212  0.027146  1
  Na  Na30  1  0.081850  0.159788  0.027146  1
  Na  Na31  1  0.418150  0.659788  0.972854  1
  Na  Na32  1  0.905476  0.818923  0.466581  1
  Na  Na33  1  0.594524  0.318923  0.533419  1
  Na  Na34  1  0.094524  0.181077  0.533419  1
  Na  Na35  1  0.405476  0.681077  0.466581  1
  Na  Na36  1  0.255620  0.812371  0.627692  1
  Na  Na37  1  0.244380  0.312371  0.372308  1
  Na  Na38  1  0.744380  0.187629  0.372308  1
  Na  Na39  1  0.755620  0.687629  0.627692  1
  Sn  Sn40  1  0.720919  0.068799  0.669272  1
  Sn  Sn41  1  0.779081  0.568799  0.330728  1
  Sn  Sn42  1  0.279081  0.931201  0.330728  1
  Sn  Sn43  1  0.220919  0.431201  0.669272  1
  Sn  Sn44  1  0.554106  0.417413  0.827444  1
  Sn  Sn45  1  0.945894  0.917413  0.172556  1
  Sn  Sn46  1  0.445894  0.582587  0.172556  1
  Sn  Sn47  1  0.054106  0.082587  0.827444  1
  Sb  Sb48  1  0.681821  0.370676  0.706618  1
  Sb  Sb49  1  0.818179  0.870676  0.293382  1
  Sb  Sb50  1  0.318179  0.629324  0.293382  1
  Sb  Sb51  1  0.181821  0.129324  0.706618  1
  Sb  Sb52  1  0.534306  0.890893  0.633913  1
  Sb  Sb53  1  0.965694  0.390893  0.366087  1
  Sb  Sb54  1  0.465694  0.109107  0.366087  1
  Sb  Sb55  1  0.034306  0.609107  0.633913  1
  Sb  Sb56  1  0.513743  0.138665  0.882284  1
  Sb  Sb57  1  0.986257  0.638665  0.117716  1
  Sb  Sb58  1  0.486257  0.861335  0.117716  1
  Sb  Sb59  1  0.013743  0.361335  0.882284  1
  Sb  Sb60  1  0.856263  0.916941  0.785395  1
  Sb  Sb61  1  0.643737  0.416941  0.214605  1
  Sb  Sb62  1  0.143737  0.083059  0.214605  1
  Sb  Sb63  1  0.356263  0.583059  0.785395  1
  Sb  Sb64  1  0.662859  0.606837  0.933710  1
  Sb  Sb65  1  0.837141  0.106837  0.066290  1
  Sb  Sb66  1  0.337141  0.393163  0.066290  1
  Sb  Sb67  1  0.162859  0.893163  0.933710  1
  Sb  Sb68  1  0.830249  0.119091  0.546156  1
  Sb  Sb69  1  0.669751  0.619091  0.453844  1
  Sb  Sb70  1  0.169751  0.880909  0.453844  1
  Sb  Sb71  1  0.330249  0.380909  0.546156  1
