# generated using pymatgen
data_H4CSN2
_symmetry_space_group_name_H-M   'P 1'
_cell_length_a   4.29975817
_cell_length_b   7.13067846
_cell_length_c   13.36272317
_cell_angle_alpha   90.00000000
_cell_angle_beta   95.50612542
_cell_angle_gamma   90.00000000
_symmetry_Int_Tables_number   1
_chemical_formula_structural   H4CSN2
_chemical_formula_sum   'H16 C4 S4 N8'
_cell_volume   407.81327597
_cell_formula_units_Z   4
loop_
 _symmetry_equiv_pos_site_id
 _symmetry_equiv_pos_as_xyz
  1  'x, y, z'
loop_
 _atom_site_type_symbol
 _atom_site_label
 _atom_site_symmetry_multiplicity
 _atom_site_fract_x
 _atom_site_fract_y
 _atom_site_fract_z
 _atom_site_occupancy
  H  H0  1  0.682551  0.959298  0.409802  1
  H  H1  1  0.317449  0.459298  0.090198  1
  H  H2  1  0.317449  0.040702  0.590198  1
  H  H3  1  0.682551  0.540702  0.909802  1
  H  H4  1  0.680194  0.730341  0.370310  1
  H  H5  1  0.319806  0.230341  0.129690  1
  H  H6  1  0.319806  0.269659  0.629690  1
  H  H7  1  0.680194  0.769659  0.870310  1
  H  H8  1  0.393452  0.879390  0.325727  1
  H  H9  1  0.409809  0.691697  0.947730  1
  H  H10  1  0.606548  0.120610  0.674273  1
  H  H11  1  0.393452  0.620610  0.825727  1
  H  H12  1  0.409809  0.808303  0.447730  1
  H  H13  1  0.590191  0.308303  0.052270  1
  H  H14  1  0.590191  0.191697  0.552270  1
  H  H15  1  0.606548  0.379390  0.174273  1
  C  C16  1  0.109124  0.820942  0.112768  1
  C  C17  1  0.890876  0.179058  0.887232  1
  C  C18  1  0.109124  0.679058  0.612768  1
  C  C19  1  0.890876  0.320942  0.387232  1
  S  S20  1  0.975679  0.481699  0.307356  1
  S  S21  1  0.024321  0.981699  0.192644  1
  S  S22  1  0.024321  0.518301  0.692644  1
  S  S23  1  0.975679  0.018301  0.807356  1
  N  N24  1  0.543157  0.843021  0.388527  1
  N  N25  1  0.170476  0.702832  0.054978  1
  N  N26  1  0.170476  0.797168  0.554978  1
  N  N27  1  0.829524  0.297168  0.945022  1
  N  N28  1  0.829524  0.202832  0.445022  1
  N  N29  1  0.543157  0.656979  0.888527  1
  N  N30  1  0.456843  0.156979  0.611473  1
  N  N31  1  0.456843  0.343021  0.111473  1
