# generated using pymatgen
data_Cd3(PO4)2
_symmetry_space_group_name_H-M   'P 1'
_cell_length_a   9.74361353
_cell_length_b   9.74361353
_cell_length_c   7.76665175
_cell_angle_alpha   90.00000000
_cell_angle_beta   90.00000000
_cell_angle_gamma   106.90114910
_symmetry_Int_Tables_number   1
_chemical_formula_structural   Cd3(PO4)2
_chemical_formula_sum   'Cd12 P8 O32'
_cell_volume   705.50259867
_cell_formula_units_Z   4
loop_
 _symmetry_equiv_pos_site_id
 _symmetry_equiv_pos_as_xyz
  1  'x, y, z'
loop_
 _atom_site_type_symbol
 _atom_site_label
 _atom_site_symmetry_multiplicity
 _atom_site_fract_x
 _atom_site_fract_y
 _atom_site_fract_z
 _atom_site_occupancy
  Cd  Cd0  1  0.891898  0.108102  0.000000  1
  Cd  Cd1  1  0.608102  0.391898  0.500000  1
  Cd  Cd2  1  0.108102  0.891898  1.000000  1
  Cd  Cd3  1  0.391898  0.608102  0.500000  1
  Cd  Cd4  1  0.969361  0.689124  0.556907  1
  Cd  Cd5  1  0.530639  0.810876  0.056907  1
  Cd  Cd6  1  0.189124  0.469361  0.943093  1
  Cd  Cd7  1  0.310876  0.030639  0.443093  1
  Cd  Cd8  1  0.030639  0.310876  0.443093  1
  Cd  Cd9  1  0.469361  0.189124  0.943093  1
  Cd  Cd10  1  0.810876  0.530639  0.056907  1
  Cd  Cd11  1  0.689124  0.969361  0.556907  1
  P  P12  1  0.180783  0.180783  0.708567  1
  P  P13  1  0.319217  0.319217  0.208567  1
  P  P14  1  0.680783  0.680783  0.791433  1
  P  P15  1  0.819217  0.819217  0.291433  1
  P  P16  1  0.686834  0.186834  0.250000  1
  P  P17  1  0.813166  0.313166  0.750000  1
  P  P18  1  0.313166  0.813166  0.750000  1
  P  P19  1  0.186834  0.686834  0.250000  1
  O  O20  1  0.101708  0.101708  0.873302  1
  O  O21  1  0.398292  0.398292  0.373302  1
  O  O22  1  0.601708  0.601708  0.626698  1
  O  O23  1  0.898292  0.898292  0.126698  1
  O  O24  1  0.117206  0.117206  0.533812  1
  O  O25  1  0.382794  0.382794  0.033812  1
  O  O26  1  0.617206  0.617206  0.966188  1
  O  O27  1  0.882794  0.882794  0.466188  1
  O  O28  1  0.626385  0.098128  0.084722  1
  O  O29  1  0.873615  0.401872  0.584722  1
  O  O30  1  0.598128  0.126385  0.415278  1
  O  O31  1  0.901872  0.373615  0.915278  1
  O  O32  1  0.373615  0.901872  0.915278  1
  O  O33  1  0.126385  0.598128  0.415278  1
  O  O34  1  0.401872  0.873615  0.584722  1
  O  O35  1  0.098128  0.626385  0.084722  1
  O  O36  1  0.844215  0.180083  0.268907  1
  O  O37  1  0.655785  0.319917  0.768907  1
  O  O38  1  0.680083  0.344215  0.231093  1
  O  O39  1  0.819917  0.155785  0.731093  1
  O  O40  1  0.661596  0.829024  0.291405  1
  O  O41  1  0.838404  0.670976  0.791405  1
  O  O42  1  0.329024  0.161596  0.208595  1
  O  O43  1  0.170976  0.338404  0.708595  1
  O  O44  1  0.338404  0.170976  0.708595  1
  O  O45  1  0.161596  0.329024  0.208595  1
  O  O46  1  0.670976  0.838404  0.791405  1
  O  O47  1  0.829024  0.661596  0.291405  1
  O  O48  1  0.180083  0.844215  0.268907  1
  O  O49  1  0.319917  0.655785  0.768907  1
  O  O50  1  0.344215  0.680083  0.231093  1
  O  O51  1  0.155785  0.819917  0.731093  1
