# generated using pymatgen
data_NaSb3F10
_symmetry_space_group_name_H-M   'P 1'
_cell_length_a   8.35519789
_cell_length_b   8.35519789
_cell_length_c   7.87630663
_cell_angle_alpha   90.00000000
_cell_angle_beta   90.00000000
_cell_angle_gamma   120.00000000
_symmetry_Int_Tables_number   1
_chemical_formula_structural   NaSb3F10
_chemical_formula_sum   'Na2 Sb6 F20'
_cell_volume   476.17515077
_cell_formula_units_Z   2
loop_
 _symmetry_equiv_pos_site_id
 _symmetry_equiv_pos_as_xyz
  1  'x, y, z'
loop_
 _atom_site_type_symbol
 _atom_site_label
 _atom_site_symmetry_multiplicity
 _atom_site_fract_x
 _atom_site_fract_y
 _atom_site_fract_z
 _atom_site_occupancy
  Na  Na0  1  0.666667  0.333333  0.664888  1
  Na  Na1  1  0.333333  0.666667  0.164888  1
  Sb  Sb2  1  0.119864  0.779669  0.755091  1
  Sb  Sb3  1  0.340195  0.119864  0.255091  1
  Sb  Sb4  1  0.779669  0.659805  0.255091  1
  Sb  Sb5  1  0.220331  0.340195  0.755091  1
  Sb  Sb6  1  0.659805  0.880136  0.755091  1
  Sb  Sb7  1  0.880136  0.220331  0.255091  1
  F  F8  1  0.333333  0.666667  0.734951  1
  F  F9  1  0.666667  0.333333  0.234951  1
  F  F10  1  0.963894  0.506309  0.780095  1
  F  F11  1  0.457585  0.963894  0.280095  1
  F  F12  1  0.506309  0.542415  0.280095  1
  F  F13  1  0.493691  0.457585  0.780095  1
  F  F14  1  0.542415  0.036106  0.780095  1
  F  F15  1  0.036106  0.493691  0.280095  1
  F  F16  1  0.205014  0.395359  0.995215  1
  F  F17  1  0.809655  0.205014  0.495215  1
  F  F18  1  0.395359  0.190345  0.495215  1
  F  F19  1  0.604641  0.809655  0.995215  1
  F  F20  1  0.190345  0.794986  0.995215  1
  F  F21  1  0.794986  0.604641  0.495215  1
  F  F22  1  0.112064  0.226110  0.338652  1
  F  F23  1  0.885954  0.112064  0.838652  1
  F  F24  1  0.226110  0.114046  0.838652  1
  F  F25  1  0.773890  0.885954  0.338652  1
  F  F26  1  0.114046  0.887936  0.338652  1
  F  F27  1  0.887936  0.773890  0.838652  1
