# generated using pymatgen
data_Tl3PbBr5
_symmetry_space_group_name_H-M   'P 1'
_cell_length_a   8.71619281
_cell_length_b   9.24136682
_cell_length_c   15.68687620
_cell_angle_alpha   90.00000000
_cell_angle_beta   90.00000000
_cell_angle_gamma   90.00000000
_symmetry_Int_Tables_number   1
_chemical_formula_structural   Tl3PbBr5
_chemical_formula_sum   'Tl12 Pb4 Br20'
_cell_volume   1263.57058400
_cell_formula_units_Z   4
loop_
 _symmetry_equiv_pos_site_id
 _symmetry_equiv_pos_as_xyz
  1  'x, y, z'
loop_
 _atom_site_type_symbol
 _atom_site_label
 _atom_site_symmetry_multiplicity
 _atom_site_fract_x
 _atom_site_fract_y
 _atom_site_fract_z
 _atom_site_occupancy
  Tl  Tl0  1  0.772223  0.706175  0.448779  1
  Tl  Tl1  1  0.272223  0.793825  0.551221  1
  Tl  Tl2  1  0.227777  0.206175  0.051221  1
  Tl  Tl3  1  0.727777  0.293825  0.948779  1
  Tl  Tl4  1  0.912972  0.167388  0.522087  1
  Tl  Tl5  1  0.412972  0.332612  0.477913  1
  Tl  Tl6  1  0.087028  0.667388  0.977913  1
  Tl  Tl7  1  0.587028  0.832612  0.022087  1
  Tl  Tl8  1  0.935894  0.087160  0.215127  1
  Tl  Tl9  1  0.435894  0.412840  0.784873  1
  Tl  Tl10  1  0.064106  0.587160  0.284873  1
  Tl  Tl11  1  0.564106  0.912840  0.715127  1
  Pb  Pb12  1  0.576690  0.452638  0.205406  1
  Pb  Pb13  1  0.076690  0.047362  0.794594  1
  Pb  Pb14  1  0.423310  0.952638  0.294594  1
  Pb  Pb15  1  0.923310  0.547362  0.705406  1
  Br  Br16  1  0.736410  0.653803  0.849520  1
  Br  Br17  1  0.236410  0.846197  0.150480  1
  Br  Br18  1  0.263590  0.153803  0.650480  1
  Br  Br19  1  0.763590  0.346197  0.349520  1
  Br  Br20  1  0.279150  0.288898  0.274070  1
  Br  Br21  1  0.779150  0.211102  0.725930  1
  Br  Br22  1  0.720850  0.788898  0.225930  1
  Br  Br23  1  0.220850  0.711102  0.774070  1
  Br  Br24  1  0.915371  0.852636  0.635607  1
  Br  Br25  1  0.415371  0.647364  0.364393  1
  Br  Br26  1  0.084629  0.352636  0.864393  1
  Br  Br27  1  0.584629  0.147364  0.135607  1
  Br  Br28  1  0.604790  0.555199  0.611075  1
  Br  Br29  1  0.104790  0.944801  0.388925  1
  Br  Br30  1  0.395210  0.055199  0.888925  1
  Br  Br31  1  0.895210  0.444801  0.111075  1
  Br  Br32  1  0.074727  0.496747  0.524780  1
  Br  Br33  1  0.574727  0.003253  0.475220  1
  Br  Br34  1  0.925273  0.996747  0.975220  1
  Br  Br35  1  0.425273  0.503253  0.024780  1
