# generated using pymatgen
data_LiGaCl3
_symmetry_space_group_name_H-M   'P 1'
_cell_length_a   6.22659429
_cell_length_b   9.88743110
_cell_length_c   15.31042319
_cell_angle_alpha   90.00000000
_cell_angle_beta   90.00000000
_cell_angle_gamma   90.00000000
_symmetry_Int_Tables_number   1
_chemical_formula_structural   LiGaCl3
_chemical_formula_sum   'Li8 Ga8 Cl24'
_cell_volume   942.58654098
_cell_formula_units_Z   8
loop_
 _symmetry_equiv_pos_site_id
 _symmetry_equiv_pos_as_xyz
  1  'x, y, z'
loop_
 _atom_site_type_symbol
 _atom_site_label
 _atom_site_symmetry_multiplicity
 _atom_site_fract_x
 _atom_site_fract_y
 _atom_site_fract_z
 _atom_site_occupancy
  Li  Li0  1  0.382335  0.987720  0.368357  1
  Li  Li1  1  0.882335  0.012280  0.131643  1
  Li  Li2  1  0.617665  0.487720  0.631643  1
  Li  Li3  1  0.117665  0.512280  0.868357  1
  Li  Li4  1  0.617665  0.012280  0.631643  1
  Li  Li5  1  0.117665  0.987720  0.868357  1
  Li  Li6  1  0.382335  0.512280  0.368357  1
  Li  Li7  1  0.882335  0.487720  0.131643  1
  Ga  Ga8  1  0.551496  0.750000  0.993901  1
  Ga  Ga9  1  0.051496  0.250000  0.506099  1
  Ga  Ga10  1  0.448504  0.250000  0.006099  1
  Ga  Ga11  1  0.948504  0.750000  0.493901  1
  Ga  Ga12  1  0.415451  0.750000  0.141956  1
  Ga  Ga13  1  0.915451  0.250000  0.358044  1
  Ga  Ga14  1  0.584549  0.250000  0.858044  1
  Ga  Ga15  1  0.084549  0.750000  0.641956  1
  Cl  Cl16  1  0.055552  0.750000  0.156758  1
  Cl  Cl17  1  0.555552  0.250000  0.343242  1
  Cl  Cl18  1  0.944448  0.250000  0.843242  1
  Cl  Cl19  1  0.444448  0.750000  0.656758  1
  Cl  Cl20  1  0.205075  0.750000  0.388359  1
  Cl  Cl21  1  0.705075  0.250000  0.111641  1
  Cl  Cl22  1  0.794925  0.250000  0.611641  1
  Cl  Cl23  1  0.294925  0.750000  0.888359  1
  Cl  Cl24  1  0.951517  0.572858  0.720370  1
  Cl  Cl25  1  0.451517  0.427142  0.779630  1
  Cl  Cl26  1  0.048483  0.072858  0.279630  1
  Cl  Cl27  1  0.548483  0.927142  0.220370  1
  Cl  Cl28  1  0.048483  0.427142  0.279630  1
  Cl  Cl29  1  0.548483  0.572858  0.220370  1
  Cl  Cl30  1  0.951517  0.927142  0.720370  1
  Cl  Cl31  1  0.451517  0.072858  0.779630  1
  Cl  Cl32  1  0.732701  0.932188  0.468716  1
  Cl  Cl33  1  0.232701  0.067812  0.031284  1
  Cl  Cl34  1  0.267299  0.432188  0.531284  1
  Cl  Cl35  1  0.767299  0.567812  0.968716  1
  Cl  Cl36  1  0.267299  0.067812  0.531284  1
  Cl  Cl37  1  0.767299  0.932188  0.968716  1
  Cl  Cl38  1  0.732701  0.567812  0.468716  1
  Cl  Cl39  1  0.232701  0.432188  0.031284  1
