# generated using pymatgen
data_TlI3
_symmetry_space_group_name_H-M   'P 1'
_cell_length_a   6.66472316
_cell_length_b   9.90564652
_cell_length_c   10.60547363
_cell_angle_alpha   90.00000000
_cell_angle_beta   90.00000000
_cell_angle_gamma   90.00000000
_symmetry_Int_Tables_number   1
_chemical_formula_structural   TlI3
_chemical_formula_sum   'Tl4 I12'
_cell_volume   700.15631308
_cell_formula_units_Z   4
loop_
 _symmetry_equiv_pos_site_id
 _symmetry_equiv_pos_as_xyz
  1  'x, y, z'
loop_
 _atom_site_type_symbol
 _atom_site_label
 _atom_site_symmetry_multiplicity
 _atom_site_fract_x
 _atom_site_fract_y
 _atom_site_fract_z
 _atom_site_occupancy
  Tl  Tl0  1  0.250000  0.522696  0.329998  1
  Tl  Tl1  1  0.750000  0.477304  0.670002  1
  Tl  Tl2  1  0.750000  0.022696  0.170002  1
  Tl  Tl3  1  0.250000  0.977304  0.829998  1
  I  I4  1  0.250000  0.851040  0.151723  1
  I  I5  1  0.750000  0.148960  0.848277  1
  I  I6  1  0.750000  0.351040  0.348277  1
  I  I7  1  0.250000  0.648960  0.651723  1
  I  I8  1  0.250000  0.047025  0.371089  1
  I  I9  1  0.750000  0.952975  0.628911  1
  I  I10  1  0.750000  0.547025  0.128911  1
  I  I11  1  0.250000  0.452975  0.871089  1
  I  I12  1  0.250000  0.231839  0.581107  1
  I  I13  1  0.750000  0.768161  0.418893  1
  I  I14  1  0.750000  0.731839  0.918893  1
  I  I15  1  0.250000  0.268161  0.081107  1
