# generated using pymatgen
data_Ga4Bi2O9
_symmetry_space_group_name_H-M   'P 1'
_cell_length_a   6.00486839
_cell_length_b   8.03925842
_cell_length_c   8.44455230
_cell_angle_alpha   90.00000000
_cell_angle_beta   90.00000000
_cell_angle_gamma   90.00000000
_symmetry_Int_Tables_number   1
_chemical_formula_structural   Ga4Bi2O9
_chemical_formula_sum   'Ga8 Bi4 O18'
_cell_volume   407.65813404
_cell_formula_units_Z   2
loop_
 _symmetry_equiv_pos_site_id
 _symmetry_equiv_pos_as_xyz
  1  'x, y, z'
loop_
 _atom_site_type_symbol
 _atom_site_label
 _atom_site_symmetry_multiplicity
 _atom_site_fract_x
 _atom_site_fract_y
 _atom_site_fract_z
 _atom_site_occupancy
  Ga  Ga0  1  0.500000  0.148558  0.662303  1
  Ga  Ga1  1  0.500000  0.851442  0.337697  1
  Ga  Ga2  1  0.500000  0.648558  0.837697  1
  Ga  Ga3  1  0.500000  0.351442  0.162303  1
  Ga  Ga4  1  0.258661  0.500000  0.500000  1
  Ga  Ga5  1  0.741339  0.000000  0.000000  1
  Ga  Ga6  1  0.741339  0.500000  0.500000  1
  Ga  Ga7  1  0.258661  0.000000  0.000000  1
  Bi  Bi8  1  0.000000  0.323230  0.826634  1
  Bi  Bi9  1  0.000000  0.676770  0.173366  1
  Bi  Bi10  1  0.000000  0.823230  0.673366  1
  Bi  Bi11  1  0.000000  0.176770  0.326634  1
  O  O12  1  0.500000  0.500000  0.000000  1
  O  O13  1  0.500000  0.000000  0.500000  1
  O  O14  1  0.243566  0.873112  0.209520  1
  O  O15  1  0.243566  0.126888  0.790480  1
  O  O16  1  0.756434  0.373112  0.290480  1
  O  O17  1  0.756434  0.626888  0.709520  1
  O  O18  1  0.756434  0.126888  0.790480  1
  O  O19  1  0.756434  0.873112  0.209520  1
  O  O20  1  0.243566  0.626888  0.709520  1
  O  O21  1  0.243566  0.373112  0.290480  1
  O  O22  1  0.500000  0.367467  0.591561  1
  O  O23  1  0.500000  0.632533  0.408439  1
  O  O24  1  0.000000  0.149703  0.064462  1
  O  O25  1  0.000000  0.850297  0.935538  1
  O  O26  1  0.000000  0.649703  0.435538  1
  O  O27  1  0.000000  0.350297  0.564462  1
  O  O28  1  0.500000  0.132533  0.091561  1
  O  O29  1  0.500000  0.867467  0.908439  1
