# generated using pymatgen
data_SIO3F
_symmetry_space_group_name_H-M   'P 1'
_cell_length_a   5.72044854
_cell_length_b   12.50680111
_cell_length_c   13.71273374
_cell_angle_alpha   90.00000000
_cell_angle_beta   90.00000000
_cell_angle_gamma   90.00000000
_symmetry_Int_Tables_number   1
_chemical_formula_structural   SIO3F
_chemical_formula_sum   'S8 I8 O24 F8'
_cell_volume   981.07084567
_cell_formula_units_Z   8
loop_
 _symmetry_equiv_pos_site_id
 _symmetry_equiv_pos_as_xyz
  1  'x, y, z'
loop_
 _atom_site_type_symbol
 _atom_site_label
 _atom_site_symmetry_multiplicity
 _atom_site_fract_x
 _atom_site_fract_y
 _atom_site_fract_z
 _atom_site_occupancy
  S  S0  1  0.840851  0.899826  0.990926  1
  S  S1  1  0.340851  0.600174  0.009074  1
  S  S2  1  0.159149  0.399826  0.509074  1
  S  S3  1  0.659149  0.100174  0.490926  1
  S  S4  1  0.540836  0.677559  0.669075  1
  S  S5  1  0.040836  0.822441  0.330925  1
  S  S6  1  0.459164  0.177559  0.830925  1
  S  S7  1  0.959164  0.322441  0.169075  1
  I  I8  1  0.044607  0.951684  0.657740  1
  I  I9  1  0.544607  0.548316  0.342260  1
  I  I10  1  0.955393  0.451684  0.842260  1
  I  I11  1  0.455393  0.048316  0.157740  1
  I  I12  1  0.197867  0.824102  0.803096  1
  I  I13  1  0.697867  0.675898  0.196904  1
  I  I14  1  0.802133  0.324102  0.696904  1
  I  I15  1  0.302133  0.175898  0.303096  1
  O  O16  1  0.095310  0.409271  0.205932  1
  O  O17  1  0.099060  0.575831  0.984167  1
  O  O18  1  0.400940  0.424169  0.484167  1
  O  O19  1  0.900940  0.075831  0.515833  1
  O  O20  1  0.404690  0.590729  0.705932  1
  O  O21  1  0.904690  0.909271  0.294068  1
  O  O22  1  0.595310  0.090729  0.794068  1
  O  O23  1  0.599060  0.924169  0.015833  1
  O  O24  1  0.970377  0.830564  0.054907  1
  O  O25  1  0.470377  0.669436  0.945093  1
  O  O26  1  0.029623  0.330564  0.445093  1
  O  O27  1  0.529623  0.169436  0.554907  1
  O  O28  1  0.856869  0.872235  0.885034  1
  O  O29  1  0.356869  0.627765  0.114966  1
  O  O30  1  0.143131  0.372235  0.614966  1
  O  O31  1  0.643131  0.127765  0.385034  1
  O  O32  1  0.716433  0.333453  0.146907  1
  O  O33  1  0.216433  0.166547  0.853093  1
  O  O34  1  0.283567  0.833453  0.353093  1
  O  O35  1  0.783567  0.666547  0.646907  1
  O  O36  1  0.986695  0.217626  0.229791  1
  O  O37  1  0.486695  0.282374  0.770209  1
  O  O38  1  0.013305  0.717626  0.270209  1
  O  O39  1  0.513305  0.782374  0.729791  1
  F  F40  1  0.971860  0.012575  0.996156  1
  F  F41  1  0.584014  0.213713  0.929937  1
  F  F42  1  0.915986  0.786287  0.429937  1
  F  F43  1  0.415986  0.713713  0.570063  1
  F  F44  1  0.528140  0.987425  0.496156  1
  F  F45  1  0.028140  0.512575  0.503844  1
  F  F46  1  0.471860  0.487425  0.003844  1
  F  F47  1  0.084014  0.286287  0.070063  1
