# generated using pymatgen
data_TlReO4
_symmetry_space_group_name_H-M   'P 1'
_cell_length_a   5.83672087
_cell_length_b   13.58042962
_cell_length_c   17.83026604
_cell_angle_alpha   90.00000000
_cell_angle_beta   90.60464442
_cell_angle_gamma   90.00000000
_symmetry_Int_Tables_number   1
_chemical_formula_structural   TlReO4
_chemical_formula_sum   'Tl12 Re12 O48'
_cell_volume   1413.24049681
_cell_formula_units_Z   12
loop_
 _symmetry_equiv_pos_site_id
 _symmetry_equiv_pos_as_xyz
  1  'x, y, z'
loop_
 _atom_site_type_symbol
 _atom_site_label
 _atom_site_symmetry_multiplicity
 _atom_site_fract_x
 _atom_site_fract_y
 _atom_site_fract_z
 _atom_site_occupancy
  Tl  Tl0  1  0.520749  0.370868  0.420060  1
  Tl  Tl1  1  0.979251  0.870868  0.579940  1
  Tl  Tl2  1  0.479251  0.629132  0.579940  1
  Tl  Tl3  1  0.020749  0.129132  0.420060  1
  Tl  Tl4  1  0.492255  0.370004  0.747560  1
  Tl  Tl5  1  0.007745  0.870004  0.252440  1
  Tl  Tl6  1  0.507745  0.629996  0.252440  1
  Tl  Tl7  1  0.992255  0.129996  0.747560  1
  Tl  Tl8  1  0.507685  0.375871  0.085301  1
  Tl  Tl9  1  0.992315  0.875871  0.914699  1
  Tl  Tl10  1  0.492315  0.624129  0.914699  1
  Tl  Tl11  1  0.007685  0.124129  0.085301  1
  Re  Re12  1  0.529958  0.115171  0.583203  1
  Re  Re13  1  0.970042  0.615171  0.416797  1
  Re  Re14  1  0.470042  0.884829  0.416797  1
  Re  Re15  1  0.029958  0.384829  0.583203  1
  Re  Re16  1  0.494867  0.126375  0.917354  1
  Re  Re17  1  0.005133  0.626375  0.082646  1
  Re  Re18  1  0.505133  0.873625  0.082646  1
  Re  Re19  1  0.994867  0.373625  0.917354  1
  Re  Re20  1  0.514268  0.123385  0.250556  1
  Re  Re21  1  0.985732  0.623385  0.749444  1
  Re  Re22  1  0.485732  0.876615  0.749444  1
  Re  Re23  1  0.014268  0.376615  0.250556  1
  O  O24  1  0.559366  0.809906  0.491941  1
  O  O25  1  0.940634  0.309906  0.508059  1
  O  O26  1  0.440634  0.190094  0.508059  1
  O  O27  1  0.059366  0.690094  0.491941  1
  O  O28  1  0.516280  0.823198  0.331510  1
  O  O29  1  0.983720  0.323198  0.668490  1
  O  O30  1  0.483720  0.176802  0.668490  1
  O  O31  1  0.016280  0.676802  0.331510  1
  O  O32  1  0.631956  0.993486  0.418238  1
  O  O33  1  0.868044  0.493486  0.581762  1
  O  O34  1  0.368044  0.006514  0.581762  1
  O  O35  1  0.131956  0.506514  0.418238  1
  O  O36  1  0.176273  0.912215  0.424515  1
  O  O37  1  0.323727  0.412215  0.575485  1
  O  O38  1  0.823727  0.087785  0.575485  1
  O  O39  1  0.676273  0.587785  0.424515  1
  O  O40  1  0.130626  0.701936  0.151774  1
  O  O41  1  0.782114  0.450543  0.954646  1
  O  O42  1  0.369374  0.201936  0.848226  1
  O  O43  1  0.630626  0.798064  0.151774  1
  O  O44  1  0.787188  0.555393  0.123285  1
  O  O45  1  0.712812  0.055393  0.876715  1
  O  O46  1  0.212812  0.444607  0.876715  1
  O  O47  1  0.287188  0.944607  0.123285  1
  O  O48  1  0.629992  0.201071  0.319974  1
  O  O49  1  0.870008  0.701071  0.680026  1
  O  O50  1  0.370008  0.798929  0.680026  1
  O  O51  1  0.129992  0.298929  0.319974  1
  O  O52  1  0.728846  0.041504  0.221111  1
  O  O53  1  0.771154  0.541504  0.778889  1
  O  O54  1  0.271154  0.958496  0.778889  1
  O  O55  1  0.228846  0.458496  0.221111  1
  O  O56  1  0.420489  0.193193  0.173037  1
  O  O57  1  0.079511  0.693193  0.826963  1
  O  O58  1  0.579511  0.806807  0.826963  1
  O  O59  1  0.920489  0.306807  0.173037  1
  O  O60  1  0.281099  0.057749  0.286885  1
  O  O61  1  0.218901  0.557749  0.713115  1
  O  O62  1  0.718901  0.942251  0.713115  1
  O  O63  1  0.781099  0.442251  0.286885  1
  O  O64  1  0.387322  0.801790  0.009907  1
  O  O65  1  0.112678  0.301790  0.990093  1
  O  O66  1  0.612678  0.198210  0.990093  1
  O  O67  1  0.887322  0.698210  0.009907  1
  O  O68  1  0.282114  0.049457  0.954646  1
  O  O69  1  0.217886  0.549457  0.045354  1
  O  O70  1  0.717886  0.950543  0.045354  1
  O  O71  1  0.869374  0.298064  0.848226  1
