# generated using pymatgen
data_RbMnH4Cl3O2
_symmetry_space_group_name_H-M   'P 1'
_cell_length_a   6.63518908
_cell_length_b   7.31591757
_cell_length_c   8.98696454
_cell_angle_alpha   91.26314025
_cell_angle_beta   107.60419647
_cell_angle_gamma   112.10082116
_symmetry_Int_Tables_number   1
_chemical_formula_structural   RbMnH4Cl3O2
_chemical_formula_sum   'Rb2 Mn2 H8 Cl6 O4'
_cell_volume   380.68199516
_cell_formula_units_Z   2
loop_
 _symmetry_equiv_pos_site_id
 _symmetry_equiv_pos_as_xyz
  1  'x, y, z'
loop_
 _atom_site_type_symbol
 _atom_site_label
 _atom_site_symmetry_multiplicity
 _atom_site_fract_x
 _atom_site_fract_y
 _atom_site_fract_z
 _atom_site_occupancy
  Rb  Rb0  1  0.263238  0.942901  0.181126  1
  Rb  Rb1  1  0.736762  0.057099  0.818874  1
  Mn  Mn2  1  0.999682  0.334696  0.331764  1
  Mn  Mn3  1  0.000318  0.665304  0.668236  1
  H  H4  1  0.588021  0.703812  0.478567  1
  H  H5  1  0.411979  0.296188  0.521433  1
  H  H6  1  0.776888  0.821712  0.403006  1
  H  H7  1  0.223112  0.178288  0.596994  1
  H  H8  1  0.621144  0.448595  0.188557  1
  H  H9  1  0.378856  0.551405  0.811443  1
  H  H10  1  0.753673  0.476243  0.065113  1
  H  H11  1  0.246327  0.523757  0.934887  1
  Cl  Cl12  1  0.246320  0.702509  0.489994  1
  Cl  Cl13  1  0.753680  0.297491  0.510006  1
  Cl  Cl14  1  0.780640  0.973549  0.197438  1
  Cl  Cl15  1  0.219360  0.026451  0.802562  1
  Cl  Cl16  1  0.250294  0.420785  0.156860  1
  Cl  Cl17  1  0.749706  0.579215  0.843140  1
  O  O18  1  0.754536  0.757424  0.496088  1
  O  O19  1  0.245464  0.242576  0.503912  1
  O  O20  1  0.751122  0.431839  0.167980  1
  O  O21  1  0.248878  0.568161  0.832020  1
