# generated using pymatgen
data_Bi7RhBr8
_symmetry_space_group_name_H-M   'P 1'
_cell_length_a   9.49126731
_cell_length_b   15.43339587
_cell_length_c   18.93311792
_cell_angle_alpha   90.00000000
_cell_angle_beta   117.90556302
_cell_angle_gamma   90.00000000
_symmetry_Int_Tables_number   1
_chemical_formula_structural   Bi7RhBr8
_chemical_formula_sum   'Bi28 Rh4 Br32'
_cell_volume   2450.88322688
_cell_formula_units_Z   4
loop_
 _symmetry_equiv_pos_site_id
 _symmetry_equiv_pos_as_xyz
  1  'x, y, z'
loop_
 _atom_site_type_symbol
 _atom_site_label
 _atom_site_symmetry_multiplicity
 _atom_site_fract_x
 _atom_site_fract_y
 _atom_site_fract_z
 _atom_site_occupancy
  Bi  Bi0  1  0.686400  0.937548  0.638872  1
  Bi  Bi1  1  0.629334  0.286047  0.847528  1
  Bi  Bi2  1  0.629334  0.213953  0.347528  1
  Bi  Bi3  1  0.370666  0.713953  0.152472  1
  Bi  Bi4  1  0.961857  0.736477  0.671015  1
  Bi  Bi5  1  0.038143  0.236477  0.828985  1
  Bi  Bi6  1  0.038143  0.263523  0.328985  1
  Bi  Bi7  1  0.961857  0.763523  0.171015  1
  Bi  Bi8  1  0.546013  0.794980  0.500952  1
  Bi  Bi9  1  0.453987  0.294980  0.999048  1
  Bi  Bi10  1  0.453987  0.205020  0.499048  1
  Bi  Bi11  1  0.546013  0.705020  0.000952  1
  Bi  Bi12  1  0.370666  0.786047  0.652472  1
  Bi  Bi13  1  0.313600  0.437548  0.861128  1
  Bi  Bi14  1  0.313600  0.062452  0.361128  1
  Bi  Bi15  1  0.686400  0.562452  0.138872  1
  Bi  Bi16  1  0.802344  0.840766  0.809068  1
  Bi  Bi17  1  0.197656  0.340766  0.690932  1
  Bi  Bi18  1  0.197656  0.159234  0.190932  1
  Bi  Bi19  1  0.802344  0.659234  0.309068  1
  Bi  Bi20  1  0.735706  0.639700  0.777758  1
  Bi  Bi21  1  0.264294  0.139700  0.722242  1
  Bi  Bi22  1  0.264294  0.360300  0.222242  1
  Bi  Bi23  1  0.735706  0.860300  0.277758  1
  Bi  Bi24  1  0.565210  0.609579  0.582246  1
  Bi  Bi25  1  0.434790  0.109579  0.917754  1
  Bi  Bi26  1  0.434790  0.390421  0.417754  1
  Bi  Bi27  1  0.565210  0.890421  0.082246  1
  Rh  Rh28  1  0.666141  0.763384  0.661515  1
  Rh  Rh29  1  0.333859  0.263384  0.838485  1
  Rh  Rh30  1  0.333859  0.236616  0.338485  1
  Rh  Rh31  1  0.666141  0.736616  0.161515  1
  Br  Br32  1  0.323946  0.947478  0.563972  1
  Br  Br33  1  0.676054  0.447478  0.936028  1
  Br  Br34  1  0.676054  0.052522  0.436028  1
  Br  Br35  1  0.323946  0.552522  0.063972  1
  Br  Br36  1  0.521104  0.889192  0.812101  1
  Br  Br37  1  0.478896  0.389192  0.687899  1
  Br  Br38  1  0.478896  0.110808  0.187899  1
  Br  Br39  1  0.521104  0.610808  0.312101  1
  Br  Br40  1  0.426487  0.638740  0.768196  1
  Br  Br41  1  0.573513  0.138740  0.731804  1
  Br  Br42  1  0.573513  0.361260  0.231804  1
  Br  Br43  1  0.426487  0.861260  0.268196  1
  Br  Br44  1  0.222535  0.658873  0.529090  1
  Br  Br45  1  0.777465  0.158873  0.970910  1
  Br  Br46  1  0.777465  0.341127  0.470910  1
  Br  Br47  1  0.880183  0.939659  0.105131  1
  Br  Br48  1  0.830433  0.784230  0.492235  1
  Br  Br49  1  0.169567  0.284230  0.007765  1
  Br  Br50  1  0.169567  0.215770  0.507765  1
  Br  Br51  1  0.830433  0.715770  0.992235  1
  Br  Br52  1  0.030356  0.925052  0.693841  1
  Br  Br53  1  0.969644  0.425052  0.806159  1
  Br  Br54  1  0.969644  0.074948  0.306159  1
  Br  Br55  1  0.030356  0.574948  0.193841  1
  Br  Br56  1  0.096761  0.685625  0.835995  1
  Br  Br57  1  0.903239  0.185625  0.664005  1
  Br  Br58  1  0.903239  0.314375  0.164005  1
  Br  Br59  1  0.096761  0.814375  0.335995  1
  Br  Br60  1  0.880183  0.560341  0.605131  1
  Br  Br61  1  0.119817  0.060341  0.894869  1
  Br  Br62  1  0.119817  0.439659  0.394869  1
  Br  Br63  1  0.222535  0.841127  0.029090  1
