# generated using pymatgen
data_Li8Nb2O9
_symmetry_space_group_name_H-M   'P 1'
_cell_length_a   5.93666503
_cell_length_b   8.90776939
_cell_length_c   15.37796797
_cell_angle_alpha   87.17406465
_cell_angle_beta   100.84513123
_cell_angle_gamma   109.33171827
_symmetry_Int_Tables_number   1
_chemical_formula_structural   Li8Nb2O9
_chemical_formula_sum   'Li32 Nb8 O36'
_cell_volume   753.59340110
_cell_formula_units_Z   4
loop_
 _symmetry_equiv_pos_site_id
 _symmetry_equiv_pos_as_xyz
  1  'x, y, z'
loop_
 _atom_site_type_symbol
 _atom_site_label
 _atom_site_symmetry_multiplicity
 _atom_site_fract_x
 _atom_site_fract_y
 _atom_site_fract_z
 _atom_site_occupancy
  Li  Li0  1  0.404555  0.908037  0.643995  1
  Li  Li1  1  0.595445  0.091963  0.356005  1
  Li  Li2  1  0.975422  0.841410  0.850893  1
  Li  Li3  1  0.024578  0.158590  0.149107  1
  Li  Li4  1  0.132870  0.339606  0.659969  1
  Li  Li5  1  0.867130  0.660394  0.340031  1
  Li  Li6  1  0.256933  0.409025  0.845777  1
  Li  Li7  1  0.743067  0.590975  0.154223  1
  Li  Li8  1  0.790251  0.124233  0.737814  1
  Li  Li9  1  0.209749  0.875767  0.262186  1
  Li  Li10  1  0.330687  0.123496  0.738493  1
  Li  Li11  1  0.669313  0.876504  0.261507  1
  Li  Li12  1  0.051220  0.624642  0.760511  1
  Li  Li13  1  0.948780  0.375358  0.239489  1
  Li  Li14  1  0.593429  0.622927  0.762736  1
  Li  Li15  1  0.406571  0.377073  0.237264  1
  Li  Li16  1  0.434134  0.121970  0.961746  1
  Li  Li17  1  0.565866  0.878030  0.038254  1
  Li  Li18  1  0.913565  0.121304  0.975740  1
  Li  Li19  1  0.086435  0.878696  0.024260  1
  Li  Li20  1  0.171463  0.627960  0.945981  1
  Li  Li21  1  0.828537  0.372040  0.054019  1
  Li  Li22  1  0.675946  0.630205  0.962086  1
  Li  Li23  1  0.324054  0.369795  0.037914  1
  Li  Li24  1  0.706535  0.127062  0.539628  1
  Li  Li25  1  0.293465  0.872938  0.460372  1
  Li  Li26  1  0.213675  0.126656  0.549800  1
  Li  Li27  1  0.786325  0.873344  0.450200  1
  Li  Li28  1  0.938444  0.622895  0.522981  1
  Li  Li29  1  0.061556  0.377105  0.477019  1
  Li  Li30  1  0.480611  0.625742  0.542921  1
  Li  Li31  1  0.519389  0.374258  0.457079  1
  Nb  Nb32  1  0.892954  0.876172  0.644650  1
  Nb  Nb33  1  0.256858  0.627296  0.138827  1
  Nb  Nb34  1  0.743142  0.372704  0.861173  1
  Nb  Nb35  1  0.357625  0.624820  0.356547  1
  Nb  Nb36  1  0.642375  0.375180  0.643453  1
  Nb  Nb37  1  0.505011  0.126630  0.150012  1
  Nb  Nb38  1  0.494989  0.873370  0.849988  1
  Nb  Nb39  1  0.107046  0.123828  0.355350  1
  O  O40  1  0.987648  0.894443  0.344158  1
  O  O41  1  0.139856  0.396253  0.142842  1
  O  O42  1  0.860144  0.603747  0.857158  1
  O  O43  1  0.462977  0.636840  0.054740  1
  O  O44  1  0.537023  0.363160  0.945260  1
  O  O45  1  0.973861  0.642508  0.059269  1
  O  O46  1  0.026139  0.357492  0.940731  1
  O  O47  1  0.476429  0.855579  0.357125  1
  O  O48  1  0.694020  0.876307  0.750716  1
  O  O49  1  0.305980  0.123693  0.249284  1
  O  O50  1  0.191850  0.872503  0.747015  1
  O  O51  1  0.808150  0.127497  0.252985  1
  O  O52  1  0.765732  0.626887  0.656649  1
  O  O53  1  0.234268  0.373113  0.343351  1
  O  O54  1  0.605722  0.123625  0.842883  1
  O  O55  1  0.394278  0.876375  0.157117  1
  O  O56  1  0.458012  0.373600  0.752342  1
  O  O57  1  0.541988  0.626400  0.247658  1
  O  O58  1  0.925316  0.374942  0.749130  1
  O  O59  1  0.074684  0.625058  0.250870  1
  O  O60  1  0.078831  0.864129  0.556152  1
  O  O61  1  0.921169  0.135871  0.443848  1
  O  O62  1  0.159772  0.613304  0.444075  1
  O  O63  1  0.399436  0.134375  0.440253  1
  O  O64  1  0.012352  0.105557  0.655842  1
  O  O65  1  0.523571  0.144421  0.642875  1
  O  O66  1  0.778475  0.885549  0.940977  1
  O  O67  1  0.221525  0.114451  0.059023  1
  O  O68  1  0.295178  0.884607  0.936216  1
  O  O69  1  0.704822  0.115393  0.063784  1
  O  O70  1  0.371573  0.643250  0.843735  1
  O  O71  1  0.628427  0.356750  0.156265  1
  O  O72  1  0.353957  0.388100  0.563359  1
  O  O73  1  0.646043  0.611900  0.436641  1
  O  O74  1  0.840228  0.386696  0.555925  1
  O  O75  1  0.600564  0.865625  0.559747  1
