# generated using pymatgen
data_MgH20S2(NO7)2
_symmetry_space_group_name_H-M   'P 1'
_cell_length_a   6.27176731
_cell_length_b   12.66619772
_cell_length_c   9.38378661
_cell_angle_alpha   90.00000000
_cell_angle_beta   107.40065734
_cell_angle_gamma   90.00000000
_symmetry_Int_Tables_number   1
_chemical_formula_structural   MgH20S2(NO7)2
_chemical_formula_sum   'Mg2 H40 S4 N4 O28'
_cell_volume   711.32902263
_cell_formula_units_Z   2
loop_
 _symmetry_equiv_pos_site_id
 _symmetry_equiv_pos_as_xyz
  1  'x, y, z'
loop_
 _atom_site_type_symbol
 _atom_site_label
 _atom_site_symmetry_multiplicity
 _atom_site_fract_x
 _atom_site_fract_y
 _atom_site_fract_z
 _atom_site_occupancy
  Mg  Mg0  1  0.000000  0.000000  0.000000  1
  Mg  Mg1  1  0.000000  0.500000  0.500000  1
  H  H2  1  0.670656  0.644220  0.471105  1
  H  H3  1  0.329344  0.144220  0.028895  1
  H  H4  1  0.329344  0.355780  0.528895  1
  H  H5  1  0.670656  0.855780  0.971105  1
  H  H6  1  0.660688  0.562205  0.596074  1
  H  H7  1  0.339312  0.062205  0.903926  1
  H  H8  1  0.339312  0.437795  0.403926  1
  H  H9  1  0.660688  0.937795  0.096074  1
  H  H10  1  0.995376  0.314368  0.641701  1
  H  H11  1  0.004624  0.814368  0.858299  1
  H  H12  1  0.004624  0.685632  0.358299  1
  H  H13  1  0.995376  0.185632  0.141701  1
  H  H14  1  0.055221  0.401304  0.767680  1
  H  H15  1  0.944779  0.901304  0.732320  1
  H  H16  1  0.944779  0.598696  0.232320  1
  H  H17  1  0.055221  0.098696  0.267680  1
  H  H18  1  0.901616  0.374744  0.252755  1
  H  H19  1  0.098384  0.874744  0.247245  1
  H  H20  1  0.098384  0.625256  0.747245  1
  H  H21  1  0.901616  0.125256  0.752755  1
  H  H22  1  0.671221  0.408894  0.280675  1
  H  H23  1  0.328779  0.908894  0.219325  1
  H  H24  1  0.328779  0.591106  0.719325  1
  H  H25  1  0.671221  0.091106  0.780675  1
  H  H26  1  0.637527  0.070813  0.331713  1
  H  H27  1  0.362473  0.570813  0.168287  1
  H  H28  1  0.362473  0.929187  0.668287  1
  H  H29  1  0.637527  0.429187  0.831713  1
  H  H30  1  0.521563  0.156752  0.424954  1
  H  H31  1  0.478437  0.656752  0.075046  1
  H  H32  1  0.478437  0.843248  0.575046  1
  H  H33  1  0.521563  0.343248  0.924954  1
  H  H34  1  0.596964  0.199820  0.277877  1
  H  H35  1  0.403036  0.699820  0.222123  1
  H  H36  1  0.403036  0.800180  0.722123  1
  H  H37  1  0.596964  0.300180  0.777877  1
  H  H38  1  0.794864  0.165960  0.442462  1
  H  H39  1  0.205136  0.665960  0.057538  1
  H  H40  1  0.794864  0.334040  0.942462  1
  H  H41  1  0.205136  0.834040  0.557538  1
  S  S42  1  0.257320  0.139525  0.595151  1
  S  S43  1  0.742680  0.639525  0.904849  1
  S  S44  1  0.742680  0.860475  0.404849  1
  S  S45  1  0.257320  0.360475  0.095151  1
  N  N46  1  0.638900  0.148848  0.368423  1
  N  N47  1  0.361100  0.648848  0.131577  1
  N  N48  1  0.361100  0.851152  0.631577  1
  N  N49  1  0.638900  0.351152  0.868423  1
  O  O50  1  0.831562  0.105592  0.830174  1
  O  O51  1  0.297283  0.069709  0.996884  1
  O  O52  1  0.297283  0.430291  0.496884  1
  O  O53  1  0.702717  0.930291  0.003116  1
  O  O54  1  0.970194  0.389485  0.661308  1
  O  O55  1  0.029806  0.889485  0.838692  1
  O  O56  1  0.029806  0.610515  0.338692  1
  O  O57  1  0.970194  0.110515  0.161308  1
  O  O58  1  0.831562  0.394408  0.330174  1
  O  O59  1  0.168438  0.894408  0.169826  1
  O  O60  1  0.168438  0.605592  0.669826  1
  O  O61  1  0.702717  0.569709  0.503116  1
  O  O62  1  0.042907  0.321822  0.117447  1
  O  O63  1  0.957093  0.821822  0.382553  1
  O  O64  1  0.957093  0.678178  0.882553  1
  O  O65  1  0.410091  0.231017  0.597607  1
  O  O66  1  0.373851  0.433510  0.220815  1
  O  O67  1  0.626149  0.933510  0.279185  1
  O  O68  1  0.626149  0.566490  0.779185  1
  O  O69  1  0.373851  0.066490  0.720815  1
  O  O70  1  0.212787  0.417668  0.951906  1
  O  O71  1  0.787213  0.917668  0.548094  1
  O  O72  1  0.787213  0.582332  0.048094  1
  O  O73  1  0.212787  0.082332  0.451906  1
  O  O74  1  0.410091  0.268983  0.097607  1
  O  O75  1  0.589909  0.768983  0.402393  1
  O  O76  1  0.589909  0.731017  0.902393  1
  O  O77  1  0.042907  0.178178  0.617447  1
