# generated using pymatgen
data_KAlCl4
_symmetry_space_group_name_H-M   'P 1'
_cell_length_a   7.34367415
_cell_length_b   10.68206037
_cell_length_c   9.54325278
_cell_angle_alpha   90.00000000
_cell_angle_beta   93.36585441
_cell_angle_gamma   90.00000000
_symmetry_Int_Tables_number   1
_chemical_formula_structural   KAlCl4
_chemical_formula_sum   'K4 Al4 Cl16'
_cell_volume   747.33452604
_cell_formula_units_Z   4
loop_
 _symmetry_equiv_pos_site_id
 _symmetry_equiv_pos_as_xyz
  1  'x, y, z'
loop_
 _atom_site_type_symbol
 _atom_site_label
 _atom_site_symmetry_multiplicity
 _atom_site_fract_x
 _atom_site_fract_y
 _atom_site_fract_z
 _atom_site_occupancy
  K  K0  1  0.563213  0.916331  0.050387  1
  K  K1  1  0.436787  0.416331  0.949613  1
  K  K2  1  0.941645  0.306795  0.446215  1
  K  K3  1  0.058355  0.806795  0.553785  1
  Al  Al4  1  0.993596  0.662724  0.065838  1
  Al  Al5  1  0.006404  0.162724  0.934162  1
  Al  Al6  1  0.491038  0.058019  0.566932  1
  Al  Al7  1  0.508962  0.558019  0.433068  1
  Cl  Cl8  1  0.052529  0.492790  0.180656  1
  Cl  Cl9  1  0.947471  0.992790  0.819344  1
  Cl  Cl10  1  0.210874  0.690651  0.925101  1
  Cl  Cl11  1  0.789126  0.190651  0.074899  1
  Cl  Cl12  1  0.735068  0.648458  0.945028  1
  Cl  Cl13  1  0.264932  0.148458  0.054972  1
  Cl  Cl14  1  0.028960  0.322551  0.797602  1
  Cl  Cl15  1  0.971040  0.822551  0.202398  1
  Cl  Cl16  1  0.532479  0.395409  0.300526  1
  Cl  Cl17  1  0.467521  0.895409  0.699474  1
  Cl  Cl18  1  0.455759  0.725641  0.313070  1
  Cl  Cl19  1  0.544241  0.225641  0.686930  1
  Cl  Cl20  1  0.288331  0.532988  0.571403  1
  Cl  Cl21  1  0.711669  0.032988  0.428597  1
  Cl  Cl22  1  0.765692  0.572442  0.556306  1
  Cl  Cl23  1  0.234308  0.072442  0.443694  1
