# generated using pymatgen
data_Li2ZnCl4
_symmetry_space_group_name_H-M   'P 1'
_cell_length_a   6.14766789
_cell_length_b   7.48687535
_cell_length_c   12.90983622
_cell_angle_alpha   90.00000000
_cell_angle_beta   90.00000000
_cell_angle_gamma   90.00000000
_symmetry_Int_Tables_number   1
_chemical_formula_structural   Li2ZnCl4
_chemical_formula_sum   'Li8 Zn4 Cl16'
_cell_volume   594.19874905
_cell_formula_units_Z   4
loop_
 _symmetry_equiv_pos_site_id
 _symmetry_equiv_pos_as_xyz
  1  'x, y, z'
loop_
 _atom_site_type_symbol
 _atom_site_label
 _atom_site_symmetry_multiplicity
 _atom_site_fract_x
 _atom_site_fract_y
 _atom_site_fract_z
 _atom_site_occupancy
  Li  Li0  1  0.000000  0.000000  0.000000  1
  Li  Li1  1  0.500000  0.000000  0.500000  1
  Li  Li2  1  0.000000  0.500000  0.000000  1
  Li  Li3  1  0.500000  0.500000  0.500000  1
  Li  Li4  1  0.004146  0.750000  0.269571  1
  Li  Li5  1  0.504146  0.250000  0.230429  1
  Li  Li6  1  0.995854  0.250000  0.730429  1
  Li  Li7  1  0.495854  0.750000  0.769571  1
  Zn  Zn8  1  0.582133  0.750000  0.089086  1
  Zn  Zn9  1  0.917867  0.750000  0.589086  1
  Zn  Zn10  1  0.417867  0.250000  0.910914  1
  Zn  Zn11  1  0.082133  0.250000  0.410914  1
  Cl  Cl12  1  0.751701  0.991594  0.665648  1
  Cl  Cl13  1  0.248299  0.491594  0.334352  1
  Cl  Cl14  1  0.748299  0.508406  0.165648  1
  Cl  Cl15  1  0.785176  0.250000  0.910630  1
  Cl  Cl16  1  0.214824  0.750000  0.089370  1
  Cl  Cl17  1  0.714824  0.250000  0.410630  1
  Cl  Cl18  1  0.246294  0.250000  0.572622  1
  Cl  Cl19  1  0.285176  0.750000  0.589370  1
  Cl  Cl20  1  0.753706  0.750000  0.427378  1
  Cl  Cl21  1  0.253706  0.250000  0.072622  1
  Cl  Cl22  1  0.751701  0.508406  0.665648  1
  Cl  Cl23  1  0.746294  0.750000  0.927378  1
  Cl  Cl24  1  0.748299  0.991594  0.165648  1
  Cl  Cl25  1  0.248299  0.008406  0.334352  1
  Cl  Cl26  1  0.251701  0.491594  0.834352  1
  Cl  Cl27  1  0.251701  0.008406  0.834352  1
