# generated using pymatgen
data_PBr5
_symmetry_space_group_name_H-M   'P 1'
_cell_length_a   5.97971829
_cell_length_b   8.79649173
_cell_length_c   17.40530311
_cell_angle_alpha   90.00000000
_cell_angle_beta   90.00000000
_cell_angle_gamma   90.00000000
_symmetry_Int_Tables_number   1
_chemical_formula_structural   PBr5
_chemical_formula_sum   'P4 Br20'
_cell_volume   915.52838571
_cell_formula_units_Z   4
loop_
 _symmetry_equiv_pos_site_id
 _symmetry_equiv_pos_as_xyz
  1  'x, y, z'
loop_
 _atom_site_type_symbol
 _atom_site_label
 _atom_site_symmetry_multiplicity
 _atom_site_fract_x
 _atom_site_fract_y
 _atom_site_fract_z
 _atom_site_occupancy
  P  P0  1  0.037874  0.750000  0.636382  1
  P  P1  1  0.037874  0.250000  0.863618  1
  P  P2  1  0.962126  0.250000  0.363618  1
  P  P3  1  0.962126  0.750000  0.136382  1
  Br  Br4  1  0.170036  0.750000  0.241743  1
  Br  Br5  1  0.170036  0.250000  0.258257  1
  Br  Br6  1  0.829964  0.250000  0.758257  1
  Br  Br7  1  0.829964  0.750000  0.741743  1
  Br  Br8  1  0.753866  0.958856  0.131719  1
  Br  Br9  1  0.753866  0.041144  0.368281  1
  Br  Br10  1  0.246134  0.458856  0.868281  1
  Br  Br11  1  0.246134  0.541144  0.631719  1
  Br  Br12  1  0.246134  0.041144  0.868281  1
  Br  Br13  1  0.246134  0.958856  0.631719  1
  Br  Br14  1  0.753866  0.541144  0.131719  1
  Br  Br15  1  0.753866  0.458856  0.368281  1
  Br  Br16  1  0.483643  0.750000  0.386751  1
  Br  Br17  1  0.483643  0.250000  0.113249  1
  Br  Br18  1  0.516357  0.250000  0.613249  1
  Br  Br19  1  0.516357  0.750000  0.886751  1
  Br  Br20  1  0.812034  0.750000  0.536409  1
  Br  Br21  1  0.812034  0.250000  0.963591  1
  Br  Br22  1  0.187966  0.250000  0.463591  1
  Br  Br23  1  0.187966  0.750000  0.036409  1
