# generated using pymatgen
data_Ba3Si5O13
_symmetry_space_group_name_H-M   'P 1'
_cell_length_a   14.03799126
_cell_length_b   4.78093600
_cell_length_c   20.51382909
_cell_angle_alpha   90.00000000
_cell_angle_beta   98.68637032
_cell_angle_gamma   90.00000000
_symmetry_Int_Tables_number   1
_chemical_formula_structural   Ba3Si5O13
_chemical_formula_sum   'Ba12 Si20 O52'
_cell_volume   1360.98837208
_cell_formula_units_Z   4
loop_
 _symmetry_equiv_pos_site_id
 _symmetry_equiv_pos_as_xyz
  1  'x, y, z'
loop_
 _atom_site_type_symbol
 _atom_site_label
 _atom_site_symmetry_multiplicity
 _atom_site_fract_x
 _atom_site_fract_y
 _atom_site_fract_z
 _atom_site_occupancy
  Ba  Ba0  1  0.435082  0.247871  0.407587  1
  Ba  Ba1  1  0.064918  0.747871  0.592413  1
  Ba  Ba2  1  0.564918  0.752129  0.592413  1
  Ba  Ba3  1  0.935082  0.252129  0.407587  1
  Ba  Ba4  1  0.293387  0.704904  0.225938  1
  Ba  Ba5  1  0.206613  0.204904  0.774062  1
  Ba  Ba6  1  0.706613  0.295096  0.774062  1
  Ba  Ba7  1  0.793387  0.795096  0.225938  1
  Ba  Ba8  1  0.156322  0.274947  0.051039  1
  Ba  Ba9  1  0.343678  0.774947  0.948961  1
  Ba  Ba10  1  0.843678  0.725053  0.948961  1
  Ba  Ba11  1  0.656322  0.225053  0.051039  1
  Si  Si12  1  0.182458  0.177835  0.483153  1
  Si  Si13  1  0.317542  0.677835  0.516847  1
  Si  Si14  1  0.817542  0.822165  0.516847  1
  Si  Si15  1  0.682458  0.322165  0.483153  1
  Si  Si16  1  0.165624  0.177120  0.325873  1
  Si  Si17  1  0.334376  0.677120  0.674127  1
  Si  Si18  1  0.834376  0.822880  0.674127  1
  Si  Si19  1  0.665624  0.322880  0.325873  1
  Si  Si20  1  0.038581  0.681623  0.286052  1
  Si  Si21  1  0.461419  0.181623  0.713948  1
  Si  Si22  1  0.961419  0.318377  0.713948  1
  Si  Si23  1  0.538581  0.818377  0.286052  1
  Si  Si24  1  0.020506  0.791182  0.136526  1
  Si  Si25  1  0.479494  0.291182  0.863474  1
  Si  Si26  1  0.979494  0.208818  0.863474  1
  Si  Si27  1  0.520506  0.708818  0.136526  1
  Si  Si28  1  0.892625  0.292482  0.093198  1
  Si  Si29  1  0.607375  0.792482  0.906802  1
  Si  Si30  1  0.107375  0.707518  0.906802  1
  Si  Si31  1  0.392625  0.207518  0.093198  1
  O  O32  1  0.214574  0.851354  0.502802  1
  O  O33  1  0.285426  0.351354  0.497198  1
  O  O34  1  0.785426  0.148646  0.497198  1
  O  O35  1  0.714574  0.648646  0.502802  1
  O  O36  1  0.095175  0.265912  0.520360  1
  O  O37  1  0.404825  0.765912  0.479640  1
  O  O38  1  0.904825  0.734088  0.479640  1
  O  O39  1  0.595175  0.234088  0.520360  1
  O  O40  1  0.145552  0.190246  0.403034  1
  O  O41  1  0.354448  0.690246  0.596966  1
  O  O42  1  0.854448  0.809754  0.596966  1
  O  O43  1  0.645552  0.309754  0.403034  1
  O  O44  1  0.270885  0.263650  0.312712  1
  O  O45  1  0.229115  0.763650  0.687288  1
  O  O46  1  0.729115  0.736350  0.687288  1
  O  O47  1  0.770885  0.236350  0.312712  1
  O  O48  1  0.143004  0.851333  0.300029  1
  O  O49  1  0.356996  0.351333  0.699971  1
  O  O50  1  0.856996  0.148667  0.699971  1
  O  O51  1  0.643004  0.648667  0.300029  1
  O  O52  1  0.986834  0.749958  0.209773  1
  O  O53  1  0.073258  0.352317  0.286173  1
  O  O54  1  0.926742  0.647683  0.713827  1
  O  O55  1  0.573258  0.147683  0.286173  1
  O  O56  1  0.961238  0.743995  0.333781  1
  O  O57  1  0.538762  0.243995  0.666219  1
  O  O58  1  0.038762  0.256005  0.666219  1
  O  O59  1  0.461238  0.756005  0.333781  1
  O  O60  1  0.131062  0.721012  0.133990  1
  O  O61  1  0.368938  0.221012  0.866010  1
  O  O62  1  0.868938  0.278988  0.866010  1
  O  O63  1  0.631062  0.778988  0.133990  1
  O  O64  1  0.338622  0.283884  0.019871  1
  O  O65  1  0.161378  0.783884  0.980129  1
  O  O66  1  0.661378  0.716116  0.980129  1
  O  O67  1  0.838622  0.216116  0.019871  1
  O  O68  1  0.321365  0.225841  0.148196  1
  O  O69  1  0.178635  0.725841  0.851804  1
  O  O70  1  0.678635  0.774159  0.851804  1
  O  O71  1  0.821365  0.274159  0.148196  1
  O  O72  1  0.439327  0.886183  0.085229  1
  O  O73  1  0.060673  0.386183  0.914771  1
  O  O74  1  0.560673  0.113817  0.914771  1
  O  O75  1  0.939327  0.613817  0.085229  1
  O  O76  1  0.496571  0.382798  0.113313  1
  O  O77  1  0.003429  0.882798  0.886687  1
  O  O78  1  0.503429  0.617202  0.886687  1
  O  O79  1  0.996571  0.117202  0.113313  1
  O  O80  1  0.486834  0.750042  0.209773  1
  O  O81  1  0.013166  0.250042  0.790227  1
  O  O82  1  0.513166  0.249958  0.790227  1
  O  O83  1  0.426742  0.852317  0.713827  1
