# generated using pymatgen
data_Nd(AlBr4)3
_symmetry_space_group_name_H-M   'P 1'
_cell_length_a   10.88746663
_cell_length_b   10.88746663
_cell_length_c   18.90611273
_cell_angle_alpha   90.00000000
_cell_angle_beta   90.00000000
_cell_angle_gamma   120.00000000
_symmetry_Int_Tables_number   1
_chemical_formula_structural   Nd(AlBr4)3
_chemical_formula_sum   'Nd3 Al9 Br36'
_cell_volume   1940.82576484
_cell_formula_units_Z   3
loop_
 _symmetry_equiv_pos_site_id
 _symmetry_equiv_pos_as_xyz
  1  'x, y, z'
loop_
 _atom_site_type_symbol
 _atom_site_label
 _atom_site_symmetry_multiplicity
 _atom_site_fract_x
 _atom_site_fract_y
 _atom_site_fract_z
 _atom_site_occupancy
  Nd  Nd0  1  0.000000  0.733924  0.666667  1
  Nd  Nd1  1  0.733924  0.000000  0.333333  1
  Nd  Nd2  1  0.266076  0.266076  0.000000  1
  Al  Al3  1  0.902896  0.902896  0.500000  1
  Al  Al4  1  0.340321  0.703029  0.387301  1
  Al  Al5  1  0.296971  0.637292  0.720635  1
  Al  Al6  1  0.362708  0.659679  0.053968  1
  Al  Al7  1  0.097104  0.000000  0.833333  1
  Al  Al8  1  0.000000  0.097104  0.166667  1
  Al  Al9  1  0.703029  0.340321  0.612699  1
  Al  Al10  1  0.659679  0.362708  0.946032  1
  Al  Al11  1  0.637292  0.296971  0.279365  1
  Br  Br12  1  0.291120  0.513149  0.456197  1
  Br  Br13  1  0.222030  0.708880  0.122864  1
  Br  Br14  1  0.486851  0.777970  0.789531  1
  Br  Br15  1  0.715915  0.486136  0.710217  1
  Br  Br16  1  0.513864  0.229778  0.043551  1
  Br  Br17  1  0.770222  0.284085  0.376884  1
  Br  Br18  1  0.229778  0.513864  0.956449  1
  Br  Br19  1  0.284085  0.770222  0.623116  1
  Br  Br20  1  0.486136  0.715915  0.289783  1
  Br  Br21  1  0.920078  0.512926  0.555977  1
  Br  Br22  1  0.487074  0.407151  0.889311  1
  Br  Br23  1  0.592849  0.079922  0.222644  1
  Br  Br24  1  0.407151  0.487074  0.110689  1
  Br  Br25  1  0.079922  0.592849  0.777356  1
  Br  Br26  1  0.512926  0.920078  0.444023  1
  Br  Br27  1  0.120692  0.926326  0.531004  1
  Br  Br28  1  0.073674  0.194366  0.864337  1
  Br  Br29  1  0.805634  0.879308  0.197670  1
  Br  Br30  1  0.194366  0.073674  0.135663  1
  Br  Br31  1  0.879308  0.805634  0.802330  1
  Br  Br32  1  0.926326  0.120692  0.468996  1
  Br  Br33  1  0.228504  0.027211  0.730929  1
  Br  Br34  1  0.972789  0.201293  0.064263  1
  Br  Br35  1  0.798707  0.771496  0.397596  1
  Br  Br36  1  0.201293  0.972789  0.935737  1
  Br  Br37  1  0.771496  0.798707  0.602404  1
  Br  Br38  1  0.027211  0.228504  0.269071  1
  Br  Br39  1  0.152723  0.722838  0.349810  1
  Br  Br40  1  0.277162  0.429885  0.683143  1
  Br  Br41  1  0.570115  0.847277  0.016477  1
  Br  Br42  1  0.429885  0.277162  0.316857  1
  Br  Br43  1  0.847277  0.570115  0.983523  1
  Br  Br44  1  0.722838  0.152723  0.650190  1
  Br  Br45  1  0.513149  0.291120  0.543802  1
  Br  Br46  1  0.708880  0.222030  0.877136  1
  Br  Br47  1  0.777970  0.486851  0.210469  1
