# generated using pymatgen
data_RbSF5
_symmetry_space_group_name_H-M   'P 1'
_cell_length_a   6.25890988
_cell_length_b   7.86537149
_cell_length_c   10.20511854
_cell_angle_alpha   90.00000000
_cell_angle_beta   90.00000000
_cell_angle_gamma   90.00000000
_symmetry_Int_Tables_number   1
_chemical_formula_structural   RbSF5
_chemical_formula_sum   'Rb4 S4 F20'
_cell_volume   502.38422237
_cell_formula_units_Z   4
loop_
 _symmetry_equiv_pos_site_id
 _symmetry_equiv_pos_as_xyz
  1  'x, y, z'
loop_
 _atom_site_type_symbol
 _atom_site_label
 _atom_site_symmetry_multiplicity
 _atom_site_fract_x
 _atom_site_fract_y
 _atom_site_fract_z
 _atom_site_occupancy
  Rb  Rb0  1  0.250000  0.157728  0.654649  1
  Rb  Rb1  1  0.750000  0.842272  0.345351  1
  Rb  Rb2  1  0.750000  0.657728  0.845351  1
  Rb  Rb3  1  0.250000  0.342272  0.154649  1
  S  S4  1  0.250000  0.658814  0.596907  1
  S  S5  1  0.750000  0.341186  0.403093  1
  S  S6  1  0.750000  0.158815  0.903093  1
  S  S7  1  0.250000  0.841186  0.096907  1
  F  F8  1  0.250000  0.728463  0.746578  1
  F  F9  1  0.750000  0.271537  0.253422  1
  F  F10  1  0.750000  0.228463  0.753422  1
  F  F11  1  0.250000  0.771537  0.246578  1
  F  F12  1  0.952055  0.184000  0.430917  1
  F  F13  1  0.452055  0.816000  0.569083  1
  F  F14  1  0.047945  0.684000  0.069083  1
  F  F15  1  0.547945  0.316000  0.930917  1
  F  F16  1  0.448439  0.985614  0.150475  1
  F  F17  1  0.948439  0.014386  0.849525  1
  F  F18  1  0.551561  0.485614  0.349525  1
  F  F19  1  0.051561  0.514386  0.650475  1
  F  F20  1  0.551561  0.014386  0.849525  1
  F  F21  1  0.051561  0.985614  0.150475  1
  F  F22  1  0.448439  0.514386  0.650475  1
  F  F23  1  0.948439  0.485614  0.349525  1
  F  F24  1  0.452055  0.684000  0.069083  1
  F  F25  1  0.952055  0.316000  0.930917  1
  F  F26  1  0.547945  0.184000  0.430917  1
  F  F27  1  0.047945  0.816000  0.569083  1
