# generated using pymatgen
data_Zr2TeBr12
_symmetry_space_group_name_H-M   'P 1'
_cell_length_a   7.48957557
_cell_length_b   16.61393301
_cell_length_c   19.69091045
_cell_angle_alpha   90.00000000
_cell_angle_beta   97.30248449
_cell_angle_gamma   90.00000000
_symmetry_Int_Tables_number   1
_chemical_formula_structural   Zr2TeBr12
_chemical_formula_sum   'Zr8 Te4 Br48'
_cell_volume   2430.29225820
_cell_formula_units_Z   4
loop_
 _symmetry_equiv_pos_site_id
 _symmetry_equiv_pos_as_xyz
  1  'x, y, z'
loop_
 _atom_site_type_symbol
 _atom_site_label
 _atom_site_symmetry_multiplicity
 _atom_site_fract_x
 _atom_site_fract_y
 _atom_site_fract_z
 _atom_site_occupancy
  Zr  Zr0  1  0.185936  0.807226  0.328107  1
  Zr  Zr1  1  0.814064  0.307226  0.171893  1
  Zr  Zr2  1  0.814064  0.192774  0.671893  1
  Zr  Zr3  1  0.185936  0.692774  0.828107  1
  Zr  Zr4  1  0.261225  0.685422  0.018629  1
  Zr  Zr5  1  0.738775  0.185422  0.481371  1
  Zr  Zr6  1  0.738775  0.314578  0.981371  1
  Zr  Zr7  1  0.261225  0.814578  0.518629  1
  Te  Te8  1  0.335884  0.950298  0.162634  1
  Te  Te9  1  0.664116  0.450298  0.337366  1
  Te  Te10  1  0.664116  0.049702  0.837366  1
  Te  Te11  1  0.335884  0.549702  0.662634  1
  Br  Br12  1  0.596122  0.561145  0.592730  1
  Br  Br13  1  0.403878  0.061145  0.907270  1
  Br  Br14  1  0.403878  0.438855  0.407270  1
  Br  Br15  1  0.596122  0.938855  0.092730  1
  Br  Br16  1  0.152378  0.448395  0.586071  1
  Br  Br17  1  0.847622  0.948395  0.913929  1
  Br  Br18  1  0.847622  0.551605  0.413929  1
  Br  Br19  1  0.152378  0.051605  0.086071  1
  Br  Br20  1  0.487024  0.447267  0.745418  1
  Br  Br21  1  0.512976  0.947267  0.754582  1
  Br  Br22  1  0.512976  0.552733  0.254582  1
  Br  Br23  1  0.487024  0.052733  0.245418  1
  Br  Br24  1  0.472243  0.815838  0.262516  1
  Br  Br25  1  0.527757  0.315838  0.237484  1
  Br  Br26  1  0.527757  0.184162  0.737484  1
  Br  Br27  1  0.472243  0.684162  0.762516  1
  Br  Br28  1  0.019637  0.699931  0.257008  1
  Br  Br29  1  0.980363  0.199931  0.242992  1
  Br  Br30  1  0.980363  0.300069  0.742992  1
  Br  Br31  1  0.019637  0.800069  0.757008  1
  Br  Br32  1  0.042262  0.931706  0.258520  1
  Br  Br33  1  0.957738  0.431706  0.241480  1
  Br  Br34  1  0.957738  0.068294  0.741480  1
  Br  Br35  1  0.042262  0.568294  0.758520  1
  Br  Br36  1  0.364218  0.704381  0.418286  1
  Br  Br37  1  0.635782  0.204381  0.081714  1
  Br  Br38  1  0.635782  0.295619  0.581714  1
  Br  Br39  1  0.364218  0.795619  0.918286  1
  Br  Br40  1  0.946225  0.813763  0.418568  1
  Br  Br41  1  0.053775  0.313763  0.081432  1
  Br  Br42  1  0.053775  0.186237  0.581432  1
  Br  Br43  1  0.946225  0.686237  0.918568  1
  Br  Br44  1  0.361590  0.918234  0.423907  1
  Br  Br45  1  0.638410  0.418234  0.076093  1
  Br  Br46  1  0.638410  0.081766  0.576093  1
  Br  Br47  1  0.361590  0.581766  0.923907  1
  Br  Br48  1  0.117217  0.688176  0.570758  1
  Br  Br49  1  0.882783  0.188176  0.929242  1
  Br  Br50  1  0.882783  0.311824  0.429242  1
  Br  Br51  1  0.117217  0.811824  0.070758  1
  Br  Br52  1  0.119154  0.920835  0.584123  1
  Br  Br53  1  0.880846  0.420835  0.915877  1
  Br  Br54  1  0.880846  0.079165  0.415877  1
  Br  Br55  1  0.119154  0.579165  0.084123  1
  Br  Br56  1  0.568868  0.807249  0.585091  1
  Br  Br57  1  0.431132  0.307249  0.914909  1
  Br  Br58  1  0.431132  0.192751  0.414909  1
  Br  Br59  1  0.568868  0.692751  0.085091  1
