# generated using pymatgen
data_K2ZnBr4
_symmetry_space_group_name_H-M   'P 1'
_cell_length_a   7.36381138
_cell_length_b   7.63347928
_cell_length_c   9.32637323
_cell_angle_alpha   90.00000000
_cell_angle_beta   108.87065674
_cell_angle_gamma   90.00000000
_symmetry_Int_Tables_number   1
_chemical_formula_structural   K2ZnBr4
_chemical_formula_sum   'K4 Zn2 Br8'
_cell_volume   496.07162546
_cell_formula_units_Z   2
loop_
 _symmetry_equiv_pos_site_id
 _symmetry_equiv_pos_as_xyz
  1  'x, y, z'
loop_
 _atom_site_type_symbol
 _atom_site_label
 _atom_site_symmetry_multiplicity
 _atom_site_fract_x
 _atom_site_fract_y
 _atom_site_fract_z
 _atom_site_occupancy
  K  K0  1  0.221427  0.750000  0.425915  1
  K  K1  1  0.778573  0.250000  0.574085  1
  K  K2  1  0.294340  0.750000  0.955353  1
  K  K3  1  0.705660  0.250000  0.044647  1
  Zn  Zn4  1  0.718053  0.750000  0.793869  1
  Zn  Zn5  1  0.281947  0.250000  0.206131  1
  Br  Br6  1  0.893122  0.750000  0.064793  1
  Br  Br7  1  0.106878  0.250000  0.935207  1
  Br  Br8  1  0.925222  0.750000  0.637208  1
  Br  Br9  1  0.074778  0.250000  0.362792  1
  Br  Br10  1  0.499759  0.000790  0.733601  1
  Br  Br11  1  0.500241  0.500790  0.266399  1
  Br  Br12  1  0.500241  0.999210  0.266399  1
  Br  Br13  1  0.499759  0.499210  0.733601  1
