# generated using pymatgen
data_Mn(GaSe2)2
_symmetry_space_group_name_H-M   'P 1'
_cell_length_a   6.81400587
_cell_length_b   6.81400587
_cell_length_c   6.81400587
_cell_angle_alpha   130.40090519
_cell_angle_beta   130.40090519
_cell_angle_gamma   72.76666031
_symmetry_Int_Tables_number   1
_chemical_formula_structural   Mn(GaSe2)2
_chemical_formula_sum   'Mn1 Ga2 Se4'
_cell_volume   179.24583417
_cell_formula_units_Z   1
loop_
 _symmetry_equiv_pos_site_id
 _symmetry_equiv_pos_as_xyz
  1  'x, y, z'
loop_
 _atom_site_type_symbol
 _atom_site_label
 _atom_site_symmetry_multiplicity
 _atom_site_fract_x
 _atom_site_fract_y
 _atom_site_fract_z
 _atom_site_occupancy
  Mn  Mn0  1  0.000000  0.000000  0.000000  1
  Ga  Ga1  1  0.500000  0.500000  0.000000  1
  Ga  Ga2  1  0.250000  0.750000  0.500000  1
  Se  Se3  1  0.400393  0.886889  0.019392  1
  Se  Se4  1  0.113111  0.132504  0.513504  1
  Se  Se5  1  0.618999  0.599607  0.486496  1
  Se  Se6  1  0.867496  0.381001  0.980608  1
