# generated using pymatgen
data_CsAlCl4
_symmetry_space_group_name_H-M   'P 1'
_cell_length_a   7.31213851
_cell_length_b   9.67774812
_cell_length_c   11.94691917
_cell_angle_alpha   90.00000000
_cell_angle_beta   90.00000000
_cell_angle_gamma   90.00000000
_symmetry_Int_Tables_number   1
_chemical_formula_structural   CsAlCl4
_chemical_formula_sum   'Cs4 Al4 Cl16'
_cell_volume   845.42414984
_cell_formula_units_Z   4
loop_
 _symmetry_equiv_pos_site_id
 _symmetry_equiv_pos_as_xyz
  1  'x, y, z'
loop_
 _atom_site_type_symbol
 _atom_site_label
 _atom_site_symmetry_multiplicity
 _atom_site_fract_x
 _atom_site_fract_y
 _atom_site_fract_z
 _atom_site_occupancy
  Cs  Cs0  1  0.250000  0.165264  0.679743  1
  Cs  Cs1  1  0.750000  0.834736  0.320257  1
  Cs  Cs2  1  0.750000  0.665264  0.820257  1
  Cs  Cs3  1  0.250000  0.334736  0.179743  1
  Al  Al4  1  0.250000  0.694288  0.571804  1
  Al  Al5  1  0.750000  0.305712  0.428196  1
  Al  Al6  1  0.750000  0.194288  0.928196  1
  Al  Al7  1  0.250000  0.805712  0.071804  1
  Cl  Cl8  1  0.250000  0.551130  0.710063  1
  Cl  Cl9  1  0.750000  0.448870  0.289937  1
  Cl  Cl10  1  0.750000  0.051130  0.789937  1
  Cl  Cl11  1  0.250000  0.948870  0.210063  1
  Cl  Cl12  1  0.250000  0.591607  0.412482  1
  Cl  Cl13  1  0.750000  0.408393  0.587518  1
  Cl  Cl14  1  0.750000  0.091607  0.087518  1
  Cl  Cl15  1  0.250000  0.908393  0.912482  1
  Cl  Cl16  1  0.011003  0.825791  0.585232  1
  Cl  Cl17  1  0.511003  0.174209  0.414768  1
  Cl  Cl18  1  0.988997  0.325791  0.914768  1
  Cl  Cl19  1  0.488997  0.674209  0.085232  1
  Cl  Cl20  1  0.988997  0.174209  0.414768  1
  Cl  Cl21  1  0.488997  0.825791  0.585232  1
  Cl  Cl22  1  0.011003  0.674209  0.085232  1
  Cl  Cl23  1  0.511003  0.325791  0.914768  1
