# generated using pymatgen
data_AlTl2F5
_symmetry_space_group_name_H-M   'P 1'
_cell_length_a   6.36514228
_cell_length_b   6.36514228
_cell_length_c   7.59224798
_cell_angle_alpha   90.00000000
_cell_angle_beta   90.00000000
_cell_angle_gamma   90.47180360
_symmetry_Int_Tables_number   1
_chemical_formula_structural   AlTl2F5
_chemical_formula_sum   'Al2 Tl4 F10'
_cell_volume   307.58977311
_cell_formula_units_Z   2
loop_
 _symmetry_equiv_pos_site_id
 _symmetry_equiv_pos_as_xyz
  1  'x, y, z'
loop_
 _atom_site_type_symbol
 _atom_site_label
 _atom_site_symmetry_multiplicity
 _atom_site_fract_x
 _atom_site_fract_y
 _atom_site_fract_z
 _atom_site_occupancy
  Al  Al0  1  0.000000  0.000000  0.500000  1
  Al  Al1  1  0.000000  0.000000  0.000000  1
  Tl  Tl2  1  0.031831  0.490250  0.750000  1
  Tl  Tl3  1  0.968169  0.509750  0.250000  1
  Tl  Tl4  1  0.509750  0.968169  0.750000  1
  Tl  Tl5  1  0.490250  0.031831  0.250000  1
  F  F6  1  0.200494  0.799506  0.488330  1
  F  F7  1  0.202572  0.202572  1.000000  1
  F  F8  1  0.009942  0.990058  0.750000  1
  F  F9  1  0.797428  0.797428  0.000000  1
  F  F10  1  0.797428  0.797428  0.500000  1
  F  F11  1  0.202572  0.202572  0.500000  1
  F  F12  1  0.799506  0.200494  0.511670  1
  F  F13  1  0.200494  0.799506  0.011670  1
  F  F14  1  0.799506  0.200494  0.988330  1
  F  F15  1  0.990058  0.009942  0.250000  1
