# generated using pymatgen
data_V2P4PbO14
_symmetry_space_group_name_H-M   'P 1'
_cell_length_a   4.89062785
_cell_length_b   7.21923212
_cell_length_c   8.06653565
_cell_angle_alpha   89.60520073
_cell_angle_beta   92.84869818
_cell_angle_gamma   106.26741088
_symmetry_Int_Tables_number   1
_chemical_formula_structural   V2P4PbO14
_chemical_formula_sum   'V2 P4 Pb1 O14'
_cell_volume   273.05447059
_cell_formula_units_Z   1
loop_
 _symmetry_equiv_pos_site_id
 _symmetry_equiv_pos_as_xyz
  1  'x, y, z'
loop_
 _atom_site_type_symbol
 _atom_site_label
 _atom_site_symmetry_multiplicity
 _atom_site_fract_x
 _atom_site_fract_y
 _atom_site_fract_z
 _atom_site_occupancy
  V  V0  1  0.500000  0.500000  0.500000  1
  V  V1  1  0.000000  0.000000  0.000000  1
  P  P2  1  0.023367  0.615056  0.251911  1
  P  P3  1  0.976633  0.384944  0.748089  1
  P  P4  1  0.616907  0.227284  0.204365  1
  P  P5  1  0.383093  0.772716  0.795635  1
  Pb  Pb6  1  0.000000  0.000000  0.500000  1
  O  O7  1  0.799642  0.442159  0.151313  1
  O  O8  1  0.200358  0.557841  0.848687  1
  O  O9  1  0.519775  0.239844  0.383542  1
  O  O10  1  0.480225  0.760156  0.616458  1
  O  O11  1  0.290620  0.553625  0.296457  1
  O  O12  1  0.709380  0.446375  0.703543  1
  O  O13  1  0.872105  0.650160  0.409836  1
  O  O14  1  0.181873  0.904216  0.793832  1
  O  O15  1  0.818127  0.095784  0.206168  1
  O  O16  1  0.915467  0.206126  0.853305  1
  O  O17  1  0.084533  0.793874  0.146695  1
  O  O18  1  0.621401  0.825540  0.928288  1
  O  O19  1  0.378599  0.174460  0.071712  1
  O  O20  1  0.127895  0.349840  0.590164  1
