# generated using pymatgen
data_H7NF4
_symmetry_space_group_name_H-M   'P 1'
_cell_length_a   6.13382926
_cell_length_b   6.13382926
_cell_length_c   6.13382926
_cell_angle_alpha   77.90147302
_cell_angle_beta   77.90147302
_cell_angle_gamma   77.90147302
_symmetry_Int_Tables_number   1
_chemical_formula_structural   H7NF4
_chemical_formula_sum   'H14 N2 F8'
_cell_volume   217.30283033
_cell_formula_units_Z   2
loop_
 _symmetry_equiv_pos_site_id
 _symmetry_equiv_pos_as_xyz
  1  'x, y, z'
loop_
 _atom_site_type_symbol
 _atom_site_label
 _atom_site_symmetry_multiplicity
 _atom_site_fract_x
 _atom_site_fract_y
 _atom_site_fract_z
 _atom_site_occupancy
  H  H0  1  0.418170  0.418170  0.418170  1
  H  H1  1  0.918170  0.918170  0.918170  1
  H  H2  1  0.407518  0.510510  0.660496  1
  H  H3  1  0.510510  0.660496  0.407518  1
  H  H4  1  0.660496  0.407518  0.510510  1
  H  H5  1  0.160496  0.010510  0.907518  1
  H  H6  1  0.010510  0.907518  0.160496  1
  H  H7  1  0.907518  0.160496  0.010510  1
  H  H8  1  0.066389  0.251867  0.430794  1
  H  H9  1  0.251867  0.430794  0.066389  1
  H  H10  1  0.566389  0.930794  0.751867  1
  H  H11  1  0.751867  0.566389  0.930794  1
  H  H12  1  0.930794  0.751867  0.566389  1
  H  H13  1  0.430794  0.066389  0.251867  1
  N  N14  1  0.499663  0.499663  0.499663  1
  N  N15  1  0.999663  0.999663  0.999663  1
  F  F16  1  0.928855  0.239938  0.550212  1
  F  F17  1  0.239938  0.550212  0.928855  1
  F  F18  1  0.550212  0.928855  0.239938  1
  F  F19  1  0.050212  0.739938  0.428855  1
  F  F20  1  0.739938  0.428855  0.050212  1
  F  F21  1  0.428855  0.050212  0.739938  1
  F  F22  1  0.265088  0.265088  0.265088  1
  F  F23  1  0.765088  0.765088  0.765088  1
