# generated using pymatgen
data_Li2MnPO4F
_symmetry_space_group_name_H-M   'P 1'
_cell_length_a   5.44126456
_cell_length_b   5.44815386
_cell_length_c   7.55912816
_cell_angle_alpha   107.89254076
_cell_angle_beta   107.79538536
_cell_angle_gamma   94.46916597
_symmetry_Int_Tables_number   1
_chemical_formula_structural   Li2MnPO4F
_chemical_formula_sum   'Li4 Mn2 P2 O8 F2'
_cell_volume   199.36384973
_cell_formula_units_Z   2
loop_
 _symmetry_equiv_pos_site_id
 _symmetry_equiv_pos_as_xyz
  1  'x, y, z'
loop_
 _atom_site_type_symbol
 _atom_site_label
 _atom_site_symmetry_multiplicity
 _atom_site_fract_x
 _atom_site_fract_y
 _atom_site_fract_z
 _atom_site_occupancy
  Li  Li0  1  0.184946  0.550493  0.131688  1
  Li  Li1  1  0.511067  0.154221  0.857509  1
  Li  Li2  1  0.485674  0.963154  0.477997  1
  Li  Li3  1  0.777081  0.452699  0.712416  1
  Mn  Mn4  1  0.009044  0.997843  0.015674  1
  Mn  Mn5  1  0.986129  0.995555  0.500337  1
  P  P6  1  0.659671  0.378142  0.259329  1
  P  P7  1  0.344314  0.625504  0.768135  1
  O  O8  1  0.714242  0.248150  0.421036  1
  O  O9  1  0.275978  0.796503  0.634757  1
  O  O10  1  0.326029  0.327875  0.655192  1
  O  O11  1  0.147636  0.646736  0.883460  1
  O  O12  1  0.865462  0.337714  0.153129  1
  O  O13  1  0.636320  0.728774  0.902853  1
  O  O14  1  0.656569  0.672963  0.356471  1
  O  O15  1  0.383193  0.252460  0.092733  1
  F  F16  1  0.810256  0.109089  0.744479  1
  F  F17  1  0.154270  0.893758  0.274214  1
