# generated using pymatgen
data_TcO2F3
_symmetry_space_group_name_H-M   'P 1'
_cell_length_a   8.07179281
_cell_length_b   8.11233247
_cell_length_c   11.96838530
_cell_angle_alpha   88.69128975
_cell_angle_beta   89.72795501
_cell_angle_gamma   85.09835112
_symmetry_Int_Tables_number   1
_chemical_formula_structural   TcO2F3
_chemical_formula_sum   'Tc8 O16 F24'
_cell_volume   780.62975239
_cell_formula_units_Z   8
loop_
 _symmetry_equiv_pos_site_id
 _symmetry_equiv_pos_as_xyz
  1  'x, y, z'
loop_
 _atom_site_type_symbol
 _atom_site_label
 _atom_site_symmetry_multiplicity
 _atom_site_fract_x
 _atom_site_fract_y
 _atom_site_fract_z
 _atom_site_occupancy
  Tc  Tc0  1  0.468595  0.273591  0.585333  1
  Tc  Tc1  1  0.531405  0.726409  0.414667  1
  Tc  Tc2  1  0.086276  0.248728  0.370085  1
  Tc  Tc3  1  0.913724  0.751272  0.629915  1
  Tc  Tc4  1  0.446293  0.247459  0.121111  1
  Tc  Tc5  1  0.553707  0.752541  0.878889  1
  Tc  Tc6  1  0.049950  0.215155  0.905639  1
  Tc  Tc7  1  0.950050  0.784845  0.094361  1
  O  O8  1  0.405664  0.783665  0.978068  1
  O  O9  1  0.019791  0.220041  0.502660  1
  O  O10  1  0.576006  0.335246  0.695470  1
  O  O11  1  0.980209  0.779959  0.497340  1
  O  O12  1  0.908494  0.261164  0.295571  1
  O  O13  1  0.091506  0.738836  0.704429  1
  O  O14  1  0.582124  0.915789  0.372840  1
  O  O15  1  0.133240  0.786486  0.161380  1
  O  O16  1  0.866760  0.213514  0.838620  1
  O  O17  1  0.866780  0.619177  0.152766  1
  O  O18  1  0.133220  0.380823  0.847234  1
  O  O19  1  0.552730  0.315243  0.229538  1
  O  O20  1  0.447270  0.684757  0.770462  1
  O  O21  1  0.423994  0.664754  0.304530  1
  O  O22  1  0.417876  0.084211  0.627160  1
  O  O23  1  0.594336  0.216335  0.021932  1
  F  F24  1  0.436929  0.028164  0.168284  1
  F  F25  1  0.647590  0.546298  0.931214  1
  F  F26  1  0.352410  0.453702  0.068786  1
  F  F27  1  0.000000  0.000000  0.000000  1
  F  F28  1  0.563071  0.971836  0.831716  1
  F  F29  1  0.266311  0.170524  0.008289  1
  F  F30  1  0.733689  0.829476  0.991711  1
  F  F31  1  0.775020  0.725122  0.778490  1
  F  F32  1  0.224980  0.274878  0.221510  1
  F  F33  1  0.968912  0.314403  0.036279  1
  F  F34  1  0.265413  0.391084  0.619426  1
  F  F35  1  0.843714  0.973063  0.655772  1
  F  F36  1  0.156286  0.026937  0.344228  1
  F  F37  1  0.888698  0.524691  0.625482  1
  F  F38  1  0.111302  0.475309  0.374518  1
  F  F39  1  0.031088  0.685597  0.963721  1
  F  F40  1  0.170728  0.052630  0.822497  1
  F  F41  1  0.829272  0.947370  0.177503  1
  F  F42  1  0.500000  0.500000  0.500000  1
  F  F43  1  0.663833  0.757165  0.566923  1
  F  F44  1  0.336167  0.242835  0.433077  1
  F  F45  1  0.734587  0.608916  0.380574  1
  F  F46  1  0.646634  0.208089  0.492334  1
  F  F47  1  0.353366  0.791911  0.507666  1
