# generated using pymatgen
data_Li4P2O7
_symmetry_space_group_name_H-M   'P 1'
_cell_length_a   5.26054234
_cell_length_b   7.21548052
_cell_length_c   8.66200639
_cell_angle_alpha   102.67261846
_cell_angle_beta   89.98018421
_cell_angle_gamma   111.11651542
_symmetry_Int_Tables_number   1
_chemical_formula_structural   Li4P2O7
_chemical_formula_sum   'Li8 P4 O14'
_cell_volume   298.11649267
_cell_formula_units_Z   2
loop_
 _symmetry_equiv_pos_site_id
 _symmetry_equiv_pos_as_xyz
  1  'x, y, z'
loop_
 _atom_site_type_symbol
 _atom_site_label
 _atom_site_symmetry_multiplicity
 _atom_site_fract_x
 _atom_site_fract_y
 _atom_site_fract_z
 _atom_site_occupancy
  Li  Li0  1  0.255537  0.144977  0.012029  1
  Li  Li1  1  0.744463  0.855023  0.987971  1
  Li  Li2  1  0.604323  0.588727  0.248347  1
  Li  Li3  1  0.395677  0.411273  0.751653  1
  Li  Li4  1  0.972231  0.327738  0.208724  1
  Li  Li5  1  0.027769  0.672262  0.791276  1
  Li  Li6  1  0.943048  0.241886  0.549204  1
  Li  Li7  1  0.056952  0.758114  0.450796  1
  P  P8  1  0.426010  0.213298  0.368044  1
  P  P9  1  0.573990  0.786702  0.631956  1
  P  P10  1  0.215728  0.779241  0.154498  1
  P  P11  1  0.784272  0.220759  0.845502  1
  O  O12  1  0.480088  0.741759  0.125660  1
  O  O13  1  0.993870  0.605720  0.209316  1
  O  O14  1  0.006130  0.394280  0.790684  1
  O  O15  1  0.117089  0.848591  0.018024  1
  O  O16  1  0.267439  0.743350  0.623545  1
  O  O17  1  0.732561  0.256650  0.376455  1
  O  O18  1  0.685156  0.732189  0.473810  1
  O  O19  1  0.314844  0.267811  0.526190  1
  O  O20  1  0.661778  0.702403  0.763496  1
  O  O21  1  0.338222  0.297597  0.236504  1
  O  O22  1  0.266931  0.962384  0.316106  1
  O  O23  1  0.733069  0.037616  0.683894  1
  O  O24  1  0.882911  0.151409  0.981976  1
  O  O25  1  0.519912  0.258241  0.874340  1
