# generated using pymatgen
data_LiAlCl4
_symmetry_space_group_name_H-M   'P 1'
_cell_length_a   7.05592694
_cell_length_b   6.87493402
_cell_length_c   13.16839486
_cell_angle_alpha   90.00000000
_cell_angle_beta   92.61745310
_cell_angle_gamma   90.00000000
_symmetry_Int_Tables_number   1
_chemical_formula_structural   LiAlCl4
_chemical_formula_sum   'Li4 Al4 Cl16'
_cell_volume   638.11964714
_cell_formula_units_Z   4
loop_
 _symmetry_equiv_pos_site_id
 _symmetry_equiv_pos_as_xyz
  1  'x, y, z'
loop_
 _atom_site_type_symbol
 _atom_site_label
 _atom_site_symmetry_multiplicity
 _atom_site_fract_x
 _atom_site_fract_y
 _atom_site_fract_z
 _atom_site_occupancy
  Li  Li0  1  0.154346  0.020086  0.368009  1
  Li  Li1  1  0.845654  0.520086  0.131991  1
  Li  Li2  1  0.845654  0.979914  0.631991  1
  Li  Li3  1  0.154346  0.479914  0.868009  1
  Al  Al4  1  0.706818  0.674764  0.898708  1
  Al  Al5  1  0.293182  0.174764  0.601292  1
  Al  Al6  1  0.293182  0.325236  0.101292  1
  Al  Al7  1  0.706818  0.825236  0.398708  1
  Cl  Cl8  1  0.696001  0.806909  0.046522  1
  Cl  Cl9  1  0.303999  0.306909  0.453478  1
  Cl  Cl10  1  0.303999  0.193091  0.953478  1
  Cl  Cl11  1  0.696001  0.693091  0.546522  1
  Cl  Cl12  1  0.814530  0.382238  0.927018  1
  Cl  Cl13  1  0.185470  0.882238  0.572982  1
  Cl  Cl14  1  0.185470  0.617762  0.072982  1
  Cl  Cl15  1  0.814530  0.117762  0.427018  1
  Cl  Cl16  1  0.923360  0.811801  0.810443  1
  Cl  Cl17  1  0.076640  0.311801  0.689557  1
  Cl  Cl18  1  0.076640  0.188199  0.189557  1
  Cl  Cl19  1  0.923360  0.688199  0.310443  1
  Cl  Cl20  1  0.436747  0.677151  0.816762  1
  Cl  Cl21  1  0.563253  0.177151  0.683238  1
  Cl  Cl22  1  0.563253  0.322849  0.183238  1
  Cl  Cl23  1  0.436747  0.822849  0.316762  1
