# generated using pymatgen
data_Cd(W3Br7)2
_symmetry_space_group_name_H-M   'P 1'
_cell_length_a   13.70908228
_cell_length_b   13.70908228
_cell_length_c   13.70908228
_cell_angle_alpha   90.00000000
_cell_angle_beta   90.00000000
_cell_angle_gamma   90.00000000
_symmetry_Int_Tables_number   1
_chemical_formula_structural   Cd(W3Br7)2
_chemical_formula_sum   'Cd4 W24 Br56'
_cell_volume   2576.47035040
_cell_formula_units_Z   4
loop_
 _symmetry_equiv_pos_site_id
 _symmetry_equiv_pos_as_xyz
  1  'x, y, z'
loop_
 _atom_site_type_symbol
 _atom_site_label
 _atom_site_symmetry_multiplicity
 _atom_site_fract_x
 _atom_site_fract_y
 _atom_site_fract_z
 _atom_site_occupancy
  Cd  Cd0  1  0.750000  0.750000  0.750000  1
  Cd  Cd1  1  0.250000  0.250000  0.750000  1
  Cd  Cd2  1  0.750000  0.250000  0.250000  1
  Cd  Cd3  1  0.250000  0.750000  0.250000  1
  W  W4  1  0.273485  0.881910  0.778759  1
  W  W5  1  0.778759  0.273485  0.881910  1
  W  W6  1  0.881910  0.778759  0.273485  1
  W  W7  1  0.118090  0.221241  0.273485  1
  W  W8  1  0.778759  0.726515  0.118090  1
  W  W9  1  0.118090  0.778759  0.726515  1
  W  W10  1  0.221241  0.726515  0.881910  1
  W  W11  1  0.221241  0.273485  0.118090  1
  W  W12  1  0.881910  0.221241  0.726515  1
  W  W13  1  0.273485  0.118090  0.221241  1
  W  W14  1  0.726515  0.881910  0.221241  1
  W  W15  1  0.726515  0.118090  0.778759  1
  W  W16  1  0.226515  0.618090  0.721241  1
  W  W17  1  0.721241  0.226515  0.618090  1
  W  W18  1  0.618090  0.721241  0.226515  1
  W  W19  1  0.381910  0.278759  0.226515  1
  W  W20  1  0.721241  0.773485  0.381910  1
  W  W21  1  0.381910  0.721241  0.773485  1
  W  W22  1  0.278759  0.773485  0.618090  1
  W  W23  1  0.278759  0.226515  0.381910  1
  W  W24  1  0.618090  0.278759  0.773485  1
  W  W25  1  0.226515  0.381910  0.278759  1
  W  W26  1  0.773485  0.618090  0.278759  1
  W  W27  1  0.773485  0.381910  0.721241  1
  Br  Br28  1  0.171462  0.933577  0.623951  1
  Br  Br29  1  0.623951  0.171462  0.933577  1
  Br  Br30  1  0.933577  0.623951  0.171462  1
  Br  Br31  1  0.066423  0.376049  0.171462  1
  Br  Br32  1  0.623951  0.828538  0.066423  1
  Br  Br33  1  0.066423  0.623951  0.828538  1
  Br  Br34  1  0.376049  0.828538  0.933577  1
  Br  Br35  1  0.376049  0.171462  0.066423  1
  Br  Br36  1  0.933577  0.376049  0.828538  1
  Br  Br37  1  0.171462  0.066423  0.376049  1
  Br  Br38  1  0.828538  0.933577  0.376049  1
  Br  Br39  1  0.828538  0.066423  0.623951  1
  Br  Br40  1  0.328538  0.566423  0.876049  1
  Br  Br41  1  0.876049  0.328538  0.566423  1
  Br  Br42  1  0.566423  0.876049  0.328538  1
  Br  Br43  1  0.433577  0.123951  0.328538  1
  Br  Br44  1  0.876049  0.671462  0.433577  1
  Br  Br45  1  0.433577  0.876049  0.671462  1
  Br  Br46  1  0.123951  0.671462  0.566423  1
  Br  Br47  1  0.123951  0.328538  0.433577  1
  Br  Br48  1  0.566423  0.123951  0.671462  1
  Br  Br49  1  0.328538  0.433577  0.123951  1
  Br  Br50  1  0.671462  0.566423  0.123951  1
  Br  Br51  1  0.671462  0.433577  0.876049  1
  Br  Br52  1  0.566131  0.674342  0.812068  1
  Br  Br53  1  0.812068  0.566131  0.674342  1
  Br  Br54  1  0.674342  0.812068  0.566131  1
  Br  Br55  1  0.325658  0.187932  0.566131  1
  Br  Br56  1  0.812068  0.433869  0.325658  1
  Br  Br57  1  0.325658  0.812068  0.433869  1
  Br  Br58  1  0.187932  0.433869  0.674342  1
  Br  Br59  1  0.187932  0.566131  0.325658  1
  Br  Br60  1  0.674342  0.187932  0.433869  1
  Br  Br61  1  0.566131  0.325658  0.187932  1
  Br  Br62  1  0.433869  0.674342  0.187932  1
  Br  Br63  1  0.433869  0.325658  0.812068  1
  Br  Br64  1  0.933869  0.825658  0.687932  1
  Br  Br65  1  0.687932  0.933869  0.825658  1
  Br  Br66  1  0.825658  0.687932  0.933869  1
  Br  Br67  1  0.174342  0.312068  0.933869  1
  Br  Br68  1  0.687932  0.066131  0.174342  1
  Br  Br69  1  0.174342  0.687932  0.066131  1
  Br  Br70  1  0.312068  0.066131  0.825658  1
  Br  Br71  1  0.312068  0.933869  0.174342  1
  Br  Br72  1  0.825658  0.312068  0.066131  1
  Br  Br73  1  0.933869  0.174342  0.312068  1
  Br  Br74  1  0.066131  0.825658  0.312068  1
  Br  Br75  1  0.066131  0.174342  0.687932  1
  Br  Br76  1  0.387037  0.387037  0.387037  1
  Br  Br77  1  0.612963  0.612963  0.387037  1
  Br  Br78  1  0.387037  0.612963  0.612963  1
  Br  Br79  1  0.612963  0.387037  0.612963  1
  Br  Br80  1  0.112963  0.112963  0.112963  1
  Br  Br81  1  0.887037  0.887037  0.112963  1
  Br  Br82  1  0.112963  0.887037  0.887037  1
  Br  Br83  1  0.887037  0.112963  0.887037  1
