# generated using pymatgen
data_KMnPH2O5
_symmetry_space_group_name_H-M   'P 1'
_cell_length_a   4.92579078
_cell_length_b   5.76213043
_cell_length_c   8.49265752
_cell_angle_alpha   90.00000000
_cell_angle_beta   90.00000000
_cell_angle_gamma   90.00000000
_symmetry_Int_Tables_number   1
_chemical_formula_structural   KMnPH2O5
_chemical_formula_sum   'K2 Mn2 P2 H4 O10'
_cell_volume   241.04751407
_cell_formula_units_Z   2
loop_
 _symmetry_equiv_pos_site_id
 _symmetry_equiv_pos_as_xyz
  1  'x, y, z'
loop_
 _atom_site_type_symbol
 _atom_site_label
 _atom_site_symmetry_multiplicity
 _atom_site_fract_x
 _atom_site_fract_y
 _atom_site_fract_z
 _atom_site_occupancy
  K  K0  1  0.624320  0.000000  0.464187  1
  K  K1  1  0.124320  0.500000  0.535813  1
  Mn  Mn2  1  0.517802  0.000000  0.019044  1
  Mn  Mn3  1  0.017802  0.500000  0.980956  1
  P  P4  1  0.083139  0.000000  0.782679  1
  P  P5  1  0.583139  0.500000  0.217321  1
  H  H6  1  0.076890  0.136353  0.203024  1
  H  H7  1  0.576890  0.363647  0.796976  1
  H  H8  1  0.076890  0.863647  0.203024  1
  H  H9  1  0.576890  0.636353  0.796976  1
  O  O10  1  0.196277  0.000000  0.216694  1
  O  O11  1  0.696277  0.500000  0.783306  1
  O  O12  1  0.275611  0.500000  0.182065  1
  O  O13  1  0.775611  0.000000  0.817935  1
  O  O14  1  0.633957  0.500000  0.395402  1
  O  O15  1  0.133957  0.000000  0.604598  1
  O  O16  1  0.724057  0.716503  0.135852  1
  O  O17  1  0.224057  0.783497  0.864148  1
  O  O18  1  0.724057  0.283497  0.135852  1
  O  O19  1  0.224057  0.216503  0.864148  1
