# generated using pymatgen
data_CsSnCl3
_symmetry_space_group_name_H-M   'P 1'
_cell_length_a   5.84800315
_cell_length_b   7.91253333
_cell_length_c   17.10394582
_cell_angle_alpha   90.00000000
_cell_angle_beta   107.20284177
_cell_angle_gamma   90.00000000
_symmetry_Int_Tables_number   1
_chemical_formula_structural   CsSnCl3
_chemical_formula_sum   'Cs4 Sn4 Cl12'
_cell_volume   756.03645082
_cell_formula_units_Z   4
loop_
 _symmetry_equiv_pos_site_id
 _symmetry_equiv_pos_as_xyz
  1  'x, y, z'
loop_
 _atom_site_type_symbol
 _atom_site_label
 _atom_site_symmetry_multiplicity
 _atom_site_fract_x
 _atom_site_fract_y
 _atom_site_fract_z
 _atom_site_occupancy
  Cs  Cs0  1  0.599364  0.007226  0.347977  1
  Cs  Cs1  1  0.400636  0.507226  0.152023  1
  Cs  Cs2  1  0.400636  0.992774  0.652023  1
  Cs  Cs3  1  0.599364  0.492774  0.847977  1
  Sn  Sn4  1  0.868802  0.957432  0.113108  1
  Sn  Sn5  1  0.131198  0.457432  0.386892  1
  Sn  Sn6  1  0.131198  0.042568  0.886892  1
  Sn  Sn7  1  0.868802  0.542568  0.613108  1
  Cl  Cl8  1  0.433562  0.967269  0.124711  1
  Cl  Cl9  1  0.566438  0.467269  0.375289  1
  Cl  Cl10  1  0.566438  0.032731  0.875289  1
  Cl  Cl11  1  0.433562  0.532731  0.624711  1
  Cl  Cl12  1  0.810548  0.667018  0.045373  1
  Cl  Cl13  1  0.189452  0.167018  0.454627  1
  Cl  Cl14  1  0.189452  0.332982  0.954627  1
  Cl  Cl15  1  0.810548  0.832982  0.545373  1
  Cl  Cl16  1  0.020786  0.688859  0.753135  1
  Cl  Cl17  1  0.979214  0.188859  0.746865  1
  Cl  Cl18  1  0.979214  0.311141  0.246865  1
  Cl  Cl19  1  0.020786  0.811141  0.253135  1
