# generated using pymatgen
data_RbFeP2O7
_symmetry_space_group_name_H-M   'P 1'
_cell_length_a   7.62999487
_cell_length_b   10.15806978
_cell_length_c   8.41297248
_cell_angle_alpha   90.00000000
_cell_angle_beta   105.90862132
_cell_angle_gamma   90.00000000
_symmetry_Int_Tables_number   1
_chemical_formula_structural   RbFeP2O7
_chemical_formula_sum   'Rb4 Fe4 P8 O28'
_cell_volume   627.08232047
_cell_formula_units_Z   4
loop_
 _symmetry_equiv_pos_site_id
 _symmetry_equiv_pos_as_xyz
  1  'x, y, z'
loop_
 _atom_site_type_symbol
 _atom_site_label
 _atom_site_symmetry_multiplicity
 _atom_site_fract_x
 _atom_site_fract_y
 _atom_site_fract_z
 _atom_site_occupancy
  Rb  Rb0  1  0.186890  0.686671  0.051783  1
  Rb  Rb1  1  0.813110  0.186671  0.448217  1
  Rb  Rb2  1  0.813110  0.313329  0.948217  1
  Rb  Rb3  1  0.186890  0.813329  0.551783  1
  Fe  Fe4  1  0.238518  0.399547  0.758536  1
  Fe  Fe5  1  0.761482  0.899547  0.741464  1
  Fe  Fe6  1  0.761482  0.600453  0.241464  1
  Fe  Fe7  1  0.238518  0.100453  0.258536  1
  P  P8  1  0.130302  0.404201  0.330802  1
  P  P9  1  0.869698  0.904201  0.169198  1
  P  P10  1  0.869698  0.595799  0.669198  1
  P  P11  1  0.130302  0.095799  0.830802  1
  P  P12  1  0.431717  0.131344  0.686243  1
  P  P13  1  0.568283  0.631344  0.813757  1
  P  P14  1  0.568283  0.868656  0.313757  1
  P  P15  1  0.431717  0.368656  0.186243  1
  O  O16  1  0.442166  0.277085  0.737648  1
  O  O17  1  0.557834  0.777085  0.762352  1
  O  O18  1  0.557834  0.722915  0.262352  1
  O  O19  1  0.442166  0.222915  0.237648  1
  O  O20  1  0.991340  0.998253  0.727801  1
  O  O21  1  0.008660  0.498253  0.772199  1
  O  O22  1  0.008660  0.001747  0.272199  1
  O  O23  1  0.991340  0.501747  0.227801  1
  O  O24  1  0.321706  0.103988  0.508990  1
  O  O25  1  0.678294  0.603988  0.991010  1
  O  O26  1  0.678294  0.896012  0.491010  1
  O  O27  1  0.321706  0.396012  0.008990  1
  O  O28  1  0.151089  0.087508  0.014274  1
  O  O29  1  0.848911  0.587508  0.485726  1
  O  O30  1  0.848911  0.912492  0.985726  1
  O  O31  1  0.151089  0.412492  0.514274  1
  O  O32  1  0.325589  0.053275  0.802744  1
  O  O33  1  0.674411  0.553275  0.697256  1
  O  O34  1  0.674411  0.946725  0.197256  1
  O  O35  1  0.325589  0.446725  0.302744  1
  O  O36  1  0.085166  0.264762  0.260057  1
  O  O37  1  0.914834  0.764762  0.239943  1
  O  O38  1  0.914834  0.735238  0.739943  1
  O  O39  1  0.085166  0.235238  0.760057  1
  O  O40  1  0.623843  0.427164  0.232299  1
  O  O41  1  0.376157  0.927164  0.267701  1
  O  O42  1  0.376157  0.572836  0.767701  1
  O  O43  1  0.623843  0.072836  0.732299  1
