# generated using pymatgen
data_DySI
_symmetry_space_group_name_H-M   'P 1'
_cell_length_a   4.19540944
_cell_length_b   5.34844485
_cell_length_c   10.66682520
_cell_angle_alpha   90.00000000
_cell_angle_beta   90.00000000
_cell_angle_gamma   90.00000000
_symmetry_Int_Tables_number   1
_chemical_formula_structural   DySI
_chemical_formula_sum   'Dy2 S2 I2'
_cell_volume   239.35199479
_cell_formula_units_Z   2
loop_
 _symmetry_equiv_pos_site_id
 _symmetry_equiv_pos_as_xyz
  1  'x, y, z'
loop_
 _atom_site_type_symbol
 _atom_site_label
 _atom_site_symmetry_multiplicity
 _atom_site_fract_x
 _atom_site_fract_y
 _atom_site_fract_z
 _atom_site_occupancy
  Dy  Dy0  1  0.000000  0.000000  0.107294  1
  Dy  Dy1  1  0.500000  0.500000  0.892706  1
  S  S2  1  0.500000  0.000000  0.941856  1
  S  S3  1  0.000000  0.500000  0.058144  1
  I  I4  1  0.000000  0.500000  0.684130  1
  I  I5  1  0.500000  0.000000  0.315870  1
