# generated using pymatgen
data_Sr3Zr2O7
_symmetry_space_group_name_H-M   'P 1'
_cell_length_a   10.98071049
_cell_length_b   10.98071049
_cell_length_c   10.98071049
_cell_angle_alpha   157.99540399
_cell_angle_beta   157.99540399
_cell_angle_gamma   31.31667409
_symmetry_Int_Tables_number   1
_chemical_formula_structural   Sr3Zr2O7
_chemical_formula_sum   'Sr3 Zr2 O7'
_cell_volume   185.73942610
_cell_formula_units_Z   1
loop_
 _symmetry_equiv_pos_site_id
 _symmetry_equiv_pos_as_xyz
  1  'x, y, z'
loop_
 _atom_site_type_symbol
 _atom_site_label
 _atom_site_symmetry_multiplicity
 _atom_site_fract_x
 _atom_site_fract_y
 _atom_site_fract_z
 _atom_site_occupancy
  Sr  Sr0  1  0.500000  0.500000  0.000000  1
  Sr  Sr1  1  0.686403  0.686403  0.000000  1
  Sr  Sr2  1  0.313597  0.313597  0.000000  1
  Zr  Zr3  1  0.899598  0.899598  0.000000  1
  Zr  Zr4  1  0.100402  0.100402  0.000000  1
  O  O5  1  0.401569  0.901569  0.500000  1
  O  O6  1  0.598431  0.098431  0.500000  1
  O  O7  1  0.901569  0.401569  0.500000  1
  O  O8  1  0.098431  0.598431  0.500000  1
  O  O9  1  0.800163  0.800163  0.000000  1
  O  O10  1  0.199837  0.199837  0.000000  1
  O  O11  1  0.000000  0.000000  0.000000  1
