# generated using pymatgen
data_Si3PH9
_symmetry_space_group_name_H-M   'P 1'
_cell_length_a   6.36030507
_cell_length_b   13.15729200
_cell_length_c   10.15415537
_cell_angle_alpha   90.00000000
_cell_angle_beta   95.12295345
_cell_angle_gamma   90.00000000
_symmetry_Int_Tables_number   1
_chemical_formula_structural   Si3PH9
_chemical_formula_sum   'Si12 P4 H36'
_cell_volume   846.34989659
_cell_formula_units_Z   4
loop_
 _symmetry_equiv_pos_site_id
 _symmetry_equiv_pos_as_xyz
  1  'x, y, z'
loop_
 _atom_site_type_symbol
 _atom_site_label
 _atom_site_symmetry_multiplicity
 _atom_site_fract_x
 _atom_site_fract_y
 _atom_site_fract_z
 _atom_site_occupancy
  Si  Si0  1  0.900271  0.887240  0.667705  1
  Si  Si1  1  0.099729  0.387240  0.832295  1
  Si  Si2  1  0.099729  0.112760  0.332295  1
  Si  Si3  1  0.900271  0.612760  0.167705  1
  Si  Si4  1  0.285093  0.785435  0.875926  1
  Si  Si5  1  0.714907  0.285435  0.624074  1
  Si  Si6  1  0.714907  0.214565  0.124074  1
  Si  Si7  1  0.285093  0.714565  0.375926  1
  Si  Si8  1  0.292916  0.037628  0.799798  1
  Si  Si9  1  0.707084  0.537628  0.700202  1
  Si  Si10  1  0.707084  0.962372  0.200202  1
  Si  Si11  1  0.292916  0.462372  0.299798  1
  P  P12  1  0.257366  0.886432  0.694583  1
  P  P13  1  0.742634  0.386432  0.805417  1
  P  P14  1  0.742634  0.113568  0.305417  1
  P  P15  1  0.257366  0.613568  0.194583  1
  H  H16  1  0.829635  0.975439  0.582264  1
  H  H17  1  0.170365  0.475439  0.917736  1
  H  H18  1  0.170365  0.024561  0.417736  1
  H  H19  1  0.829635  0.524561  0.082264  1
  H  H20  1  0.829125  0.790845  0.600175  1
  H  H21  1  0.170875  0.290845  0.899825  1
  H  H22  1  0.170875  0.209155  0.399825  1
  H  H23  1  0.829125  0.709155  0.100175  1
  H  H24  1  0.803175  0.895139  0.796071  1
  H  H25  1  0.196825  0.395139  0.703929  1
  H  H26  1  0.196825  0.104861  0.203929  1
  H  H27  1  0.803175  0.604861  0.296071  1
  H  H28  1  0.204624  0.682695  0.834243  1
  H  H29  1  0.795376  0.182695  0.665757  1
  H  H30  1  0.795376  0.317305  0.165757  1
  H  H31  1  0.204624  0.817305  0.334243  1
  H  H32  1  0.150946  0.450932  0.408565  1
  H  H33  1  0.849054  0.950932  0.091435  1
  H  H34  1  0.849054  0.549068  0.591435  1
  H  H35  1  0.150946  0.049068  0.908565  1
  H  H36  1  0.244347  0.380356  0.200038  1
  H  H37  1  0.755653  0.880356  0.299962  1
  H  H38  1  0.755653  0.619644  0.799962  1
  H  H39  1  0.244347  0.119644  0.700038  1
  H  H40  1  0.516838  0.451326  0.356088  1
  H  H41  1  0.483162  0.951326  0.143912  1
  H  H42  1  0.483162  0.548674  0.643912  1
  H  H43  1  0.516838  0.048674  0.856088  1
  H  H44  1  0.161795  0.675520  0.483857  1
  H  H45  1  0.838205  0.175520  0.016143  1
  H  H46  1  0.838205  0.324480  0.516143  1
  H  H47  1  0.161795  0.824480  0.983857  1
  H  H48  1  0.512622  0.722383  0.425291  1
  H  H49  1  0.487378  0.222383  0.074709  1
  H  H50  1  0.487378  0.277617  0.574709  1
  H  H51  1  0.512622  0.777617  0.925291  1
