# generated using pymatgen
data_MgH8SO8
_symmetry_space_group_name_H-M   'P 1'
_cell_length_a   6.00944464
_cell_length_b   13.64622590
_cell_length_c   9.89398525
_cell_angle_alpha   90.00000000
_cell_angle_beta   126.69635752
_cell_angle_gamma   90.00000000
_symmetry_Int_Tables_number   1
_chemical_formula_structural   MgH8SO8
_chemical_formula_sum   'Mg4 H32 S4 O32'
_cell_volume   650.56634302
_cell_formula_units_Z   4
loop_
 _symmetry_equiv_pos_site_id
 _symmetry_equiv_pos_as_xyz
  1  'x, y, z'
loop_
 _atom_site_type_symbol
 _atom_site_label
 _atom_site_symmetry_multiplicity
 _atom_site_fract_x
 _atom_site_fract_y
 _atom_site_fract_z
 _atom_site_occupancy
  Mg  Mg0  1  0.849152  0.104243  0.777454  1
  Mg  Mg1  1  0.150848  0.604243  0.722546  1
  Mg  Mg2  1  0.150848  0.895757  0.222546  1
  Mg  Mg3  1  0.849152  0.395757  0.277454  1
  H  H4  1  0.854076  0.308130  0.773726  1
  H  H5  1  0.145924  0.808130  0.726274  1
  H  H6  1  0.145924  0.691870  0.226274  1
  H  H7  1  0.854076  0.191870  0.273726  1
  H  H8  1  0.042714  0.234746  0.223270  1
  H  H9  1  0.957286  0.734746  0.276730  1
  H  H10  1  0.957286  0.765254  0.776730  1
  H  H11  1  0.042714  0.265254  0.723270  1
  H  H12  1  0.633000  0.598620  0.055575  1
  H  H13  1  0.367000  0.098620  0.444425  1
  H  H14  1  0.341821  0.314584  0.042656  1
  H  H15  1  0.658179  0.814584  0.457344  1
  H  H16  1  0.658179  0.685416  0.957344  1
  H  H17  1  0.341821  0.185416  0.542656  1
  H  H18  1  0.635773  0.406860  0.458000  1
  H  H19  1  0.364227  0.906860  0.042000  1
  H  H20  1  0.364227  0.593140  0.542000  1
  H  H21  1  0.635773  0.093140  0.958000  1
  H  H22  1  0.536135  0.309113  0.349436  1
  H  H23  1  0.463865  0.809113  0.150564  1
  H  H24  1  0.463865  0.690887  0.650564  1
  H  H25  1  0.536135  0.190887  0.849436  1
  H  H26  1  0.131469  0.480259  0.172477  1
  H  H27  1  0.868531  0.980259  0.327523  1
  H  H28  1  0.868531  0.519741  0.827523  1
  H  H29  1  0.131469  0.019741  0.672477  1
  H  H30  1  0.890242  0.415810  0.019001  1
  H  H31  1  0.109758  0.915810  0.480999  1
  H  H32  1  0.109758  0.584190  0.980999  1
  H  H33  1  0.890242  0.084190  0.519001  1
  H  H34  1  0.367000  0.401380  0.944425  1
  H  H35  1  0.633000  0.901380  0.555575  1
  S  S36  1  0.373338  0.107733  0.178155  1
  S  S37  1  0.626662  0.607733  0.321845  1
  S  S38  1  0.626662  0.892267  0.821845  1
  S  S39  1  0.373338  0.392267  0.678155  1
  O  O40  1  0.450475  0.127483  0.556855  1
  O  O41  1  0.549525  0.627483  0.943145  1
  O  O42  1  0.549525  0.872517  0.443145  1
  O  O43  1  0.450475  0.372517  0.056855  1
  O  O44  1  0.311787  0.857295  0.089413  1
  O  O45  1  0.039134  0.749921  0.717566  1
  O  O46  1  0.039134  0.750079  0.217566  1
  O  O47  1  0.960866  0.250079  0.282434  1
  O  O48  1  0.311787  0.642705  0.589413  1
  O  O49  1  0.688213  0.142705  0.910587  1
  O  O50  1  0.002559  0.425117  0.142078  1
  O  O51  1  0.997441  0.925117  0.357922  1
  O  O52  1  0.997441  0.574883  0.857922  1
  O  O53  1  0.002559  0.074883  0.642078  1
  O  O54  1  0.315712  0.287607  0.686288  1
  O  O55  1  0.684288  0.787607  0.813712  1
  O  O56  1  0.684288  0.712393  0.313712  1
  O  O57  1  0.315712  0.212393  0.186288  1
  O  O58  1  0.682492  0.407888  0.784191  1
  O  O59  1  0.317508  0.907888  0.715809  1
  O  O60  1  0.317508  0.592112  0.215809  1
  O  O61  1  0.682492  0.092112  0.284191  1
  O  O62  1  0.250954  0.423399  0.502331  1
  O  O63  1  0.749046  0.923399  0.997669  1
  O  O64  1  0.749046  0.576601  0.497669  1
  O  O65  1  0.250954  0.076601  0.002331  1
  O  O66  1  0.255002  0.453596  0.746856  1
  O  O67  1  0.744998  0.953596  0.753144  1
  O  O68  1  0.744998  0.546404  0.253144  1
  O  O69  1  0.255002  0.046404  0.246856  1
  O  O70  1  0.688213  0.357295  0.410587  1
  O  O71  1  0.960866  0.249921  0.782434  1
