# generated using pymatgen
data_MgPb2WO6
_symmetry_space_group_name_H-M   'P 1'
_cell_length_a   5.71706237
_cell_length_b   5.71706237
_cell_length_c   5.71706237
_cell_angle_alpha   60.00000000
_cell_angle_beta   60.00000000
_cell_angle_gamma   60.00000000
_symmetry_Int_Tables_number   1
_chemical_formula_structural   MgPb2WO6
_chemical_formula_sum   'Mg1 Pb2 W1 O6'
_cell_volume   132.13071715
_cell_formula_units_Z   1
loop_
 _symmetry_equiv_pos_site_id
 _symmetry_equiv_pos_as_xyz
  1  'x, y, z'
loop_
 _atom_site_type_symbol
 _atom_site_label
 _atom_site_symmetry_multiplicity
 _atom_site_fract_x
 _atom_site_fract_y
 _atom_site_fract_z
 _atom_site_occupancy
  Mg  Mg0  1  0.500000  0.500000  0.500000  1
  Pb  Pb1  1  0.250000  0.250000  0.250000  1
  Pb  Pb2  1  0.750000  0.750000  0.750000  1
  W  W3  1  0.000000  0.000000  0.000000  1
  O  O4  1  0.241689  0.758311  0.758311  1
  O  O5  1  0.241689  0.241689  0.758311  1
  O  O6  1  0.758311  0.758311  0.241689  1
  O  O7  1  0.758311  0.241689  0.758311  1
  O  O8  1  0.758311  0.241689  0.241689  1
  O  O9  1  0.241689  0.758311  0.241689  1
