# generated using pymatgen
data_KAuI4
_symmetry_space_group_name_H-M   'P 1'
_cell_length_a   10.34637359
_cell_length_b   7.15487722
_cell_length_c   14.25586655
_cell_angle_alpha   90.00000000
_cell_angle_beta   101.62353250
_cell_angle_gamma   90.00000000
_symmetry_Int_Tables_number   1
_chemical_formula_structural   KAuI4
_chemical_formula_sum   'K4 Au4 I16'
_cell_volume   1033.67761961
_cell_formula_units_Z   4
loop_
 _symmetry_equiv_pos_site_id
 _symmetry_equiv_pos_as_xyz
  1  'x, y, z'
loop_
 _atom_site_type_symbol
 _atom_site_label
 _atom_site_symmetry_multiplicity
 _atom_site_fract_x
 _atom_site_fract_y
 _atom_site_fract_z
 _atom_site_occupancy
  K  K0  1  0.202290  0.063639  0.183342  1
  K  K1  1  0.797710  0.563639  0.316658  1
  K  K2  1  0.797710  0.936361  0.816658  1
  K  K3  1  0.202290  0.436361  0.683342  1
  Au  Au4  1  0.500000  0.500000  0.000000  1
  Au  Au5  1  0.500000  0.000000  0.500000  1
  Au  Au6  1  0.000000  0.500000  0.000000  1
  Au  Au7  1  0.000000  0.000000  0.500000  1
  I  I8  1  0.087447  0.934396  0.687660  1
  I  I9  1  0.912553  0.434396  0.812340  1
  I  I10  1  0.912553  0.065604  0.312340  1
  I  I11  1  0.087447  0.565604  0.187660  1
  I  I12  1  0.858215  0.293772  0.541129  1
  I  I13  1  0.141785  0.793772  0.958871  1
  I  I14  1  0.141785  0.706228  0.458871  1
  I  I15  1  0.858215  0.206228  0.041129  1
  I  I16  1  0.500884  0.153596  0.671242  1
  I  I17  1  0.499116  0.653596  0.828758  1
  I  I18  1  0.499116  0.846404  0.328758  1
  I  I19  1  0.500884  0.346404  0.171242  1
  I  I20  1  0.655428  0.722875  0.584004  1
  I  I21  1  0.344572  0.222875  0.915996  1
  I  I22  1  0.344572  0.277125  0.415996  1
  I  I23  1  0.655428  0.777125  0.084004  1
