# generated using pymatgen
data_KFeCl4
_symmetry_space_group_name_H-M   'P 1'
_cell_length_a   7.43493274
_cell_length_b   10.74034252
_cell_length_c   9.53672483
_cell_angle_alpha   90.00000000
_cell_angle_beta   94.23607533
_cell_angle_gamma   90.00000000
_symmetry_Int_Tables_number   1
_chemical_formula_structural   KFeCl4
_chemical_formula_sum   'K4 Fe4 Cl16'
_cell_volume   759.46258643
_cell_formula_units_Z   4
loop_
 _symmetry_equiv_pos_site_id
 _symmetry_equiv_pos_as_xyz
  1  'x, y, z'
loop_
 _atom_site_type_symbol
 _atom_site_label
 _atom_site_symmetry_multiplicity
 _atom_site_fract_x
 _atom_site_fract_y
 _atom_site_fract_z
 _atom_site_occupancy
  K  K0  1  0.426874  0.084733  0.947042  1
  K  K1  1  0.573126  0.584733  0.052958  1
  K  K2  1  0.063529  0.695355  0.555977  1
  K  K3  1  0.936471  0.195355  0.444023  1
  Fe  Fe4  1  0.512442  0.942901  0.433073  1
  Fe  Fe5  1  0.487558  0.442901  0.566927  1
  Fe  Fe6  1  0.990441  0.842636  0.063739  1
  Fe  Fe7  1  0.009559  0.342636  0.936261  1
  Cl  Cl8  1  0.465157  0.607387  0.704472  1
  Cl  Cl9  1  0.224153  0.427640  0.442412  1
  Cl  Cl10  1  0.290567  0.969580  0.573512  1
  Cl  Cl11  1  0.709433  0.469580  0.426488  1
  Cl  Cl12  1  0.029602  0.181539  0.793525  1
  Cl  Cl13  1  0.970398  0.681539  0.206475  1
  Cl  Cl14  1  0.946358  0.515949  0.820038  1
  Cl  Cl15  1  0.053642  0.015949  0.179962  1
  Cl  Cl16  1  0.791896  0.312793  0.079755  1
  Cl  Cl17  1  0.455983  0.772617  0.310006  1
  Cl  Cl18  1  0.274957  0.356869  0.057828  1
  Cl  Cl19  1  0.725043  0.856869  0.942172  1
  Cl  Cl20  1  0.208104  0.812793  0.920245  1
  Cl  Cl21  1  0.534843  0.107387  0.295528  1
  Cl  Cl22  1  0.544017  0.272617  0.689994  1
  Cl  Cl23  1  0.775847  0.927640  0.557588  1
