# generated using pymatgen
data_TiF4
_symmetry_space_group_name_H-M   'P 1'
_cell_length_a   3.91322093
_cell_length_b   9.86683250
_cell_length_c   23.59772460
_cell_angle_alpha   90.00000000
_cell_angle_beta   90.00000000
_cell_angle_gamma   90.00000000
_symmetry_Int_Tables_number   1
_chemical_formula_structural   TiF4
_chemical_formula_sum   'Ti12 F48'
_cell_volume   911.13399698
_cell_formula_units_Z   12
loop_
 _symmetry_equiv_pos_site_id
 _symmetry_equiv_pos_as_xyz
  1  'x, y, z'
loop_
 _atom_site_type_symbol
 _atom_site_label
 _atom_site_symmetry_multiplicity
 _atom_site_fract_x
 _atom_site_fract_y
 _atom_site_fract_z
 _atom_site_occupancy
  Ti  Ti0  1  0.250000  0.652370  0.576755  1
  Ti  Ti1  1  0.750000  0.347630  0.423245  1
  Ti  Ti2  1  0.750000  0.152370  0.923245  1
  Ti  Ti3  1  0.250000  0.847630  0.076755  1
  Ti  Ti4  1  0.250000  0.451528  0.099064  1
  Ti  Ti5  1  0.750000  0.548472  0.900936  1
  Ti  Ti6  1  0.750000  0.951528  0.400936  1
  Ti  Ti7  1  0.250000  0.048472  0.599064  1
  Ti  Ti8  1  0.250000  0.805007  0.731357  1
  Ti  Ti9  1  0.750000  0.194993  0.268643  1
  Ti  Ti10  1  0.750000  0.305007  0.768643  1
  Ti  Ti11  1  0.250000  0.694993  0.231357  1
  F  F12  1  0.250000  0.643748  0.072543  1
  F  F13  1  0.750000  0.356252  0.927457  1
  F  F14  1  0.750000  0.143748  0.427457  1
  F  F15  1  0.250000  0.856252  0.572543  1
  F  F16  1  0.250000  0.643061  0.502000  1
  F  F17  1  0.750000  0.356939  0.498000  1
  F  F18  1  0.750000  0.143061  0.998000  1
  F  F19  1  0.250000  0.856939  0.002000  1
  F  F20  1  0.250000  0.922794  0.787530  1
  F  F21  1  0.750000  0.077206  0.212470  1
  F  F22  1  0.750000  0.422794  0.712470  1
  F  F23  1  0.250000  0.577206  0.287530  1
  F  F24  1  0.250000  0.306881  0.775608  1
  F  F25  1  0.750000  0.693119  0.224392  1
  F  F26  1  0.750000  0.806881  0.724392  1
  F  F27  1  0.250000  0.193119  0.275608  1
  F  F28  1  0.250000  0.333277  0.418935  1
  F  F29  1  0.750000  0.666723  0.581065  1
  F  F30  1  0.750000  0.833277  0.081065  1
  F  F31  1  0.250000  0.166723  0.918935  1
  F  F32  1  0.250000  0.106764  0.528313  1
  F  F33  1  0.750000  0.893236  0.471687  1
  F  F34  1  0.750000  0.606764  0.971687  1
  F  F35  1  0.250000  0.393236  0.028313  1
  F  F36  1  0.250000  0.021758  0.092323  1
  F  F37  1  0.750000  0.978242  0.907677  1
  F  F38  1  0.750000  0.521758  0.407677  1
  F  F39  1  0.250000  0.478242  0.592323  1
  F  F40  1  0.250000  0.805527  0.159792  1
  F  F41  1  0.750000  0.194473  0.840208  1
  F  F42  1  0.750000  0.305527  0.340208  1
  F  F43  1  0.250000  0.694473  0.659792  1
  F  F44  1  0.250000  0.967135  0.398493  1
  F  F45  1  0.750000  0.032865  0.601507  1
  F  F46  1  0.750000  0.467135  0.101507  1
  F  F47  1  0.250000  0.532865  0.898493  1
  F  F48  1  0.250000  0.847851  0.270366  1
  F  F49  1  0.750000  0.152149  0.729634  1
  F  F50  1  0.750000  0.347851  0.229634  1
  F  F51  1  0.250000  0.652149  0.770366  1
  F  F52  1  0.250000  0.205675  0.634441  1
  F  F53  1  0.750000  0.794325  0.365559  1
  F  F54  1  0.750000  0.705675  0.865559  1
  F  F55  1  0.250000  0.294325  0.134441  1
  F  F56  1  0.250000  0.545346  0.174690  1
  F  F57  1  0.750000  0.454654  0.825310  1
  F  F58  1  0.750000  0.045346  0.325310  1
  F  F59  1  0.250000  0.954654  0.674690  1
