# generated using pymatgen
data_CsVBr3
_symmetry_space_group_name_H-M   'P 1'
_cell_length_a   7.73143491
_cell_length_b   7.73143491
_cell_length_c   6.57483223
_cell_angle_alpha   90.00000000
_cell_angle_beta   90.00000000
_cell_angle_gamma   120.00000000
_symmetry_Int_Tables_number   1
_chemical_formula_structural   CsVBr3
_chemical_formula_sum   'Cs2 V2 Br6'
_cell_volume   340.35764904
_cell_formula_units_Z   2
loop_
 _symmetry_equiv_pos_site_id
 _symmetry_equiv_pos_as_xyz
  1  'x, y, z'
loop_
 _atom_site_type_symbol
 _atom_site_label
 _atom_site_symmetry_multiplicity
 _atom_site_fract_x
 _atom_site_fract_y
 _atom_site_fract_z
 _atom_site_occupancy
  Cs  Cs0  1  0.666667  0.333333  0.250000  1
  Cs  Cs1  1  0.333333  0.666667  0.750000  1
  V  V2  1  0.000000  0.000000  0.500000  1
  V  V3  1  0.000000  0.000000  0.000000  1
  Br  Br4  1  0.155615  0.844385  0.250000  1
  Br  Br5  1  0.844385  0.688770  0.750000  1
  Br  Br6  1  0.155615  0.311230  0.250000  1
  Br  Br7  1  0.844385  0.155615  0.750000  1
  Br  Br8  1  0.311230  0.155615  0.750000  1
  Br  Br9  1  0.688770  0.844385  0.250000  1
