# generated using pymatgen
data_Na2Mn2S3
_symmetry_space_group_name_H-M   'P 1'
_cell_length_a   10.04786841
_cell_length_b   10.04786841
_cell_length_c   6.94902337
_cell_angle_alpha   70.20915814
_cell_angle_beta   109.79084186
_cell_angle_gamma   96.53554030
_symmetry_Int_Tables_number   1
_chemical_formula_structural   Na2Mn2S3
_chemical_formula_sum   'Na8 Mn8 S12'
_cell_volume   621.14160135
_cell_formula_units_Z   4
loop_
 _symmetry_equiv_pos_site_id
 _symmetry_equiv_pos_as_xyz
  1  'x, y, z'
loop_
 _atom_site_type_symbol
 _atom_site_label
 _atom_site_symmetry_multiplicity
 _atom_site_fract_x
 _atom_site_fract_y
 _atom_site_fract_z
 _atom_site_occupancy
  Na  Na0  1  0.185201  0.987962  0.125044  1
  Na  Na1  1  0.987962  0.185201  0.374956  1
  Na  Na2  1  0.814799  0.012038  0.874956  1
  Na  Na3  1  0.012038  0.814799  0.625044  1
  Na  Na4  1  0.281682  0.281682  0.250000  1
  Na  Na5  1  0.718318  0.718318  0.750000  1
  Na  Na6  1  0.571320  0.571320  0.250000  1
  Na  Na7  1  0.428680  0.428680  0.750000  1
  Mn  Mn8  1  0.445560  0.082895  0.754929  1
  Mn  Mn9  1  0.554440  0.917105  0.245071  1
  Mn  Mn10  1  0.917105  0.554440  0.254929  1
  Mn  Mn11  1  0.784358  0.363665  0.798398  1
  Mn  Mn12  1  0.363665  0.784358  0.701602  1
  Mn  Mn13  1  0.215642  0.636335  0.201602  1
  Mn  Mn14  1  0.636335  0.215642  0.298398  1
  Mn  Mn15  1  0.082895  0.445560  0.745071  1
  S  S16  1  0.999775  0.229812  0.951975  1
  S  S17  1  0.770188  0.000225  0.451975  1
  S  S18  1  0.000225  0.770188  0.048025  1
  S  S19  1  0.856026  0.578982  0.554825  1
  S  S20  1  0.578982  0.856026  0.945175  1
  S  S21  1  0.143974  0.421018  0.445175  1
  S  S22  1  0.229812  0.999775  0.548025  1
  S  S23  1  0.421018  0.143974  0.054825  1
  S  S24  1  0.720881  0.429459  0.066528  1
  S  S25  1  0.429459  0.720881  0.433472  1
  S  S26  1  0.279119  0.570541  0.933472  1
  S  S27  1  0.570541  0.279119  0.566528  1
