# generated using pymatgen
data_Sb4Br2O5
_symmetry_space_group_name_H-M   'P 1'
_cell_length_a   6.73488702
_cell_length_b   5.24727670
_cell_length_c   13.81580159
_cell_angle_alpha   90.00000000
_cell_angle_beta   96.08802104
_cell_angle_gamma   90.00000000
_symmetry_Int_Tables_number   1
_chemical_formula_structural   Sb4Br2O5
_chemical_formula_sum   'Sb8 Br4 O10'
_cell_volume   485.49423265
_cell_formula_units_Z   2
loop_
 _symmetry_equiv_pos_site_id
 _symmetry_equiv_pos_as_xyz
  1  'x, y, z'
loop_
 _atom_site_type_symbol
 _atom_site_label
 _atom_site_symmetry_multiplicity
 _atom_site_fract_x
 _atom_site_fract_y
 _atom_site_fract_z
 _atom_site_occupancy
  Sb  Sb0  1  0.808005  0.606900  0.703845  1
  Sb  Sb1  1  0.191995  0.106900  0.796155  1
  Sb  Sb2  1  0.191995  0.393100  0.296155  1
  Sb  Sb3  1  0.808005  0.893100  0.203845  1
  Sb  Sb4  1  0.173129  0.722363  0.549470  1
  Sb  Sb5  1  0.826871  0.222363  0.950530  1
  Sb  Sb6  1  0.826871  0.277637  0.450530  1
  Sb  Sb7  1  0.173129  0.777637  0.049470  1
  Br  Br8  1  0.508640  0.287229  0.118471  1
  Br  Br9  1  0.508640  0.212771  0.618471  1
  Br  Br10  1  0.491360  0.712771  0.881529  1
  Br  Br11  1  0.491360  0.787229  0.381529  1
  O  O12  1  0.929595  0.171258  0.290663  1
  O  O13  1  0.929595  0.328742  0.790663  1
  O  O14  1  0.070405  0.828742  0.709337  1
  O  O15  1  0.070405  0.671258  0.209337  1
  O  O16  1  0.067673  0.507136  0.418351  1
  O  O17  1  0.932327  0.007136  0.081649  1
  O  O18  1  0.932327  0.492864  0.581649  1
  O  O19  1  0.067673  0.992864  0.918351  1
  O  O20  1  0.000000  0.000000  0.500000  1
  O  O21  1  0.000000  0.500000  0.000000  1
