# generated using pymatgen
data_CoH8(IO5)2
_symmetry_space_group_name_H-M   'P 1'
_cell_length_a   8.46011702
_cell_length_b   6.60543219
_cell_length_c   8.52889066
_cell_angle_alpha   90.00000000
_cell_angle_beta   99.47902869
_cell_angle_gamma   90.00000000
_symmetry_Int_Tables_number   1
_chemical_formula_structural   CoH8(IO5)2
_chemical_formula_sum   'Co2 H16 I4 O20'
_cell_volume   470.10992463
_cell_formula_units_Z   2
loop_
 _symmetry_equiv_pos_site_id
 _symmetry_equiv_pos_as_xyz
  1  'x, y, z'
loop_
 _atom_site_type_symbol
 _atom_site_label
 _atom_site_symmetry_multiplicity
 _atom_site_fract_x
 _atom_site_fract_y
 _atom_site_fract_z
 _atom_site_occupancy
  Co  Co0  1  0.500000  0.000000  0.000000  1
  Co  Co1  1  0.500000  0.500000  0.500000  1
  H  H2  1  0.776630  0.217335  0.056155  1
  H  H3  1  0.223370  0.717335  0.443845  1
  H  H4  1  0.223370  0.782665  0.943845  1
  H  H5  1  0.776630  0.282665  0.556155  1
  H  H6  1  0.767481  0.109552  0.223817  1
  H  H7  1  0.232519  0.609552  0.276183  1
  H  H8  1  0.655858  0.004405  0.760993  1
  H  H9  1  0.344142  0.504405  0.739007  1
  H  H10  1  0.344142  0.995595  0.239007  1
  H  H11  1  0.655858  0.495595  0.260993  1
  H  H12  1  0.490500  0.119269  0.691267  1
  H  H13  1  0.509500  0.619269  0.808733  1
  H  H14  1  0.509500  0.880731  0.308733  1
  H  H15  1  0.490500  0.380731  0.191267  1
  H  H16  1  0.232519  0.890448  0.776183  1
  H  H17  1  0.767481  0.390448  0.723817  1
  I  I18  1  0.167163  0.178320  0.469840  1
  I  I19  1  0.832837  0.678320  0.030160  1
  I  I20  1  0.832837  0.821680  0.530160  1
  I  I21  1  0.167163  0.321680  0.969840  1
  O  O22  1  0.614603  0.782841  0.475005  1
  O  O23  1  0.614603  0.717159  0.975005  1
  O  O24  1  0.741863  0.407535  0.606838  1
  O  O25  1  0.258137  0.907535  0.893162  1
  O  O26  1  0.258137  0.592465  0.393162  1
  O  O27  1  0.385397  0.217159  0.524995  1
  O  O28  1  0.564298  0.418868  0.290567  1
  O  O29  1  0.435702  0.918868  0.209433  1
  O  O30  1  0.435702  0.581132  0.709433  1
  O  O31  1  0.564298  0.081132  0.790567  1
  O  O32  1  0.160584  0.385511  0.760195  1
  O  O33  1  0.839416  0.885511  0.739805  1
  O  O34  1  0.839416  0.614489  0.239805  1
  O  O35  1  0.160584  0.114489  0.260195  1
  O  O36  1  0.838296  0.422402  0.943606  1
  O  O37  1  0.161704  0.922402  0.556394  1
  O  O38  1  0.161704  0.577598  0.056394  1
  O  O39  1  0.838296  0.077598  0.443606  1
  O  O40  1  0.385397  0.282841  0.024995  1
  O  O41  1  0.741863  0.092465  0.106838  1
