# generated using pymatgen
data_MnAsH2O5
_symmetry_space_group_name_H-M   'P 1'
_cell_length_a   5.36345942
_cell_length_b   5.36345942
_cell_length_c   7.63643395
_cell_angle_alpha   76.04169106
_cell_angle_beta   103.95830894
_cell_angle_gamma   82.71415444
_symmetry_Int_Tables_number   1
_chemical_formula_structural   MnAsH2O5
_chemical_formula_sum   'Mn2 As2 H4 O10'
_cell_volume   202.86228234
_cell_formula_units_Z   2
loop_
 _symmetry_equiv_pos_site_id
 _symmetry_equiv_pos_as_xyz
  1  'x, y, z'
loop_
 _atom_site_type_symbol
 _atom_site_label
 _atom_site_symmetry_multiplicity
 _atom_site_fract_x
 _atom_site_fract_y
 _atom_site_fract_z
 _atom_site_occupancy
  Mn  Mn0  1  0.000000  0.500000  0.000000  1
  Mn  Mn1  1  0.500000  0.000000  0.500000  1
  As  As2  1  0.568412  0.568412  0.250000  1
  As  As3  1  0.431588  0.431588  0.750000  1
  H  H4  1  0.050980  0.882480  0.702009  1
  H  H5  1  0.882480  0.050980  0.797991  1
  H  H6  1  0.949020  0.117520  0.297991  1
  H  H7  1  0.117520  0.949020  0.202009  1
  O  O8  1  0.280812  0.337336  0.922161  1
  O  O9  1  0.337336  0.280812  0.577839  1
  O  O10  1  0.719188  0.662664  0.077839  1
  O  O11  1  0.662664  0.719188  0.422161  1
  O  O12  1  0.332209  0.766874  0.654132  1
  O  O13  1  0.766874  0.332209  0.845868  1
  O  O14  1  0.667791  0.233126  0.345868  1
  O  O15  1  0.233126  0.667791  0.154132  1
  O  O16  1  0.107183  0.107183  0.250000  1
  O  O17  1  0.892817  0.892817  0.750000  1
