# generated using pymatgen
data_AlCl3
_symmetry_space_group_name_H-M   'P 1'
_cell_length_a   6.02417020
_cell_length_b   6.02417020
_cell_length_c   6.65323632
_cell_angle_alpha   81.53499141
_cell_angle_beta   98.46500859
_cell_angle_gamma   60.02976189
_symmetry_Int_Tables_number   1
_chemical_formula_structural   AlCl3
_chemical_formula_sum   'Al2 Cl6'
_cell_volume   199.90275267
_cell_formula_units_Z   2
loop_
 _symmetry_equiv_pos_site_id
 _symmetry_equiv_pos_as_xyz
  1  'x, y, z'
loop_
 _atom_site_type_symbol
 _atom_site_label
 _atom_site_symmetry_multiplicity
 _atom_site_fract_x
 _atom_site_fract_y
 _atom_site_fract_z
 _atom_site_occupancy
  Al  Al0  1  0.833383  0.833383  0.000000  1
  Al  Al1  1  0.166617  0.166617  0.000000  1
  Cl  Cl2  1  0.204527  0.795473  0.211267  1
  Cl  Cl3  1  0.795473  0.204527  0.788733  1
  Cl  Cl4  1  0.068497  0.568320  0.789632  1
  Cl  Cl5  1  0.568320  0.068497  0.210368  1
  Cl  Cl6  1  0.931503  0.431680  0.210368  1
  Cl  Cl7  1  0.431680  0.931503  0.789632  1
