# generated using pymatgen
data_B5Pb2BrO9
_symmetry_space_group_name_H-M   'P 1'
_cell_length_a   6.61706043
_cell_length_b   11.60022940
_cell_length_c   11.68033052
_cell_angle_alpha   90.00000000
_cell_angle_beta   90.00000000
_cell_angle_gamma   90.00000000
_symmetry_Int_Tables_number   1
_chemical_formula_structural   B5Pb2BrO9
_chemical_formula_sum   'B20 Pb8 Br4 O36'
_cell_volume   896.57538376
_cell_formula_units_Z   4
loop_
 _symmetry_equiv_pos_site_id
 _symmetry_equiv_pos_as_xyz
  1  'x, y, z'
loop_
 _atom_site_type_symbol
 _atom_site_label
 _atom_site_symmetry_multiplicity
 _atom_site_fract_x
 _atom_site_fract_y
 _atom_site_fract_z
 _atom_site_occupancy
  B  B0  1  0.517974  0.005802  0.749381  1
  B  B1  1  0.517974  0.994198  0.250619  1
  B  B2  1  0.017974  0.494198  0.249381  1
  B  B3  1  0.017974  0.505802  0.750619  1
  B  B4  1  0.182740  0.266989  0.957883  1
  B  B5  1  0.182740  0.733011  0.042117  1
  B  B6  1  0.682740  0.233011  0.457883  1
  B  B7  1  0.682740  0.766989  0.542117  1
  B  B8  1  0.961941  0.283644  0.787205  1
  B  B9  1  0.961941  0.716356  0.212795  1
  B  B10  1  0.461941  0.216356  0.287205  1
  B  B11  1  0.461941  0.783644  0.712795  1
  B  B12  1  0.645981  0.201517  0.681036  1
  B  B13  1  0.645981  0.798483  0.318964  1
  B  B14  1  0.145981  0.298483  0.181036  1
  B  B15  1  0.145981  0.701517  0.818964  1
  B  B16  1  0.294914  0.179334  0.770801  1
  B  B17  1  0.294914  0.820666  0.229199  1
  B  B18  1  0.794914  0.320666  0.270801  1
  B  B19  1  0.794914  0.679334  0.729199  1
  Pb  Pb20  1  0.163991  0.262990  0.527356  1
  Pb  Pb21  1  0.163991  0.737010  0.472644  1
  Pb  Pb22  1  0.663991  0.237010  0.027356  1
  Pb  Pb23  1  0.663991  0.762990  0.972644  1
  Pb  Pb24  1  0.497777  0.457513  0.756484  1
  Pb  Pb25  1  0.497777  0.542487  0.243516  1
  Pb  Pb26  1  0.997777  0.042487  0.256484  1
  Pb  Pb27  1  0.997777  0.957513  0.743516  1
  Br  Br28  1  0.145311  0.000000  0.500000  1
  Br  Br29  1  0.645311  0.500000  0.000000  1
  Br  Br30  1  0.395500  0.500000  0.500000  1
  Br  Br31  1  0.895500  0.000000  0.000000  1
  O  O32  1  0.057044  0.390286  0.736488  1
  O  O33  1  0.057044  0.609714  0.263512  1
  O  O34  1  0.557044  0.109714  0.236488  1
  O  O35  1  0.557044  0.890286  0.763512  1
  O  O36  1  0.991193  0.287455  0.915934  1
  O  O37  1  0.991193  0.712545  0.084066  1
  O  O38  1  0.491193  0.212545  0.415934  1
  O  O39  1  0.491193  0.787455  0.584066  1
  O  O40  1  0.426209  0.229925  0.681019  1
  O  O41  1  0.426209  0.770075  0.318981  1
  O  O42  1  0.926209  0.270075  0.181019  1
  O  O43  1  0.926209  0.729925  0.818981  1
  O  O44  1  0.335723  0.236311  0.882016  1
  O  O45  1  0.335723  0.763689  0.117984  1
  O  O46  1  0.835723  0.263689  0.382016  1
  O  O47  1  0.835723  0.736311  0.617984  1
  O  O48  1  0.335160  0.052619  0.781306  1
  O  O49  1  0.335160  0.947381  0.218694  1
  O  O50  1  0.835160  0.447381  0.281306  1
  O  O51  1  0.835160  0.552619  0.718694  1
  O  O52  1  0.739981  0.224495  0.569475  1
  O  O53  1  0.739981  0.775505  0.430525  1
  O  O54  1  0.239981  0.275505  0.069475  1
  O  O55  1  0.239981  0.724495  0.930525  1
  O  O56  1  0.745865  0.273924  0.768332  1
  O  O57  1  0.745865  0.726076  0.231668  1
  O  O58  1  0.245865  0.226076  0.268332  1
  O  O59  1  0.245865  0.773924  0.731668  1
  O  O60  1  0.670542  0.075435  0.708649  1
  O  O61  1  0.670542  0.924565  0.291351  1
  O  O62  1  0.170542  0.424565  0.208649  1
  O  O63  1  0.170542  0.575435  0.791351  1
  O  O64  1  0.080729  0.187419  0.737838  1
  O  O65  1  0.080729  0.812581  0.262162  1
  O  O66  1  0.580729  0.312581  0.237838  1
  O  O67  1  0.580729  0.687419  0.762162  1
