# generated using pymatgen
data_As2O3
_symmetry_space_group_name_H-M   'P 1'
_cell_length_a   8.26186099
_cell_length_b   8.26186099
_cell_length_c   8.26186099
_cell_angle_alpha   60.00000000
_cell_angle_beta   60.00000000
_cell_angle_gamma   60.00000000
_symmetry_Int_Tables_number   1
_chemical_formula_structural   As2O3
_chemical_formula_sum   'As8 O12'
_cell_volume   398.76648722
_cell_formula_units_Z   4
loop_
 _symmetry_equiv_pos_site_id
 _symmetry_equiv_pos_as_xyz
  1  'x, y, z'
loop_
 _atom_site_type_symbol
 _atom_site_label
 _atom_site_symmetry_multiplicity
 _atom_site_fract_x
 _atom_site_fract_y
 _atom_site_fract_z
 _atom_site_occupancy
  As  As0  1  0.401071  0.796788  0.401071  1
  As  As1  1  0.848929  0.848929  0.848929  1
  As  As2  1  0.453212  0.848929  0.848929  1
  As  As3  1  0.848929  0.848929  0.453212  1
  As  As4  1  0.796788  0.401071  0.401071  1
  As  As5  1  0.401071  0.401071  0.796788  1
  As  As6  1  0.401071  0.401071  0.401071  1
  As  As7  1  0.848929  0.453212  0.848929  1
  O  O8  1  0.330493  0.669507  0.669507  1
  O  O9  1  0.580493  0.919507  0.919507  1
  O  O10  1  0.669507  0.669507  0.330493  1
  O  O11  1  0.330493  0.669507  0.330493  1
  O  O12  1  0.669507  0.330493  0.669507  1
  O  O13  1  0.330493  0.330493  0.669507  1
  O  O14  1  0.580493  0.580493  0.919507  1
  O  O15  1  0.919507  0.919507  0.580493  1
  O  O16  1  0.669507  0.330493  0.330493  1
  O  O17  1  0.580493  0.919507  0.580493  1
  O  O18  1  0.919507  0.580493  0.919507  1
  O  O19  1  0.919507  0.580493  0.580493  1
