# generated using pymatgen
data_Ca(MgBi)2
_symmetry_space_group_name_H-M   'P 1'
_cell_length_a   4.80215031
_cell_length_b   4.80215031
_cell_length_c   7.74018487
_cell_angle_alpha   90.00000000
_cell_angle_beta   90.00000000
_cell_angle_gamma   120.00000000
_symmetry_Int_Tables_number   1
_chemical_formula_structural   Ca(MgBi)2
_chemical_formula_sum   'Ca1 Mg2 Bi2'
_cell_volume   154.58005741
_cell_formula_units_Z   1
loop_
 _symmetry_equiv_pos_site_id
 _symmetry_equiv_pos_as_xyz
  1  'x, y, z'
loop_
 _atom_site_type_symbol
 _atom_site_label
 _atom_site_symmetry_multiplicity
 _atom_site_fract_x
 _atom_site_fract_y
 _atom_site_fract_z
 _atom_site_occupancy
  Ca  Ca0  1  0.000000  0.000000  0.000000  1
  Mg  Mg1  1  0.666667  0.333333  0.371538  1
  Mg  Mg2  1  0.333333  0.666667  0.628462  1
  Bi  Bi3  1  0.333333  0.666667  0.239162  1
  Bi  Bi4  1  0.666667  0.333333  0.760838  1
