# generated using pymatgen
data_P3Pb5O12F
_symmetry_space_group_name_H-M   'P 1'
_cell_length_a   10.02957347
_cell_length_b   10.02957347
_cell_length_c   7.48452150
_cell_angle_alpha   90.00000000
_cell_angle_beta   90.00000000
_cell_angle_gamma   120.00000000
_symmetry_Int_Tables_number   1
_chemical_formula_structural   P3Pb5O12F
_chemical_formula_sum   'P6 Pb10 O24 F2'
_cell_volume   652.01802200
_cell_formula_units_Z   2
loop_
 _symmetry_equiv_pos_site_id
 _symmetry_equiv_pos_as_xyz
  1  'x, y, z'
loop_
 _atom_site_type_symbol
 _atom_site_label
 _atom_site_symmetry_multiplicity
 _atom_site_fract_x
 _atom_site_fract_y
 _atom_site_fract_z
 _atom_site_occupancy
  P  P0  1  0.629045  0.029975  0.250000  1
  P  P1  1  0.970025  0.599071  0.250000  1
  P  P2  1  0.370955  0.970025  0.750000  1
  P  P3  1  0.029975  0.400929  0.750000  1
  P  P4  1  0.400929  0.370955  0.250000  1
  P  P5  1  0.599071  0.629045  0.750000  1
  Pb  Pb6  1  0.666667  0.333333  0.502328  1
  Pb  Pb7  1  0.666667  0.333333  0.997672  1
  Pb  Pb8  1  0.995382  0.245622  0.250000  1
  Pb  Pb9  1  0.754378  0.749761  0.250000  1
  Pb  Pb10  1  0.333333  0.666667  0.002328  1
  Pb  Pb11  1  0.250239  0.004618  0.250000  1
  Pb  Pb12  1  0.245622  0.250239  0.750000  1
  Pb  Pb13  1  0.749761  0.995382  0.750000  1
  Pb  Pb14  1  0.004618  0.754378  0.750000  1
  Pb  Pb15  1  0.333333  0.666667  0.497672  1
  O  O16  1  0.582103  0.463565  0.250000  1
  O  O17  1  0.417897  0.536435  0.750000  1
  O  O18  1  0.083413  0.346974  0.582397  1
  O  O19  1  0.916587  0.653026  0.082397  1
  O  O20  1  0.263561  0.916587  0.582397  1
  O  O21  1  0.736439  0.083413  0.417603  1
  O  O22  1  0.653026  0.736439  0.917603  1
  O  O23  1  0.662997  0.516650  0.750000  1
  O  O24  1  0.483350  0.146347  0.750000  1
  O  O25  1  0.536435  0.118538  0.250000  1
  O  O26  1  0.337003  0.483350  0.250000  1
  O  O27  1  0.516650  0.853653  0.250000  1
  O  O28  1  0.346974  0.263561  0.417603  1
  O  O29  1  0.881462  0.417897  0.250000  1
  O  O30  1  0.653026  0.736439  0.582397  1
  O  O31  1  0.263561  0.916587  0.917603  1
  O  O32  1  0.118538  0.582103  0.750000  1
  O  O33  1  0.083413  0.346974  0.917603  1
  O  O34  1  0.463565  0.881462  0.750000  1
  O  O35  1  0.916587  0.653026  0.417603  1
  O  O36  1  0.736439  0.083413  0.082397  1
  O  O37  1  0.146347  0.662997  0.250000  1
  O  O38  1  0.346974  0.263561  0.082397  1
  O  O39  1  0.853653  0.337003  0.750000  1
  F  F40  1  0.000000  0.000000  0.250000  1
  F  F41  1  0.000000  0.000000  0.750000  1
