# generated using pymatgen
data_Na2HgS2
_symmetry_space_group_name_H-M   'P 1'
_cell_length_a   7.48683164
_cell_length_b   7.54336658
_cell_length_c   18.35275904
_cell_angle_alpha   90.00000000
_cell_angle_beta   90.00000000
_cell_angle_gamma   90.00000000
_symmetry_Int_Tables_number   1
_chemical_formula_structural   Na2HgS2
_chemical_formula_sum   'Na16 Hg8 S16'
_cell_volume   1036.48887026
_cell_formula_units_Z   8
loop_
 _symmetry_equiv_pos_site_id
 _symmetry_equiv_pos_as_xyz
  1  'x, y, z'
loop_
 _atom_site_type_symbol
 _atom_site_label
 _atom_site_symmetry_multiplicity
 _atom_site_fract_x
 _atom_site_fract_y
 _atom_site_fract_z
 _atom_site_occupancy
  Na  Na0  1  0.503323  0.728768  0.554652  1
  Na  Na1  1  0.003323  0.271232  0.945348  1
  Na  Na2  1  0.996677  0.228768  0.445348  1
  Na  Na3  1  0.496677  0.771232  0.054652  1
  Na  Na4  1  0.496677  0.271232  0.445348  1
  Na  Na5  1  0.996677  0.728768  0.054652  1
  Na  Na6  1  0.003323  0.771232  0.554652  1
  Na  Na7  1  0.503323  0.228768  0.945348  1
  Na  Na8  1  0.831907  0.545526  0.696233  1
  Na  Na9  1  0.331907  0.454474  0.803767  1
  Na  Na10  1  0.668093  0.045526  0.303767  1
  Na  Na11  1  0.168093  0.954474  0.196233  1
  Na  Na12  1  0.168093  0.454474  0.303767  1
  Na  Na13  1  0.668093  0.545526  0.196233  1
  Na  Na14  1  0.331907  0.954474  0.696233  1
  Na  Na15  1  0.831907  0.045526  0.803767  1
  Hg  Hg16  1  0.272969  0.349028  0.110863  1
  Hg  Hg17  1  0.772969  0.650972  0.389137  1
  Hg  Hg18  1  0.227031  0.849028  0.889137  1
  Hg  Hg19  1  0.727031  0.650972  0.889137  1
  Hg  Hg20  1  0.227031  0.349028  0.610863  1
  Hg  Hg21  1  0.772969  0.150972  0.110863  1
  Hg  Hg22  1  0.272969  0.849028  0.389137  1
  Hg  Hg23  1  0.727031  0.150972  0.610863  1
  S  S24  1  0.697418  0.888045  0.678775  1
  S  S25  1  0.302582  0.611955  0.178775  1
  S  S26  1  0.802582  0.388045  0.321225  1
  S  S27  1  0.802582  0.888045  0.178775  1
  S  S28  1  0.197418  0.111955  0.821225  1
  S  S29  1  0.302582  0.111955  0.321225  1
  S  S30  1  0.697418  0.388045  0.821225  1
  S  S31  1  0.197418  0.611955  0.678775  1
  S  S32  1  0.255596  0.076830  0.549093  1
  S  S33  1  0.755596  0.923170  0.950907  1
  S  S34  1  0.244404  0.576830  0.450907  1
  S  S35  1  0.744404  0.423170  0.049093  1
  S  S36  1  0.744404  0.923170  0.450907  1
  S  S37  1  0.244404  0.076830  0.049093  1
  S  S38  1  0.755596  0.423170  0.549093  1
  S  S39  1  0.255596  0.576830  0.950907  1
