# generated using pymatgen
data_Na2(GaSb)3
_symmetry_space_group_name_H-M   'P 1'
_cell_length_a   4.35379167
_cell_length_b   7.35779260
_cell_length_c   27.26659080
_cell_angle_alpha   90.00000000
_cell_angle_beta   90.00000000
_cell_angle_gamma   90.00000000
_symmetry_Int_Tables_number   1
_chemical_formula_structural   Na2(GaSb)3
_chemical_formula_sum   'Na8 Ga12 Sb12'
_cell_volume   873.46604418
_cell_formula_units_Z   4
loop_
 _symmetry_equiv_pos_site_id
 _symmetry_equiv_pos_as_xyz
  1  'x, y, z'
loop_
 _atom_site_type_symbol
 _atom_site_label
 _atom_site_symmetry_multiplicity
 _atom_site_fract_x
 _atom_site_fract_y
 _atom_site_fract_z
 _atom_site_occupancy
  Na  Na0  1  0.250000  0.221133  0.496098  1
  Na  Na1  1  0.750000  0.778867  0.503902  1
  Na  Na2  1  0.750000  0.721133  0.003902  1
  Na  Na3  1  0.250000  0.278867  0.996098  1
  Na  Na4  1  0.250000  0.249471  0.816434  1
  Na  Na5  1  0.750000  0.750529  0.183566  1
  Na  Na6  1  0.750000  0.749471  0.683566  1
  Na  Na7  1  0.250000  0.250529  0.316434  1
  Ga  Ga8  1  0.250000  0.547539  0.618430  1
  Ga  Ga9  1  0.750000  0.452461  0.381570  1
  Ga  Ga10  1  0.750000  0.047539  0.881570  1
  Ga  Ga11  1  0.250000  0.952461  0.118430  1
  Ga  Ga12  1  0.250000  0.071590  0.207211  1
  Ga  Ga13  1  0.750000  0.928410  0.792789  1
  Ga  Ga14  1  0.750000  0.571590  0.292789  1
  Ga  Ga15  1  0.250000  0.428410  0.707211  1
  Ga  Ga16  1  0.750000  0.397024  0.122634  1
  Ga  Ga17  1  0.250000  0.602976  0.877366  1
  Ga  Ga18  1  0.250000  0.897024  0.377366  1
  Ga  Ga19  1  0.750000  0.102976  0.622634  1
  Sb  Sb20  1  0.750000  0.204836  0.719961  1
  Sb  Sb21  1  0.250000  0.795164  0.280039  1
  Sb  Sb22  1  0.250000  0.704836  0.780039  1
  Sb  Sb23  1  0.750000  0.295164  0.219961  1
  Sb  Sb24  1  0.250000  0.909456  0.593100  1
  Sb  Sb25  1  0.750000  0.090544  0.406900  1
  Sb  Sb26  1  0.750000  0.409456  0.906900  1
  Sb  Sb27  1  0.250000  0.590544  0.093100  1
  Sb  Sb28  1  0.750000  0.412772  0.571980  1
  Sb  Sb29  1  0.250000  0.587228  0.428020  1
  Sb  Sb30  1  0.250000  0.912772  0.928020  1
  Sb  Sb31  1  0.750000  0.087228  0.071980  1
