# generated using pymatgen
data_ReCl4O
_symmetry_space_group_name_H-M   'P 1'
_cell_length_a   13.56172610
_cell_length_b   6.15272501
_cell_length_c   19.74986876
_cell_angle_alpha   90.00000000
_cell_angle_beta   116.30279021
_cell_angle_gamma   90.00000000
_symmetry_Int_Tables_number   1
_chemical_formula_structural   ReCl4O
_chemical_formula_sum   'Re8 Cl32 O8'
_cell_volume   1477.33829239
_cell_formula_units_Z   8
loop_
 _symmetry_equiv_pos_site_id
 _symmetry_equiv_pos_as_xyz
  1  'x, y, z'
loop_
 _atom_site_type_symbol
 _atom_site_label
 _atom_site_symmetry_multiplicity
 _atom_site_fract_x
 _atom_site_fract_y
 _atom_site_fract_z
 _atom_site_occupancy
  Re  Re0  1  0.402133  0.889653  0.580355  1
  Re  Re1  1  0.597867  0.389653  0.919645  1
  Re  Re2  1  0.597867  0.110347  0.419645  1
  Re  Re3  1  0.402133  0.610347  0.080355  1
  Re  Re4  1  0.097809  0.508999  0.668148  1
  Re  Re5  1  0.902191  0.008999  0.831852  1
  Re  Re6  1  0.902191  0.491001  0.331852  1
  Re  Re7  1  0.097809  0.991001  0.168148  1
  Cl  Cl8  1  0.106715  0.368017  0.778021  1
  Cl  Cl9  1  0.923138  0.127374  0.111811  1
  Cl  Cl10  1  0.076862  0.627374  0.388189  1
  Cl  Cl11  1  0.076862  0.872626  0.888189  1
  Cl  Cl12  1  0.923138  0.372626  0.611811  1
  Cl  Cl13  1  0.106715  0.131983  0.278021  1
  Cl  Cl14  1  0.893285  0.631983  0.221979  1
  Cl  Cl15  1  0.893285  0.868017  0.721979  1
  Cl  Cl16  1  0.575544  0.751141  0.140980  1
  Cl  Cl17  1  0.424456  0.251141  0.359020  1
  Cl  Cl18  1  0.424456  0.248859  0.859020  1
  Cl  Cl19  1  0.575544  0.748859  0.640980  1
  Cl  Cl20  1  0.288734  0.345462  0.004920  1
  Cl  Cl21  1  0.711266  0.845462  0.495080  1
  Cl  Cl22  1  0.711266  0.654538  0.995080  1
  Cl  Cl23  1  0.288734  0.154538  0.504920  1
  Cl  Cl24  1  0.460666  0.354188  0.173833  1
  Cl  Cl25  1  0.539334  0.854188  0.326167  1
  Cl  Cl26  1  0.539334  0.645812  0.826167  1
  Cl  Cl27  1  0.460666  0.145812  0.673833  1
  Cl  Cl28  1  0.034319  0.729560  0.076282  1
  Cl  Cl29  1  0.965681  0.229560  0.423718  1
  Cl  Cl30  1  0.965681  0.270440  0.923718  1
  Cl  Cl31  1  0.034319  0.770440  0.576282  1
  Cl  Cl32  1  0.214701  0.729105  0.242921  1
  Cl  Cl33  1  0.785299  0.229105  0.257079  1
  Cl  Cl34  1  0.785299  0.270895  0.757079  1
  Cl  Cl35  1  0.214701  0.770895  0.742921  1
  Cl  Cl36  1  0.401299  0.746713  0.972053  1
  Cl  Cl37  1  0.598701  0.246713  0.527947  1
  Cl  Cl38  1  0.598701  0.253287  0.027947  1
  Cl  Cl39  1  0.401299  0.753287  0.472053  1
  O  O40  1  0.174760  0.159336  0.143554  1
  O  O41  1  0.320690  0.719991  0.600336  1
  O  O42  1  0.679310  0.219991  0.899664  1
  O  O43  1  0.679310  0.280009  0.399664  1
  O  O44  1  0.320690  0.780009  0.100336  1
  O  O45  1  0.174760  0.340664  0.643554  1
  O  O46  1  0.825240  0.840664  0.856446  1
  O  O47  1  0.825240  0.659336  0.356446  1
