# generated using pymatgen
data_KYF4
_symmetry_space_group_name_H-M   'P 1'
_cell_length_a   14.26417565
_cell_length_b   14.26417565
_cell_length_c   10.31399389
_cell_angle_alpha   90.00000000
_cell_angle_beta   90.00000000
_cell_angle_gamma   120.00000000
_symmetry_Int_Tables_number   1
_chemical_formula_structural   KYF4
_chemical_formula_sum   'K18 Y18 F72'
_cell_volume   1817.40139782
_cell_formula_units_Z   18
loop_
 _symmetry_equiv_pos_site_id
 _symmetry_equiv_pos_as_xyz
  1  'x, y, z'
loop_
 _atom_site_type_symbol
 _atom_site_label
 _atom_site_symmetry_multiplicity
 _atom_site_fract_x
 _atom_site_fract_y
 _atom_site_fract_z
 _atom_site_occupancy
  K  K0  1  0.781917  0.720759  0.322909  1
  K  K1  1  0.279241  0.061158  0.656242  1
  K  K2  1  0.938842  0.218083  0.989576  1
  K  K3  1  0.267115  0.220796  0.350542  1
  K  K4  1  0.779204  0.046319  0.683875  1
  K  K5  1  0.953681  0.732885  0.017208  1
  K  K6  1  0.102745  0.393778  0.318954  1
  K  K7  1  0.606222  0.708967  0.652287  1
  K  K8  1  0.291033  0.897255  0.985620  1
  K  K9  1  0.608220  0.876166  0.347516  1
  K  K10  1  0.123834  0.732054  0.680849  1
  K  K11  1  0.267946  0.391780  0.014182  1
  K  K12  1  0.947569  0.563069  0.345921  1
  K  K13  1  0.436931  0.384500  0.679254  1
  K  K14  1  0.615500  0.052431  0.012587  1
  K  K15  1  0.456072  0.065578  0.316799  1
  K  K16  1  0.934422  0.390493  0.650133  1
  K  K17  1  0.609507  0.543928  0.983466  1
  Y  Y18  1  0.130973  0.890373  0.332208  1
  Y  Y19  1  0.109627  0.240600  0.665541  1
  Y  Y20  1  0.759400  0.869027  0.998875  1
  Y  Y21  1  0.282638  0.731871  0.320665  1
  Y  Y22  1  0.268129  0.550768  0.653999  1
  Y  Y23  1  0.449232  0.717362  0.987332  1
  Y  Y24  1  0.778919  0.205907  0.340554  1
  Y  Y25  1  0.794093  0.573012  0.673888  1
  Y  Y26  1  0.426988  0.221081  0.007221  1
  Y  Y27  1  0.941815  0.058690  0.327804  1
  Y  Y28  1  0.941310  0.883125  0.661137  1
  Y  Y29  1  0.116875  0.058185  0.994470  1
  Y  Y30  1  0.454013  0.546429  0.325710  1
  Y  Y31  1  0.453571  0.907583  0.659044  1
  Y  Y32  1  0.092417  0.545987  0.992377  1
  Y  Y33  1  0.604705  0.387190  0.346280  1
  Y  Y34  1  0.612810  0.217515  0.679614  1
  Y  Y35  1  0.782485  0.395295  0.012947  1
  F  F36  1  0.132287  0.936049  0.115605  1
  F  F37  1  0.063951  0.196238  0.448938  1
  F  F38  1  0.803762  0.867713  0.782271  1
  F  F39  1  0.069000  0.877546  0.541346  1
  F  F40  1  0.122454  0.191454  0.874680  1
  F  F41  1  0.808546  0.931000  0.208013  1
  F  F42  1  0.212060  0.593858  0.466799  1
  F  F43  1  0.406142  0.618203  0.800133  1
  F  F44  1  0.381797  0.787940  0.133466  1
  F  F45  1  0.332175  0.728819  0.655725  1
  F  F46  1  0.271181  0.603356  0.989059  1
  F  F47  1  0.396644  0.667825  0.322392  1
  F  F48  1  0.735235  0.202798  0.556527  1
  F  F49  1  0.797202  0.532437  0.889860  1
  F  F50  1  0.467563  0.264765  0.223194  1
  F  F51  1  0.788817  0.268178  0.131559  1
  F  F52  1  0.731822  0.520639  0.464892  1
  F  F53  1  0.479361  0.211183  0.798226  1
  F  F54  1  0.999796  0.060109  0.664220  1
  F  F55  1  0.939891  0.939687  0.997554  1
  F  F56  1  0.060313  0.000204  0.330887  1
  F  F57  1  0.045373  0.122048  0.144252  1
  F  F58  1  0.877952  0.923324  0.477585  1
  F  F59  1  0.076676  0.954627  0.810918  1
  F  F60  1  0.391192  0.538236  0.534063  1
  F  F61  1  0.461764  0.852957  0.867396  1
  F  F62  1  0.147043  0.608808  0.200729  1
  F  F63  1  0.458356  0.591268  0.109371  1
  F  F64  1  0.408732  0.867088  0.442704  1
  F  F65  1  0.132912  0.541644  0.776037  1
  F  F66  1  0.547999  0.291703  0.535111  1
  F  F67  1  0.708297  0.256296  0.868444  1
  F  F68  1  0.743704  0.452001  0.201777  1
  F  F69  1  0.606090  0.342466  0.008962  1
  F  F70  1  0.657534  0.263624  0.342295  1
  F  F71  1  0.736376  0.393910  0.675628  1
  F  F72  1  0.768115  0.729280  0.067936  1
  F  F73  1  0.270720  0.038834  0.401270  1
  F  F74  1  0.961166  0.231885  0.734603  1
  F  F75  1  0.807540  0.723193  0.577818  1
  F  F76  1  0.276807  0.084347  0.911151  1
  F  F77  1  0.915653  0.192460  0.244485  1
  F  F78  1  0.246991  0.222768  0.607591  1
  F  F79  1  0.777232  0.024223  0.940924  1
  F  F80  1  0.975777  0.753009  0.274257  1
  F  F81  1  0.807745  0.074160  0.431575  1
  F  F82  1  0.925840  0.733586  0.764909  1
  F  F83  1  0.266414  0.192255  0.098242  1
  F  F84  1  0.128611  0.393422  0.571144  1
  F  F85  1  0.606578  0.735189  0.904477  1
  F  F86  1  0.264811  0.871389  0.237810  1
  F  F87  1  0.092585  0.402781  0.065483  1
  F  F88  1  0.597219  0.689804  0.398816  1
  F  F89  1  0.310196  0.907415  0.732149  1
  F  F90  1  0.152734  0.754297  0.423892  1
  F  F91  1  0.245703  0.398437  0.757225  1
  F  F92  1  0.601563  0.847266  0.090559  1
  F  F93  1  0.586721  0.881608  0.605061  1
  F  F94  1  0.118392  0.705113  0.938394  1
  F  F95  1  0.294887  0.413279  0.271728  1
  F  F96  1  0.938570  0.575698  0.600273  1
  F  F97  1  0.424302  0.362872  0.933606  1
  F  F98  1  0.637128  0.061430  0.266939  1
  F  F99  1  0.943043  0.532993  0.091955  1
  F  F100  1  0.467007  0.410050  0.425289  1
  F  F101  1  0.589950  0.056957  0.758622  1
  F  F102  1  0.481783  0.068685  0.572237  1
  F  F103  1  0.931315  0.413098  0.905570  1
  F  F104  1  0.586902  0.518217  0.238903  1
  F  F105  1  0.454318  0.088411  0.059755  1
  F  F106  1  0.911589  0.365907  0.393088  1
  F  F107  1  0.634093  0.545682  0.726421  1
