# generated using pymatgen
data_Si2NCl5
_symmetry_space_group_name_H-M   'P 1'
_cell_length_a   6.81758006
_cell_length_b   13.44986100
_cell_length_c   11.71044688
_cell_angle_alpha   90.00000000
_cell_angle_beta   112.21024572
_cell_angle_gamma   90.00000000
_symmetry_Int_Tables_number   1
_chemical_formula_structural   Si2NCl5
_chemical_formula_sum   'Si8 N4 Cl20'
_cell_volume   994.12294255
_cell_formula_units_Z   4
loop_
 _symmetry_equiv_pos_site_id
 _symmetry_equiv_pos_as_xyz
  1  'x, y, z'
loop_
 _atom_site_type_symbol
 _atom_site_label
 _atom_site_symmetry_multiplicity
 _atom_site_fract_x
 _atom_site_fract_y
 _atom_site_fract_z
 _atom_site_occupancy
  Si  Si0  1  0.557585  0.586792  0.491882  1
  Si  Si1  1  0.442415  0.086792  0.008118  1
  Si  Si2  1  0.442415  0.413208  0.508118  1
  Si  Si3  1  0.557585  0.913208  0.991882  1
  Si  Si4  1  0.776347  0.498099  0.762472  1
  Si  Si5  1  0.223653  0.998099  0.737528  1
  Si  Si6  1  0.223653  0.501901  0.237528  1
  Si  Si7  1  0.776347  0.001901  0.262472  1
  N  N8  1  0.624491  0.496452  0.607684  1
  N  N9  1  0.375509  0.996452  0.892316  1
  N  N10  1  0.375509  0.503548  0.392316  1
  N  N11  1  0.624491  0.003548  0.107684  1
  Cl  Cl12  1  0.430759  0.712610  0.531663  1
  Cl  Cl13  1  0.569241  0.212610  0.968337  1
  Cl  Cl14  1  0.569241  0.287390  0.468337  1
  Cl  Cl15  1  0.430759  0.787390  0.031663  1
  Cl  Cl16  1  0.793346  0.628248  0.435601  1
  Cl  Cl17  1  0.206654  0.128248  0.064399  1
  Cl  Cl18  1  0.206654  0.371752  0.564399  1
  Cl  Cl19  1  0.793346  0.871752  0.935601  1
  Cl  Cl20  1  0.922092  0.364007  0.815526  1
  Cl  Cl21  1  0.077908  0.864007  0.684474  1
  Cl  Cl22  1  0.077908  0.635993  0.184474  1
  Cl  Cl23  1  0.922092  0.135993  0.315526  1
  Cl  Cl24  1  0.997613  0.607766  0.796331  1
  Cl  Cl25  1  0.002387  0.107766  0.703669  1
  Cl  Cl26  1  0.002387  0.392234  0.203669  1
  Cl  Cl27  1  0.997613  0.892234  0.296331  1
  Cl  Cl28  1  0.597752  0.525142  0.865098  1
  Cl  Cl29  1  0.402248  0.025142  0.634902  1
  Cl  Cl30  1  0.402248  0.474858  0.134902  1
  Cl  Cl31  1  0.597752  0.974858  0.365098  1
