# generated using pymatgen
data_AsBr5F6
_symmetry_space_group_name_H-M   'P 1'
_cell_length_a   7.39783193
_cell_length_b   7.39783193
_cell_length_c   12.64395497
_cell_angle_alpha   77.79472092
_cell_angle_beta   102.20527908
_cell_angle_gamma   102.91819959
_symmetry_Int_Tables_number   1
_chemical_formula_structural   AsBr5F6
_chemical_formula_sum   'As2 Br10 F12'
_cell_volume   649.35836320
_cell_formula_units_Z   2
loop_
 _symmetry_equiv_pos_site_id
 _symmetry_equiv_pos_as_xyz
  1  'x, y, z'
loop_
 _atom_site_type_symbol
 _atom_site_label
 _atom_site_symmetry_multiplicity
 _atom_site_fract_x
 _atom_site_fract_y
 _atom_site_fract_z
 _atom_site_occupancy
  As  As0  1  0.363142  0.363142  0.750000  1
  As  As1  1  0.636858  0.636858  0.250000  1
  Br  Br2  1  0.861441  0.701803  0.917370  1
  Br  Br3  1  0.679996  0.087927  0.677271  1
  Br  Br4  1  0.912073  0.320004  0.177271  1
  Br  Br5  1  0.320004  0.912073  0.322729  1
  Br  Br6  1  0.087927  0.679996  0.822729  1
  Br  Br7  1  0.701803  0.861441  0.582630  1
  Br  Br8  1  0.138559  0.298197  0.082630  1
  Br  Br9  1  0.298197  0.138559  0.417370  1
  Br  Br10  1  0.000000  0.000000  0.000000  1
  Br  Br11  1  0.000000  0.000000  0.500000  1
  F  F12  1  0.618110  0.645260  0.106668  1
  F  F13  1  0.645260  0.618110  0.393332  1
  F  F14  1  0.381890  0.354740  0.893332  1
  F  F15  1  0.354740  0.381890  0.606668  1
  F  F16  1  0.659301  0.883662  0.229439  1
  F  F17  1  0.883662  0.659301  0.270561  1
  F  F18  1  0.387026  0.614590  0.731906  1
  F  F19  1  0.116338  0.340699  0.729439  1
  F  F20  1  0.385410  0.612974  0.231906  1
  F  F21  1  0.612974  0.385410  0.268094  1
  F  F22  1  0.614590  0.387026  0.768094  1
  F  F23  1  0.340699  0.116338  0.770561  1
