# generated using pymatgen
data_LiPO3
_symmetry_space_group_name_H-M   'P 1'
_cell_length_a   5.41133117
_cell_length_b   17.30412310
_cell_length_c   9.00386555
_cell_angle_alpha   90.00000000
_cell_angle_beta   116.99402458
_cell_angle_gamma   90.00000000
_symmetry_Int_Tables_number   1
_chemical_formula_structural   LiPO3
_chemical_formula_sum   'Li12 P12 O36'
_cell_volume   751.25377802
_cell_formula_units_Z   12
loop_
 _symmetry_equiv_pos_site_id
 _symmetry_equiv_pos_as_xyz
  1  'x, y, z'
loop_
 _atom_site_type_symbol
 _atom_site_label
 _atom_site_symmetry_multiplicity
 _atom_site_fract_x
 _atom_site_fract_y
 _atom_site_fract_z
 _atom_site_occupancy
  Li  Li0  1  0.917633  0.189711  0.725475  1
  Li  Li1  1  0.082367  0.689711  0.774525  1
  Li  Li2  1  0.082367  0.810289  0.274525  1
  Li  Li3  1  0.917633  0.310289  0.225475  1
  Li  Li4  1  0.075125  0.021000  0.871033  1
  Li  Li5  1  0.924875  0.521000  0.628967  1
  Li  Li6  1  0.924875  0.979000  0.128967  1
  Li  Li7  1  0.075125  0.479000  0.371033  1
  Li  Li8  1  0.175838  0.843406  0.937531  1
  Li  Li9  1  0.824162  0.343406  0.562469  1
  Li  Li10  1  0.824162  0.156594  0.062469  1
  Li  Li11  1  0.175838  0.656594  0.437531  1
  P  P12  1  0.604187  0.901591  0.306185  1
  P  P13  1  0.395813  0.401591  0.193815  1
  P  P14  1  0.395813  0.098409  0.693815  1
  P  P15  1  0.604187  0.598409  0.806185  1
  P  P16  1  0.505233  0.563227  0.279694  1
  P  P17  1  0.494767  0.063227  0.220306  1
  P  P18  1  0.494767  0.436773  0.720306  1
  P  P19  1  0.505233  0.936773  0.779694  1
  P  P20  1  0.607639  0.689304  0.089486  1
  P  P21  1  0.392361  0.189304  0.410514  1
  P  P22  1  0.392361  0.310696  0.910514  1
  P  P23  1  0.607639  0.810696  0.589486  1
  O  O24  1  0.308126  0.566764  0.354624  1
  O  O25  1  0.691874  0.066764  0.145376  1
  O  O26  1  0.691874  0.433236  0.645376  1
  O  O27  1  0.308126  0.933236  0.854624  1
  O  O28  1  0.679678  0.130424  0.805961  1
  O  O29  1  0.320322  0.630424  0.694039  1
  O  O30  1  0.320322  0.869576  0.194039  1
  O  O31  1  0.679678  0.369576  0.305961  1
  O  O32  1  0.169804  0.396504  0.246648  1
  O  O33  1  0.830196  0.896504  0.253352  1
  O  O34  1  0.830196  0.603496  0.753352  1
  O  O35  1  0.169804  0.103496  0.746648  1
  O  O36  1  0.574109  0.508792  0.848726  1
  O  O37  1  0.425891  0.008792  0.651274  1
  O  O38  1  0.425891  0.491208  0.151274  1
  O  O39  1  0.574109  0.991208  0.348726  1
  O  O40  1  0.430295  0.867550  0.648017  1
  O  O41  1  0.569705  0.367550  0.851983  1
  O  O42  1  0.569705  0.132450  0.351983  1
  O  O43  1  0.430295  0.632450  0.148017  1
  O  O44  1  0.398047  0.756395  0.467916  1
  O  O45  1  0.601953  0.256395  0.032084  1
  O  O46  1  0.601953  0.243605  0.532084  1
  O  O47  1  0.398047  0.743605  0.967916  1
  O  O48  1  0.812246  0.940264  0.895325  1
  O  O49  1  0.187754  0.440264  0.604675  1
  O  O50  1  0.187754  0.059736  0.104675  1
  O  O51  1  0.812246  0.559736  0.395325  1
  O  O52  1  0.140578  0.217666  0.261323  1
  O  O53  1  0.859422  0.717666  0.238677  1
  O  O54  1  0.859422  0.782334  0.738677  1
  O  O55  1  0.140578  0.282334  0.761323  1
  O  O56  1  0.723264  0.632057  0.992466  1
  O  O57  1  0.276736  0.132057  0.507534  1
  O  O58  1  0.276736  0.367943  0.007534  1
  O  O59  1  0.723264  0.867943  0.492466  1
