# generated using pymatgen
data_MoS2Cl3
_symmetry_space_group_name_H-M   'P 1'
_cell_length_a   6.25299604
_cell_length_b   7.71384826
_cell_length_c   14.36656851
_cell_angle_alpha   90.00000000
_cell_angle_beta   114.20496567
_cell_angle_gamma   90.00000000
_symmetry_Int_Tables_number   1
_chemical_formula_structural   MoS2Cl3
_chemical_formula_sum   'Mo4 S8 Cl12'
_cell_volume   632.04414069
_cell_formula_units_Z   4
loop_
 _symmetry_equiv_pos_site_id
 _symmetry_equiv_pos_as_xyz
  1  'x, y, z'
loop_
 _atom_site_type_symbol
 _atom_site_label
 _atom_site_symmetry_multiplicity
 _atom_site_fract_x
 _atom_site_fract_y
 _atom_site_fract_z
 _atom_site_occupancy
  Mo  Mo0  1  0.201857  0.593334  0.505172  1
  Mo  Mo1  1  0.798143  0.093334  0.994828  1
  Mo  Mo2  1  0.798143  0.406666  0.494828  1
  Mo  Mo3  1  0.201857  0.906666  0.005172  1
  S  S4  1  0.814867  0.716671  0.452069  1
  S  S5  1  0.185133  0.283329  0.547931  1
  S  S6  1  0.814867  0.783329  0.952069  1
  S  S7  1  0.185133  0.216671  0.047931  1
  S  S8  1  0.158865  0.048934  0.148517  1
  S  S9  1  0.841135  0.548934  0.351483  1
  S  S10  1  0.841135  0.951066  0.851483  1
  S  S11  1  0.158865  0.451066  0.648517  1
  Cl  Cl12  1  0.264529  0.679035  0.134878  1
  Cl  Cl13  1  0.264529  0.820965  0.634878  1
  Cl  Cl14  1  0.735471  0.179035  0.365122  1
  Cl  Cl15  1  0.735471  0.320965  0.865122  1
  Cl  Cl16  1  0.641811  0.928308  0.110473  1
  Cl  Cl17  1  0.358189  0.428308  0.389527  1
  Cl  Cl18  1  0.358189  0.071692  0.889527  1
  Cl  Cl19  1  0.641811  0.571692  0.610473  1
  Cl  Cl20  1  0.275588  0.669504  0.916299  1
  Cl  Cl21  1  0.724412  0.169504  0.583701  1
  Cl  Cl22  1  0.724412  0.330496  0.083701  1
  Cl  Cl23  1  0.275588  0.830496  0.416299  1
