# generated using pymatgen
data_ICl3
_symmetry_space_group_name_H-M   'P 1'
_cell_length_a   6.01729071
_cell_length_b   6.23876647
_cell_length_c   8.83965531
_cell_angle_alpha   71.26674403
_cell_angle_beta   84.61224256
_cell_angle_gamma   85.56688249
_symmetry_Int_Tables_number   1
_chemical_formula_structural   ICl3
_chemical_formula_sum   'I2 Cl6'
_cell_volume   312.48531825
_cell_formula_units_Z   2
loop_
 _symmetry_equiv_pos_site_id
 _symmetry_equiv_pos_as_xyz
  1  'x, y, z'
loop_
 _atom_site_type_symbol
 _atom_site_label
 _atom_site_symmetry_multiplicity
 _atom_site_fract_x
 _atom_site_fract_y
 _atom_site_fract_z
 _atom_site_occupancy
  I  I0  1  0.820416  0.000572  0.816436  1
  I  I1  1  0.179584  0.999428  0.183564  1
  Cl  Cl2  1  0.442535  0.257965  0.204312  1
  Cl  Cl3  1  0.557465  0.742035  0.795688  1
  Cl  Cl4  1  0.878653  0.736160  0.124979  1
  Cl  Cl5  1  0.121347  0.263840  0.875021  1
  Cl  Cl6  1  0.208984  0.743453  0.449650  1
  Cl  Cl7  1  0.791016  0.256547  0.550350  1
