# generated using pymatgen
data_Ge5F12
_symmetry_space_group_name_H-M   'P 1'
_cell_length_a   8.25002592
_cell_length_b   7.83379503
_cell_length_c   8.68002904
_cell_angle_alpha   90.00000000
_cell_angle_beta   93.05249668
_cell_angle_gamma   90.00000000
_symmetry_Int_Tables_number   1
_chemical_formula_structural   Ge5F12
_chemical_formula_sum   'Ge10 F24'
_cell_volume   560.18576047
_cell_formula_units_Z   2
loop_
 _symmetry_equiv_pos_site_id
 _symmetry_equiv_pos_as_xyz
  1  'x, y, z'
loop_
 _atom_site_type_symbol
 _atom_site_label
 _atom_site_symmetry_multiplicity
 _atom_site_fract_x
 _atom_site_fract_y
 _atom_site_fract_z
 _atom_site_occupancy
  Ge  Ge0  1  0.132521  0.446255  0.707593  1
  Ge  Ge1  1  0.367479  0.946255  0.292407  1
  Ge  Ge2  1  0.867479  0.553745  0.292407  1
  Ge  Ge3  1  0.632521  0.053745  0.707593  1
  Ge  Ge4  1  0.000000  0.000000  0.500000  1
  Ge  Ge5  1  0.500000  0.500000  0.500000  1
  Ge  Ge6  1  0.190882  0.874734  0.889585  1
  Ge  Ge7  1  0.309118  0.374734  0.110415  1
  Ge  Ge8  1  0.809118  0.125266  0.110415  1
  Ge  Ge9  1  0.690882  0.625266  0.889585  1
  F  F10  1  0.391500  0.938332  0.825043  1
  F  F11  1  0.108500  0.438332  0.174957  1
  F  F12  1  0.608500  0.061668  0.174957  1
  F  F13  1  0.891500  0.561668  0.825043  1
  F  F14  1  0.157374  0.153095  0.540606  1
  F  F15  1  0.342626  0.653095  0.459394  1
  F  F16  1  0.842626  0.846905  0.459394  1
  F  F17  1  0.657374  0.346905  0.540606  1
  F  F18  1  0.099475  0.852207  0.641753  1
  F  F19  1  0.400525  0.352207  0.358247  1
  F  F20  1  0.669101  0.199380  0.877087  1
  F  F21  1  0.830899  0.699380  0.122913  1
  F  F22  1  0.330899  0.800620  0.122913  1
  F  F23  1  0.169101  0.300620  0.877087  1
  F  F24  1  0.737236  0.869874  0.848175  1
  F  F25  1  0.762764  0.369874  0.151825  1
  F  F26  1  0.262764  0.130126  0.151825  1
  F  F27  1  0.237236  0.630126  0.848175  1
  F  F28  1  0.882514  0.096115  0.658009  1
  F  F29  1  0.617486  0.596115  0.341991  1
  F  F30  1  0.117486  0.903885  0.341991  1
  F  F31  1  0.382514  0.403885  0.658009  1
  F  F32  1  0.599475  0.647793  0.641753  1
  F  F33  1  0.900525  0.147793  0.358247  1
