# generated using pymatgen
data_VFeH2O5
_symmetry_space_group_name_H-M   'P 1'
_cell_length_a   5.56057223
_cell_length_b   5.70972876
_cell_length_c   6.76819109
_cell_angle_alpha   100.49306186
_cell_angle_beta   95.03977875
_cell_angle_gamma   107.19249562
_symmetry_Int_Tables_number   1
_chemical_formula_structural   VFeH2O5
_chemical_formula_sum   'V2 Fe2 H4 O10'
_cell_volume   199.54190233
_cell_formula_units_Z   2
loop_
 _symmetry_equiv_pos_site_id
 _symmetry_equiv_pos_as_xyz
  1  'x, y, z'
loop_
 _atom_site_type_symbol
 _atom_site_label
 _atom_site_symmetry_multiplicity
 _atom_site_fract_x
 _atom_site_fract_y
 _atom_site_fract_z
 _atom_site_occupancy
  V  V0  1  0.257935  0.620962  0.755810  1
  V  V1  1  0.742065  0.379038  0.244190  1
  Fe  Fe2  1  0.636221  0.216720  0.699283  1
  Fe  Fe3  1  0.363779  0.783280  0.300717  1
  H  H4  1  0.080031  0.113318  0.703912  1
  H  H5  1  0.919969  0.886682  0.296088  1
  H  H6  1  0.873982  0.850328  0.711800  1
  H  H7  1  0.126018  0.149672  0.288200  1
  O  O8  1  0.647372  0.638812  0.330593  1
  O  O9  1  0.623494  0.262246  0.993793  1
  O  O10  1  0.376506  0.737754  0.006207  1
  O  O11  1  0.352628  0.361188  0.669407  1
  O  O12  1  0.377827  0.861607  0.617930  1
  O  O13  1  0.908710  0.033904  0.737590  1
  O  O14  1  0.075150  0.470829  0.278394  1
  O  O15  1  0.924850  0.529171  0.721606  1
  O  O16  1  0.091290  0.966096  0.262410  1
  O  O17  1  0.622173  0.138393  0.382070  1
