# generated using pymatgen
data_Rb4Hg5Te13
_symmetry_space_group_name_H-M   'P 1'
_cell_length_a   9.37265463
_cell_length_b   10.26030948
_cell_length_c   35.49147830
_cell_angle_alpha   90.00000000
_cell_angle_beta   90.00000000
_cell_angle_gamma   90.00000000
_symmetry_Int_Tables_number   1
_chemical_formula_structural   Rb4Hg5Te13
_chemical_formula_sum   'Rb16 Hg20 Te52'
_cell_volume   3413.08546825
_cell_formula_units_Z   4
loop_
 _symmetry_equiv_pos_site_id
 _symmetry_equiv_pos_as_xyz
  1  'x, y, z'
loop_
 _atom_site_type_symbol
 _atom_site_label
 _atom_site_symmetry_multiplicity
 _atom_site_fract_x
 _atom_site_fract_y
 _atom_site_fract_z
 _atom_site_occupancy
  Rb  Rb0  1  0.992867  0.225597  0.015147  1
  Rb  Rb1  1  0.492867  0.774403  0.984853  1
  Rb  Rb2  1  0.507133  0.725597  0.484853  1
  Rb  Rb3  1  0.007133  0.274403  0.515147  1
  Rb  Rb4  1  0.007133  0.774403  0.984853  1
  Rb  Rb5  1  0.507133  0.225597  0.015147  1
  Rb  Rb6  1  0.492867  0.274403  0.515147  1
  Rb  Rb7  1  0.992867  0.725597  0.484853  1
  Rb  Rb8  1  0.750000  0.582988  0.159604  1
  Rb  Rb9  1  0.250000  0.417012  0.840396  1
  Rb  Rb10  1  0.750000  0.082988  0.340396  1
  Rb  Rb11  1  0.250000  0.917012  0.659604  1
  Rb  Rb12  1  0.250000  0.087905  0.246598  1
  Rb  Rb13  1  0.750000  0.912095  0.753402  1
  Rb  Rb14  1  0.250000  0.587905  0.253402  1
  Rb  Rb15  1  0.750000  0.412095  0.746598  1
  Hg  Hg16  1  0.750000  0.944113  0.197092  1
  Hg  Hg17  1  0.250000  0.055887  0.802908  1
  Hg  Hg18  1  0.750000  0.444113  0.302908  1
  Hg  Hg19  1  0.250000  0.555887  0.697092  1
  Hg  Hg20  1  0.024799  0.790905  0.096930  1
  Hg  Hg21  1  0.524799  0.209095  0.903070  1
  Hg  Hg22  1  0.475201  0.290905  0.403070  1
  Hg  Hg23  1  0.975201  0.709095  0.596930  1
  Hg  Hg24  1  0.975201  0.209095  0.903070  1
  Hg  Hg25  1  0.475201  0.790905  0.096930  1
  Hg  Hg26  1  0.524799  0.709095  0.596930  1
  Hg  Hg27  1  0.024799  0.290905  0.403070  1
  Hg  Hg28  1  0.008207  0.127664  0.144477  1
  Hg  Hg29  1  0.508207  0.872336  0.855523  1
  Hg  Hg30  1  0.491793  0.627664  0.355523  1
  Hg  Hg31  1  0.991793  0.372336  0.644477  1
  Hg  Hg32  1  0.991793  0.872336  0.855523  1
  Hg  Hg33  1  0.491793  0.127664  0.144477  1
  Hg  Hg34  1  0.508207  0.372336  0.644477  1
  Hg  Hg35  1  0.008207  0.627664  0.355523  1
  Te  Te36  1  0.027575  0.870342  0.175316  1
  Te  Te37  1  0.527575  0.129658  0.824684  1
  Te  Te38  1  0.472425  0.370342  0.324684  1
  Te  Te39  1  0.972425  0.629658  0.675316  1
  Te  Te40  1  0.972425  0.129658  0.824684  1
  Te  Te41  1  0.472425  0.870342  0.175316  1
  Te  Te42  1  0.527575  0.629658  0.675316  1
  Te  Te43  1  0.027575  0.370342  0.324684  1
  Te  Te44  1  0.250000  0.930476  0.058186  1
  Te  Te45  1  0.750000  0.069524  0.941814  1
  Te  Te46  1  0.250000  0.430476  0.441814  1
  Te  Te47  1  0.750000  0.569524  0.558186  1
  Te  Te48  1  0.750000  0.140432  0.096290  1
  Te  Te49  1  0.250000  0.859568  0.903710  1
  Te  Te50  1  0.750000  0.640432  0.403710  1
  Te  Te51  1  0.250000  0.359568  0.596290  1
  Te  Te52  1  0.750000  0.893510  0.063065  1
  Te  Te53  1  0.250000  0.106490  0.936935  1
  Te  Te54  1  0.750000  0.393510  0.436935  1
  Te  Te55  1  0.250000  0.606490  0.563065  1
  Te  Te56  1  0.250000  0.205164  0.098968  1
  Te  Te57  1  0.750000  0.794836  0.901032  1
  Te  Te58  1  0.250000  0.705164  0.401032  1
  Te  Te59  1  0.750000  0.294836  0.598968  1
  Te  Te60  1  0.250000  0.446730  0.144759  1
  Te  Te61  1  0.750000  0.553270  0.855241  1
  Te  Te62  1  0.250000  0.946730  0.355241  1
  Te  Te63  1  0.750000  0.053270  0.644759  1
  Te  Te64  1  0.750000  0.205447  0.234485  1
  Te  Te65  1  0.250000  0.794553  0.765515  1
  Te  Te66  1  0.750000  0.705447  0.265515  1
  Te  Te67  1  0.250000  0.294553  0.734485  1
  Te  Te68  1  0.997043  0.333400  0.198052  1
  Te  Te69  1  0.497043  0.666600  0.801948  1
  Te  Te70  1  0.502957  0.833400  0.301948  1
  Te  Te71  1  0.002957  0.166600  0.698052  1
  Te  Te72  1  0.002957  0.666600  0.801948  1
  Te  Te73  1  0.502957  0.333400  0.198052  1
  Te  Te74  1  0.497043  0.166600  0.698052  1
  Te  Te75  1  0.997043  0.833400  0.301948  1
  Te  Te76  1  0.750000  0.537407  0.031620  1
  Te  Te77  1  0.250000  0.462593  0.968380  1
  Te  Te78  1  0.750000  0.037407  0.468380  1
  Te  Te79  1  0.250000  0.962593  0.531620  1
  Te  Te80  1  0.994426  0.520914  0.079381  1
  Te  Te81  1  0.494426  0.479086  0.920619  1
  Te  Te82  1  0.505574  0.020914  0.420619  1
  Te  Te83  1  0.005574  0.979086  0.579381  1
  Te  Te84  1  0.005574  0.479086  0.920619  1
  Te  Te85  1  0.505574  0.520914  0.079381  1
  Te  Te86  1  0.494426  0.979086  0.579381  1
  Te  Te87  1  0.994426  0.020914  0.420619  1
