# generated using pymatgen
data_Cs3InO3
_symmetry_space_group_name_H-M   'P 1'
_cell_length_a   8.30634913
_cell_length_b   7.45801374
_cell_length_c   11.99646926
_cell_angle_alpha   90.00000000
_cell_angle_beta   95.61492250
_cell_angle_gamma   90.00000000
_symmetry_Int_Tables_number   1
_chemical_formula_structural   Cs3InO3
_chemical_formula_sum   'Cs12 In4 O12'
_cell_volume   739.60191132
_cell_formula_units_Z   4
loop_
 _symmetry_equiv_pos_site_id
 _symmetry_equiv_pos_as_xyz
  1  'x, y, z'
loop_
 _atom_site_type_symbol
 _atom_site_label
 _atom_site_symmetry_multiplicity
 _atom_site_fract_x
 _atom_site_fract_y
 _atom_site_fract_z
 _atom_site_occupancy
  Cs  Cs0  1  0.652668  0.832384  0.572955  1
  Cs  Cs1  1  0.375000  0.820992  0.806038  1
  Cs  Cs2  1  0.625000  0.320992  0.693962  1
  Cs  Cs3  1  0.375000  0.679008  0.306038  1
  Cs  Cs4  1  0.951910  0.622235  0.843843  1
  Cs  Cs5  1  0.347332  0.167616  0.427045  1
  Cs  Cs6  1  0.951910  0.877765  0.343843  1
  Cs  Cs7  1  0.625000  0.179008  0.193962  1
  Cs  Cs8  1  0.652668  0.667616  0.072955  1
  Cs  Cs9  1  0.048090  0.377765  0.156157  1
  Cs  Cs10  1  0.048090  0.122235  0.656157  1
  Cs  Cs11  1  0.347332  0.332384  0.927045  1
  In  In12  1  0.843627  0.416552  0.433294  1
  In  In13  1  0.843627  0.083448  0.933294  1
  In  In14  1  0.156373  0.583448  0.566706  1
  In  In15  1  0.156373  0.916552  0.066706  1
  O  O16  1  0.707726  0.942718  0.808483  1
  O  O17  1  0.754477  0.161684  0.460689  1
  O  O18  1  0.099203  0.446420  0.408635  1
  O  O19  1  0.754477  0.338316  0.960689  1
  O  O20  1  0.707726  0.557282  0.308483  1
  O  O21  1  0.900797  0.553580  0.591365  1
  O  O22  1  0.292274  0.057282  0.191517  1
  O  O23  1  0.292274  0.442718  0.691517  1
  O  O24  1  0.245523  0.838316  0.539311  1
  O  O25  1  0.245523  0.661684  0.039311  1
  O  O26  1  0.099203  0.053580  0.908635  1
  O  O27  1  0.900797  0.946420  0.091365  1
