# generated using pymatgen
data_PH10N2O4F
_symmetry_space_group_name_H-M   'P 1'
_cell_length_a   6.37873654
_cell_length_b   8.36700375
_cell_length_c   12.73254198
_cell_angle_alpha   90.00000000
_cell_angle_beta   98.91811741
_cell_angle_gamma   90.00000000
_symmetry_Int_Tables_number   1
_chemical_formula_structural   PH10N2O4F
_chemical_formula_sum   'P4 H40 N8 O16 F4'
_cell_volume   671.33226552
_cell_formula_units_Z   4
loop_
 _symmetry_equiv_pos_site_id
 _symmetry_equiv_pos_as_xyz
  1  'x, y, z'
loop_
 _atom_site_type_symbol
 _atom_site_label
 _atom_site_symmetry_multiplicity
 _atom_site_fract_x
 _atom_site_fract_y
 _atom_site_fract_z
 _atom_site_occupancy
  P  P0  1  0.194931  0.922117  0.355482  1
  P  P1  1  0.805069  0.422117  0.144518  1
  P  P2  1  0.805069  0.077883  0.644518  1
  P  P3  1  0.194931  0.577883  0.855482  1
  H  H4  1  0.871185  0.934745  0.174960  1
  H  H5  1  0.128815  0.434745  0.325040  1
  H  H6  1  0.128815  0.065255  0.825040  1
  H  H7  1  0.871185  0.565255  0.674960  1
  H  H8  1  0.203635  0.575099  0.405106  1
  H  H9  1  0.796365  0.075099  0.094894  1
  H  H10  1  0.796365  0.424901  0.594894  1
  H  H11  1  0.203635  0.924901  0.905106  1
  H  H12  1  0.804944  0.776032  0.379124  1
  H  H13  1  0.195056  0.276032  0.120876  1
  H  H14  1  0.195056  0.223968  0.620876  1
  H  H15  1  0.804944  0.723968  0.879124  1
  H  H16  1  0.558905  0.723540  0.404767  1
  H  H17  1  0.441095  0.223540  0.095233  1
  H  H18  1  0.441095  0.276460  0.595233  1
  H  H19  1  0.558905  0.776460  0.904767  1
  H  H20  1  0.774172  0.637358  0.476388  1
  H  H21  1  0.199135  0.600480  0.157552  1
  H  H22  1  0.225828  0.137358  0.023612  1
  H  H23  1  0.774172  0.862642  0.976388  1
  H  H24  1  0.706801  0.593753  0.343193  1
  H  H25  1  0.293199  0.093753  0.156807  1
  H  H26  1  0.293199  0.406247  0.656807  1
  H  H27  1  0.706801  0.906247  0.843193  1
  H  H28  1  0.327030  0.780730  0.186420  1
  H  H29  1  0.672970  0.280730  0.313580  1
  H  H30  1  0.672970  0.219270  0.813580  1
  H  H31  1  0.327030  0.719270  0.686420  1
  H  H32  1  0.311265  0.696597  0.061876  1
  H  H33  1  0.688735  0.196597  0.438124  1
  H  H34  1  0.688735  0.303403  0.938124  1
  H  H35  1  0.311265  0.803403  0.561876  1
  H  H36  1  0.462508  0.891343  0.669774  1
  H  H37  1  0.537492  0.391343  0.830226  1
  H  H38  1  0.537492  0.108657  0.330226  1
  H  H39  1  0.462508  0.608657  0.169774  1
  H  H40  1  0.199135  0.899520  0.657552  1
  H  H41  1  0.800865  0.399520  0.842448  1
  H  H42  1  0.800865  0.100480  0.342448  1
  H  H43  1  0.225828  0.362642  0.523612  1
  N  N44  1  0.324850  0.826230  0.643826  1
  N  N45  1  0.675150  0.326230  0.856174  1
  N  N46  1  0.675150  0.173770  0.356174  1
  N  N47  1  0.324850  0.673770  0.143826  1
  N  N48  1  0.711773  0.682648  0.401059  1
  N  N49  1  0.288227  0.182648  0.098941  1
  N  N50  1  0.288227  0.317352  0.598941  1
  N  N51  1  0.711773  0.817352  0.901059  1
  O  O52  1  0.821774  0.958399  0.099059  1
  O  O53  1  0.178226  0.041601  0.900941  1
  O  O54  1  0.178226  0.458399  0.400941  1
  O  O55  1  0.821774  0.541601  0.599059  1
  O  O56  1  0.955886  0.923198  0.317559  1
  O  O57  1  0.044114  0.423198  0.182441  1
  O  O58  1  0.044114  0.076802  0.682441  1
  O  O59  1  0.955886  0.576802  0.817559  1
  O  O60  1  0.330847  0.537925  0.769941  1
  O  O61  1  0.722138  0.277543  0.076934  1
  O  O62  1  0.722138  0.222457  0.576934  1
  O  O63  1  0.277862  0.722457  0.923066  1
  O  O64  1  0.330847  0.962075  0.269941  1
  O  O65  1  0.669153  0.462075  0.230059  1
  O  O66  1  0.669153  0.037925  0.730059  1
  O  O67  1  0.277862  0.777543  0.423066  1
  F  F68  1  0.765815  0.571014  0.062243  1
  F  F69  1  0.234185  0.071014  0.437757  1
  F  F70  1  0.234185  0.428986  0.937757  1
  F  F71  1  0.765815  0.928986  0.562243  1
