# generated using pymatgen
data_Zn4As2O9
_symmetry_space_group_name_H-M   'P 1'
_cell_length_a   9.93055880
_cell_length_b   8.35963020
_cell_length_c   10.59926680
_cell_angle_alpha   90.00000000
_cell_angle_beta   120.92271521
_cell_angle_gamma   90.00000000
_symmetry_Int_Tables_number   1
_chemical_formula_structural   Zn4As2O9
_chemical_formula_sum   'Zn16 As8 O36'
_cell_volume   754.83777315
_cell_formula_units_Z   4
loop_
 _symmetry_equiv_pos_site_id
 _symmetry_equiv_pos_as_xyz
  1  'x, y, z'
loop_
 _atom_site_type_symbol
 _atom_site_label
 _atom_site_symmetry_multiplicity
 _atom_site_fract_x
 _atom_site_fract_y
 _atom_site_fract_z
 _atom_site_occupancy
  Zn  Zn0  1  0.847306  0.681531  0.523320  1
  Zn  Zn1  1  0.152694  0.181531  0.976680  1
  Zn  Zn2  1  0.152694  0.318469  0.476680  1
  Zn  Zn3  1  0.847306  0.818469  0.023320  1
  Zn  Zn4  1  0.899338  0.979651  0.345756  1
  Zn  Zn5  1  0.100662  0.479651  0.154244  1
  Zn  Zn6  1  0.100662  0.020349  0.654244  1
  Zn  Zn7  1  0.899338  0.520349  0.845756  1
  Zn  Zn8  1  0.484496  0.307168  0.994453  1
  Zn  Zn9  1  0.515504  0.807168  0.505547  1
  Zn  Zn10  1  0.515504  0.692832  0.005547  1
  Zn  Zn11  1  0.484496  0.192832  0.494453  1
  Zn  Zn12  1  0.794026  0.243611  0.956345  1
  Zn  Zn13  1  0.205974  0.743611  0.543655  1
  Zn  Zn14  1  0.205974  0.756389  0.043655  1
  Zn  Zn15  1  0.794026  0.256389  0.456345  1
  As  As16  1  0.500015  0.016365  0.213924  1
  As  As17  1  0.499985  0.516365  0.286076  1
  As  As18  1  0.499985  0.983635  0.786076  1
  As  As19  1  0.500015  0.483635  0.713924  1
  As  As20  1  0.840810  0.005548  0.733290  1
  As  As21  1  0.159190  0.505548  0.766710  1
  As  As22  1  0.159190  0.994452  0.266710  1
  As  As23  1  0.840810  0.494452  0.233290  1
  O  O24  1  0.758178  0.335274  0.114477  1
  O  O25  1  0.241822  0.835274  0.385523  1
  O  O26  1  0.241822  0.664726  0.885523  1
  O  O27  1  0.758178  0.164726  0.614477  1
  O  O28  1  0.044906  0.483446  0.306510  1
  O  O29  1  0.955094  0.983446  0.193490  1
  O  O30  1  0.955094  0.516554  0.693490  1
  O  O31  1  0.044906  0.016554  0.806510  1
  O  O32  1  0.995297  0.673472  0.008635  1
  O  O33  1  0.004703  0.173472  0.491365  1
  O  O34  1  0.004703  0.326528  0.991365  1
  O  O35  1  0.995297  0.826528  0.508635  1
  O  O36  1  0.476427  0.499328  0.863455  1
  O  O37  1  0.523573  0.999328  0.636545  1
  O  O38  1  0.824547  0.475629  0.387090  1
  O  O39  1  0.523573  0.500672  0.136545  1
  O  O40  1  0.443615  0.658062  0.613396  1
  O  O41  1  0.556385  0.158062  0.886604  1
  O  O42  1  0.556385  0.341938  0.386604  1
  O  O43  1  0.443615  0.841938  0.113396  1
  O  O44  1  0.693072  0.427679  0.783627  1
  O  O45  1  0.306928  0.927679  0.716373  1
  O  O46  1  0.306928  0.572321  0.216373  1
  O  O47  1  0.693072  0.072321  0.283627  1
  O  O48  1  0.777256  0.820782  0.653234  1
  O  O49  1  0.222744  0.320782  0.846766  1
  O  O50  1  0.222744  0.179218  0.346766  1
  O  O51  1  0.777256  0.679218  0.153234  1
  O  O52  1  0.393951  0.170729  0.094286  1
  O  O53  1  0.606049  0.670729  0.405714  1
  O  O54  1  0.606049  0.829271  0.905714  1
  O  O55  1  0.393951  0.329271  0.594286  1
  O  O56  1  0.824547  0.024371  0.887090  1
  O  O57  1  0.175453  0.524371  0.612910  1
  O  O58  1  0.175453  0.975629  0.112910  1
  O  O59  1  0.476427  0.000672  0.363455  1
