# generated using pymatgen
data_BaAg8S5
_symmetry_space_group_name_H-M   'P 1'
_cell_length_a   7.87760803
_cell_length_b   17.71365965
_cell_length_c   9.08920222
_cell_angle_alpha   90.00000000
_cell_angle_beta   108.22467926
_cell_angle_gamma   90.00000000
_symmetry_Int_Tables_number   1
_chemical_formula_structural   BaAg8S5
_chemical_formula_sum   'Ba4 Ag32 S20'
_cell_volume   1204.69666682
_cell_formula_units_Z   4
loop_
 _symmetry_equiv_pos_site_id
 _symmetry_equiv_pos_as_xyz
  1  'x, y, z'
loop_
 _atom_site_type_symbol
 _atom_site_label
 _atom_site_symmetry_multiplicity
 _atom_site_fract_x
 _atom_site_fract_y
 _atom_site_fract_z
 _atom_site_occupancy
  Ba  Ba0  1  0.561089  0.750000  0.246969  1
  Ba  Ba1  1  0.438911  0.250000  0.753031  1
  Ba  Ba2  1  0.599844  0.750000  0.786214  1
  Ba  Ba3  1  0.400156  0.250000  0.213786  1
  Ag  Ag4  1  0.053874  0.838293  0.369854  1
  Ag  Ag5  1  0.946126  0.161707  0.630146  1
  Ag  Ag6  1  0.685781  0.450972  0.711245  1
  Ag  Ag7  1  0.314219  0.950972  0.288755  1
  Ag  Ag8  1  0.314219  0.549028  0.288755  1
  Ag  Ag9  1  0.053874  0.661707  0.369854  1
  Ag  Ag10  1  0.938441  0.494362  0.145782  1
  Ag  Ag11  1  0.061559  0.994362  0.854218  1
  Ag  Ag12  1  0.061559  0.505638  0.854218  1
  Ag  Ag13  1  0.938441  0.005638  0.145782  1
  Ag  Ag14  1  0.629554  0.448971  0.347131  1
  Ag  Ag15  1  0.370446  0.948971  0.652869  1
  Ag  Ag16  1  0.370446  0.551029  0.652869  1
  Ag  Ag17  1  0.629554  0.051029  0.347131  1
  Ag  Ag18  1  0.500000  0.500000  0.000000  1
  Ag  Ag19  1  0.500000  0.000000  0.000000  1
  Ag  Ag20  1  0.258808  0.096819  0.427460  1
  Ag  Ag21  1  0.741192  0.596819  0.572540  1
  Ag  Ag22  1  0.741192  0.903181  0.572540  1
  Ag  Ag23  1  0.258808  0.403181  0.427460  1
  Ag  Ag24  1  0.887643  0.163148  0.279666  1
  Ag  Ag25  1  0.112357  0.663148  0.720334  1
  Ag  Ag26  1  0.112357  0.836852  0.720334  1
  Ag  Ag27  1  0.887643  0.336852  0.279666  1
  Ag  Ag28  1  0.000000  0.000000  0.500000  1
  Ag  Ag29  1  0.000000  0.500000  0.500000  1
  Ag  Ag30  1  0.898926  0.159742  0.957846  1
  Ag  Ag31  1  0.101074  0.659742  0.042154  1
  Ag  Ag32  1  0.101074  0.840258  0.042154  1
  Ag  Ag33  1  0.898926  0.340258  0.957846  1
  Ag  Ag34  1  0.685781  0.049028  0.711245  1
  Ag  Ag35  1  0.946126  0.338293  0.630146  1
  S  S36  1  0.632617  0.134656  0.044948  1
  S  S37  1  0.367383  0.634656  0.955052  1
  S  S38  1  0.367383  0.865344  0.955052  1
  S  S39  1  0.632617  0.365344  0.044948  1
  S  S40  1  0.394506  0.846521  0.472527  1
  S  S41  1  0.605494  0.346521  0.527473  1
  S  S42  1  0.877952  0.750000  0.567719  1
  S  S43  1  0.122048  0.250000  0.432281  1
  S  S44  1  0.227877  0.069251  0.142667  1
  S  S45  1  0.772123  0.569251  0.857333  1
  S  S46  1  0.772123  0.930749  0.857333  1
  S  S47  1  0.227877  0.430749  0.142667  1
  S  S48  1  0.905120  0.750000  0.120666  1
  S  S49  1  0.094880  0.250000  0.879334  1
  S  S50  1  0.231007  0.071408  0.702881  1
  S  S51  1  0.768993  0.571408  0.297119  1
  S  S52  1  0.768993  0.928592  0.297119  1
  S  S53  1  0.231007  0.428592  0.702881  1
  S  S54  1  0.605494  0.153479  0.527473  1
  S  S55  1  0.394506  0.653479  0.472527  1
