# generated using pymatgen
data_NaBH4
_symmetry_space_group_name_H-M   'P 1'
_cell_length_a   4.27299586
_cell_length_b   7.02144476
_cell_length_c   7.54004013
_cell_angle_alpha   90.00000000
_cell_angle_beta   90.00000000
_cell_angle_gamma   90.00000000
_symmetry_Int_Tables_number   1
_chemical_formula_structural   NaBH4
_chemical_formula_sum   'Na4 B4 H16'
_cell_volume   226.22084111
_cell_formula_units_Z   4
loop_
 _symmetry_equiv_pos_site_id
 _symmetry_equiv_pos_as_xyz
  1  'x, y, z'
loop_
 _atom_site_type_symbol
 _atom_site_label
 _atom_site_symmetry_multiplicity
 _atom_site_fract_x
 _atom_site_fract_y
 _atom_site_fract_z
 _atom_site_occupancy
  Na  Na0  1  0.250000  0.251568  0.510772  1
  Na  Na1  1  0.750000  0.748432  0.489228  1
  Na  Na2  1  0.750000  0.751568  0.989228  1
  Na  Na3  1  0.250000  0.248432  0.010772  1
  B  B4  1  0.250000  0.923273  0.773385  1
  B  B5  1  0.750000  0.076727  0.226615  1
  B  B6  1  0.750000  0.423273  0.726615  1
  B  B7  1  0.250000  0.576727  0.273385  1
  H  H8  1  0.515090  0.509495  0.680535  1
  H  H9  1  0.015090  0.490505  0.319465  1
  H  H10  1  0.484910  0.009495  0.819465  1
  H  H11  1  0.984910  0.990505  0.180535  1
  H  H12  1  0.484910  0.490505  0.319465  1
  H  H13  1  0.984910  0.509495  0.680535  1
  H  H14  1  0.515090  0.990505  0.180535  1
  H  H15  1  0.015090  0.009495  0.819465  1
  H  H16  1  0.250000  0.737405  0.336028  1
  H  H17  1  0.750000  0.262595  0.663972  1
  H  H18  1  0.750000  0.237405  0.163972  1
  H  H19  1  0.250000  0.762595  0.836028  1
  H  H20  1  0.750000  0.090096  0.389995  1
  H  H21  1  0.250000  0.909904  0.610005  1
  H  H22  1  0.250000  0.590096  0.110005  1
  H  H23  1  0.750000  0.409904  0.889995  1
