# generated using pymatgen
data_KZnP2H5O9
_symmetry_space_group_name_H-M   'P 1'
_cell_length_a   7.73856137
_cell_length_b   7.91247426
_cell_length_c   8.06759983
_cell_angle_alpha   115.31077155
_cell_angle_beta   84.88374486
_cell_angle_gamma   107.93751372
_symmetry_Int_Tables_number   1
_chemical_formula_structural   KZnP2H5O9
_chemical_formula_sum   'K2 Zn2 P4 H10 O18'
_cell_volume   424.34158398
_cell_formula_units_Z   2
loop_
 _symmetry_equiv_pos_site_id
 _symmetry_equiv_pos_as_xyz
  1  'x, y, z'
loop_
 _atom_site_type_symbol
 _atom_site_label
 _atom_site_symmetry_multiplicity
 _atom_site_fract_x
 _atom_site_fract_y
 _atom_site_fract_z
 _atom_site_occupancy
  K  K0  1  0.861521  0.775630  0.776045  1
  K  K1  1  0.138479  0.224370  0.223955  1
  Zn  Zn2  1  0.739208  0.231775  0.969116  1
  Zn  Zn3  1  0.260792  0.768225  0.030884  1
  P  P4  1  0.377865  0.951475  0.745597  1
  P  P5  1  0.622135  0.048525  0.254403  1
  P  P6  1  0.079612  0.320805  0.740227  1
  P  P7  1  0.920388  0.679195  0.259773  1
  H  H8  1  0.543588  0.523463  0.273311  1
  H  H9  1  0.456412  0.476537  0.726689  1
  H  H10  1  0.446684  0.669109  0.273610  1
  H  H11  1  0.553316  0.330891  0.726390  1
  H  H12  1  0.860632  0.280798  0.563192  1
  H  H13  1  0.139368  0.719202  0.436808  1
  H  H14  1  0.201798  0.078937  0.576829  1
  H  H15  1  0.798202  0.921063  0.423171  1
  H  H16  1  0.466336  0.702685  0.537915  1
  H  H17  1  0.533664  0.297315  0.462085  1
  O  O18  1  0.257312  0.917922  0.586132  1
  O  O19  1  0.476669  0.785251  0.677499  1
  O  O20  1  0.737676  0.063797  0.091784  1
  O  O21  1  0.523331  0.214749  0.322501  1
  O  O22  1  0.764782  0.503074  0.142119  1
  O  O23  1  0.235218  0.496926  0.857881  1
  O  O24  1  0.839496  0.812918  0.434724  1
  O  O25  1  0.160504  0.187082  0.565276  1
  O  O26  1  0.525089  0.154165  0.810793  1
  O  O27  1  0.474911  0.845835  0.189207  1
  O  O28  1  0.967974  0.201718  0.842506  1
  O  O29  1  0.032026  0.798282  0.157494  1
  O  O30  1  0.045346  0.602710  0.339975  1
  O  O31  1  0.954654  0.397290  0.660025  1
  O  O32  1  0.562349  0.429324  0.677155  1
  O  O33  1  0.437651  0.570676  0.322845  1
  O  O34  1  0.262324  0.936203  0.908216  1
  O  O35  1  0.742688  0.082078  0.413868  1
