# generated using pymatgen
data_RbLi2(IO3)3
_symmetry_space_group_name_H-M   'P 1'
_cell_length_a   8.42024200
_cell_length_b   11.41012925
_cell_length_c   11.44876584
_cell_angle_alpha   90.00000000
_cell_angle_beta   111.02339825
_cell_angle_gamma   90.00000000
_symmetry_Int_Tables_number   1
_chemical_formula_structural   RbLi2(IO3)3
_chemical_formula_sum   'Rb4 Li8 I12 O36'
_cell_volume   1026.73277623
_cell_formula_units_Z   4
loop_
 _symmetry_equiv_pos_site_id
 _symmetry_equiv_pos_as_xyz
  1  'x, y, z'
loop_
 _atom_site_type_symbol
 _atom_site_label
 _atom_site_symmetry_multiplicity
 _atom_site_fract_x
 _atom_site_fract_y
 _atom_site_fract_z
 _atom_site_occupancy
  Rb  Rb0  1  0.711571  0.455606  0.661343  1
  Rb  Rb1  1  0.288429  0.955606  0.838657  1
  Rb  Rb2  1  0.288429  0.544394  0.338657  1
  Rb  Rb3  1  0.711571  0.044394  0.161343  1
  Li  Li4  1  0.626450  0.215915  0.860447  1
  Li  Li5  1  0.373550  0.715915  0.639553  1
  Li  Li6  1  0.373550  0.784085  0.139553  1
  Li  Li7  1  0.626450  0.284085  0.360447  1
  Li  Li8  1  0.016410  0.210735  0.847353  1
  Li  Li9  1  0.983590  0.710735  0.652647  1
  Li  Li10  1  0.983590  0.789265  0.152647  1
  Li  Li11  1  0.016410  0.289265  0.347353  1
  I  I12  1  0.916464  0.131992  0.561692  1
  I  I13  1  0.083536  0.631992  0.938308  1
  I  I14  1  0.083536  0.868008  0.438308  1
  I  I15  1  0.916464  0.368008  0.061692  1
  I  I16  1  0.409370  0.182116  0.546002  1
  I  I17  1  0.590630  0.682116  0.953998  1
  I  I18  1  0.590630  0.817884  0.453998  1
  I  I19  1  0.409370  0.317884  0.046002  1
  I  I20  1  0.226519  0.447364  0.679983  1
  I  I21  1  0.773481  0.947364  0.820017  1
  I  I22  1  0.773481  0.552636  0.320017  1
  I  I23  1  0.226519  0.052636  0.179983  1
  O  O24  1  0.132570  0.079545  0.583353  1
  O  O25  1  0.867430  0.579545  0.916647  1
  O  O26  1  0.867430  0.920455  0.416647  1
  O  O27  1  0.132570  0.420455  0.083353  1
  O  O28  1  0.140279  0.795094  0.591267  1
  O  O29  1  0.859721  0.295094  0.908733  1
  O  O30  1  0.974076  0.257173  0.669296  1
  O  O31  1  0.859721  0.204906  0.408733  1
  O  O32  1  0.955103  0.458341  0.330008  1
  O  O33  1  0.044897  0.958341  0.169992  1
  O  O34  1  0.044897  0.541659  0.669992  1
  O  O35  1  0.955103  0.041659  0.830008  1
  O  O36  1  0.650081  0.456081  0.382967  1
  O  O37  1  0.349919  0.956081  0.117033  1
  O  O38  1  0.349919  0.543919  0.617033  1
  O  O39  1  0.650081  0.043919  0.882967  1
  O  O40  1  0.651756  0.536921  0.152426  1
  O  O41  1  0.348244  0.036921  0.347574  1
  O  O42  1  0.348244  0.463079  0.847574  1
  O  O43  1  0.651756  0.963079  0.652426  1
  O  O44  1  0.258808  0.288220  0.447382  1
  O  O45  1  0.741192  0.788220  0.052618  1
  O  O46  1  0.741192  0.711780  0.552618  1
  O  O47  1  0.258808  0.211780  0.947382  1
  O  O48  1  0.464759  0.238314  0.195648  1
  O  O49  1  0.535241  0.738314  0.304352  1
  O  O50  1  0.535241  0.761686  0.804352  1
  O  O51  1  0.464759  0.261686  0.695648  1
  O  O52  1  0.598497  0.275746  0.011771  1
  O  O53  1  0.401503  0.775746  0.488229  1
  O  O54  1  0.401503  0.724254  0.988229  1
  O  O55  1  0.598497  0.224254  0.511771  1
  O  O56  1  0.974076  0.242827  0.169296  1
  O  O57  1  0.025924  0.742827  0.330704  1
  O  O58  1  0.025924  0.757173  0.830704  1
  O  O59  1  0.140279  0.704906  0.091267  1
