# generated using pymatgen
data_GaTeCl
_symmetry_space_group_name_H-M   'P 1'
_cell_length_a   4.16141595
_cell_length_b   5.98308766
_cell_length_c   15.90599825
_cell_angle_alpha   90.00000000
_cell_angle_beta   90.00000000
_cell_angle_gamma   90.00000000
_symmetry_Int_Tables_number   1
_chemical_formula_structural   GaTeCl
_chemical_formula_sum   'Ga4 Te4 Cl4'
_cell_volume   396.02939618
_cell_formula_units_Z   4
loop_
 _symmetry_equiv_pos_site_id
 _symmetry_equiv_pos_as_xyz
  1  'x, y, z'
loop_
 _atom_site_type_symbol
 _atom_site_label
 _atom_site_symmetry_multiplicity
 _atom_site_fract_x
 _atom_site_fract_y
 _atom_site_fract_z
 _atom_site_occupancy
  Ga  Ga0  1  0.500000  0.528386  0.191137  1
  Ga  Ga1  1  0.000000  0.971614  0.691137  1
  Ga  Ga2  1  0.000000  0.028386  0.308863  1
  Ga  Ga3  1  0.500000  0.471614  0.808863  1
  Te  Te4  1  0.500000  0.246697  0.664196  1
  Te  Te5  1  0.000000  0.746697  0.835804  1
  Te  Te6  1  0.000000  0.253303  0.164196  1
  Te  Te7  1  0.500000  0.753303  0.335804  1
  Cl  Cl8  1  0.500000  0.240780  0.916509  1
  Cl  Cl9  1  0.000000  0.740780  0.583491  1
  Cl  Cl10  1  0.500000  0.759220  0.083491  1
  Cl  Cl11  1  0.000000  0.259220  0.416509  1
