# generated using pymatgen
data_KAlSb4
_symmetry_space_group_name_H-M   'P 1'
_cell_length_a   4.27920210
_cell_length_b   10.55059130
_cell_length_c   18.28990688
_cell_angle_alpha   90.00000000
_cell_angle_beta   90.00000000
_cell_angle_gamma   90.00000000
_symmetry_Int_Tables_number   1
_chemical_formula_structural   KAlSb4
_chemical_formula_sum   'K4 Al4 Sb16'
_cell_volume   825.75477247
_cell_formula_units_Z   4
loop_
 _symmetry_equiv_pos_site_id
 _symmetry_equiv_pos_as_xyz
  1  'x, y, z'
loop_
 _atom_site_type_symbol
 _atom_site_label
 _atom_site_symmetry_multiplicity
 _atom_site_fract_x
 _atom_site_fract_y
 _atom_site_fract_z
 _atom_site_occupancy
  K  K0  1  0.250000  0.823646  0.565565  1
  K  K1  1  0.750000  0.176354  0.434435  1
  K  K2  1  0.250000  0.323646  0.934435  1
  K  K3  1  0.750000  0.676354  0.065565  1
  Al  Al4  1  0.250000  0.680786  0.368373  1
  Al  Al5  1  0.750000  0.319214  0.631627  1
  Al  Al6  1  0.250000  0.180786  0.131627  1
  Al  Al7  1  0.750000  0.819214  0.868373  1
  Sb  Sb8  1  0.750000  0.328794  0.100890  1
  Sb  Sb9  1  0.250000  0.671206  0.899110  1
  Sb  Sb10  1  0.750000  0.828794  0.399110  1
  Sb  Sb11  1  0.250000  0.171206  0.600890  1
  Sb  Sb12  1  0.750000  0.887100  0.725382  1
  Sb  Sb13  1  0.250000  0.112900  0.274618  1
  Sb  Sb14  1  0.750000  0.387100  0.774618  1
  Sb  Sb15  1  0.250000  0.612900  0.225382  1
  Sb  Sb16  1  0.750000  0.035820  0.950318  1
  Sb  Sb17  1  0.250000  0.964180  0.049682  1
  Sb  Sb18  1  0.750000  0.535820  0.549682  1
  Sb  Sb19  1  0.250000  0.464180  0.450318  1
  Sb  Sb20  1  0.750000  0.429840  0.247128  1
  Sb  Sb21  1  0.250000  0.570160  0.752872  1
  Sb  Sb22  1  0.750000  0.929840  0.252872  1
  Sb  Sb23  1  0.250000  0.070160  0.747128  1
