# generated using pymatgen
data_HS8N
_symmetry_space_group_name_H-M   'P 1'
_cell_length_a   8.51802665
_cell_length_b   9.12818833
_cell_length_c   13.76201251
_cell_angle_alpha   90.00000000
_cell_angle_beta   90.00000000
_cell_angle_gamma   90.00000000
_symmetry_Int_Tables_number   1
_chemical_formula_structural   HS8N
_chemical_formula_sum   'H4 S32 N4'
_cell_volume   1070.05360511
_cell_formula_units_Z   4
loop_
 _symmetry_equiv_pos_site_id
 _symmetry_equiv_pos_as_xyz
  1  'x, y, z'
loop_
 _atom_site_type_symbol
 _atom_site_label
 _atom_site_symmetry_multiplicity
 _atom_site_fract_x
 _atom_site_fract_y
 _atom_site_fract_z
 _atom_site_occupancy
  H  H0  1  0.201266  0.459442  0.033594  1
  H  H1  1  0.798734  0.959442  0.966406  1
  H  H2  1  0.798734  0.459442  0.533594  1
  H  H3  1  0.201266  0.959442  0.466406  1
  S  S4  1  0.203858  0.111440  0.599350  1
  S  S5  1  0.796142  0.611440  0.400650  1
  S  S6  1  0.796142  0.111440  0.099350  1
  S  S7  1  0.203858  0.611440  0.900650  1
  S  S8  1  0.335351  0.292514  0.559349  1
  S  S9  1  0.664649  0.792514  0.440651  1
  S  S10  1  0.664649  0.292514  0.059349  1
  S  S11  1  0.335351  0.792514  0.940651  1
  S  S12  1  0.544255  0.214102  0.500632  1
  S  S13  1  0.455745  0.714102  0.499368  1
  S  S14  1  0.455745  0.214102  0.000632  1
  S  S15  1  0.544255  0.714102  0.999368  1
  S  S16  1  0.541572  0.252430  0.352745  1
  S  S17  1  0.458428  0.752430  0.647255  1
  S  S18  1  0.458428  0.252430  0.852745  1
  S  S19  1  0.541572  0.752430  0.147255  1
  S  S20  1  0.406074  0.089676  0.288728  1
  S  S21  1  0.593926  0.589676  0.711272  1
  S  S22  1  0.593926  0.089676  0.788728  1
  S  S23  1  0.406074  0.589676  0.211272  1
  S  S24  1  0.203791  0.186013  0.234249  1
  S  S25  1  0.796208  0.686013  0.765751  1
  S  S26  1  0.796208  0.186013  0.734249  1
  S  S27  1  0.203791  0.686013  0.265751  1
  S  S28  1  0.074943  0.266714  0.349684  1
  S  S29  1  0.925057  0.766714  0.650316  1
  S  S30  1  0.925057  0.266714  0.849684  1
  S  S31  1  0.074943  0.766714  0.150316  1
  S  S32  1  0.981112  0.095315  0.428472  1
  S  S33  1  0.018888  0.595315  0.571528  1
  S  S34  1  0.018888  0.095315  0.928472  1
  S  S35  1  0.981112  0.595315  0.071528  1
  N  N36  1  0.125718  0.529554  0.999243  1
  N  N37  1  0.874282  0.029554  0.000757  1
  N  N38  1  0.874282  0.529554  0.499243  1
  N  N39  1  0.125718  0.029554  0.500757  1
