# generated using pymatgen
data_Cs2GaSb2
_symmetry_space_group_name_H-M   'P 1'
_cell_length_a   8.55520083
_cell_length_b   11.40603195
_cell_length_c   18.38254015
_cell_angle_alpha   90.00000000
_cell_angle_beta   90.00000000
_cell_angle_gamma   90.00000000
_symmetry_Int_Tables_number   1
_chemical_formula_structural   Cs2GaSb2
_chemical_formula_sum   'Cs16 Ga8 Sb16'
_cell_volume   1793.78470193
_cell_formula_units_Z   8
loop_
 _symmetry_equiv_pos_site_id
 _symmetry_equiv_pos_as_xyz
  1  'x, y, z'
loop_
 _atom_site_type_symbol
 _atom_site_label
 _atom_site_symmetry_multiplicity
 _atom_site_fract_x
 _atom_site_fract_y
 _atom_site_fract_z
 _atom_site_occupancy
  Cs  Cs0  1  0.369978  0.447818  0.364354  1
  Cs  Cs1  1  0.869978  0.552182  0.135646  1
  Cs  Cs2  1  0.630022  0.947818  0.635646  1
  Cs  Cs3  1  0.130022  0.052182  0.864354  1
  Cs  Cs4  1  0.630022  0.552182  0.635646  1
  Cs  Cs5  1  0.130022  0.447818  0.864354  1
  Cs  Cs6  1  0.369978  0.052182  0.364354  1
  Cs  Cs7  1  0.869978  0.947818  0.135646  1
  Cs  Cs8  1  0.876231  0.466498  0.372198  1
  Cs  Cs9  1  0.376231  0.533502  0.127802  1
  Cs  Cs10  1  0.123769  0.966498  0.627802  1
  Cs  Cs11  1  0.623769  0.033502  0.872198  1
  Cs  Cs12  1  0.123769  0.533502  0.627802  1
  Cs  Cs13  1  0.623769  0.466498  0.872198  1
  Cs  Cs14  1  0.876231  0.033502  0.372198  1
  Cs  Cs15  1  0.376231  0.966498  0.127802  1
  Ga  Ga16  1  0.607533  0.750000  0.421703  1
  Ga  Ga17  1  0.107533  0.250000  0.078297  1
  Ga  Ga18  1  0.892467  0.750000  0.921703  1
  Ga  Ga19  1  0.359704  0.750000  0.921222  1
  Ga  Ga20  1  0.859704  0.250000  0.578778  1
  Ga  Ga21  1  0.640296  0.250000  0.078778  1
  Ga  Ga22  1  0.140296  0.750000  0.421222  1
  Ga  Ga23  1  0.392467  0.250000  0.578297  1
  Sb  Sb24  1  0.202840  0.750000  0.281492  1
  Sb  Sb25  1  0.873354  0.250000  0.987486  1
  Sb  Sb26  1  0.626646  0.250000  0.487486  1
  Sb  Sb27  1  0.373354  0.750000  0.512514  1
  Sb  Sb28  1  0.956009  0.750000  0.781858  1
  Sb  Sb29  1  0.456009  0.250000  0.718142  1
  Sb  Sb30  1  0.043991  0.250000  0.218142  1
  Sb  Sb31  1  0.543991  0.750000  0.281858  1
  Sb  Sb32  1  0.702840  0.250000  0.218508  1
  Sb  Sb33  1  0.797160  0.250000  0.718508  1
  Sb  Sb34  1  0.297160  0.750000  0.781492  1
  Sb  Sb35  1  0.874466  0.750000  0.495119  1
  Sb  Sb36  1  0.625534  0.750000  0.995119  1
  Sb  Sb37  1  0.125534  0.250000  0.504881  1
  Sb  Sb38  1  0.126646  0.750000  0.012514  1
  Sb  Sb39  1  0.374466  0.250000  0.004881  1
