# generated using pymatgen
data_KTa5O13
_symmetry_space_group_name_H-M   'P 1'
_cell_length_a   5.73219332
_cell_length_b   10.85301918
_cell_length_c   17.02449211
_cell_angle_alpha   90.00000000
_cell_angle_beta   90.00000000
_cell_angle_gamma   90.00000000
_symmetry_Int_Tables_number   1
_chemical_formula_structural   KTa5O13
_chemical_formula_sum   'K4 Ta20 O52'
_cell_volume   1059.12096222
_cell_formula_units_Z   4
loop_
 _symmetry_equiv_pos_site_id
 _symmetry_equiv_pos_as_xyz
  1  'x, y, z'
loop_
 _atom_site_type_symbol
 _atom_site_label
 _atom_site_symmetry_multiplicity
 _atom_site_fract_x
 _atom_site_fract_y
 _atom_site_fract_z
 _atom_site_occupancy
  K  K0  1  0.797001  0.325527  0.750000  1
  K  K1  1  0.797001  0.174473  0.250000  1
  K  K2  1  0.202999  0.825527  0.750000  1
  K  K3  1  0.202999  0.674473  0.250000  1
  Ta  Ta4  1  0.334714  0.750000  0.500000  1
  Ta  Ta5  1  0.665286  0.250000  0.000000  1
  Ta  Ta6  1  0.665286  0.250000  0.500000  1
  Ta  Ta7  1  0.334714  0.750000  0.000000  1
  Ta  Ta8  1  0.345506  0.366664  0.363108  1
  Ta  Ta9  1  0.345506  0.133336  0.636892  1
  Ta  Ta10  1  0.654494  0.866664  0.136892  1
  Ta  Ta11  1  0.654494  0.633336  0.863108  1
  Ta  Ta12  1  0.654494  0.633336  0.636892  1
  Ta  Ta13  1  0.654494  0.866664  0.363108  1
  Ta  Ta14  1  0.345506  0.133336  0.863108  1
  Ta  Ta15  1  0.345506  0.366664  0.136892  1
  Ta  Ta16  1  0.160706  0.063503  0.424149  1
  Ta  Ta17  1  0.160706  0.436497  0.575851  1
  Ta  Ta18  1  0.839294  0.563503  0.075851  1
  Ta  Ta19  1  0.839294  0.936497  0.924149  1
  Ta  Ta20  1  0.839294  0.936497  0.575851  1
  Ta  Ta21  1  0.839294  0.563503  0.424149  1
  Ta  Ta22  1  0.160706  0.436497  0.924149  1
  Ta  Ta23  1  0.160706  0.063503  0.075851  1
  O  O24  1  0.399809  0.747967  0.388566  1
  O  O25  1  0.399809  0.752033  0.611434  1
  O  O26  1  0.600191  0.247967  0.111434  1
  O  O27  1  0.600191  0.252033  0.888566  1
  O  O28  1  0.600191  0.252033  0.611434  1
  O  O29  1  0.600191  0.247967  0.388566  1
  O  O30  1  0.399809  0.752033  0.888566  1
  O  O31  1  0.399809  0.747967  0.111434  1
  O  O32  1  0.407950  0.995157  0.365361  1
  O  O33  1  0.407950  0.504843  0.634639  1
  O  O34  1  0.592050  0.495157  0.134639  1
  O  O35  1  0.592050  0.004843  0.865361  1
  O  O36  1  0.592050  0.004843  0.634639  1
  O  O37  1  0.592050  0.495157  0.365361  1
  O  O38  1  0.407950  0.504843  0.865361  1
  O  O39  1  0.407950  0.995157  0.134639  1
  O  O40  1  0.360243  0.374618  0.487331  1
  O  O41  1  0.360243  0.125382  0.512669  1
  O  O42  1  0.633731  0.651428  0.750000  1
  O  O43  1  0.639757  0.874618  0.012669  1
  O  O44  1  0.639757  0.625382  0.512669  1
  O  O45  1  0.639757  0.874618  0.487331  1
  O  O46  1  0.360243  0.125382  0.987331  1
  O  O47  1  0.360243  0.374618  0.012669  1
  O  O48  1  0.089447  0.482672  0.136248  1
  O  O49  1  0.089447  0.017328  0.863752  1
  O  O50  1  0.910553  0.982672  0.363752  1
  O  O51  1  0.910553  0.517328  0.636248  1
  O  O52  1  0.910553  0.517328  0.863752  1
  O  O53  1  0.910553  0.982672  0.136248  1
  O  O54  1  0.089447  0.017328  0.636248  1
  O  O55  1  0.089447  0.482672  0.363752  1
  O  O56  1  0.135398  0.217524  0.126714  1
  O  O57  1  0.135398  0.282476  0.873286  1
  O  O58  1  0.864602  0.717524  0.373286  1
  O  O59  1  0.864602  0.782476  0.626714  1
  O  O60  1  0.864602  0.782476  0.873286  1
  O  O61  1  0.864602  0.717524  0.126714  1
  O  O62  1  0.135398  0.282476  0.626714  1
  O  O63  1  0.135398  0.217524  0.373286  1
  O  O64  1  0.129679  0.606704  0.996897  1
  O  O65  1  0.129679  0.893296  0.003103  1
  O  O66  1  0.870321  0.106704  0.503103  1
  O  O67  1  0.870321  0.393296  0.496897  1
  O  O68  1  0.870321  0.393296  0.003103  1
  O  O69  1  0.870321  0.106704  0.996897  1
  O  O70  1  0.129679  0.893296  0.496897  1
  O  O71  1  0.129679  0.606704  0.503103  1
  O  O72  1  0.366269  0.348572  0.250000  1
  O  O73  1  0.366269  0.151428  0.750000  1
  O  O74  1  0.633731  0.848572  0.250000  1
  O  O75  1  0.639757  0.625382  0.987331  1
