# generated using pymatgen
data_GaP3(HO5)2
_symmetry_space_group_name_H-M   'P 1'
_cell_length_a   7.44596293
_cell_length_b   8.81575304
_cell_length_c   12.51583805
_cell_angle_alpha   90.00000000
_cell_angle_beta   112.77336727
_cell_angle_gamma   90.00000000
_symmetry_Int_Tables_number   1
_chemical_formula_structural   GaP3(HO5)2
_chemical_formula_sum   'Ga4 P12 H8 O40'
_cell_volume   757.51542455
_cell_formula_units_Z   4
loop_
 _symmetry_equiv_pos_site_id
 _symmetry_equiv_pos_as_xyz
  1  'x, y, z'
loop_
 _atom_site_type_symbol
 _atom_site_label
 _atom_site_symmetry_multiplicity
 _atom_site_fract_x
 _atom_site_fract_y
 _atom_site_fract_z
 _atom_site_occupancy
  Ga  Ga0  1  0.250456  0.933471  0.794541  1
  Ga  Ga1  1  0.749544  0.433471  0.705459  1
  Ga  Ga2  1  0.749544  0.066529  0.205459  1
  Ga  Ga3  1  0.250456  0.566529  0.294541  1
  P  P4  1  0.702529  0.881352  0.975497  1
  P  P5  1  0.297471  0.381352  0.524503  1
  P  P6  1  0.297471  0.118648  0.024503  1
  P  P7  1  0.702529  0.618648  0.475497  1
  P  P8  1  0.641242  0.112726  0.792217  1
  P  P9  1  0.358758  0.612726  0.707783  1
  P  P10  1  0.358758  0.887274  0.207783  1
  P  P11  1  0.641242  0.387274  0.292217  1
  P  P12  1  0.857753  0.110806  0.637584  1
  P  P13  1  0.142247  0.610806  0.862416  1
  P  P14  1  0.142247  0.889194  0.362416  1
  P  P15  1  0.857753  0.389194  0.137584  1
  H  H16  1  0.740072  0.679423  0.885953  1
  H  H17  1  0.259928  0.179423  0.614047  1
  H  H18  1  0.259928  0.320577  0.114047  1
  H  H19  1  0.740072  0.820577  0.385953  1
  H  H20  1  0.728283  0.141931  0.445628  1
  H  H21  1  0.271717  0.641931  0.054372  1
  H  H22  1  0.271717  0.858069  0.554372  1
  H  H23  1  0.728283  0.358069  0.945628  1
  O  O24  1  0.815769  0.743623  0.953764  1
  O  O25  1  0.184231  0.243623  0.546236  1
  O  O26  1  0.184231  0.256377  0.046236  1
  O  O27  1  0.815769  0.756377  0.453764  1
  O  O28  1  0.206633  0.083906  0.896836  1
  O  O29  1  0.793367  0.583906  0.603164  1
  O  O30  1  0.793367  0.916094  0.103164  1
  O  O31  1  0.206633  0.416094  0.396836  1
  O  O32  1  0.575482  0.578727  0.753393  1
  O  O33  1  0.424518  0.078727  0.746607  1
  O  O34  1  0.424518  0.421273  0.246607  1
  O  O35  1  0.575482  0.921273  0.253393  1
  O  O36  1  0.697715  0.221274  0.315403  1
  O  O37  1  0.302285  0.721274  0.184597  1
  O  O38  1  0.302285  0.778726  0.684597  1
  O  O39  1  0.697715  0.278726  0.815403  1
  O  O40  1  0.484498  0.855827  0.921687  1
  O  O41  1  0.515502  0.355827  0.578313  1
  O  O42  1  0.515502  0.144173  0.078313  1
  O  O43  1  0.484498  0.644173  0.421687  1
  O  O44  1  0.096786  0.775870  0.828984  1
  O  O45  1  0.903214  0.275870  0.671016  1
  O  O46  1  0.903214  0.224130  0.171016  1
  O  O47  1  0.096786  0.724130  0.328984  1
  O  O48  1  0.034440  0.010105  0.664023  1
  O  O49  1  0.965560  0.510105  0.835977  1
  O  O50  1  0.965560  0.989895  0.335977  1
  O  O51  1  0.034440  0.489895  0.164023  1
  O  O52  1  0.753710  0.025882  0.910710  1
  O  O53  1  0.246290  0.525882  0.589290  1
  O  O54  1  0.246290  0.974118  0.089290  1
  O  O55  1  0.753710  0.474118  0.410710  1
  O  O56  1  0.712746  0.084116  0.510239  1
  O  O57  1  0.287254  0.584116  0.989761  1
  O  O58  1  0.287254  0.915884  0.489761  1
  O  O59  1  0.712746  0.415884  0.010239  1
  O  O60  1  0.729058  0.041375  0.706093  1
  O  O61  1  0.270942  0.541375  0.793907  1
  O  O62  1  0.270942  0.958625  0.293907  1
  O  O63  1  0.729058  0.458625  0.206093  1
