# generated using pymatgen
data_Bi(PO3)3
_symmetry_space_group_name_H-M   'P 1'
_cell_length_a   7.27803230
_cell_length_b   7.04299119
_cell_length_c   13.89734934
_cell_angle_alpha   90.00000000
_cell_angle_beta   93.09892590
_cell_angle_gamma   90.00000000
_symmetry_Int_Tables_number   1
_chemical_formula_structural   Bi(PO3)3
_chemical_formula_sum   'Bi4 P12 O36'
_cell_volume   711.32415759
_cell_formula_units_Z   4
loop_
 _symmetry_equiv_pos_site_id
 _symmetry_equiv_pos_as_xyz
  1  'x, y, z'
loop_
 _atom_site_type_symbol
 _atom_site_label
 _atom_site_symmetry_multiplicity
 _atom_site_fract_x
 _atom_site_fract_y
 _atom_site_fract_z
 _atom_site_occupancy
  Bi  Bi0  1  0.759468  0.363333  0.430547  1
  Bi  Bi1  1  0.240532  0.863333  0.069453  1
  Bi  Bi2  1  0.240532  0.636667  0.569453  1
  Bi  Bi3  1  0.759468  0.136667  0.930547  1
  P  P4  1  0.236887  0.315328  0.364585  1
  P  P5  1  0.763113  0.815328  0.135415  1
  P  P6  1  0.763113  0.684672  0.635415  1
  P  P7  1  0.236887  0.184672  0.864585  1
  P  P8  1  0.294047  0.391639  0.157946  1
  P  P9  1  0.705953  0.891639  0.342054  1
  P  P10  1  0.705953  0.608361  0.842054  1
  P  P11  1  0.294047  0.108361  0.657946  1
  P  P12  1  0.705931  0.398703  0.173849  1
  P  P13  1  0.294069  0.898703  0.326151  1
  P  P14  1  0.294069  0.601297  0.826151  1
  P  P15  1  0.705931  0.101297  0.673849  1
  O  O16  1  0.430856  0.344447  0.404277  1
  O  O17  1  0.569144  0.844447  0.095723  1
  O  O18  1  0.569144  0.655553  0.595723  1
  O  O19  1  0.430856  0.155553  0.904277  1
  O  O20  1  0.088058  0.390583  0.427026  1
  O  O21  1  0.911942  0.890583  0.072974  1
  O  O22  1  0.911942  0.609417  0.572974  1
  O  O23  1  0.088058  0.109417  0.927026  1
  O  O24  1  0.794350  0.036537  0.409550  1
  O  O25  1  0.205650  0.536537  0.090450  1
  O  O26  1  0.205650  0.963463  0.590450  1
  O  O27  1  0.794350  0.463463  0.909550  1
  O  O28  1  0.294931  0.188488  0.127581  1
  O  O29  1  0.705069  0.688488  0.372419  1
  O  O30  1  0.705069  0.811512  0.872419  1
  O  O31  1  0.294931  0.311512  0.627581  1
  O  O32  1  0.782735  0.175295  0.769468  1
  O  O33  1  0.217265  0.675295  0.730532  1
  O  O34  1  0.217265  0.824705  0.230532  1
  O  O35  1  0.782735  0.324705  0.269468  1
  O  O36  1  0.201112  0.088681  0.760575  1
  O  O37  1  0.798888  0.588681  0.739425  1
  O  O38  1  0.798888  0.911319  0.239425  1
  O  O39  1  0.201112  0.411319  0.260575  1
  O  O40  1  0.720103  0.229258  0.589312  1
  O  O41  1  0.279897  0.729258  0.910688  1
  O  O42  1  0.279897  0.770742  0.410688  1
  O  O43  1  0.720103  0.270742  0.089312  1
  O  O44  1  0.498793  0.032118  0.686913  1
  O  O45  1  0.501207  0.532118  0.813087  1
  O  O46  1  0.501207  0.967882  0.313087  1
  O  O47  1  0.498793  0.467882  0.186913  1
  O  O48  1  0.192613  0.403621  0.845499  1
  O  O49  1  0.807387  0.903621  0.654501  1
  O  O50  1  0.807387  0.596379  0.154501  1
  O  O51  1  0.192613  0.096379  0.345499  1
