# generated using pymatgen
data_Te4O9
_symmetry_space_group_name_H-M   'P 1'
_cell_length_a   7.48849602
_cell_length_b   7.48849602
_cell_length_c   7.48849602
_cell_angle_alpha   78.59894623
_cell_angle_beta   78.59894623
_cell_angle_gamma   78.59894623
_symmetry_Int_Tables_number   1
_chemical_formula_structural   Te4O9
_chemical_formula_sum   'Te8 O18'
_cell_volume   397.99317859
_cell_formula_units_Z   2
loop_
 _symmetry_equiv_pos_site_id
 _symmetry_equiv_pos_as_xyz
  1  'x, y, z'
loop_
 _atom_site_type_symbol
 _atom_site_label
 _atom_site_symmetry_multiplicity
 _atom_site_fract_x
 _atom_site_fract_y
 _atom_site_fract_z
 _atom_site_occupancy
  Te  Te0  1  0.159757  0.710078  0.403558  1
  Te  Te1  1  0.710078  0.403558  0.159757  1
  Te  Te2  1  0.403558  0.159757  0.710078  1
  Te  Te3  1  0.840243  0.289922  0.596442  1
  Te  Te4  1  0.289922  0.596442  0.840243  1
  Te  Te5  1  0.596442  0.840243  0.289922  1
  Te  Te6  1  0.816459  0.816459  0.816459  1
  Te  Te7  1  0.183541  0.183541  0.183541  1
  O  O8  1  0.711579  0.228491  0.423888  1
  O  O9  1  0.228491  0.423888  0.711579  1
  O  O10  1  0.423888  0.711579  0.228491  1
  O  O11  1  0.288421  0.771509  0.576112  1
  O  O12  1  0.771509  0.576112  0.288421  1
  O  O13  1  0.576112  0.288421  0.771509  1
  O  O14  1  0.412438  0.082951  0.277510  1
  O  O15  1  0.082951  0.277510  0.412438  1
  O  O16  1  0.282373  0.071558  0.957063  1
  O  O17  1  0.957063  0.282373  0.071558  1
  O  O18  1  0.071558  0.957063  0.282373  1
  O  O19  1  0.717627  0.928442  0.042937  1
  O  O20  1  0.042937  0.717627  0.928442  1
  O  O21  1  0.928442  0.042937  0.717627  1
  O  O22  1  0.722490  0.587562  0.917049  1
  O  O23  1  0.917049  0.722490  0.587562  1
  O  O24  1  0.587562  0.917049  0.722490  1
  O  O25  1  0.277510  0.412438  0.082951  1
