# generated using pymatgen
data_MnNi(BiO3)2
_symmetry_space_group_name_H-M   'P 1'
_cell_length_a   5.51165595
_cell_length_b   5.51165595
_cell_length_c   9.72650082
_cell_angle_alpha   74.64526146
_cell_angle_beta   105.35473854
_cell_angle_gamma   120.32855627
_symmetry_Int_Tables_number   1
_chemical_formula_structural   MnNi(BiO3)2
_chemical_formula_sum   'Mn2 Ni2 Bi4 O12'
_cell_volume   242.86480753
_cell_formula_units_Z   2
loop_
 _symmetry_equiv_pos_site_id
 _symmetry_equiv_pos_as_xyz
  1  'x, y, z'
loop_
 _atom_site_type_symbol
 _atom_site_label
 _atom_site_symmetry_multiplicity
 _atom_site_fract_x
 _atom_site_fract_y
 _atom_site_fract_z
 _atom_site_occupancy
  Mn  Mn0  1  0.500000  0.000000  0.500000  1
  Mn  Mn1  1  0.000000  0.500000  0.000000  1
  Ni  Ni2  1  0.763488  0.763488  0.250000  1
  Ni  Ni3  1  0.236512  0.236512  0.750000  1
  Bi  Bi4  1  0.635389  0.905851  0.877521  1
  Bi  Bi5  1  0.905851  0.635389  0.622479  1
  Bi  Bi6  1  0.364611  0.094149  0.122479  1
  Bi  Bi7  1  0.094149  0.364611  0.377521  1
  O  O8  1  0.719698  0.896596  0.420220  1
  O  O9  1  0.896596  0.719698  0.079780  1
  O  O10  1  0.280302  0.103404  0.579780  1
  O  O11  1  0.103404  0.280302  0.920220  1
  O  O12  1  0.303434  0.620881  0.612436  1
  O  O13  1  0.620881  0.303434  0.887564  1
  O  O14  1  0.118345  0.808319  0.839955  1
  O  O15  1  0.808319  0.118345  0.660045  1
  O  O16  1  0.191681  0.881655  0.339955  1
  O  O17  1  0.881655  0.191681  0.160045  1
  O  O18  1  0.379119  0.696566  0.112436  1
  O  O19  1  0.696566  0.379119  0.387564  1
