# generated using pymatgen
data_BaVPO6
_symmetry_space_group_name_H-M   'P 1'
_cell_length_a   5.83312337
_cell_length_b   10.14274270
_cell_length_c   8.79019569
_cell_angle_alpha   90.00000000
_cell_angle_beta   90.90698361
_cell_angle_gamma   90.00000000
_symmetry_Int_Tables_number   1
_chemical_formula_structural   BaVPO6
_chemical_formula_sum   'Ba4 V4 P4 O24'
_cell_volume   519.99683175
_cell_formula_units_Z   4
loop_
 _symmetry_equiv_pos_site_id
 _symmetry_equiv_pos_as_xyz
  1  'x, y, z'
loop_
 _atom_site_type_symbol
 _atom_site_label
 _atom_site_symmetry_multiplicity
 _atom_site_fract_x
 _atom_site_fract_y
 _atom_site_fract_z
 _atom_site_occupancy
  Ba  Ba0  1  0.143224  0.190285  0.085911  1
  Ba  Ba1  1  0.856776  0.690285  0.414089  1
  Ba  Ba2  1  0.856776  0.809715  0.914089  1
  Ba  Ba3  1  0.143224  0.309715  0.585911  1
  V  V4  1  0.649609  0.088151  0.415683  1
  V  V5  1  0.350391  0.588151  0.084317  1
  V  V6  1  0.350391  0.911849  0.584317  1
  V  V7  1  0.649609  0.411849  0.915683  1
  P  P8  1  0.347256  0.884778  0.218810  1
  P  P9  1  0.652744  0.384778  0.281190  1
  P  P10  1  0.652744  0.115222  0.781190  1
  P  P11  1  0.347256  0.615222  0.718810  1
  O  O12  1  0.134580  0.915440  0.122249  1
  O  O13  1  0.865420  0.415440  0.377751  1
  O  O14  1  0.865420  0.084560  0.877751  1
  O  O15  1  0.134580  0.584560  0.622249  1
  O  O16  1  0.318141  0.070818  0.516567  1
  O  O17  1  0.681859  0.570818  0.983433  1
  O  O18  1  0.681859  0.929182  0.483433  1
  O  O19  1  0.318141  0.429182  0.016567  1
  O  O20  1  0.898002  0.130087  0.339107  1
  O  O21  1  0.101998  0.630087  0.160893  1
  O  O22  1  0.101998  0.869913  0.660893  1
  O  O23  1  0.898002  0.369913  0.839107  1
  O  O24  1  0.720712  0.333813  0.118194  1
  O  O25  1  0.279288  0.833813  0.381806  1
  O  O26  1  0.279288  0.666187  0.881806  1
  O  O27  1  0.720712  0.166187  0.618194  1
  O  O28  1  0.484888  0.481506  0.732755  1
  O  O29  1  0.515112  0.981506  0.767245  1
  O  O30  1  0.515112  0.518494  0.267245  1
  O  O31  1  0.484888  0.018494  0.232755  1
  O  O32  1  0.494638  0.222953  0.851643  1
  O  O33  1  0.505362  0.722953  0.648357  1
  O  O34  1  0.505362  0.777047  0.148357  1
  O  O35  1  0.494638  0.277047  0.351643  1
