# generated using pymatgen
data_KNa22C2S9ClO42
_symmetry_space_group_name_H-M   'P 1'
_cell_length_a   10.61324072
_cell_length_b   10.61324072
_cell_length_c   21.49502242
_cell_angle_alpha   90.00000000
_cell_angle_beta   90.00000000
_cell_angle_gamma   120.00000000
_symmetry_Int_Tables_number   1
_chemical_formula_structural   KNa22C2S9ClO42
_chemical_formula_sum   'K2 Na44 C4 S18 Cl2 O84'
_cell_volume   2096.83647759
_cell_formula_units_Z   2
loop_
 _symmetry_equiv_pos_site_id
 _symmetry_equiv_pos_as_xyz
  1  'x, y, z'
loop_
 _atom_site_type_symbol
 _atom_site_label
 _atom_site_symmetry_multiplicity
 _atom_site_fract_x
 _atom_site_fract_y
 _atom_site_fract_z
 _atom_site_occupancy
  K  K0  1  0.000000  0.000000  0.000000  1
  K  K1  1  0.000000  0.000000  0.500000  1
  Na  Na2  1  0.500000  0.000000  0.000000  1
  Na  Na3  1  0.500000  0.500000  0.500000  1
  Na  Na4  1  0.000000  0.500000  0.500000  1
  Na  Na5  1  0.000000  0.500000  0.000000  1
  Na  Na6  1  0.500000  0.500000  0.000000  1
  Na  Na7  1  0.500000  0.000000  0.500000  1
  Na  Na8  1  0.666667  0.333333  0.375187  1
  Na  Na9  1  0.333333  0.666667  0.875187  1
  Na  Na10  1  0.333333  0.666667  0.624813  1
  Na  Na11  1  0.666667  0.333333  0.124813  1
  Na  Na12  1  0.000000  0.000000  0.326375  1
  Na  Na13  1  0.000000  0.000000  0.826375  1
  Na  Na14  1  0.000000  0.000000  0.673625  1
  Na  Na15  1  0.000000  0.000000  0.173625  1
  Na  Na16  1  0.349164  0.147924  0.250000  1
  Na  Na17  1  0.201241  0.349164  0.750000  1
  Na  Na18  1  0.147924  0.798759  0.750000  1
  Na  Na19  1  0.852076  0.201241  0.250000  1
  Na  Na20  1  0.798759  0.650836  0.250000  1
  Na  Na21  1  0.650836  0.852076  0.750000  1
  Na  Na22  1  0.178491  0.361123  0.425865  1
  Na  Na23  1  0.817368  0.178491  0.925865  1
  Na  Na24  1  0.361123  0.182632  0.925865  1
  Na  Na25  1  0.638877  0.817368  0.425865  1
  Na  Na26  1  0.182632  0.821509  0.425865  1
  Na  Na27  1  0.821509  0.638877  0.925865  1
  Na  Na28  1  0.821509  0.638877  0.574135  1
  Na  Na29  1  0.182632  0.821509  0.074135  1
  Na  Na30  1  0.638877  0.817368  0.074135  1
  Na  Na31  1  0.361123  0.182632  0.574135  1
  Na  Na32  1  0.817368  0.178491  0.574135  1
  Na  Na33  1  0.178491  0.361123  0.074135  1
  Na  Na34  1  0.522089  0.054115  0.660925  1
  Na  Na35  1  0.467974  0.522089  0.160925  1
  Na  Na36  1  0.054115  0.532026  0.160925  1
  Na  Na37  1  0.945885  0.467974  0.660925  1
  Na  Na38  1  0.532026  0.477911  0.660925  1
  Na  Na39  1  0.477911  0.945885  0.160925  1
  Na  Na40  1  0.477911  0.945885  0.339075  1
  Na  Na41  1  0.532026  0.477911  0.839075  1
  Na  Na42  1  0.945885  0.467974  0.839075  1
  Na  Na43  1  0.054115  0.532026  0.339075  1
  Na  Na44  1  0.467974  0.522089  0.339075  1
  Na  Na45  1  0.522089  0.054115  0.839075  1
  C  C46  1  0.666667  0.333333  0.569754  1
  C  C47  1  0.333333  0.666667  0.069754  1
  C  C48  1  0.333333  0.666667  0.430246  1
  C  C49  1  0.666667  0.333333  0.930246  1
  S  S50  1  0.208971  0.357577  0.250000  1
  S  S51  1  0.851394  0.208971  0.750000  1
  S  S52  1  0.357577  0.148606  0.750000  1
  S  S53  1  0.642423  0.851394  0.250000  1
  S  S54  1  0.148606  0.791029  0.250000  1
  S  S55  1  0.791029  0.642423  0.750000  1
  S  S56  1  0.339651  0.168595  0.408872  1
  S  S57  1  0.171056  0.339651  0.908872  1
  S  S58  1  0.168595  0.828944  0.908872  1
  S  S59  1  0.831405  0.171056  0.408872  1
  S  S60  1  0.828944  0.660349  0.408872  1
  S  S61  1  0.660349  0.831405  0.908872  1
  S  S62  1  0.660349  0.831405  0.591128  1
  S  S63  1  0.828944  0.660349  0.091128  1
  S  S64  1  0.831405  0.171056  0.091128  1
  S  S65  1  0.168595  0.828944  0.591128  1
  S  S66  1  0.171056  0.339651  0.591128  1
  S  S67  1  0.339651  0.168595  0.091128  1
  Cl  Cl68  1  0.666667  0.333333  0.250000  1
  Cl  Cl69  1  0.333333  0.666667  0.750000  1
  O  O70  1  0.595651  0.403876  0.569953  1
  O  O71  1  0.191775  0.595651  0.069953  1
  O  O72  1  0.403876  0.808225  0.069953  1
  O  O73  1  0.596124  0.191775  0.569953  1
  O  O74  1  0.808225  0.404349  0.569953  1
  O  O75  1  0.404349  0.596124  0.069953  1
  O  O76  1  0.404349  0.596124  0.430047  1
  O  O77  1  0.808225  0.404349  0.930047  1
  O  O78  1  0.596124  0.191775  0.930047  1
  O  O79  1  0.403876  0.808225  0.430047  1
  O  O80  1  0.191775  0.595651  0.430047  1
  O  O81  1  0.595651  0.403876  0.930047  1
  O  O82  1  0.355748  0.367226  0.250000  1
  O  O83  1  0.988522  0.355748  0.750000  1
  O  O84  1  0.367226  0.011478  0.750000  1
  O  O85  1  0.632774  0.988522  0.250000  1
  O  O86  1  0.011478  0.644252  0.250000  1
  O  O87  1  0.644252  0.632774  0.750000  1
  O  O88  1  0.090734  0.201050  0.250000  1
  O  O89  1  0.889684  0.090734  0.750000  1
  O  O90  1  0.201050  0.110316  0.750000  1
  O  O91  1  0.798950  0.889684  0.250000  1
  O  O92  1  0.110316  0.909266  0.250000  1
  O  O93  1  0.909266  0.798950  0.750000  1
  O  O94  1  0.198896  0.431248  0.307129  1
  O  O95  1  0.767648  0.198896  0.807129  1
  O  O96  1  0.431248  0.232352  0.807129  1
  O  O97  1  0.568752  0.767648  0.307129  1
  O  O98  1  0.232352  0.801104  0.307129  1
  O  O99  1  0.801104  0.568752  0.807129  1
  O  O100  1  0.801104  0.568752  0.692871  1
  O  O101  1  0.232352  0.801104  0.192871  1
  O  O102  1  0.568752  0.767648  0.192871  1
  O  O103  1  0.431248  0.232352  0.692871  1
  O  O104  1  0.767648  0.198896  0.692871  1
  O  O105  1  0.198896  0.431248  0.192871  1
  O  O106  1  0.389873  0.113622  0.355950  1
  O  O107  1  0.276252  0.389873  0.855950  1
  O  O108  1  0.113622  0.723748  0.855950  1
  O  O109  1  0.886378  0.276252  0.355950  1
  O  O110  1  0.723748  0.610127  0.355950  1
  O  O111  1  0.610127  0.886378  0.855950  1
  O  O112  1  0.610127  0.886378  0.644050  1
  O  O113  1  0.723748  0.610127  0.144050  1
  O  O114  1  0.886378  0.276252  0.144050  1
  O  O115  1  0.113622  0.723748  0.644050  1
  O  O116  1  0.276252  0.389873  0.644050  1
  O  O117  1  0.389873  0.113622  0.144050  1
  O  O118  1  0.196100  0.155574  0.394315  1
  O  O119  1  0.040525  0.196100  0.894315  1
  O  O120  1  0.155574  0.959475  0.894315  1
  O  O121  1  0.844426  0.040525  0.394315  1
  O  O122  1  0.959475  0.803900  0.394315  1
  O  O123  1  0.803900  0.844426  0.894315  1
  O  O124  1  0.803900  0.844426  0.605685  1
  O  O125  1  0.959475  0.803900  0.105685  1
  O  O126  1  0.844426  0.040525  0.105685  1
  O  O127  1  0.155574  0.959475  0.605685  1
  O  O128  1  0.040525  0.196100  0.605685  1
  O  O129  1  0.196100  0.155574  0.105685  1
  O  O130  1  0.450275  0.325242  0.419409  1
  O  O131  1  0.125034  0.450275  0.919409  1
  O  O132  1  0.325242  0.874966  0.919409  1
  O  O133  1  0.674758  0.125034  0.419409  1
  O  O134  1  0.874966  0.549725  0.419409  1
  O  O135  1  0.549725  0.674758  0.919409  1
  O  O136  1  0.549725  0.674758  0.580591  1
  O  O137  1  0.874966  0.549725  0.080591  1
  O  O138  1  0.674758  0.125034  0.080591  1
  O  O139  1  0.325242  0.874966  0.580591  1
  O  O140  1  0.125034  0.450275  0.580591  1
  O  O141  1  0.450275  0.325242  0.080591  1
  O  O142  1  0.323597  0.079734  0.465663  1
  O  O143  1  0.243863  0.323597  0.965663  1
  O  O144  1  0.079734  0.756137  0.965663  1
  O  O145  1  0.920266  0.243863  0.465663  1
  O  O146  1  0.756137  0.676403  0.465663  1
  O  O147  1  0.676403  0.920266  0.965663  1
  O  O148  1  0.676403  0.920266  0.534337  1
  O  O149  1  0.756137  0.676403  0.034337  1
  O  O150  1  0.920266  0.243863  0.034337  1
  O  O151  1  0.079734  0.756137  0.534337  1
  O  O152  1  0.243863  0.323597  0.534337  1
  O  O153  1  0.323597  0.079734  0.034337  1
