# generated using pymatgen
data_LiFe(GeO3)2
_symmetry_space_group_name_H-M   'P 1'
_cell_length_a   6.61996774
_cell_length_b   6.61996774
_cell_length_c   5.27105965
_cell_angle_alpha   80.97209896
_cell_angle_beta   99.02790104
_cell_angle_gamma   94.98902302
_symmetry_Int_Tables_number   1
_chemical_formula_structural   LiFe(GeO3)2
_chemical_formula_sum   'Li2 Fe2 Ge4 O12'
_cell_volume   224.85031908
_cell_formula_units_Z   2
loop_
 _symmetry_equiv_pos_site_id
 _symmetry_equiv_pos_as_xyz
  1  'x, y, z'
loop_
 _atom_site_type_symbol
 _atom_site_label
 _atom_site_symmetry_multiplicity
 _atom_site_fract_x
 _atom_site_fract_y
 _atom_site_fract_z
 _atom_site_occupancy
  Li  Li0  1  0.270304  0.270304  0.750000  1
  Li  Li1  1  0.729696  0.729696  0.250000  1
  Fe  Fe2  1  0.899670  0.899670  0.750000  1
  Fe  Fe3  1  0.100330  0.100330  0.250000  1
  Ge  Ge4  1  0.792534  0.391818  0.788330  1
  Ge  Ge5  1  0.391818  0.792534  0.711670  1
  Ge  Ge6  1  0.207466  0.608182  0.211670  1
  Ge  Ge7  1  0.608182  0.207466  0.288330  1
  O  O8  1  0.193838  0.968766  0.624703  1
  O  O9  1  0.425974  0.705015  0.416255  1
  O  O10  1  0.806162  0.031234  0.375297  1
  O  O11  1  0.031234  0.806162  0.124703  1
  O  O12  1  0.705015  0.425974  0.083745  1
  O  O13  1  0.968766  0.193838  0.875297  1
  O  O14  1  0.370554  0.125856  0.133103  1
  O  O15  1  0.125856  0.370554  0.366897  1
  O  O16  1  0.294985  0.574026  0.916255  1
  O  O17  1  0.874144  0.629446  0.633103  1
  O  O18  1  0.574026  0.294985  0.583745  1
  O  O19  1  0.629446  0.874144  0.866897  1
