# generated using pymatgen
data_Ba5(RuO5)2
_symmetry_space_group_name_H-M   'P 1'
_cell_length_a   6.07569326
_cell_length_b   6.07569326
_cell_length_c   18.05620213
_cell_angle_alpha   90.00000000
_cell_angle_beta   90.00000000
_cell_angle_gamma   120.00000000
_symmetry_Int_Tables_number   1
_chemical_formula_structural   Ba5(RuO5)2
_chemical_formula_sum   'Ba10 Ru4 O20'
_cell_volume   577.22976714
_cell_formula_units_Z   2
loop_
 _symmetry_equiv_pos_site_id
 _symmetry_equiv_pos_as_xyz
  1  'x, y, z'
loop_
 _atom_site_type_symbol
 _atom_site_label
 _atom_site_symmetry_multiplicity
 _atom_site_fract_x
 _atom_site_fract_y
 _atom_site_fract_z
 _atom_site_occupancy
  Ba  Ba0  1  0.333333  0.666667  0.484357  1
  Ba  Ba1  1  0.666667  0.333333  0.984357  1
  Ba  Ba2  1  0.666667  0.333333  0.515643  1
  Ba  Ba3  1  0.333333  0.666667  0.015643  1
  Ba  Ba4  1  0.666667  0.333333  0.750000  1
  Ba  Ba5  1  0.333333  0.666667  0.250000  1
  Ba  Ba6  1  0.000000  0.000000  0.363364  1
  Ba  Ba7  1  0.000000  0.000000  0.863364  1
  Ba  Ba8  1  0.000000  0.000000  0.636636  1
  Ba  Ba9  1  0.000000  0.000000  0.136636  1
  Ru  Ru10  1  0.333333  0.666667  0.827304  1
  Ru  Ru11  1  0.666667  0.333333  0.327304  1
  Ru  Ru12  1  0.666667  0.333333  0.172696  1
  Ru  Ru13  1  0.333333  0.666667  0.672696  1
  O  O14  1  0.000000  0.000000  0.500000  1
  O  O15  1  0.000000  0.000000  0.000000  1
  O  O16  1  0.488034  0.511966  0.883907  1
  O  O17  1  0.488034  0.976068  0.883907  1
  O  O18  1  0.023932  0.511966  0.883907  1
  O  O19  1  0.976068  0.488034  0.383907  1
  O  O20  1  0.511966  0.023932  0.116093  1
  O  O21  1  0.511966  0.488034  0.383907  1
  O  O22  1  0.511966  0.023932  0.383907  1
  O  O23  1  0.488034  0.511966  0.616093  1
  O  O24  1  0.023932  0.511966  0.616093  1
  O  O25  1  0.976068  0.488034  0.116093  1
  O  O26  1  0.511966  0.488034  0.116093  1
  O  O27  1  0.488034  0.976068  0.616093  1
  O  O28  1  0.186881  0.373761  0.750000  1
  O  O29  1  0.813119  0.186881  0.250000  1
  O  O30  1  0.373761  0.186881  0.250000  1
  O  O31  1  0.626239  0.813119  0.750000  1
  O  O32  1  0.186881  0.813119  0.750000  1
  O  O33  1  0.813119  0.626239  0.250000  1
