# generated using pymatgen
data_P2S3
_symmetry_space_group_name_H-M   'P 1'
_cell_length_a   7.53594276
_cell_length_b   13.20373150
_cell_length_c   12.35091296
_cell_angle_alpha   90.00000000
_cell_angle_beta   101.21775003
_cell_angle_gamma   90.00000000
_symmetry_Int_Tables_number   1
_chemical_formula_structural   P2S3
_chemical_formula_sum   'P16 S24'
_cell_volume   1205.46839488
_cell_formula_units_Z   8
loop_
 _symmetry_equiv_pos_site_id
 _symmetry_equiv_pos_as_xyz
  1  'x, y, z'
loop_
 _atom_site_type_symbol
 _atom_site_label
 _atom_site_symmetry_multiplicity
 _atom_site_fract_x
 _atom_site_fract_y
 _atom_site_fract_z
 _atom_site_occupancy
  P  P0  1  0.720186  0.916283  0.833733  1
  P  P1  1  0.279814  0.416283  0.666267  1
  P  P2  1  0.279814  0.083717  0.166267  1
  P  P3  1  0.720186  0.583717  0.333733  1
  P  P4  1  0.746573  0.937006  0.569903  1
  P  P5  1  0.253427  0.437006  0.930097  1
  P  P6  1  0.253427  0.062994  0.430097  1
  P  P7  1  0.746573  0.562994  0.069903  1
  P  P8  1  0.776371  0.095770  0.656625  1
  P  P9  1  0.223629  0.595770  0.843375  1
  P  P10  1  0.223629  0.904230  0.343375  1
  P  P11  1  0.776371  0.404230  0.156625  1
  P  P12  1  0.145941  0.951482  0.752825  1
  P  P13  1  0.854059  0.451482  0.747175  1
  P  P14  1  0.854059  0.048518  0.247175  1
  P  P15  1  0.145941  0.548518  0.252825  1
  S  S16  1  0.001633  0.895150  0.876984  1
  S  S17  1  0.998367  0.395150  0.623016  1
  S  S18  1  0.998367  0.104850  0.123016  1
  S  S19  1  0.001633  0.604850  0.376984  1
  S  S20  1  0.616542  0.851176  0.677159  1
  S  S21  1  0.383458  0.351176  0.822841  1
  S  S22  1  0.383458  0.148824  0.322841  1
  S  S23  1  0.616542  0.648824  0.177159  1
  S  S24  1  0.658476  0.070666  0.797308  1
  S  S25  1  0.341524  0.570666  0.702692  1
  S  S26  1  0.341524  0.929334  0.202692  1
  S  S27  1  0.658476  0.429334  0.297308  1
  S  S28  1  0.614182  0.861761  0.951189  1
  S  S29  1  0.385818  0.361761  0.548811  1
  S  S30  1  0.385818  0.138239  0.048811  1
  S  S31  1  0.614182  0.638239  0.451189  1
  S  S32  1  0.018788  0.883799  0.602319  1
  S  S33  1  0.981212  0.383799  0.897681  1
  S  S34  1  0.981212  0.116201  0.397681  1
  S  S35  1  0.018788  0.616201  0.102319  1
  S  S36  1  0.059266  0.102446  0.718828  1
  S  S37  1  0.940734  0.602446  0.781172  1
  S  S38  1  0.940734  0.897554  0.281172  1
  S  S39  1  0.059266  0.397554  0.218828  1
