# generated using pymatgen
data_RbH3(SeO3)2
_symmetry_space_group_name_H-M   'P 1'
_cell_length_a   6.06172064
_cell_length_b   6.48811369
_cell_length_c   18.27762218
_cell_angle_alpha   90.00000000
_cell_angle_beta   90.00000000
_cell_angle_gamma   90.00000000
_symmetry_Int_Tables_number   1
_chemical_formula_structural   RbH3(SeO3)2
_chemical_formula_sum   'Rb4 H12 Se8 O24'
_cell_volume   718.84302760
_cell_formula_units_Z   4
loop_
 _symmetry_equiv_pos_site_id
 _symmetry_equiv_pos_as_xyz
  1  'x, y, z'
loop_
 _atom_site_type_symbol
 _atom_site_label
 _atom_site_symmetry_multiplicity
 _atom_site_fract_x
 _atom_site_fract_y
 _atom_site_fract_z
 _atom_site_occupancy
  Rb  Rb0  1  0.017770  0.482597  0.163137  1
  Rb  Rb1  1  0.517770  0.017403  0.836863  1
  Rb  Rb2  1  0.982230  0.982597  0.336863  1
  Rb  Rb3  1  0.482230  0.517403  0.663137  1
  H  H4  1  0.025786  0.250098  0.780557  1
  H  H5  1  0.525786  0.249902  0.219443  1
  H  H6  1  0.974214  0.750098  0.719443  1
  H  H7  1  0.474214  0.749902  0.280557  1
  H  H8  1  0.349103  0.532186  0.865471  1
  H  H9  1  0.849103  0.967814  0.134529  1
  H  H10  1  0.650897  0.032186  0.634529  1
  H  H11  1  0.150897  0.467814  0.365471  1
  H  H12  1  0.729455  0.709477  0.013451  1
  H  H13  1  0.229455  0.790523  0.986549  1
  H  H14  1  0.270545  0.209477  0.486549  1
  H  H15  1  0.770545  0.290523  0.513451  1
  Se  Se16  1  0.962878  0.547161  0.853600  1
  Se  Se17  1  0.462878  0.952839  0.146400  1
  Se  Se18  1  0.037122  0.047161  0.646400  1
  Se  Se19  1  0.537122  0.452839  0.353600  1
  Se  Se20  1  0.480600  0.424476  0.006049  1
  Se  Se21  1  0.980600  0.075524  0.993951  1
  Se  Se22  1  0.519400  0.924476  0.493951  1
  Se  Se23  1  0.019400  0.575524  0.506049  1
  O  O24  1  0.980081  0.560026  0.413219  1
  O  O25  1  0.480081  0.939974  0.586781  1
  O  O26  1  0.019919  0.060026  0.086781  1
  O  O27  1  0.519919  0.439974  0.913219  1
  O  O28  1  0.789594  0.428986  0.541011  1
  O  O29  1  0.289594  0.071014  0.458989  1
  O  O30  1  0.210406  0.928986  0.958989  1
  O  O31  1  0.710406  0.571014  0.041011  1
  O  O32  1  0.240434  0.422954  0.523829  1
  O  O33  1  0.740434  0.077046  0.476171  1
  O  O34  1  0.759566  0.922954  0.976171  1
  O  O35  1  0.259566  0.577046  0.023829  1
  O  O36  1  0.666694  0.323644  0.286481  1
  O  O37  1  0.166694  0.176356  0.713519  1
  O  O38  1  0.333306  0.823644  0.213519  1
  O  O39  1  0.833306  0.676356  0.786481  1
  O  O40  1  0.258313  0.408883  0.324968  1
  O  O41  1  0.758313  0.091117  0.675032  1
  O  O42  1  0.741687  0.908883  0.175032  1
  O  O43  1  0.241687  0.591117  0.824968  1
  O  O44  1  0.558393  0.718809  0.328323  1
  O  O45  1  0.058393  0.781191  0.671677  1
  O  O46  1  0.441607  0.218809  0.171677  1
  O  O47  1  0.941607  0.281191  0.828323  1
