# generated using pymatgen
data_Li2ZnBr4
_symmetry_space_group_name_H-M   'P 1'
_cell_length_a   6.52907390
_cell_length_b   7.98033736
_cell_length_c   13.81496240
_cell_angle_alpha   90.00000000
_cell_angle_beta   90.00000000
_cell_angle_gamma   90.00000000
_symmetry_Int_Tables_number   1
_chemical_formula_structural   Li2ZnBr4
_chemical_formula_sum   'Li8 Zn4 Br16'
_cell_volume   719.81773478
_cell_formula_units_Z   4
loop_
 _symmetry_equiv_pos_site_id
 _symmetry_equiv_pos_as_xyz
  1  'x, y, z'
loop_
 _atom_site_type_symbol
 _atom_site_label
 _atom_site_symmetry_multiplicity
 _atom_site_fract_x
 _atom_site_fract_y
 _atom_site_fract_z
 _atom_site_occupancy
  Li  Li0  1  0.000000  0.000000  0.000000  1
  Li  Li1  1  0.500000  0.000000  0.500000  1
  Li  Li2  1  0.000000  0.500000  0.000000  1
  Li  Li3  1  0.500000  0.500000  0.500000  1
  Li  Li4  1  0.994816  0.750000  0.265289  1
  Li  Li5  1  0.494816  0.250000  0.234711  1
  Li  Li6  1  0.005184  0.250000  0.734711  1
  Li  Li7  1  0.505184  0.750000  0.765289  1
  Zn  Zn8  1  0.589000  0.750000  0.087610  1
  Zn  Zn9  1  0.089000  0.250000  0.412390  1
  Zn  Zn10  1  0.411000  0.250000  0.912390  1
  Zn  Zn11  1  0.911000  0.750000  0.587610  1
  Br  Br12  1  0.219790  0.750000  0.089349  1
  Br  Br13  1  0.719790  0.250000  0.410651  1
  Br  Br14  1  0.780210  0.250000  0.910651  1
  Br  Br15  1  0.280210  0.750000  0.589349  1
  Br  Br16  1  0.749635  0.750000  0.426472  1
  Br  Br17  1  0.249635  0.250000  0.073528  1
  Br  Br18  1  0.250365  0.250000  0.573528  1
  Br  Br19  1  0.750365  0.750000  0.926472  1
  Br  Br20  1  0.750335  0.991445  0.166376  1
  Br  Br21  1  0.250335  0.008555  0.333624  1
  Br  Br22  1  0.249665  0.491445  0.833624  1
  Br  Br23  1  0.749665  0.508555  0.666376  1
  Br  Br24  1  0.249665  0.008555  0.833624  1
  Br  Br25  1  0.749665  0.991445  0.666376  1
  Br  Br26  1  0.750335  0.508555  0.166376  1
  Br  Br27  1  0.250335  0.491445  0.333624  1
