# generated using pymatgen
data_Sr2Bi2O5
_symmetry_space_group_name_H-M   'P 1'
_cell_length_a   6.25426308
_cell_length_b   7.75965055
_cell_length_c   14.62049721
_cell_angle_alpha   90.00000000
_cell_angle_beta   90.00000000
_cell_angle_gamma   90.00000000
_symmetry_Int_Tables_number   1
_chemical_formula_structural   Sr2Bi2O5
_chemical_formula_sum   'Sr8 Bi8 O20'
_cell_volume   709.54582881
_cell_formula_units_Z   4
loop_
 _symmetry_equiv_pos_site_id
 _symmetry_equiv_pos_as_xyz
  1  'x, y, z'
loop_
 _atom_site_type_symbol
 _atom_site_label
 _atom_site_symmetry_multiplicity
 _atom_site_fract_x
 _atom_site_fract_y
 _atom_site_fract_z
 _atom_site_occupancy
  Sr  Sr0  1  0.250000  0.373615  0.433991  1
  Sr  Sr1  1  0.750000  0.873615  0.066009  1
  Sr  Sr2  1  0.750000  0.626385  0.566009  1
  Sr  Sr3  1  0.250000  0.126385  0.933991  1
  Sr  Sr4  1  0.750000  0.376524  0.052194  1
  Sr  Sr5  1  0.250000  0.876524  0.447806  1
  Sr  Sr6  1  0.750000  0.123476  0.552194  1
  Sr  Sr7  1  0.250000  0.623476  0.947806  1
  Bi  Bi8  1  0.750000  0.882216  0.816437  1
  Bi  Bi9  1  0.750000  0.131155  0.309731  1
  Bi  Bi10  1  0.750000  0.368845  0.809731  1
  Bi  Bi11  1  0.250000  0.631155  0.190269  1
  Bi  Bi12  1  0.750000  0.617784  0.316437  1
  Bi  Bi13  1  0.250000  0.382216  0.683563  1
  Bi  Bi14  1  0.250000  0.117784  0.183563  1
  Bi  Bi15  1  0.250000  0.868845  0.690269  1
  O  O16  1  0.508921  0.118190  0.407923  1
  O  O17  1  0.507789  0.867468  0.913705  1
  O  O18  1  0.491079  0.618190  0.092077  1
  O  O19  1  0.008921  0.881810  0.592077  1
  O  O20  1  0.250000  0.372726  0.244084  1
  O  O21  1  0.991079  0.118190  0.407923  1
  O  O22  1  0.992211  0.632532  0.413705  1
  O  O23  1  0.750000  0.627274  0.755916  1
  O  O24  1  0.491079  0.881810  0.592077  1
  O  O25  1  0.508921  0.381810  0.907923  1
  O  O26  1  0.492211  0.132532  0.086295  1
  O  O27  1  0.992211  0.867468  0.913705  1
  O  O28  1  0.008921  0.618190  0.092077  1
  O  O29  1  0.007789  0.132532  0.086295  1
  O  O30  1  0.492211  0.367468  0.586295  1
  O  O31  1  0.250000  0.127274  0.744084  1
  O  O32  1  0.007789  0.367468  0.586295  1
  O  O33  1  0.991079  0.381810  0.907923  1
  O  O34  1  0.507789  0.632532  0.413705  1
  O  O35  1  0.750000  0.872726  0.255916  1
