# generated using pymatgen
data_K2Te4O9
_symmetry_space_group_name_H-M   'P 1'
_cell_length_a   7.74437516
_cell_length_b   18.12541159
_cell_length_c   8.18317256
_cell_angle_alpha   90.00000000
_cell_angle_beta   106.96496321
_cell_angle_gamma   90.00000000
_symmetry_Int_Tables_number   1
_chemical_formula_structural   K2Te4O9
_chemical_formula_sum   'K8 Te16 O36'
_cell_volume   1098.68549514
_cell_formula_units_Z   4
loop_
 _symmetry_equiv_pos_site_id
 _symmetry_equiv_pos_as_xyz
  1  'x, y, z'
loop_
 _atom_site_type_symbol
 _atom_site_label
 _atom_site_symmetry_multiplicity
 _atom_site_fract_x
 _atom_site_fract_y
 _atom_site_fract_z
 _atom_site_occupancy
  K  K0  1  0.871378  0.909671  0.364517  1
  K  K1  1  0.128622  0.409671  0.135483  1
  K  K2  1  0.128622  0.090329  0.635483  1
  K  K3  1  0.871378  0.590329  0.864517  1
  K  K4  1  0.158847  0.753223  0.128796  1
  K  K5  1  0.841153  0.253223  0.371204  1
  K  K6  1  0.841153  0.246777  0.871204  1
  K  K7  1  0.158847  0.746777  0.628796  1
  Te  Te8  1  0.623441  0.741305  0.039975  1
  Te  Te9  1  0.376559  0.241305  0.460025  1
  Te  Te10  1  0.376559  0.258695  0.960025  1
  Te  Te11  1  0.623441  0.758695  0.539975  1
  Te  Te12  1  0.351992  0.921655  0.346508  1
  Te  Te13  1  0.648008  0.421655  0.153492  1
  Te  Te14  1  0.648008  0.078345  0.653492  1
  Te  Te15  1  0.351992  0.578345  0.846508  1
  Te  Te16  1  0.821995  0.907974  0.825203  1
  Te  Te17  1  0.178005  0.407974  0.674797  1
  Te  Te18  1  0.178005  0.092026  0.174797  1
  Te  Te19  1  0.821995  0.592026  0.325203  1
  Te  Te20  1  0.398886  0.917913  0.914437  1
  Te  Te21  1  0.601114  0.417913  0.585563  1
  Te  Te22  1  0.601114  0.082087  0.085563  1
  Te  Te23  1  0.398886  0.582087  0.414437  1
  O  O24  1  0.801808  0.799136  0.984839  1
  O  O25  1  0.198192  0.299136  0.515161  1
  O  O26  1  0.198192  0.200864  0.015161  1
  O  O27  1  0.801808  0.700864  0.484839  1
  O  O28  1  0.557960  0.824415  0.350131  1
  O  O29  1  0.442040  0.324415  0.149869  1
  O  O30  1  0.442040  0.175585  0.649869  1
  O  O31  1  0.557960  0.675585  0.850131  1
  O  O32  1  0.202814  0.854248  0.407580  1
  O  O33  1  0.797186  0.354248  0.092420  1
  O  O34  1  0.797186  0.145752  0.592420  1
  O  O35  1  0.202814  0.645752  0.907580  1
  O  O36  1  0.562174  0.912571  0.737958  1
  O  O37  1  0.437826  0.412571  0.762042  1
  O  O38  1  0.163317  0.005639  0.327362  1
  O  O39  1  0.437826  0.087429  0.262042  1
  O  O40  1  0.871456  0.841172  0.667950  1
  O  O41  1  0.128544  0.341172  0.832050  1
  O  O42  1  0.128544  0.158828  0.332050  1
  O  O43  1  0.871456  0.658828  0.167950  1
  O  O44  1  0.259813  0.909553  0.099081  1
  O  O45  1  0.740187  0.409553  0.400919  1
  O  O46  1  0.740187  0.090447  0.900919  1
  O  O47  1  0.259813  0.590447  0.599081  1
  O  O48  1  0.612772  0.555272  0.582926  1
  O  O49  1  0.387228  0.055272  0.917074  1
  O  O50  1  0.387228  0.444728  0.417074  1
  O  O51  1  0.612772  0.944728  0.082926  1
  O  O52  1  0.412420  0.690816  0.421916  1
  O  O53  1  0.587580  0.190816  0.078084  1
  O  O54  1  0.587580  0.309184  0.578084  1
  O  O55  1  0.412420  0.809184  0.921916  1
  O  O56  1  0.163317  0.494361  0.827362  1
  O  O57  1  0.836683  0.994361  0.672638  1
  O  O58  1  0.836683  0.505639  0.172638  1
  O  O59  1  0.562174  0.587429  0.237958  1
