# generated using pymatgen
data_Sr2InSbO6
_symmetry_space_group_name_H-M   'P 1'
_cell_length_a   5.80304159
_cell_length_b   5.83501198
_cell_length_c   10.06315530
_cell_angle_alpha   90.00000000
_cell_angle_beta   125.32505268
_cell_angle_gamma   90.00000000
_symmetry_Int_Tables_number   1
_chemical_formula_structural   Sr2InSbO6
_chemical_formula_sum   'Sr4 In2 Sb2 O12'
_cell_volume   278.01003668
_cell_formula_units_Z   2
loop_
 _symmetry_equiv_pos_site_id
 _symmetry_equiv_pos_as_xyz
  1  'x, y, z'
loop_
 _atom_site_type_symbol
 _atom_site_label
 _atom_site_symmetry_multiplicity
 _atom_site_fract_x
 _atom_site_fract_y
 _atom_site_fract_z
 _atom_site_occupancy
  Sr  Sr0  1  0.743086  0.032725  0.749914  1
  Sr  Sr1  1  0.256914  0.532725  0.750086  1
  Sr  Sr2  1  0.256914  0.967275  0.250086  1
  Sr  Sr3  1  0.743086  0.467275  0.249914  1
  In  In4  1  0.500000  0.500000  0.500000  1
  In  In5  1  0.500000  0.000000  0.000000  1
  Sb  Sb6  1  0.000000  0.000000  0.500000  1
  Sb  Sb7  1  0.000000  0.500000  0.000000  1
  O  O8  1  0.757898  0.723608  0.459116  1
  O  O9  1  0.314444  0.703682  0.038276  1
  O  O10  1  0.835477  0.479954  0.760550  1
  O  O11  1  0.242102  0.276392  0.540884  1
  O  O12  1  0.685556  0.296318  0.961724  1
  O  O13  1  0.164523  0.979954  0.739450  1
  O  O14  1  0.164523  0.520046  0.239450  1
  O  O15  1  0.835477  0.020046  0.260550  1
  O  O16  1  0.757898  0.776392  0.959116  1
  O  O17  1  0.314444  0.796318  0.538276  1
  O  O18  1  0.242102  0.223608  0.040884  1
  O  O19  1  0.685556  0.203682  0.461724  1
