# generated using pymatgen
data_GeH3Cl
_symmetry_space_group_name_H-M   'P 1'
_cell_length_a   4.81491757
_cell_length_b   4.81491757
_cell_length_c   8.58306117
_cell_angle_alpha   90.00000000
_cell_angle_beta   90.00000000
_cell_angle_gamma   105.83343481
_symmetry_Int_Tables_number   1
_chemical_formula_structural   GeH3Cl
_chemical_formula_sum   'Ge2 H6 Cl2'
_cell_volume   191.43511398
_cell_formula_units_Z   2
loop_
 _symmetry_equiv_pos_site_id
 _symmetry_equiv_pos_as_xyz
  1  'x, y, z'
loop_
 _atom_site_type_symbol
 _atom_site_label
 _atom_site_symmetry_multiplicity
 _atom_site_fract_x
 _atom_site_fract_y
 _atom_site_fract_z
 _atom_site_occupancy
  Ge  Ge0  1  0.562576  0.562576  0.950455  1
  Ge  Ge1  1  0.437424  0.437424  0.450455  1
  H  H2  1  0.550671  0.217275  0.540353  1
  H  H3  1  0.449329  0.782725  0.040353  1
  H  H4  1  0.782725  0.449329  0.040353  1
  H  H5  1  0.217275  0.550671  0.540353  1
  H  H6  1  0.671660  0.671660  0.369700  1
  H  H7  1  0.328340  0.328340  0.869700  1
  Cl  Cl8  1  0.814887  0.814887  0.756307  1
  Cl  Cl9  1  0.185113  0.185113  0.256307  1
