# generated using pymatgen
data_Rb3Mo2Br9
_symmetry_space_group_name_H-M   'P 1'
_cell_length_a   7.71210697
_cell_length_b   7.71210697
_cell_length_c   18.79970583
_cell_angle_alpha   90.00000000
_cell_angle_beta   90.00000000
_cell_angle_gamma   120.00000000
_symmetry_Int_Tables_number   1
_chemical_formula_structural   Rb3Mo2Br9
_chemical_formula_sum   'Rb6 Mo4 Br18'
_cell_volume   968.33978294
_cell_formula_units_Z   2
loop_
 _symmetry_equiv_pos_site_id
 _symmetry_equiv_pos_as_xyz
  1  'x, y, z'
loop_
 _atom_site_type_symbol
 _atom_site_label
 _atom_site_symmetry_multiplicity
 _atom_site_fract_x
 _atom_site_fract_y
 _atom_site_fract_z
 _atom_site_occupancy
  Rb  Rb0  1  0.000000  0.000000  0.250000  1
  Rb  Rb1  1  0.000000  0.000000  0.750000  1
  Rb  Rb2  1  0.333333  0.666667  0.063259  1
  Rb  Rb3  1  0.666667  0.333333  0.563259  1
  Rb  Rb4  1  0.333333  0.666667  0.436741  1
  Rb  Rb5  1  0.666667  0.333333  0.936741  1
  Mo  Mo6  1  0.333333  0.666667  0.826004  1
  Mo  Mo7  1  0.666667  0.333333  0.326004  1
  Mo  Mo8  1  0.666667  0.333333  0.173996  1
  Mo  Mo9  1  0.333333  0.666667  0.673996  1
  Br  Br10  1  0.824410  0.175590  0.405531  1
  Br  Br11  1  0.824410  0.648819  0.405531  1
  Br  Br12  1  0.351181  0.175590  0.405531  1
  Br  Br13  1  0.648819  0.824410  0.905531  1
  Br  Br14  1  0.175590  0.351181  0.594469  1
  Br  Br15  1  0.175590  0.824410  0.905531  1
  Br  Br16  1  0.175590  0.351181  0.905531  1
  Br  Br17  1  0.824410  0.175590  0.094469  1
  Br  Br18  1  0.351181  0.175590  0.094469  1
  Br  Br19  1  0.648819  0.824410  0.594469  1
  Br  Br20  1  0.501716  0.003432  0.250000  1
  Br  Br21  1  0.498284  0.501716  0.750000  1
  Br  Br22  1  0.003432  0.501716  0.750000  1
  Br  Br23  1  0.996568  0.498284  0.250000  1
  Br  Br24  1  0.501716  0.498284  0.250000  1
  Br  Br25  1  0.498284  0.996568  0.750000  1
  Br  Br26  1  0.824410  0.648819  0.094469  1
  Br  Br27  1  0.175590  0.824410  0.594469  1
