# generated using pymatgen
data_Li2SnP2O7
_symmetry_space_group_name_H-M   'P 1'
_cell_length_a   9.09699768
_cell_length_b   5.10163438
_cell_length_c   15.17579314
_cell_angle_alpha   90.00000000
_cell_angle_beta   117.41954601
_cell_angle_gamma   90.00000000
_symmetry_Int_Tables_number   1
_chemical_formula_structural   Li2SnP2O7
_chemical_formula_sum   'Li8 Sn4 P8 O28'
_cell_volume   625.17938728
_cell_formula_units_Z   4
loop_
 _symmetry_equiv_pos_site_id
 _symmetry_equiv_pos_as_xyz
  1  'x, y, z'
loop_
 _atom_site_type_symbol
 _atom_site_label
 _atom_site_symmetry_multiplicity
 _atom_site_fract_x
 _atom_site_fract_y
 _atom_site_fract_z
 _atom_site_occupancy
  Li  Li0  1  0.504059  0.707014  0.072779  1
  Li  Li1  1  0.090627  0.228597  0.210545  1
  Li  Li2  1  0.909373  0.728597  0.289455  1
  Li  Li3  1  0.495941  0.207014  0.427221  1
  Li  Li4  1  0.504059  0.792986  0.572779  1
  Li  Li5  1  0.090627  0.271403  0.710545  1
  Li  Li6  1  0.909373  0.771403  0.789455  1
  Li  Li7  1  0.495941  0.292986  0.927221  1
  Sn  Sn8  1  0.799984  0.753142  0.017048  1
  Sn  Sn9  1  0.799984  0.746858  0.517048  1
  Sn  Sn10  1  0.200016  0.253142  0.482952  1
  Sn  Sn11  1  0.200016  0.246858  0.982952  1
  P  P12  1  0.203404  0.747682  0.130236  1
  P  P13  1  0.707357  0.214755  0.160377  1
  P  P14  1  0.796596  0.247682  0.369764  1
  P  P15  1  0.292643  0.714755  0.339623  1
  P  P16  1  0.707357  0.285245  0.660377  1
  P  P17  1  0.203404  0.752318  0.630236  1
  P  P18  1  0.292643  0.785245  0.839623  1
  P  P19  1  0.796596  0.252318  0.869764  1
  O  O20  1  0.296531  0.841053  0.072855  1
  O  O21  1  0.150919  0.459210  0.112449  1
  O  O22  1  0.552472  0.321096  0.071957  1
  O  O23  1  0.719812  0.913078  0.156379  1
  O  O24  1  0.054069  0.929752  0.108030  1
  O  O25  1  0.331878  0.784605  0.245866  1
  O  O26  1  0.867092  0.357514  0.180575  1
  O  O27  1  0.668122  0.284605  0.254134  1
  O  O28  1  0.447528  0.821096  0.428043  1
  O  O29  1  0.132908  0.857514  0.319425  1
  O  O30  1  0.849081  0.959210  0.387551  1
  O  O31  1  0.703469  0.341053  0.427145  1
  O  O32  1  0.945931  0.429752  0.391970  1
  O  O33  1  0.280188  0.413078  0.343621  1
  O  O34  1  0.719812  0.586922  0.656379  1
  O  O35  1  0.054069  0.570248  0.608030  1
  O  O36  1  0.296531  0.658947  0.572855  1
  O  O37  1  0.150919  0.040790  0.612449  1
  O  O38  1  0.867092  0.142486  0.680575  1
  O  O39  1  0.552472  0.178904  0.571957  1
  O  O40  1  0.331878  0.715395  0.745866  1
  O  O41  1  0.132908  0.642486  0.819425  1
  O  O42  1  0.668122  0.215395  0.754134  1
  O  O43  1  0.945931  0.070248  0.891970  1
  O  O44  1  0.280188  0.086922  0.843621  1
  O  O45  1  0.447528  0.678904  0.928043  1
  O  O46  1  0.849081  0.540790  0.887551  1
  O  O47  1  0.703469  0.158947  0.927145  1
