# generated using pymatgen
data_K4PbO4
_symmetry_space_group_name_H-M   'P 1'
_cell_length_a   6.69375020
_cell_length_b   6.70194441
_cell_length_c   10.01340786
_cell_angle_alpha   79.74418205
_cell_angle_beta   71.53292769
_cell_angle_gamma   67.54395881
_symmetry_Int_Tables_number   1
_chemical_formula_structural   K4PbO4
_chemical_formula_sum   'K8 Pb2 O8'
_cell_volume   392.93774927
_cell_formula_units_Z   2
loop_
 _symmetry_equiv_pos_site_id
 _symmetry_equiv_pos_as_xyz
  1  'x, y, z'
loop_
 _atom_site_type_symbol
 _atom_site_label
 _atom_site_symmetry_multiplicity
 _atom_site_fract_x
 _atom_site_fract_y
 _atom_site_fract_z
 _atom_site_occupancy
  K  K0  1  0.513769  0.771980  0.937627  1
  K  K1  1  0.042219  0.273262  0.886486  1
  K  K2  1  0.413152  0.752100  0.327146  1
  K  K3  1  0.238183  0.253113  0.476797  1
  K  K4  1  0.761817  0.746887  0.523203  1
  K  K5  1  0.957781  0.726738  0.113514  1
  K  K6  1  0.486231  0.228020  0.062373  1
  K  K7  1  0.586848  0.247900  0.672854  1
  Pb  Pb8  1  0.153049  0.779842  0.744981  1
  Pb  Pb9  1  0.846951  0.220158  0.255019  1
  O  O10  1  0.642660  0.026190  0.306925  1
  O  O11  1  0.702918  0.475088  0.117009  1
  O  O12  1  0.357340  0.973810  0.693075  1
  O  O13  1  0.297082  0.524912  0.882991  1
  O  O14  1  0.829934  0.975930  0.857768  1
  O  O15  1  0.159527  0.626861  0.577264  1
  O  O16  1  0.840473  0.373139  0.422736  1
  O  O17  1  0.170066  0.024070  0.142232  1
