# generated using pymatgen
data_CdBr2
_symmetry_space_group_name_H-M   'P 1'
_cell_length_a   4.07383828
_cell_length_b   4.07383828
_cell_length_c   14.25503686
_cell_angle_alpha   90.00000000
_cell_angle_beta   90.00000000
_cell_angle_gamma   120.00000000
_symmetry_Int_Tables_number   1
_chemical_formula_structural   CdBr2
_chemical_formula_sum   'Cd2 Br4'
_cell_volume   204.88329296
_cell_formula_units_Z   2
loop_
 _symmetry_equiv_pos_site_id
 _symmetry_equiv_pos_as_xyz
  1  'x, y, z'
loop_
 _atom_site_type_symbol
 _atom_site_label
 _atom_site_symmetry_multiplicity
 _atom_site_fract_x
 _atom_site_fract_y
 _atom_site_fract_z
 _atom_site_occupancy
  Cd  Cd0  1  0.666667  0.333333  0.874968  1
  Cd  Cd1  1  0.333333  0.666667  0.374968  1
  Br  Br2  1  0.000000  0.000000  0.765004  1
  Br  Br3  1  0.000000  0.000000  0.265004  1
  Br  Br4  1  0.333333  0.666667  0.985028  1
  Br  Br5  1  0.666667  0.333333  0.485028  1
