# generated using pymatgen
data_P(HO)4
_symmetry_space_group_name_H-M   'P 1'
_cell_length_a   6.70418411
_cell_length_b   9.57072248
_cell_length_c   11.72238903
_cell_angle_alpha   90.00000000
_cell_angle_beta   90.00000000
_cell_angle_gamma   90.00000000
_symmetry_Int_Tables_number   1
_chemical_formula_structural   P(HO)4
_chemical_formula_sum   'P8 H32 O32'
_cell_volume   752.15402835
_cell_formula_units_Z   8
loop_
 _symmetry_equiv_pos_site_id
 _symmetry_equiv_pos_as_xyz
  1  'x, y, z'
loop_
 _atom_site_type_symbol
 _atom_site_label
 _atom_site_symmetry_multiplicity
 _atom_site_fract_x
 _atom_site_fract_y
 _atom_site_fract_z
 _atom_site_occupancy
  P  P0  1  0.913145  0.710270  0.736632  1
  P  P1  1  0.413145  0.789730  0.263368  1
  P  P2  1  0.586855  0.710270  0.763368  1
  P  P3  1  0.086855  0.789730  0.236632  1
  P  P4  1  0.086855  0.289730  0.263368  1
  P  P5  1  0.586855  0.210270  0.736632  1
  P  P6  1  0.413145  0.289730  0.236632  1
  P  P7  1  0.913145  0.210270  0.763368  1
  H  H8  1  0.628457  0.902049  0.102852  1
  H  H9  1  0.128457  0.597951  0.897148  1
  H  H10  1  0.871543  0.902049  0.397148  1
  H  H11  1  0.371543  0.597951  0.602852  1
  H  H12  1  0.371543  0.097951  0.897148  1
  H  H13  1  0.871543  0.402049  0.102852  1
  H  H14  1  0.128457  0.097951  0.602852  1
  H  H15  1  0.628457  0.402049  0.397148  1
  H  H16  1  0.652691  0.821483  0.974555  1
  H  H17  1  0.152691  0.678517  0.025445  1
  H  H18  1  0.847309  0.821483  0.525445  1
  H  H19  1  0.347309  0.678517  0.474555  1
  H  H20  1  0.347309  0.178517  0.025445  1
  H  H21  1  0.847309  0.321483  0.974555  1
  H  H22  1  0.152691  0.178517  0.474555  1
  H  H23  1  0.652691  0.321483  0.525445  1
  H  H24  1  0.852821  0.845167  0.059477  1
  H  H25  1  0.352821  0.654833  0.940523  1
  H  H26  1  0.647179  0.845167  0.440523  1
  H  H27  1  0.147179  0.654833  0.559477  1
  H  H28  1  0.147179  0.154833  0.940523  1
  H  H29  1  0.647179  0.345167  0.059477  1
  H  H30  1  0.352821  0.154833  0.559477  1
  H  H31  1  0.852821  0.345167  0.440523  1
  H  H32  1  0.995317  0.933944  0.766449  1
  H  H33  1  0.495317  0.566056  0.233551  1
  H  H34  1  0.504683  0.933944  0.733551  1
  H  H35  1  0.004683  0.566056  0.266449  1
  H  H36  1  0.004683  0.066056  0.233551  1
  H  H37  1  0.504683  0.433944  0.766449  1
  H  H38  1  0.495317  0.066056  0.266449  1
  H  H39  1  0.995317  0.433944  0.733551  1
  O  O40  1  0.720414  0.888283  0.032132  1
  O  O41  1  0.220414  0.611717  0.967868  1
  O  O42  1  0.779586  0.888283  0.467868  1
  O  O43  1  0.279586  0.611717  0.532132  1
  O  O44  1  0.279586  0.111717  0.967868  1
  O  O45  1  0.779586  0.388283  0.032132  1
  O  O46  1  0.220414  0.111717  0.532132  1
  O  O47  1  0.720414  0.388283  0.467868  1
  O  O48  1  0.000271  0.579075  0.792631  1
  O  O49  1  0.500271  0.920925  0.207369  1
  O  O50  1  0.499729  0.579075  0.707369  1
  O  O51  1  0.999729  0.920925  0.292631  1
  O  O52  1  0.999729  0.420925  0.207369  1
  O  O53  1  0.499729  0.079075  0.792631  1
  O  O54  1  0.500271  0.420925  0.292631  1
  O  O55  1  0.000271  0.079075  0.707369  1
  O  O56  1  0.953072  0.722515  0.608352  1
  O  O57  1  0.453072  0.777485  0.391648  1
  O  O58  1  0.546928  0.722515  0.891648  1
  O  O59  1  0.046928  0.777485  0.108352  1
  O  O60  1  0.046928  0.277485  0.391648  1
  O  O61  1  0.546928  0.222515  0.608352  1
  O  O62  1  0.453072  0.277485  0.108352  1
  O  O63  1  0.953072  0.222515  0.891648  1
  O  O64  1  0.994598  0.838772  0.806868  1
  O  O65  1  0.494598  0.661228  0.193132  1
  O  O66  1  0.505402  0.838772  0.693132  1
  O  O67  1  0.005402  0.661228  0.306868  1
  O  O68  1  0.005402  0.161228  0.193132  1
  O  O69  1  0.505402  0.338772  0.806868  1
  O  O70  1  0.494598  0.161228  0.306868  1
  O  O71  1  0.994598  0.338772  0.693132  1
