# generated using pymatgen
data_IO3
_symmetry_space_group_name_H-M   'P 1'
_cell_length_a   5.33328947
_cell_length_b   6.85147536
_cell_length_c   6.90529778
_cell_angle_alpha   98.05288917
_cell_angle_beta   95.82031718
_cell_angle_gamma   104.65703775
_symmetry_Int_Tables_number   1
_chemical_formula_structural   IO3
_chemical_formula_sum   'I4 O12'
_cell_volume   239.22789662
_cell_formula_units_Z   4
loop_
 _symmetry_equiv_pos_site_id
 _symmetry_equiv_pos_as_xyz
  1  'x, y, z'
loop_
 _atom_site_type_symbol
 _atom_site_label
 _atom_site_symmetry_multiplicity
 _atom_site_fract_x
 _atom_site_fract_y
 _atom_site_fract_z
 _atom_site_occupancy
  I  I0  1  0.002951  0.171063  0.671332  1
  I  I1  1  0.997049  0.828937  0.328668  1
  I  I2  1  0.814516  0.663019  0.777148  1
  I  I3  1  0.185484  0.336981  0.222852  1
  O  O4  1  0.212171  0.981040  0.582923  1
  O  O5  1  0.787829  0.018960  0.417077  1
  O  O6  1  0.802747  0.956612  0.800038  1
  O  O7  1  0.197253  0.043388  0.199962  1
  O  O8  1  0.847815  0.299819  0.151157  1
  O  O9  1  0.152185  0.700181  0.848843  1
  O  O10  1  0.794771  0.635313  0.480917  1
  O  O11  1  0.205229  0.364687  0.519083  1
  O  O12  1  0.250544  0.288384  0.890570  1
  O  O13  1  0.749456  0.711616  0.109430  1
  O  O14  1  0.242809  0.685010  0.295361  1
  O  O15  1  0.757191  0.314990  0.704639  1
