# generated using pymatgen
data_KP(HO2)2
_symmetry_space_group_name_H-M   'P 1'
_cell_length_a   6.20085793
_cell_length_b   4.55953484
_cell_length_c   14.48586013
_cell_angle_alpha   90.00000000
_cell_angle_beta   92.03181193
_cell_angle_gamma   90.00000000
_symmetry_Int_Tables_number   1
_chemical_formula_structural   KP(HO2)2
_chemical_formula_sum   'K4 P4 H8 O16'
_cell_volume   409.30163426
_cell_formula_units_Z   4
loop_
 _symmetry_equiv_pos_site_id
 _symmetry_equiv_pos_as_xyz
  1  'x, y, z'
loop_
 _atom_site_type_symbol
 _atom_site_label
 _atom_site_symmetry_multiplicity
 _atom_site_fract_x
 _atom_site_fract_y
 _atom_site_fract_z
 _atom_site_occupancy
  K  K0  1  0.766995  0.988284  0.134249  1
  K  K1  1  0.233005  0.488284  0.365751  1
  K  K2  1  0.233005  0.011716  0.865751  1
  K  K3  1  0.766995  0.511716  0.634249  1
  P  P4  1  0.739086  0.962702  0.375366  1
  P  P5  1  0.260914  0.462702  0.124634  1
  P  P6  1  0.260914  0.037298  0.624634  1
  P  P7  1  0.739086  0.537298  0.875366  1
  H  H8  1  0.000000  0.000000  0.500000  1
  H  H9  1  0.000000  0.500000  0.000000  1
  H  H10  1  0.739267  0.493985  0.316044  1
  H  H11  1  0.260733  0.993985  0.183956  1
  H  H12  1  0.260733  0.506015  0.683956  1
  H  H13  1  0.739267  0.006015  0.816044  1
  H  H14  1  0.500000  0.000000  0.500000  1
  H  H15  1  0.500000  0.500000  0.000000  1
  O  O16  1  0.664089  0.798779  0.809693  1
  O  O17  1  0.335911  0.298779  0.690307  1
  O  O18  1  0.335911  0.201221  0.190307  1
  O  O19  1  0.664089  0.701221  0.309693  1
  O  O20  1  0.904362  0.667258  0.948051  1
  O  O21  1  0.095638  0.167258  0.551949  1
  O  O22  1  0.095638  0.332742  0.051949  1
  O  O23  1  0.904362  0.832742  0.448051  1
  O  O24  1  0.836556  0.294754  0.816894  1
  O  O25  1  0.163444  0.794754  0.683106  1
  O  O26  1  0.163444  0.705246  0.183106  1
  O  O27  1  0.836556  0.205246  0.316894  1
  O  O28  1  0.533776  0.422138  0.922535  1
  O  O29  1  0.466224  0.922138  0.577465  1
  O  O30  1  0.466224  0.577862  0.077465  1
  O  O31  1  0.533776  0.077862  0.422535  1
