# generated using pymatgen
data_KBiP2S7
_symmetry_space_group_name_H-M   'P 1'
_cell_length_a   9.23819848
_cell_length_b   12.74412392
_cell_length_c   9.77734704
_cell_angle_alpha   90.00000000
_cell_angle_beta   90.42117973
_cell_angle_gamma   90.00000000
_symmetry_Int_Tables_number   1
_chemical_formula_structural   KBiP2S7
_chemical_formula_sum   'K4 Bi4 P8 S28'
_cell_volume   1151.08281662
_cell_formula_units_Z   4
loop_
 _symmetry_equiv_pos_site_id
 _symmetry_equiv_pos_as_xyz
  1  'x, y, z'
loop_
 _atom_site_type_symbol
 _atom_site_label
 _atom_site_symmetry_multiplicity
 _atom_site_fract_x
 _atom_site_fract_y
 _atom_site_fract_z
 _atom_site_occupancy
  K  K0  1  0.626006  0.688351  0.111838  1
  K  K1  1  0.873994  0.188351  0.888162  1
  K  K2  1  0.373994  0.311649  0.888162  1
  K  K3  1  0.126006  0.811649  0.111838  1
  Bi  Bi4  1  0.373601  0.636979  0.651686  1
  Bi  Bi5  1  0.126399  0.136979  0.348314  1
  Bi  Bi6  1  0.626399  0.363021  0.348314  1
  Bi  Bi7  1  0.873601  0.863021  0.651686  1
  P  P8  1  0.016921  0.608734  0.772212  1
  P  P9  1  0.483079  0.108734  0.227788  1
  P  P10  1  0.983079  0.391266  0.227788  1
  P  P11  1  0.516921  0.891266  0.772212  1
  P  P12  1  0.302037  0.534172  0.320841  1
  P  P13  1  0.197963  0.034172  0.679159  1
  P  P14  1  0.697963  0.465828  0.679159  1
  P  P15  1  0.802037  0.965828  0.320841  1
  S  S16  1  0.844726  0.811232  0.344604  1
  S  S17  1  0.655274  0.311232  0.655396  1
  S  S18  1  0.155274  0.188768  0.655396  1
  S  S19  1  0.344726  0.688768  0.344604  1
  S  S20  1  0.890393  0.710924  0.876156  1
  S  S21  1  0.609607  0.210924  0.123844  1
  S  S22  1  0.109607  0.289076  0.123844  1
  S  S23  1  0.390393  0.789076  0.876156  1
  S  S24  1  0.069762  0.968634  0.825985  1
  S  S25  1  0.430238  0.468634  0.174015  1
  S  S26  1  0.930238  0.031366  0.174015  1
  S  S27  1  0.569762  0.531366  0.825985  1
  S  S28  1  0.569421  0.824682  0.589976  1
  S  S29  1  0.930579  0.324682  0.410024  1
  S  S30  1  0.430579  0.175318  0.410024  1
  S  S31  1  0.069421  0.675318  0.589976  1
  S  S32  1  0.815611  0.050385  0.497252  1
  S  S33  1  0.684389  0.550385  0.502748  1
  S  S34  1  0.184389  0.949615  0.502748  1
  S  S35  1  0.315611  0.449615  0.497252  1
  S  S36  1  0.917221  0.457489  0.751212  1
  S  S37  1  0.582779  0.957489  0.248788  1
  S  S38  1  0.082779  0.542511  0.248788  1
  S  S39  1  0.417221  0.042511  0.751212  1
  S  S40  1  0.702571  0.942319  0.866370  1
  S  S41  1  0.797429  0.442319  0.133630  1
  S  S42  1  0.297429  0.057681  0.133630  1
  S  S43  1  0.202571  0.557681  0.866370  1
