# generated using pymatgen
data_Na3InSb2
_symmetry_space_group_name_H-M   'P 1'
_cell_length_a   10.46186195
_cell_length_b   8.03851804
_cell_length_c   16.83728488
_cell_angle_alpha   90.00000000
_cell_angle_beta   92.80328709
_cell_angle_gamma   90.00000000
_symmetry_Int_Tables_number   1
_chemical_formula_structural   Na3InSb2
_chemical_formula_sum   'Na24 In8 Sb16'
_cell_volume   1414.28527137
_cell_formula_units_Z   8
loop_
 _symmetry_equiv_pos_site_id
 _symmetry_equiv_pos_as_xyz
  1  'x, y, z'
loop_
 _atom_site_type_symbol
 _atom_site_label
 _atom_site_symmetry_multiplicity
 _atom_site_fract_x
 _atom_site_fract_y
 _atom_site_fract_z
 _atom_site_occupancy
  Na  Na0  1  0.871838  0.155132  0.297990  1
  Na  Na1  1  0.128162  0.655132  0.202010  1
  Na  Na2  1  0.128162  0.844868  0.702010  1
  Na  Na3  1  0.871838  0.344868  0.797990  1
  Na  Na4  1  0.561576  0.490291  0.893491  1
  Na  Na5  1  0.438424  0.990291  0.606509  1
  Na  Na6  1  0.438424  0.509709  0.106509  1
  Na  Na7  1  0.561576  0.009709  0.393491  1
  Na  Na8  1  0.187924  0.970282  0.352626  1
  Na  Na9  1  0.812076  0.470282  0.147374  1
  Na  Na10  1  0.812076  0.029718  0.647374  1
  Na  Na11  1  0.187924  0.529718  0.852626  1
  Na  Na12  1  0.383346  0.847231  0.953052  1
  Na  Na13  1  0.616654  0.347231  0.546948  1
  Na  Na14  1  0.616654  0.152769  0.046948  1
  Na  Na15  1  0.383346  0.652769  0.453052  1
  Na  Na16  1  0.929616  0.969117  0.107975  1
  Na  Na17  1  0.070384  0.469117  0.392025  1
  Na  Na18  1  0.070384  0.030883  0.892025  1
  Na  Na19  1  0.929616  0.530883  0.607975  1
  Na  Na20  1  0.322660  0.012261  0.137715  1
  Na  Na21  1  0.677340  0.512261  0.362285  1
  Na  Na22  1  0.677340  0.987739  0.862285  1
  Na  Na23  1  0.322660  0.487739  0.637714  1
  In  In24  1  0.639449  0.851059  0.208566  1
  In  In25  1  0.360551  0.351059  0.291434  1
  In  In26  1  0.360551  0.148941  0.791434  1
  In  In27  1  0.639449  0.648941  0.708566  1
  In  In28  1  0.874157  0.862374  0.457817  1
  In  In29  1  0.125843  0.362374  0.042183  1
  In  In30  1  0.125843  0.137626  0.542183  1
  In  In31  1  0.874157  0.637626  0.957817  1
  Sb  Sb32  1  0.649097  0.761378  0.038141  1
  Sb  Sb33  1  0.350903  0.261378  0.461859  1
  Sb  Sb34  1  0.350903  0.238622  0.961859  1
  Sb  Sb35  1  0.649097  0.738622  0.538141  1
  Sb  Sb36  1  0.879575  0.758495  0.291214  1
  Sb  Sb37  1  0.120425  0.258495  0.208786  1
  Sb  Sb38  1  0.120425  0.241505  0.708786  1
  Sb  Sb39  1  0.879575  0.741505  0.791214  1
  Sb  Sb40  1  0.406580  0.781942  0.773489  1
  Sb  Sb41  1  0.593420  0.281942  0.726511  1
  Sb  Sb42  1  0.593420  0.218058  0.226511  1
  Sb  Sb43  1  0.406580  0.718058  0.273489  1
  Sb  Sb44  1  0.872768  0.271533  0.978144  1
  Sb  Sb45  1  0.127232  0.771533  0.521856  1
  Sb  Sb46  1  0.127232  0.728467  0.021856  1
  Sb  Sb47  1  0.872768  0.228467  0.478144  1
