# generated using pymatgen
data_SnH8(NF3)2
_symmetry_space_group_name_H-M   'P 1'
_cell_length_a   6.28643638
_cell_length_b   6.28643638
_cell_length_c   4.84069429
_cell_angle_alpha   90.00000000
_cell_angle_beta   90.00000000
_cell_angle_gamma   120.00000000
_symmetry_Int_Tables_number   1
_chemical_formula_structural   SnH8(NF3)2
_chemical_formula_sum   'Sn1 H8 N2 F6'
_cell_volume   165.67132169
_cell_formula_units_Z   1
loop_
 _symmetry_equiv_pos_site_id
 _symmetry_equiv_pos_as_xyz
  1  'x, y, z'
loop_
 _atom_site_type_symbol
 _atom_site_label
 _atom_site_symmetry_multiplicity
 _atom_site_fract_x
 _atom_site_fract_y
 _atom_site_fract_z
 _atom_site_occupancy
  Sn  Sn0  1  0.000000  0.000000  0.000000  1
  H  H1  1  0.333333  0.666667  0.846770  1
  H  H2  1  0.666667  0.333333  0.153230  1
  H  H3  1  0.510666  0.755333  0.557473  1
  H  H4  1  0.244667  0.755333  0.557473  1
  H  H5  1  0.244667  0.489334  0.557473  1
  H  H6  1  0.755333  0.244667  0.442527  1
  H  H7  1  0.489334  0.244667  0.442527  1
  H  H8  1  0.755333  0.510666  0.442527  1
  N  N9  1  0.333333  0.666667  0.634875  1
  N  N10  1  0.666667  0.333333  0.365125  1
  F  F11  1  0.304971  0.152485  0.767268  1
  F  F12  1  0.847515  0.152485  0.767268  1
  F  F13  1  0.847515  0.695029  0.767268  1
  F  F14  1  0.152485  0.847515  0.232732  1
  F  F15  1  0.695029  0.847515  0.232732  1
  F  F16  1  0.152485  0.304971  0.232732  1
