# generated using pymatgen
data_Bi2Te4O11
_symmetry_space_group_name_H-M   'P 1'
_cell_length_a   7.07771115
_cell_length_b   8.12577593
_cell_length_c   20.04244612
_cell_angle_alpha   90.00000000
_cell_angle_beta   106.90154850
_cell_angle_gamma   90.00000000
_symmetry_Int_Tables_number   1
_chemical_formula_structural   Bi2Te4O11
_chemical_formula_sum   'Bi8 Te16 O44'
_cell_volume   1102.88992094
_cell_formula_units_Z   4
loop_
 _symmetry_equiv_pos_site_id
 _symmetry_equiv_pos_as_xyz
  1  'x, y, z'
loop_
 _atom_site_type_symbol
 _atom_site_label
 _atom_site_symmetry_multiplicity
 _atom_site_fract_x
 _atom_site_fract_y
 _atom_site_fract_z
 _atom_site_occupancy
  Bi  Bi0  1  0.340739  0.388326  0.416573  1
  Bi  Bi1  1  0.659261  0.888326  0.083427  1
  Bi  Bi2  1  0.659261  0.611674  0.583427  1
  Bi  Bi3  1  0.340739  0.111674  0.916573  1
  Bi  Bi4  1  0.850161  0.382444  0.921855  1
  Bi  Bi5  1  0.149839  0.882444  0.578145  1
  Bi  Bi6  1  0.149839  0.617556  0.078145  1
  Bi  Bi7  1  0.850161  0.117556  0.421855  1
  Te  Te8  1  0.185060  0.353173  0.570745  1
  Te  Te9  1  0.814940  0.853173  0.929255  1
  Te  Te10  1  0.814940  0.646827  0.429255  1
  Te  Te11  1  0.185060  0.146827  0.070745  1
  Te  Te12  1  0.514696  0.411859  0.260396  1
  Te  Te13  1  0.485304  0.911859  0.239604  1
  Te  Te14  1  0.485304  0.588141  0.739604  1
  Te  Te15  1  0.514696  0.088141  0.760396  1
  Te  Te16  1  0.666880  0.376359  0.073426  1
  Te  Te17  1  0.333120  0.876359  0.426574  1
  Te  Te18  1  0.333120  0.623641  0.926574  1
  Te  Te19  1  0.666880  0.123641  0.573426  1
  Te  Te20  1  0.964456  0.339317  0.747135  1
  Te  Te21  1  0.035544  0.839317  0.752865  1
  Te  Te22  1  0.035544  0.660683  0.252865  1
  Te  Te23  1  0.964456  0.160683  0.247135  1
  O  O24  1  0.533094  0.274192  0.338448  1
  O  O25  1  0.466906  0.774192  0.161552  1
  O  O26  1  0.466906  0.725808  0.661552  1
  O  O27  1  0.533094  0.225808  0.838448  1
  O  O28  1  0.374875  0.398339  0.688049  1
  O  O29  1  0.625125  0.898339  0.811951  1
  O  O30  1  0.625125  0.601661  0.311951  1
  O  O31  1  0.374875  0.101661  0.188049  1
  O  O32  1  0.370211  0.476246  0.536018  1
  O  O33  1  0.629789  0.976246  0.963982  1
  O  O34  1  0.629789  0.523754  0.463982  1
  O  O35  1  0.370211  0.023754  0.036018  1
  O  O36  1  0.767652  0.334203  0.607796  1
  O  O37  1  0.232348  0.834203  0.892204  1
  O  O38  1  0.232348  0.665797  0.392204  1
  O  O39  1  0.767652  0.165797  0.107796  1
  O  O40  1  0.208192  0.473130  0.267037  1
  O  O41  1  0.906883  0.421713  0.041914  1
  O  O42  1  0.093117  0.578287  0.958086  1
  O  O43  1  0.906883  0.078287  0.541914  1
  O  O44  1  0.789883  0.343738  0.247770  1
  O  O45  1  0.210117  0.843738  0.252230  1
  O  O46  1  0.210117  0.656262  0.752230  1
  O  O47  1  0.789883  0.156262  0.747770  1
  O  O48  1  0.539094  0.172250  0.476961  1
  O  O49  1  0.460906  0.672250  0.023039  1
  O  O50  1  0.460906  0.827750  0.523039  1
  O  O51  1  0.539094  0.327750  0.976961  1
  O  O52  1  0.058461  0.176098  0.967772  1
  O  O53  1  0.941539  0.676098  0.532228  1
  O  O54  1  0.941539  0.823902  0.032228  1
  O  O55  1  0.058461  0.323902  0.467772  1
  O  O56  1  0.329423  0.152110  0.584625  1
  O  O57  1  0.670577  0.652110  0.915375  1
  O  O58  1  0.670577  0.847890  0.415375  1
  O  O59  1  0.329423  0.347890  0.084625  1
  O  O60  1  0.060768  0.145228  0.346027  1
  O  O61  1  0.939232  0.645228  0.153973  1
  O  O62  1  0.939232  0.854772  0.653973  1
  O  O63  1  0.060768  0.354772  0.846027  1
  O  O64  1  0.208192  0.026870  0.767037  1
  O  O65  1  0.791808  0.526870  0.732963  1
  O  O66  1  0.791808  0.973130  0.232963  1
  O  O67  1  0.093117  0.921713  0.458086  1
