# generated using pymatgen
data_Li5Cu(PO4)2
_symmetry_space_group_name_H-M   'P 1'
_cell_length_a   6.17498462
_cell_length_b   5.08058054
_cell_length_c   10.75136412
_cell_angle_alpha   90.00000000
_cell_angle_beta   90.52745793
_cell_angle_gamma   90.00000000
_symmetry_Int_Tables_number   1
_chemical_formula_structural   Li5Cu(PO4)2
_chemical_formula_sum   'Li10 Cu2 P4 O16'
_cell_volume   337.28295028
_cell_formula_units_Z   2
loop_
 _symmetry_equiv_pos_site_id
 _symmetry_equiv_pos_as_xyz
  1  'x, y, z'
loop_
 _atom_site_type_symbol
 _atom_site_label
 _atom_site_symmetry_multiplicity
 _atom_site_fract_x
 _atom_site_fract_y
 _atom_site_fract_z
 _atom_site_occupancy
  Li  Li0  1  0.997670  0.451594  0.336269  1
  Li  Li1  1  0.250673  0.947902  0.925129  1
  Li  Li2  1  0.250673  0.052098  0.425129  1
  Li  Li3  1  0.997670  0.548406  0.836269  1
  Li  Li4  1  0.750445  0.545022  0.074224  1
  Li  Li5  1  0.750445  0.454978  0.574224  1
  Li  Li6  1  0.502026  0.447374  0.335579  1
  Li  Li7  1  0.502026  0.552626  0.835579  1
  Li  Li8  1  0.496507  0.941856  0.163892  1
  Li  Li9  1  0.496507  0.058144  0.663892  1
  Cu  Cu10  1  0.007501  0.048724  0.672735  1
  Cu  Cu11  1  0.007501  0.951276  0.172735  1
  P  P12  1  0.743790  0.053257  0.911497  1
  P  P13  1  0.254158  0.443251  0.086471  1
  P  P14  1  0.743790  0.946743  0.411497  1
  P  P15  1  0.254158  0.556749  0.586471  1
  O  O16  1  0.737236  0.943654  0.046427  1
  O  O17  1  0.044479  0.471090  0.656487  1
  O  O18  1  0.954476  0.055567  0.349492  1
  O  O19  1  0.954476  0.944433  0.849492  1
  O  O20  1  0.252414  0.551921  0.951351  1
  O  O21  1  0.749080  0.360146  0.911362  1
  O  O22  1  0.749080  0.639854  0.411362  1
  O  O23  1  0.737236  0.056346  0.546426  1
  O  O24  1  0.541134  0.046749  0.338358  1
  O  O25  1  0.541134  0.953251  0.838358  1
  O  O26  1  0.457451  0.544478  0.158785  1
  O  O27  1  0.457451  0.455522  0.658785  1
  O  O28  1  0.260960  0.135509  0.081942  1
  O  O29  1  0.260960  0.864491  0.581942  1
  O  O30  1  0.252414  0.448079  0.451351  1
  O  O31  1  0.044479  0.528910  0.156487  1
