# generated using pymatgen
data_SbCl4F
_symmetry_space_group_name_H-M   'P 1'
_cell_length_a   10.37445476
_cell_length_b   10.37445476
_cell_length_c   10.37445476
_cell_angle_alpha   99.21077048
_cell_angle_beta   99.21077048
_cell_angle_gamma   132.83321222
_symmetry_Int_Tables_number   1
_chemical_formula_structural   SbCl4F
_chemical_formula_sum   'Sb4 Cl16 F4'
_cell_volume   750.44898441
_cell_formula_units_Z   4
loop_
 _symmetry_equiv_pos_site_id
 _symmetry_equiv_pos_as_xyz
  1  'x, y, z'
loop_
 _atom_site_type_symbol
 _atom_site_label
 _atom_site_symmetry_multiplicity
 _atom_site_fract_x
 _atom_site_fract_y
 _atom_site_fract_z
 _atom_site_occupancy
  Sb  Sb0  1  0.229692  0.963484  0.173970  1
  Sb  Sb1  1  0.944279  0.770308  0.733793  1
  Sb  Sb2  1  0.036516  0.210486  0.266207  1
  Sb  Sb3  1  0.789514  0.055721  0.826030  1
  Cl  Cl4  1  0.934239  0.689210  0.163957  1
  Cl  Cl5  1  0.525253  0.770282  0.836043  1
  Cl  Cl6  1  0.310790  0.474747  0.245029  1
  Cl  Cl7  1  0.229718  0.065761  0.754971  1
  Cl  Cl8  1  0.715935  0.216179  0.898689  1
  Cl  Cl9  1  0.182755  0.284065  0.500244  1
  Cl  Cl10  1  0.783821  0.682511  0.499756  1
  Cl  Cl11  1  0.317489  0.817245  0.101311  1
  Cl  Cl12  1  0.038096  0.621277  0.700797  1
  Cl  Cl13  1  0.662701  0.961904  0.583181  1
  Cl  Cl14  1  0.378723  0.079520  0.416819  1
  Cl  Cl15  1  0.920480  0.337299  0.299203  1
  Cl  Cl16  1  0.098786  0.325150  0.852810  1
  Cl  Cl17  1  0.754024  0.901214  0.226364  1
  Cl  Cl18  1  0.674850  0.527660  0.773636  1
  Cl  Cl19  1  0.472340  0.245976  0.147190  1
  F  F20  1  0.919550  0.120232  0.042413  1
  F  F21  1  0.077820  0.877137  0.957587  1
  F  F22  1  0.879768  0.922180  0.799318  1
  F  F23  1  0.122863  0.080450  0.200682  1
