# generated using pymatgen
data_TaCl5
_symmetry_space_group_name_H-M   'P 1'
_cell_length_a   13.66970703
_cell_length_b   13.66970703
_cell_length_c   6.46547716
_cell_angle_alpha   88.67992042
_cell_angle_beta   91.32007958
_cell_angle_gamma   92.79848317
_symmetry_Int_Tables_number   1
_chemical_formula_structural   TaCl5
_chemical_formula_sum   'Ta6 Cl30'
_cell_volume   1206.09323770
_cell_formula_units_Z   6
loop_
 _symmetry_equiv_pos_site_id
 _symmetry_equiv_pos_as_xyz
  1  'x, y, z'
loop_
 _atom_site_type_symbol
 _atom_site_label
 _atom_site_symmetry_multiplicity
 _atom_site_fract_x
 _atom_site_fract_y
 _atom_site_fract_z
 _atom_site_occupancy
  Ta  Ta0  1  0.439098  0.772974  0.524086  1
  Ta  Ta1  1  0.772974  0.439098  0.475914  1
  Ta  Ta2  1  0.560902  0.227026  0.475914  1
  Ta  Ta3  1  0.227026  0.560902  0.524086  1
  Ta  Ta4  1  0.106047  0.106047  0.000000  1
  Ta  Ta5  1  0.893953  0.893953  0.000000  1
  Cl  Cl6  1  0.523199  0.666655  0.741140  1
  Cl  Cl7  1  0.666655  0.523199  0.258860  1
  Cl  Cl8  1  0.476801  0.333345  0.258860  1
  Cl  Cl9  1  0.333345  0.476801  0.741140  1
  Cl  Cl10  1  0.566996  0.797139  0.306174  1
  Cl  Cl11  1  0.797139  0.566996  0.693826  1
  Cl  Cl12  1  0.048491  0.951509  0.205438  1
  Cl  Cl13  1  0.951509  0.048491  0.794562  1
  Cl  Cl14  1  0.871033  0.764826  0.225331  1
  Cl  Cl15  1  0.764826  0.871033  0.774669  1
  Cl  Cl16  1  0.128967  0.235174  0.774669  1
  Cl  Cl17  1  0.235174  0.128967  0.225331  1
  Cl  Cl18  1  0.999246  0.811099  0.796773  1
  Cl  Cl19  1  0.811099  0.999246  0.203227  1
  Cl  Cl20  1  0.000754  0.188901  0.203227  1
  Cl  Cl21  1  0.188901  0.000754  0.796773  1
  Cl  Cl22  1  0.285692  0.714308  0.722479  1
  Cl  Cl23  1  0.714308  0.285692  0.277521  1
  Cl  Cl24  1  0.099208  0.537151  0.742269  1
  Cl  Cl25  1  0.537151  0.099208  0.257731  1
  Cl  Cl26  1  0.900792  0.462849  0.257731  1
  Cl  Cl27  1  0.462849  0.900792  0.742269  1
  Cl  Cl28  1  0.143118  0.667326  0.307008  1
  Cl  Cl29  1  0.667326  0.143118  0.692992  1
  Cl  Cl30  1  0.856882  0.332674  0.692992  1
  Cl  Cl31  1  0.332674  0.856882  0.307008  1
  Cl  Cl32  1  0.380502  0.619498  0.325772  1
  Cl  Cl33  1  0.619498  0.380502  0.674228  1
  Cl  Cl34  1  0.202861  0.433004  0.306174  1
  Cl  Cl35  1  0.433004  0.202861  0.693826  1
