# generated using pymatgen
data_HgCl
_symmetry_space_group_name_H-M   'P 1'
_cell_length_a   6.49631179
_cell_length_b   6.49631179
_cell_length_c   6.49631179
_cell_angle_alpha   137.14754113
_cell_angle_beta   137.14754113
_cell_angle_gamma   62.21112021
_symmetry_Int_Tables_number   1
_chemical_formula_structural   HgCl
_chemical_formula_sum   'Hg2 Cl2'
_cell_volume   125.29992574
_cell_formula_units_Z   2
loop_
 _symmetry_equiv_pos_site_id
 _symmetry_equiv_pos_as_xyz
  1  'x, y, z'
loop_
 _atom_site_type_symbol
 _atom_site_label
 _atom_site_symmetry_multiplicity
 _atom_site_fract_x
 _atom_site_fract_y
 _atom_site_fract_z
 _atom_site_occupancy
  Hg  Hg0  1  0.882746  0.882746  0.000000  1
  Hg  Hg1  1  0.117254  0.117254  0.000000  1
  Cl  Cl2  1  0.663199  0.663199  0.000000  1
  Cl  Cl3  1  0.336801  0.336801  0.000000  1
