# generated using pymatgen
data_CuW3Br7
_symmetry_space_group_name_H-M   'P 1'
_cell_length_a   13.77470386
_cell_length_b   13.77470386
_cell_length_c   13.77470386
_cell_angle_alpha   90.00000000
_cell_angle_beta   90.00000000
_cell_angle_gamma   90.00000000
_symmetry_Int_Tables_number   1
_chemical_formula_structural   CuW3Br7
_chemical_formula_sum   'Cu8 W24 Br56'
_cell_volume   2613.64628475
_cell_formula_units_Z   8
loop_
 _symmetry_equiv_pos_site_id
 _symmetry_equiv_pos_as_xyz
  1  'x, y, z'
loop_
 _atom_site_type_symbol
 _atom_site_label
 _atom_site_symmetry_multiplicity
 _atom_site_fract_x
 _atom_site_fract_y
 _atom_site_fract_z
 _atom_site_occupancy
  Cu  Cu0  1  0.687994  0.687994  0.687994  1
  Cu  Cu1  1  0.312006  0.312006  0.687994  1
  Cu  Cu2  1  0.687994  0.312006  0.312006  1
  Cu  Cu3  1  0.312006  0.687994  0.312006  1
  Cu  Cu4  1  0.812006  0.812006  0.812006  1
  Cu  Cu5  1  0.187994  0.187994  0.812006  1
  Cu  Cu6  1  0.812006  0.187994  0.187994  1
  Cu  Cu7  1  0.187994  0.812006  0.187994  1
  W  W8  1  0.273944  0.880844  0.779795  1
  W  W9  1  0.779795  0.273944  0.880844  1
  W  W10  1  0.880844  0.779795  0.273944  1
  W  W11  1  0.119156  0.220205  0.273944  1
  W  W12  1  0.779795  0.726056  0.119156  1
  W  W13  1  0.119156  0.779795  0.726056  1
  W  W14  1  0.220205  0.726056  0.880844  1
  W  W15  1  0.220205  0.273944  0.119156  1
  W  W16  1  0.880844  0.220205  0.726056  1
  W  W17  1  0.273944  0.119156  0.220205  1
  W  W18  1  0.726056  0.880844  0.220205  1
  W  W19  1  0.726056  0.119156  0.779795  1
  W  W20  1  0.226056  0.619156  0.720205  1
  W  W21  1  0.720205  0.226056  0.619156  1
  W  W22  1  0.619156  0.720205  0.226056  1
  W  W23  1  0.380844  0.279795  0.226056  1
  W  W24  1  0.720205  0.773944  0.380844  1
  W  W25  1  0.380844  0.720205  0.773944  1
  W  W26  1  0.279795  0.773944  0.619156  1
  W  W27  1  0.279795  0.226056  0.380844  1
  W  W28  1  0.619156  0.279795  0.773944  1
  W  W29  1  0.226056  0.380844  0.279795  1
  W  W30  1  0.773944  0.619156  0.279795  1
  W  W31  1  0.773944  0.380844  0.720205  1
  Br  Br32  1  0.174095  0.933930  0.624652  1
  Br  Br33  1  0.624652  0.174095  0.933930  1
  Br  Br34  1  0.933930  0.624652  0.174095  1
  Br  Br35  1  0.066070  0.375348  0.174095  1
  Br  Br36  1  0.624652  0.825905  0.066070  1
  Br  Br37  1  0.066070  0.624652  0.825905  1
  Br  Br38  1  0.375348  0.825905  0.933930  1
  Br  Br39  1  0.375348  0.174095  0.066070  1
  Br  Br40  1  0.933930  0.375348  0.825905  1
  Br  Br41  1  0.174095  0.066070  0.375348  1
  Br  Br42  1  0.825905  0.933930  0.375348  1
  Br  Br43  1  0.825905  0.066070  0.624652  1
  Br  Br44  1  0.325905  0.566070  0.875348  1
  Br  Br45  1  0.875348  0.325905  0.566070  1
  Br  Br46  1  0.566070  0.875348  0.325905  1
  Br  Br47  1  0.433930  0.124652  0.325905  1
  Br  Br48  1  0.875348  0.674095  0.433930  1
  Br  Br49  1  0.433930  0.875348  0.674095  1
  Br  Br50  1  0.124652  0.674095  0.566070  1
  Br  Br51  1  0.124652  0.325905  0.433930  1
  Br  Br52  1  0.566070  0.124652  0.674095  1
  Br  Br53  1  0.325905  0.433930  0.124652  1
  Br  Br54  1  0.674095  0.566070  0.124652  1
  Br  Br55  1  0.674095  0.433930  0.875348  1
  Br  Br56  1  0.564641  0.673505  0.810537  1
  Br  Br57  1  0.810537  0.564641  0.673505  1
  Br  Br58  1  0.673505  0.810537  0.564641  1
  Br  Br59  1  0.326495  0.189463  0.564641  1
  Br  Br60  1  0.810537  0.435359  0.326495  1
  Br  Br61  1  0.326495  0.810537  0.435359  1
  Br  Br62  1  0.189463  0.435359  0.673505  1
  Br  Br63  1  0.189463  0.564641  0.326495  1
  Br  Br64  1  0.673505  0.189463  0.435359  1
  Br  Br65  1  0.564641  0.326495  0.189463  1
  Br  Br66  1  0.435359  0.673505  0.189463  1
  Br  Br67  1  0.435359  0.326495  0.810537  1
  Br  Br68  1  0.935359  0.826495  0.689463  1
  Br  Br69  1  0.689463  0.935359  0.826495  1
  Br  Br70  1  0.826495  0.689463  0.935359  1
  Br  Br71  1  0.173505  0.310537  0.935359  1
  Br  Br72  1  0.689463  0.064641  0.173505  1
  Br  Br73  1  0.173505  0.689463  0.064641  1
  Br  Br74  1  0.310537  0.064641  0.826495  1
  Br  Br75  1  0.310537  0.935359  0.173505  1
  Br  Br76  1  0.826495  0.310537  0.064641  1
  Br  Br77  1  0.935359  0.173505  0.310537  1
  Br  Br78  1  0.064641  0.826495  0.310537  1
  Br  Br79  1  0.064641  0.173505  0.689463  1
  Br  Br80  1  0.386630  0.386630  0.386630  1
  Br  Br81  1  0.613370  0.613370  0.386630  1
  Br  Br82  1  0.386630  0.613370  0.613370  1
  Br  Br83  1  0.613370  0.386630  0.613370  1
  Br  Br84  1  0.113370  0.113370  0.113370  1
  Br  Br85  1  0.886630  0.886630  0.113370  1
  Br  Br86  1  0.113370  0.886630  0.886630  1
  Br  Br87  1  0.886630  0.113370  0.886630  1
