# generated using pymatgen
data_NaZnP2HO7
_symmetry_space_group_name_H-M   'P 1'
_cell_length_a   6.56322314
_cell_length_b   6.61834809
_cell_length_c   6.83014247
_cell_angle_alpha   95.80861520
_cell_angle_beta   113.47925061
_cell_angle_gamma   88.51908541
_symmetry_Int_Tables_number   1
_chemical_formula_structural   NaZnP2HO7
_chemical_formula_sum   'Na2 Zn2 P4 H2 O14'
_cell_volume   270.69010121
_cell_formula_units_Z   2
loop_
 _symmetry_equiv_pos_site_id
 _symmetry_equiv_pos_as_xyz
  1  'x, y, z'
loop_
 _atom_site_type_symbol
 _atom_site_label
 _atom_site_symmetry_multiplicity
 _atom_site_fract_x
 _atom_site_fract_y
 _atom_site_fract_z
 _atom_site_occupancy
  Na  Na0  1  0.784152  0.646470  0.757639  1
  Na  Na1  1  0.215848  0.353530  0.242361  1
  Zn  Zn2  1  0.216502  0.851318  0.626850  1
  Zn  Zn3  1  0.783498  0.148682  0.373150  1
  P  P4  1  0.757938  0.642045  0.282864  1
  P  P5  1  0.242062  0.357955  0.717136  1
  P  P6  1  0.333177  0.875857  0.136085  1
  P  P7  1  0.666823  0.124143  0.863915  1
  H  H8  1  0.065769  0.709200  0.200708  1
  H  H9  1  0.934231  0.290800  0.799292  1
  O  O10  1  0.276404  0.535800  0.607553  1
  O  O11  1  0.723596  0.464200  0.392447  1
  O  O12  1  0.865782  0.827556  0.448134  1
  O  O13  1  0.134218  0.172444  0.551866  1
  O  O14  1  0.881029  0.591923  0.134411  1
  O  O15  1  0.118971  0.408077  0.865589  1
  O  O16  1  0.451936  0.075311  0.247747  1
  O  O17  1  0.548064  0.924689  0.752253  1
  O  O18  1  0.774420  0.210113  0.720102  1
  O  O19  1  0.225580  0.789887  0.279898  1
  O  O20  1  0.485311  0.288825  0.874977  1
  O  O21  1  0.514689  0.711175  0.125023  1
  O  O22  1  0.836102  0.122365  0.092441  1
  O  O23  1  0.163898  0.877635  0.907559  1
