# generated using pymatgen
data_RbFe(SeO4)2
_symmetry_space_group_name_H-M   'P 1'
_cell_length_a   5.25954934
_cell_length_b   5.25954934
_cell_length_c   8.89655465
_cell_angle_alpha   90.00000000
_cell_angle_beta   90.00000000
_cell_angle_gamma   120.00000000
_symmetry_Int_Tables_number   1
_chemical_formula_structural   RbFe(SeO4)2
_chemical_formula_sum   'Rb1 Fe1 Se2 O8'
_cell_volume   213.13243648
_cell_formula_units_Z   1
loop_
 _symmetry_equiv_pos_site_id
 _symmetry_equiv_pos_as_xyz
  1  'x, y, z'
loop_
 _atom_site_type_symbol
 _atom_site_label
 _atom_site_symmetry_multiplicity
 _atom_site_fract_x
 _atom_site_fract_y
 _atom_site_fract_z
 _atom_site_occupancy
  Rb  Rb0  1  0.000000  0.000000  0.000000  1
  Fe  Fe1  1  0.000000  0.000000  0.500000  1
  Se  Se2  1  0.666667  0.333333  0.706324  1
  Se  Se3  1  0.333333  0.666667  0.293676  1
  O  O4  1  0.755913  0.085321  0.646292  1
  O  O5  1  0.914679  0.670592  0.646292  1
  O  O6  1  0.329408  0.244087  0.646292  1
  O  O7  1  0.670592  0.914679  0.353708  1
  O  O8  1  0.333333  0.666667  0.108697  1
  O  O9  1  0.666667  0.333333  0.891303  1
  O  O10  1  0.085321  0.755913  0.353708  1
  O  O11  1  0.244087  0.329408  0.353708  1
