# generated using pymatgen
data_ZrO2
_symmetry_space_group_name_H-M   'P 1'
_cell_length_a   5.23364915
_cell_length_b   5.26845990
_cell_length_c   5.41847621
_cell_angle_alpha   90.00000000
_cell_angle_beta   100.05484518
_cell_angle_gamma   90.00000000
_symmetry_Int_Tables_number   1
_chemical_formula_structural   ZrO2
_chemical_formula_sum   'Zr4 O8'
_cell_volume   147.11041012
_cell_formula_units_Z   4
loop_
 _symmetry_equiv_pos_site_id
 _symmetry_equiv_pos_as_xyz
  1  'x, y, z'
loop_
 _atom_site_type_symbol
 _atom_site_label
 _atom_site_symmetry_multiplicity
 _atom_site_fract_x
 _atom_site_fract_y
 _atom_site_fract_z
 _atom_site_occupancy
  Zr  Zr0  1  0.275981  0.044180  0.210256  1
  Zr  Zr1  1  0.275981  0.455820  0.710256  1
  Zr  Zr2  1  0.724019  0.544180  0.289744  1
  Zr  Zr3  1  0.724019  0.955820  0.789744  1
  O  O4  1  0.938985  0.819822  0.145387  1
  O  O5  1  0.938985  0.680178  0.645387  1
  O  O6  1  0.452990  0.744326  0.978064  1
  O  O7  1  0.547010  0.244326  0.521936  1
  O  O8  1  0.452990  0.755674  0.478064  1
  O  O9  1  0.547010  0.255674  0.021936  1
  O  O10  1  0.061015  0.319822  0.354613  1
  O  O11  1  0.061015  0.180178  0.854613  1
