# generated using pymatgen
data_Li8PbO6
_symmetry_space_group_name_H-M   'P 1'
_cell_length_a   6.20022176
_cell_length_b   6.20022176
_cell_length_c   6.20022176
_cell_angle_alpha   53.77239154
_cell_angle_beta   53.77239154
_cell_angle_gamma   53.77239154
_symmetry_Int_Tables_number   1
_chemical_formula_structural   Li8PbO6
_chemical_formula_sum   'Li8 Pb1 O6'
_cell_volume   144.00485971
_cell_formula_units_Z   1
loop_
 _symmetry_equiv_pos_site_id
 _symmetry_equiv_pos_as_xyz
  1  'x, y, z'
loop_
 _atom_site_type_symbol
 _atom_site_label
 _atom_site_symmetry_multiplicity
 _atom_site_fract_x
 _atom_site_fract_y
 _atom_site_fract_z
 _atom_site_occupancy
  Li  Li0  1  0.654306  0.654306  0.654306  1
  Li  Li1  1  0.897132  0.229702  0.509915  1
  Li  Li2  1  0.509915  0.897132  0.229702  1
  Li  Li3  1  0.229702  0.509915  0.897132  1
  Li  Li4  1  0.102868  0.770298  0.490085  1
  Li  Li5  1  0.490085  0.102868  0.770298  1
  Li  Li6  1  0.345694  0.345694  0.345694  1
  Li  Li7  1  0.770298  0.490085  0.102868  1
  Pb  Pb8  1  0.000000  0.000000  0.000000  1
  O  O9  1  0.096435  0.395672  0.759351  1
  O  O10  1  0.604328  0.240649  0.903565  1
  O  O11  1  0.903565  0.604328  0.240649  1
  O  O12  1  0.759351  0.096435  0.395672  1
  O  O13  1  0.395672  0.759351  0.096435  1
  O  O14  1  0.240649  0.903565  0.604328  1
