# generated using pymatgen
data_TlPO3
_symmetry_space_group_name_H-M   'P 1'
_cell_length_a   7.79382277
_cell_length_b   7.79382277
_cell_length_c   11.37951834
_cell_angle_alpha   90.00000000
_cell_angle_beta   90.00000000
_cell_angle_gamma   90.00000000
_symmetry_Int_Tables_number   1
_chemical_formula_structural   TlPO3
_chemical_formula_sum   'Tl8 P8 O24'
_cell_volume   691.23374515
_cell_formula_units_Z   8
loop_
 _symmetry_equiv_pos_site_id
 _symmetry_equiv_pos_as_xyz
  1  'x, y, z'
loop_
 _atom_site_type_symbol
 _atom_site_label
 _atom_site_symmetry_multiplicity
 _atom_site_fract_x
 _atom_site_fract_y
 _atom_site_fract_z
 _atom_site_occupancy
  Tl  Tl0  1  0.500000  0.500000  0.333329  1
  Tl  Tl1  1  0.500000  0.500000  0.666671  1
  Tl  Tl2  1  0.000000  0.000000  0.166671  1
  Tl  Tl3  1  0.000000  0.000000  0.833329  1
  Tl  Tl4  1  0.500000  0.000000  0.279668  1
  Tl  Tl5  1  0.000000  0.500000  0.720332  1
  Tl  Tl6  1  0.000000  0.500000  0.220332  1
  Tl  Tl7  1  0.500000  0.000000  0.779668  1
  P  P8  1  0.153102  0.783182  0.467980  1
  P  P9  1  0.846898  0.216818  0.467980  1
  P  P10  1  0.283182  0.653102  0.967980  1
  P  P11  1  0.216818  0.153102  0.532020  1
  P  P12  1  0.783182  0.846898  0.532020  1
  P  P13  1  0.653102  0.716818  0.032020  1
  P  P14  1  0.346898  0.283182  0.032020  1
  P  P15  1  0.716818  0.346898  0.967980  1
  O  O16  1  0.193688  0.625202  0.537980  1
  O  O17  1  0.806312  0.374798  0.537980  1
  O  O18  1  0.125202  0.693688  0.037980  1
  O  O19  1  0.374798  0.193688  0.462020  1
  O  O20  1  0.625202  0.806312  0.462020  1
  O  O21  1  0.693688  0.874798  0.962020  1
  O  O22  1  0.306312  0.125202  0.962020  1
  O  O23  1  0.874798  0.306312  0.037980  1
  O  O24  1  0.227524  0.802923  0.346504  1
  O  O25  1  0.772476  0.197077  0.346504  1
  O  O26  1  0.302923  0.727524  0.846504  1
  O  O27  1  0.197077  0.227524  0.653496  1
  O  O28  1  0.802923  0.772476  0.653496  1
  O  O29  1  0.727524  0.697077  0.153496  1
  O  O30  1  0.272476  0.302923  0.153496  1
  O  O31  1  0.697077  0.272476  0.846504  1
  O  O32  1  0.553796  0.302929  0.051791  1
  O  O33  1  0.302929  0.446204  0.948209  1
  O  O34  1  0.697071  0.553796  0.948209  1
  O  O35  1  0.946204  0.802929  0.448209  1
  O  O36  1  0.053796  0.197071  0.448209  1
  O  O37  1  0.446204  0.697071  0.051791  1
  O  O38  1  0.802929  0.053796  0.551791  1
  O  O39  1  0.197071  0.946204  0.551791  1
