# generated using pymatgen
data_H2O
_symmetry_space_group_name_H-M   'P 1'
_cell_length_a   7.60510905
_cell_length_b   7.60510905
_cell_length_c   7.60510905
_cell_angle_alpha   112.84458357
_cell_angle_beta   112.84458357
_cell_angle_gamma   112.84458357
_symmetry_Int_Tables_number   1
_chemical_formula_structural   H2O
_chemical_formula_sum   'H24 O12'
_cell_volume   288.70268617
_cell_formula_units_Z   12
loop_
 _symmetry_equiv_pos_site_id
 _symmetry_equiv_pos_as_xyz
  1  'x, y, z'
loop_
 _atom_site_type_symbol
 _atom_site_label
 _atom_site_symmetry_multiplicity
 _atom_site_fract_x
 _atom_site_fract_y
 _atom_site_fract_z
 _atom_site_occupancy
  H  H0  1  0.801348  0.258991  0.633049  1
  H  H1  1  0.633049  0.801348  0.258991  1
  H  H2  1  0.258991  0.633049  0.801348  1
  H  H3  1  0.198652  0.741009  0.366951  1
  H  H4  1  0.366951  0.198652  0.741009  1
  H  H5  1  0.741009  0.366951  0.198652  1
  H  H6  1  0.587784  0.273701  0.598020  1
  H  H7  1  0.598020  0.587784  0.273701  1
  H  H8  1  0.273701  0.598020  0.587784  1
  H  H9  1  0.412216  0.726299  0.401980  1
  H  H10  1  0.401980  0.412216  0.726299  1
  H  H11  1  0.726299  0.401980  0.412216  1
  H  H12  1  0.141730  0.795983  0.046233  1
  H  H13  1  0.795983  0.046233  0.141730  1
  H  H14  1  0.046233  0.141730  0.795983  1
  H  H15  1  0.858270  0.204017  0.953767  1
  H  H16  1  0.204017  0.953767  0.858270  1
  H  H17  1  0.953767  0.858270  0.204017  1
  H  H18  1  0.426662  0.992481  0.202591  1
  H  H19  1  0.992481  0.202591  0.426662  1
  H  H20  1  0.202591  0.426662  0.992481  1
  H  H21  1  0.573338  0.007519  0.797409  1
  H  H22  1  0.007519  0.797409  0.573338  1
  H  H23  1  0.797409  0.573338  0.007519  1
  O  O24  1  0.250988  0.522946  0.668010  1
  O  O25  1  0.668010  0.250988  0.522946  1
  O  O26  1  0.522946  0.668010  0.250988  1
  O  O27  1  0.749012  0.477054  0.331990  1
  O  O28  1  0.331990  0.749012  0.477054  1
  O  O29  1  0.477054  0.331990  0.749012  1
  O  O30  1  0.971526  0.728848  0.140645  1
  O  O31  1  0.140645  0.971526  0.728848  1
  O  O32  1  0.728848  0.140645  0.971526  1
  O  O33  1  0.028474  0.271152  0.859355  1
  O  O34  1  0.859355  0.028474  0.271152  1
  O  O35  1  0.271152  0.859355  0.028474  1
