# generated using pymatgen
data_K3AlH6
_symmetry_space_group_name_H-M   'P 1'
_cell_length_a   6.01486530
_cell_length_b   6.07418101
_cell_length_c   10.41060417
_cell_angle_alpha   90.00000000
_cell_angle_beta   124.59227153
_cell_angle_gamma   90.00000000
_symmetry_Int_Tables_number   1
_chemical_formula_structural   K3AlH6
_chemical_formula_sum   'K6 Al2 H12'
_cell_volume   313.11348103
_cell_formula_units_Z   2
loop_
 _symmetry_equiv_pos_site_id
 _symmetry_equiv_pos_as_xyz
  1  'x, y, z'
loop_
 _atom_site_type_symbol
 _atom_site_label
 _atom_site_symmetry_multiplicity
 _atom_site_fract_x
 _atom_site_fract_y
 _atom_site_fract_z
 _atom_site_occupancy
  K  K0  1  0.500000  0.500000  0.000000  1
  K  K1  1  0.500000  0.000000  0.500000  1
  K  K2  1  0.757446  0.969645  0.250944  1
  K  K3  1  0.242554  0.469645  0.249056  1
  K  K4  1  0.242554  0.030355  0.749056  1
  K  K5  1  0.757446  0.530355  0.750944  1
  Al  Al6  1  0.000000  0.500000  0.500000  1
  Al  Al7  1  0.000000  0.000000  0.000000  1
  H  H8  1  0.873189  0.739681  0.537879  1
  H  H9  1  0.126811  0.239681  0.962121  1
  H  H10  1  0.126811  0.260319  0.462121  1
  H  H11  1  0.873189  0.760319  0.037879  1
  H  H12  1  0.208172  0.831623  0.969803  1
  H  H13  1  0.791828  0.331623  0.530197  1
  H  H14  1  0.791828  0.168377  0.030197  1
  H  H15  1  0.208172  0.668377  0.469803  1
  H  H16  1  0.736604  0.977715  0.797857  1
  H  H17  1  0.263396  0.477715  0.702143  1
  H  H18  1  0.263396  0.022285  0.202143  1
  H  H19  1  0.736604  0.522285  0.297857  1
