# generated using pymatgen
data_Nd4PdO7
_symmetry_space_group_name_H-M   'P 1'
_cell_length_a   6.97319858
_cell_length_b   7.31779215
_cell_length_c   8.01542007
_cell_angle_alpha   70.10876525
_cell_angle_beta   71.98514161
_cell_angle_gamma   83.71402565
_symmetry_Int_Tables_number   1
_chemical_formula_structural   Nd4PdO7
_chemical_formula_sum   'Nd8 Pd2 O14'
_cell_volume   365.75321812
_cell_formula_units_Z   2
loop_
 _symmetry_equiv_pos_site_id
 _symmetry_equiv_pos_as_xyz
  1  'x, y, z'
loop_
 _atom_site_type_symbol
 _atom_site_label
 _atom_site_symmetry_multiplicity
 _atom_site_fract_x
 _atom_site_fract_y
 _atom_site_fract_z
 _atom_site_occupancy
  Nd  Nd0  1  0.668132  0.834012  0.376808  1
  Nd  Nd1  1  0.331868  0.165988  0.623192  1
  Nd  Nd2  1  0.645159  0.853658  0.857016  1
  Nd  Nd3  1  0.354841  0.146342  0.142984  1
  Nd  Nd4  1  0.789992  0.397862  0.726065  1
  Nd  Nd5  1  0.210008  0.602138  0.273935  1
  Nd  Nd6  1  0.778187  0.390529  0.211373  1
  Nd  Nd7  1  0.221813  0.609471  0.788627  1
  Pd  Pd8  1  0.000000  0.000000  0.500000  1
  Pd  Pd9  1  0.000000  0.000000  0.000000  1
  O  O10  1  0.945907  0.066858  0.743518  1
  O  O11  1  0.054093  0.933142  0.256482  1
  O  O12  1  0.704939  0.083889  0.508702  1
  O  O13  1  0.295061  0.916111  0.491298  1
  O  O14  1  0.732557  0.139692  0.082963  1
  O  O15  1  0.267443  0.860308  0.917037  1
  O  O16  1  0.430423  0.330008  0.303042  1
  O  O17  1  0.569577  0.669992  0.696958  1
  O  O18  1  0.468270  0.246072  0.822926  1
  O  O19  1  0.531730  0.753928  0.177074  1
  O  O20  1  0.146154  0.417455  0.102004  1
  O  O21  1  0.853846  0.582545  0.897996  1
  O  O22  1  0.155790  0.456812  0.598662  1
  O  O23  1  0.844210  0.543188  0.401338  1
