# generated using pymatgen
data_Pb3SO6
_symmetry_space_group_name_H-M   'P 1'
_cell_length_a   8.07892142
_cell_length_b   8.07892142
_cell_length_c   6.03183119
_cell_angle_alpha   90.00000000
_cell_angle_beta   90.00000000
_cell_angle_gamma   99.96308279
_symmetry_Int_Tables_number   1
_chemical_formula_structural   Pb3SO6
_chemical_formula_sum   'Pb6 S2 O12'
_cell_volume   387.75432811
_cell_formula_units_Z   2
loop_
 _symmetry_equiv_pos_site_id
 _symmetry_equiv_pos_as_xyz
  1  'x, y, z'
loop_
 _atom_site_type_symbol
 _atom_site_label
 _atom_site_symmetry_multiplicity
 _atom_site_fract_x
 _atom_site_fract_y
 _atom_site_fract_z
 _atom_site_occupancy
  Pb  Pb0  1  0.399079  0.600921  0.250000  1
  Pb  Pb1  1  0.856921  0.677788  0.250000  1
  Pb  Pb2  1  0.322212  0.143079  0.250000  1
  Pb  Pb3  1  0.600921  0.399079  0.750000  1
  Pb  Pb4  1  0.677788  0.856921  0.750000  1
  Pb  Pb5  1  0.143079  0.322212  0.750000  1
  S  S6  1  0.848596  0.151404  0.250000  1
  S  S7  1  0.151404  0.848596  0.750000  1
  O  O8  1  0.800006  0.962121  0.250000  1
  O  O9  1  0.643396  0.643396  0.000000  1
  O  O10  1  0.781546  0.218454  0.046882  1
  O  O11  1  0.781546  0.218454  0.453118  1
  O  O12  1  0.962121  0.800006  0.750000  1
  O  O13  1  0.356604  0.356604  0.500000  1
  O  O14  1  0.218454  0.781546  0.546882  1
  O  O15  1  0.037879  0.199994  0.250000  1
  O  O16  1  0.199994  0.037879  0.750000  1
  O  O17  1  0.218454  0.781546  0.953118  1
  O  O18  1  0.356604  0.356604  0.000000  1
  O  O19  1  0.643396  0.643396  0.500000  1
