# generated using pymatgen
data_AsBr3
_symmetry_space_group_name_H-M   'P 1'
_cell_length_a   4.68719746
_cell_length_b   11.20163207
_cell_length_c   13.16213104
_cell_angle_alpha   90.00000000
_cell_angle_beta   90.00000000
_cell_angle_gamma   90.00000000
_symmetry_Int_Tables_number   1
_chemical_formula_structural   AsBr3
_chemical_formula_sum   'As4 Br12'
_cell_volume   691.06796853
_cell_formula_units_Z   4
loop_
 _symmetry_equiv_pos_site_id
 _symmetry_equiv_pos_as_xyz
  1  'x, y, z'
loop_
 _atom_site_type_symbol
 _atom_site_label
 _atom_site_symmetry_multiplicity
 _atom_site_fract_x
 _atom_site_fract_y
 _atom_site_fract_z
 _atom_site_occupancy
  As  As0  1  0.516430  0.309029  0.286907  1
  As  As1  1  0.016430  0.190971  0.713093  1
  As  As2  1  0.483570  0.809029  0.213093  1
  As  As3  1  0.983570  0.690971  0.786907  1
  Br  Br4  1  0.752569  0.151992  0.374369  1
  Br  Br5  1  0.252569  0.348008  0.625631  1
  Br  Br6  1  0.247431  0.651992  0.125631  1
  Br  Br7  1  0.747431  0.848008  0.874369  1
  Br  Br8  1  0.750131  0.476094  0.360749  1
  Br  Br9  1  0.250131  0.023906  0.639251  1
  Br  Br10  1  0.249869  0.976094  0.139251  1
  Br  Br11  1  0.749869  0.523906  0.860749  1
  Br  Br12  1  0.756269  0.300218  0.127376  1
  Br  Br13  1  0.256269  0.199782  0.872624  1
  Br  Br14  1  0.243731  0.800218  0.372624  1
  Br  Br15  1  0.743731  0.699782  0.627376  1
