# generated using pymatgen
data_Na2CdCl4
_symmetry_space_group_name_H-M   'P 1'
_cell_length_a   3.99824030
_cell_length_b   7.09750173
_cell_length_c   12.14078274
_cell_angle_alpha   90.00000000
_cell_angle_beta   90.00000000
_cell_angle_gamma   90.00000000
_symmetry_Int_Tables_number   1
_chemical_formula_structural   Na2CdCl4
_chemical_formula_sum   'Na4 Cd2 Cl8'
_cell_volume   344.52527401
_cell_formula_units_Z   2
loop_
 _symmetry_equiv_pos_site_id
 _symmetry_equiv_pos_as_xyz
  1  'x, y, z'
loop_
 _atom_site_type_symbol
 _atom_site_label
 _atom_site_symmetry_multiplicity
 _atom_site_fract_x
 _atom_site_fract_y
 _atom_site_fract_z
 _atom_site_occupancy
  Na  Na0  1  0.500000  0.588779  0.684833  1
  Na  Na1  1  0.500000  0.411221  0.315167  1
  Na  Na2  1  0.500000  0.911221  0.184833  1
  Na  Na3  1  0.500000  0.088779  0.815167  1
  Cd  Cd4  1  0.000000  0.000000  0.500000  1
  Cd  Cd5  1  0.000000  0.500000  0.000000  1
  Cl  Cl6  1  0.500000  0.246080  0.543138  1
  Cl  Cl7  1  0.500000  0.753920  0.456862  1
  Cl  Cl8  1  0.000000  0.625719  0.203063  1
  Cl  Cl9  1  0.000000  0.374281  0.796937  1
  Cl  Cl10  1  0.000000  0.125719  0.296937  1
  Cl  Cl11  1  0.000000  0.874281  0.703063  1
  Cl  Cl12  1  0.500000  0.746080  0.956862  1
  Cl  Cl13  1  0.500000  0.253920  0.043138  1
