# generated using pymatgen
data_Hg2P2O7
_symmetry_space_group_name_H-M   'P 1'
_cell_length_a   6.82829282
_cell_length_b   7.02887889
_cell_length_c   7.21282005
_cell_angle_alpha   77.64922549
_cell_angle_beta   67.47964698
_cell_angle_gamma   80.19622560
_symmetry_Int_Tables_number   1
_chemical_formula_structural   Hg2P2O7
_chemical_formula_sum   'Hg4 P4 O14'
_cell_volume   310.88071309
_cell_formula_units_Z   2
loop_
 _symmetry_equiv_pos_site_id
 _symmetry_equiv_pos_as_xyz
  1  'x, y, z'
loop_
 _atom_site_type_symbol
 _atom_site_label
 _atom_site_symmetry_multiplicity
 _atom_site_fract_x
 _atom_site_fract_y
 _atom_site_fract_z
 _atom_site_occupancy
  Hg  Hg0  1  0.103801  0.173176  0.246561  1
  Hg  Hg1  1  0.896199  0.826824  0.753439  1
  Hg  Hg2  1  0.302838  0.316745  0.622903  1
  Hg  Hg3  1  0.697162  0.683255  0.377097  1
  P  P4  1  0.212092  0.659790  0.262901  1
  P  P5  1  0.787908  0.340210  0.737099  1
  P  P6  1  0.358562  0.870615  0.832151  1
  P  P7  1  0.641438  0.129385  0.167849  1
  O  O8  1  0.224084  0.767204  0.766452  1
  O  O9  1  0.775916  0.232796  0.233548  1
  O  O10  1  0.080450  0.519247  0.235678  1
  O  O11  1  0.919550  0.480753  0.764322  1
  O  O12  1  0.262047  0.081225  0.879829  1
  O  O13  1  0.737953  0.918775  0.120171  1
  O  O14  1  0.370548  0.558653  0.369437  1
  O  O15  1  0.629452  0.441347  0.630563  1
  O  O16  1  0.622341  0.249427  0.956374  1
  O  O17  1  0.377659  0.750573  0.043626  1
  O  O18  1  0.934419  0.169343  0.638254  1
  O  O19  1  0.065581  0.830657  0.361746  1
  O  O20  1  0.409412  0.129237  0.318222  1
  O  O21  1  0.590588  0.870763  0.681778  1
