# generated using pymatgen
data_P4Se3I2
_symmetry_space_group_name_H-M   'P 1'
_cell_length_a   12.38891223
_cell_length_b   12.38891223
_cell_length_c   12.38891223
_cell_angle_alpha   117.68390277
_cell_angle_beta   117.68390277
_cell_angle_gamma   94.06071027
_symmetry_Int_Tables_number   1
_chemical_formula_structural   P4Se3I2
_chemical_formula_sum   'P16 Se12 I8'
_cell_volume   1387.87324981
_cell_formula_units_Z   4
loop_
 _symmetry_equiv_pos_site_id
 _symmetry_equiv_pos_as_xyz
  1  'x, y, z'
loop_
 _atom_site_type_symbol
 _atom_site_label
 _atom_site_symmetry_multiplicity
 _atom_site_fract_x
 _atom_site_fract_y
 _atom_site_fract_z
 _atom_site_occupancy
  P  P0  1  0.773924  0.908537  0.129116  1
  P  P1  1  0.985697  0.957034  0.223143  1
  P  P2  1  0.733892  0.762555  0.776857  1
  P  P3  1  0.512555  0.983892  0.276857  1
  P  P4  1  0.237445  0.014303  0.971337  1
  P  P5  1  0.042966  0.266108  0.028663  1
  P  P6  1  0.016108  0.292966  0.528663  1
  P  P7  1  0.764303  0.487445  0.471337  1
  P  P8  1  0.707034  0.235697  0.723143  1
  P  P9  1  0.779421  0.644808  0.870884  1
  P  P10  1  0.658537  0.023924  0.629116  1
  P  P11  1  0.091463  0.220579  0.865388  1
  P  P12  1  0.394808  0.029421  0.370884  1
  P  P13  1  0.355192  0.226076  0.134612  1
  P  P14  1  0.976076  0.605192  0.634612  1
  P  P15  1  0.970579  0.341463  0.365388  1
  Se  Se16  1  0.437833  0.937833  0.500000  1
  Se  Se17  1  0.741572  0.949564  0.956284  1
  Se  Se18  1  0.312167  0.312167  0.000000  1
  Se  Se19  1  0.699564  0.991572  0.456284  1
  Se  Se20  1  0.050436  0.006720  0.792007  1
  Se  Se21  1  0.214712  0.258428  0.207993  1
  Se  Se22  1  0.008428  0.464712  0.707993  1
  Se  Se23  1  0.756720  0.300436  0.292007  1
  Se  Se24  1  0.535288  0.243280  0.543716  1
  Se  Se25  1  0.687833  0.687833  0.000000  1
  Se  Se26  1  0.062167  0.562167  0.500000  1
  Se  Se27  1  0.993280  0.785288  0.043716  1
  I  I28  1  0.657321  0.296464  0.913108  1
  I  I29  1  0.703536  0.616644  0.360857  1
  I  I30  1  0.255788  0.342679  0.639143  1
  I  I31  1  0.092679  0.505788  0.139143  1
  I  I32  1  0.366644  0.953536  0.860857  1
  I  I33  1  0.383356  0.744212  0.086892  1
  I  I34  1  0.494212  0.633356  0.586892  1
  I  I35  1  0.046464  0.907321  0.413108  1
