# generated using pymatgen
data_Pb4IF7
_symmetry_space_group_name_H-M   'P 1'
_cell_length_a   13.08428253
_cell_length_b   13.08428253
_cell_length_c   6.07885165
_cell_angle_alpha   90.00000000
_cell_angle_beta   90.00000000
_cell_angle_gamma   152.74152133
_symmetry_Int_Tables_number   1
_chemical_formula_structural   Pb4IF7
_chemical_formula_sum   'Pb8 I2 F14'
_cell_volume   476.64169933
_cell_formula_units_Z   2
loop_
 _symmetry_equiv_pos_site_id
 _symmetry_equiv_pos_as_xyz
  1  'x, y, z'
loop_
 _atom_site_type_symbol
 _atom_site_label
 _atom_site_symmetry_multiplicity
 _atom_site_fract_x
 _atom_site_fract_y
 _atom_site_fract_z
 _atom_site_occupancy
  Pb  Pb0  1  0.825290  0.174710  0.250000  1
  Pb  Pb1  1  0.174710  0.825290  0.750000  1
  Pb  Pb2  1  0.453012  0.546988  0.250000  1
  Pb  Pb3  1  0.546988  0.453012  0.750000  1
  Pb  Pb4  1  0.652640  0.347360  0.250000  1
  Pb  Pb5  1  0.347360  0.652640  0.750000  1
  Pb  Pb6  1  0.058856  0.941144  0.250000  1
  Pb  Pb7  1  0.941144  0.058856  0.750000  1
  I  I8  1  0.250187  0.749813  0.250000  1
  I  I9  1  0.749813  0.250187  0.750000  1
  F  F10  1  0.352888  0.109842  0.518584  1
  F  F11  1  0.647112  0.890158  0.018584  1
  F  F12  1  0.109842  0.352888  0.481416  1
  F  F13  1  0.890158  0.647112  0.981416  1
  F  F14  1  0.647112  0.890158  0.481416  1
  F  F15  1  0.352888  0.109842  0.981416  1
  F  F16  1  0.890158  0.647112  0.518584  1
  F  F17  1  0.109842  0.352888  0.018584  1
  F  F18  1  0.227311  0.227311  0.500000  1
  F  F19  1  0.772689  0.772689  0.000000  1
  F  F20  1  0.437305  0.562695  0.750000  1
  F  F21  1  0.562695  0.437305  0.250000  1
  F  F22  1  0.227311  0.227311  0.000000  1
  F  F23  1  0.772689  0.772689  0.500000  1
