# generated using pymatgen
data_H8NF5
_symmetry_space_group_name_H-M   'P 1'
_cell_length_a   8.22093567
_cell_length_b   8.22093567
_cell_length_c   8.22093567
_cell_angle_alpha   134.37643497
_cell_angle_beta   134.37643497
_cell_angle_gamma   66.50063811
_symmetry_Int_Tables_number   1
_chemical_formula_structural   H8NF5
_chemical_formula_sum   'H16 N2 F10'
_cell_volume   279.37028496
_cell_formula_units_Z   2
loop_
 _symmetry_equiv_pos_site_id
 _symmetry_equiv_pos_as_xyz
  1  'x, y, z'
loop_
 _atom_site_type_symbol
 _atom_site_label
 _atom_site_symmetry_multiplicity
 _atom_site_fract_x
 _atom_site_fract_y
 _atom_site_fract_z
 _atom_site_occupancy
  H  H0  1  0.549476  0.553151  0.188312  1
  H  H1  1  0.303151  0.614839  0.503675  1
  H  H2  1  0.111164  0.799476  0.496325  1
  H  H3  1  0.364839  0.361164  0.811688  1
  H  H4  1  0.200524  0.696849  0.311688  1
  H  H5  1  0.446849  0.635161  0.996325  1
  H  H6  1  0.638836  0.450524  0.003675  1
  H  H7  1  0.385161  0.888836  0.688312  1
  H  H8  1  0.083475  0.062880  0.268016  1
  H  H9  1  0.812881  0.044864  0.479406  1
  H  H10  1  0.565458  0.333475  0.520594  1
  H  H11  1  0.794864  0.815458  0.731984  1
  H  H12  1  0.955136  0.434542  0.768016  1
  H  H13  1  0.184542  0.916525  0.979406  1
  H  H14  1  0.937119  0.205136  0.020594  1
  H  H15  1  0.666525  0.187120  0.231984  1
  N  N16  1  0.500000  0.500000  0.000000  1
  N  N17  1  0.250000  0.750000  0.500000  1
  F  F18  1  0.141782  0.104893  0.448710  1
  F  F19  1  0.854893  0.906183  0.463111  1
  F  F20  1  0.443072  0.391782  0.536889  1
  F  F21  1  0.656183  0.693072  0.551290  1
  F  F22  1  0.608218  0.145107  0.051290  1
  F  F23  1  0.895107  0.343817  0.036889  1
  F  F24  1  0.306928  0.858218  0.963111  1
  F  F25  1  0.093817  0.556928  0.948710  1
  F  F26  1  0.000000  0.000000  0.000000  1
  F  F27  1  0.750000  0.250000  0.500000  1
