# generated using pymatgen
data_CsBi3S5
_symmetry_space_group_name_H-M   'P 1'
_cell_length_a   4.12107105
_cell_length_b   12.24950902
_cell_length_c   21.51403993
_cell_angle_alpha   90.00000000
_cell_angle_beta   90.00000000
_cell_angle_gamma   90.00000000
_symmetry_Int_Tables_number   1
_chemical_formula_structural   CsBi3S5
_chemical_formula_sum   'Cs4 Bi12 S20'
_cell_volume   1086.05233655
_cell_formula_units_Z   4
loop_
 _symmetry_equiv_pos_site_id
 _symmetry_equiv_pos_as_xyz
  1  'x, y, z'
loop_
 _atom_site_type_symbol
 _atom_site_label
 _atom_site_symmetry_multiplicity
 _atom_site_fract_x
 _atom_site_fract_y
 _atom_site_fract_z
 _atom_site_occupancy
  Cs  Cs0  1  0.750000  0.504512  0.111591  1
  Cs  Cs1  1  0.250000  0.495488  0.888409  1
  Cs  Cs2  1  0.750000  0.004512  0.388409  1
  Cs  Cs3  1  0.250000  0.995488  0.611591  1
  Bi  Bi4  1  0.250000  0.370002  0.354144  1
  Bi  Bi5  1  0.750000  0.629998  0.645856  1
  Bi  Bi6  1  0.250000  0.870002  0.145856  1
  Bi  Bi7  1  0.750000  0.129998  0.854144  1
  Bi  Bi8  1  0.250000  0.164621  0.026163  1
  Bi  Bi9  1  0.750000  0.835379  0.973837  1
  Bi  Bi10  1  0.250000  0.664621  0.473837  1
  Bi  Bi11  1  0.750000  0.335379  0.526163  1
  Bi  Bi12  1  0.750000  0.146939  0.191712  1
  Bi  Bi13  1  0.250000  0.853061  0.808288  1
  Bi  Bi14  1  0.750000  0.646939  0.308288  1
  Bi  Bi15  1  0.250000  0.353061  0.691712  1
  S  S16  1  0.250000  0.220099  0.473001  1
  S  S17  1  0.750000  0.779901  0.526999  1
  S  S18  1  0.250000  0.720099  0.026999  1
  S  S19  1  0.750000  0.279901  0.973001  1
  S  S20  1  0.250000  0.514559  0.260224  1
  S  S21  1  0.750000  0.485441  0.739776  1
  S  S22  1  0.250000  0.014559  0.239776  1
  S  S23  1  0.750000  0.985441  0.760224  1
  S  S24  1  0.250000  0.489126  0.583047  1
  S  S25  1  0.750000  0.510874  0.416953  1
  S  S26  1  0.250000  0.989126  0.916953  1
  S  S27  1  0.750000  0.010874  0.083047  1
  S  S28  1  0.250000  0.250404  0.808196  1
  S  S29  1  0.750000  0.749596  0.191804  1
  S  S30  1  0.250000  0.750404  0.691804  1
  S  S31  1  0.750000  0.249596  0.308196  1
  S  S32  1  0.750000  0.225754  0.631762  1
  S  S33  1  0.250000  0.774246  0.368238  1
  S  S34  1  0.750000  0.725754  0.868238  1
  S  S35  1  0.250000  0.274246  0.131762  1
