# generated using pymatgen
data_Ba5V3ClO12
_symmetry_space_group_name_H-M   'P 1'
_cell_length_a   10.74377454
_cell_length_b   10.74377454
_cell_length_c   7.88327202
_cell_angle_alpha   90.00000000
_cell_angle_beta   90.00000000
_cell_angle_gamma   120.00000000
_symmetry_Int_Tables_number   1
_chemical_formula_structural   Ba5V3ClO12
_chemical_formula_sum   'Ba10 V6 Cl2 O24'
_cell_volume   788.04481610
_cell_formula_units_Z   2
loop_
 _symmetry_equiv_pos_site_id
 _symmetry_equiv_pos_as_xyz
  1  'x, y, z'
loop_
 _atom_site_type_symbol
 _atom_site_label
 _atom_site_symmetry_multiplicity
 _atom_site_fract_x
 _atom_site_fract_y
 _atom_site_fract_z
 _atom_site_occupancy
  Ba  Ba0  1  0.666667  0.333333  0.499700  1
  Ba  Ba1  1  0.333333  0.666667  0.999700  1
  Ba  Ba2  1  0.333333  0.666667  0.500300  1
  Ba  Ba3  1  0.666667  0.333333  0.000300  1
  Ba  Ba4  1  0.255456  0.008918  0.750000  1
  Ba  Ba5  1  0.991082  0.246538  0.750000  1
  Ba  Ba6  1  0.753462  0.744544  0.750000  1
  Ba  Ba7  1  0.744544  0.991082  0.250000  1
  Ba  Ba8  1  0.008918  0.753462  0.250000  1
  Ba  Ba9  1  0.246538  0.255456  0.250000  1
  V  V10  1  0.032236  0.627825  0.750000  1
  V  V11  1  0.372175  0.404411  0.750000  1
  V  V12  1  0.595589  0.967764  0.750000  1
  V  V13  1  0.967764  0.372175  0.250000  1
  V  V14  1  0.627825  0.595589  0.250000  1
  V  V15  1  0.404411  0.032236  0.250000  1
  Cl  Cl16  1  0.000000  0.000000  0.500000  1
  Cl  Cl17  1  0.000000  0.000000  0.000000  1
  O  O18  1  0.845259  0.516677  0.750000  1
  O  O19  1  0.483323  0.328583  0.750000  1
  O  O20  1  0.671417  0.154741  0.750000  1
  O  O21  1  0.154741  0.483323  0.250000  1
  O  O22  1  0.516677  0.671417  0.250000  1
  O  O23  1  0.328583  0.845259  0.250000  1
  O  O24  1  0.123258  0.530195  0.750000  1
  O  O25  1  0.469805  0.593063  0.750000  1
  O  O26  1  0.406937  0.876742  0.750000  1
  O  O27  1  0.876742  0.469805  0.250000  1
  O  O28  1  0.530195  0.406937  0.250000  1
  O  O29  1  0.593063  0.123258  0.250000  1
  O  O30  1  0.092525  0.740393  0.573920  1
  O  O31  1  0.259607  0.352132  0.573920  1
  O  O32  1  0.647868  0.907475  0.573920  1
  O  O33  1  0.907475  0.259607  0.073920  1
  O  O34  1  0.740393  0.647868  0.073920  1
  O  O35  1  0.352132  0.092525  0.073920  1
  O  O36  1  0.907475  0.259607  0.426080  1
  O  O37  1  0.740393  0.647868  0.426080  1
  O  O38  1  0.352132  0.092525  0.426080  1
  O  O39  1  0.092525  0.740393  0.926080  1
  O  O40  1  0.259607  0.352132  0.926080  1
  O  O41  1  0.647868  0.907475  0.926080  1
