# generated using pymatgen
data_Tl2Pt5S6
_symmetry_space_group_name_H-M   'P 1'
_cell_length_a   7.04392253
_cell_length_b   7.09245766
_cell_length_c   12.50193266
_cell_angle_alpha   90.00000000
_cell_angle_beta   116.12649078
_cell_angle_gamma   90.00000000
_symmetry_Int_Tables_number   1
_chemical_formula_structural   Tl2Pt5S6
_chemical_formula_sum   'Tl4 Pt10 S12'
_cell_volume   560.76348217
_cell_formula_units_Z   2
loop_
 _symmetry_equiv_pos_site_id
 _symmetry_equiv_pos_as_xyz
  1  'x, y, z'
loop_
 _atom_site_type_symbol
 _atom_site_label
 _atom_site_symmetry_multiplicity
 _atom_site_fract_x
 _atom_site_fract_y
 _atom_site_fract_z
 _atom_site_occupancy
  Tl  Tl0  1  0.661198  0.212644  0.545537  1
  Tl  Tl1  1  0.338802  0.712644  0.954463  1
  Tl  Tl2  1  0.338802  0.787356  0.454463  1
  Tl  Tl3  1  0.661198  0.287356  0.045537  1
  Pt  Pt4  1  0.499828  0.688860  0.755121  1
  Pt  Pt5  1  0.500172  0.188860  0.744879  1
  Pt  Pt6  1  0.000424  0.928016  0.732866  1
  Pt  Pt7  1  0.999576  0.428016  0.767134  1
  Pt  Pt8  1  0.999576  0.071984  0.267134  1
  Pt  Pt9  1  0.000424  0.571984  0.232866  1
  Pt  Pt10  1  0.000000  0.000000  0.000000  1
  Pt  Pt11  1  0.000000  0.500000  0.500000  1
  Pt  Pt12  1  0.500172  0.311140  0.244879  1
  Pt  Pt13  1  0.499828  0.811140  0.255121  1
  S  S14  1  0.151271  0.158605  0.886582  1
  S  S15  1  0.848729  0.658605  0.613418  1
  S  S16  1  0.848729  0.841395  0.113418  1
  S  S17  1  0.151271  0.341395  0.386582  1
  S  S18  1  0.257880  0.064001  0.193051  1
  S  S19  1  0.742120  0.564001  0.306949  1
  S  S20  1  0.258263  0.941222  0.665144  1
  S  S21  1  0.741737  0.441222  0.834856  1
  S  S22  1  0.741737  0.058778  0.334856  1
  S  S23  1  0.258263  0.558778  0.165144  1
  S  S24  1  0.257880  0.435999  0.693051  1
  S  S25  1  0.742120  0.935999  0.806949  1
