# generated using pymatgen
data_Li4Ge9O20
_symmetry_space_group_name_H-M   'P 1'
_cell_length_a   7.49721621
_cell_length_b   7.49721621
_cell_length_c   7.60146434
_cell_angle_alpha   89.49195696
_cell_angle_beta   90.50804304
_cell_angle_gamma   114.51171347
_symmetry_Int_Tables_number   1
_chemical_formula_structural   Li4Ge9O20
_chemical_formula_sum   'Li4 Ge9 O20'
_cell_volume   388.73678099
_cell_formula_units_Z   1
loop_
 _symmetry_equiv_pos_site_id
 _symmetry_equiv_pos_as_xyz
  1  'x, y, z'
loop_
 _atom_site_type_symbol
 _atom_site_label
 _atom_site_symmetry_multiplicity
 _atom_site_fract_x
 _atom_site_fract_y
 _atom_site_fract_z
 _atom_site_occupancy
  Li  Li0  1  0.346478  0.932508  0.618013  1
  Li  Li1  1  0.932508  0.346478  0.381987  1
  Li  Li2  1  0.328014  0.328014  0.000000  1
  Li  Li3  1  0.709617  0.709617  0.000000  1
  Ge  Ge4  1  0.347654  0.650707  0.291023  1
  Ge  Ge5  1  0.650707  0.347654  0.708977  1
  Ge  Ge6  1  0.607365  0.079034  0.049579  1
  Ge  Ge7  1  0.079034  0.607365  0.950421  1
  Ge  Ge8  1  0.116712  0.916014  0.240143  1
  Ge  Ge9  1  0.916014  0.116712  0.759857  1
  Ge  Ge10  1  0.508089  0.318403  0.330430  1
  Ge  Ge11  1  0.318403  0.508089  0.669570  1
  Ge  Ge12  1  0.766413  0.766413  0.500000  1
  O  O13  1  0.218215  0.441969  0.455018  1
  O  O14  1  0.441969  0.218215  0.544982  1
  O  O15  1  0.148366  0.496551  0.129521  1
  O  O16  1  0.496551  0.148366  0.870479  1
  O  O17  1  0.456594  0.839182  0.115975  1
  O  O18  1  0.914708  0.893024  0.681315  1
  O  O19  1  0.893024  0.914708  0.318685  1
  O  O20  1  0.520686  0.533507  0.214676  1
  O  O21  1  0.533507  0.520686  0.785324  1
  O  O22  1  0.156668  0.291200  0.798833  1
  O  O23  1  0.291200  0.156668  0.201167  1
  O  O24  1  0.809153  0.035637  0.969705  1
  O  O25  1  0.035637  0.809153  0.030295  1
  O  O26  1  0.524512  0.759178  0.501301  1
  O  O27  1  0.759178  0.524512  0.498699  1
  O  O28  1  0.790322  0.206600  0.612774  1
  O  O29  1  0.206600  0.790322  0.387226  1
  O  O30  1  0.247080  0.687139  0.769682  1
  O  O31  1  0.687139  0.247080  0.230318  1
  O  O32  1  0.839182  0.456594  0.884025  1
