# generated using pymatgen
data_RePCl9
_symmetry_space_group_name_H-M   'P 1'
_cell_length_a   7.21133660
_cell_length_b   9.35416989
_cell_length_c   9.87288730
_cell_angle_alpha   102.10553448
_cell_angle_beta   96.70293946
_cell_angle_gamma   94.79377329
_symmetry_Int_Tables_number   1
_chemical_formula_structural   RePCl9
_chemical_formula_sum   'Re2 P2 Cl18'
_cell_volume   642.70989923
_cell_formula_units_Z   2
loop_
 _symmetry_equiv_pos_site_id
 _symmetry_equiv_pos_as_xyz
  1  'x, y, z'
loop_
 _atom_site_type_symbol
 _atom_site_label
 _atom_site_symmetry_multiplicity
 _atom_site_fract_x
 _atom_site_fract_y
 _atom_site_fract_z
 _atom_site_occupancy
  Re  Re0  1  0.608629  0.630268  0.667973  1
  Re  Re1  1  0.391371  0.369732  0.332027  1
  P  P2  1  0.051031  0.190368  0.779593  1
  P  P3  1  0.948969  0.809632  0.220407  1
  Cl  Cl4  1  0.371577  0.570783  0.222975  1
  Cl  Cl5  1  0.628423  0.429217  0.777025  1
  Cl  Cl6  1  0.421108  0.171904  0.442499  1
  Cl  Cl7  1  0.578892  0.828096  0.557501  1
  Cl  Cl8  1  0.079631  0.285024  0.245671  1
  Cl  Cl9  1  0.920369  0.714976  0.754329  1
  Cl  Cl10  1  0.515940  0.239676  0.141850  1
  Cl  Cl11  1  0.484060  0.760324  0.858150  1
  Cl  Cl12  1  0.294218  0.517507  0.545927  1
  Cl  Cl13  1  0.705782  0.482493  0.454073  1
  Cl  Cl14  1  0.838942  0.616366  0.111096  1
  Cl  Cl15  1  0.161058  0.383634  0.888904  1
  Cl  Cl16  1  0.946096  0.203110  0.591371  1
  Cl  Cl17  1  0.053904  0.796890  0.408629  1
  Cl  Cl18  1  0.246400  0.055431  0.767778  1
  Cl  Cl19  1  0.753600  0.944569  0.232222  1
  Cl  Cl20  1  0.850583  0.112966  0.871603  1
  Cl  Cl21  1  0.149417  0.887034  0.128397  1
