# generated using pymatgen
data_Na4I2O
_symmetry_space_group_name_H-M   'P 1'
_cell_length_a   8.71928584
_cell_length_b   8.71928584
_cell_length_c   8.71928584
_cell_angle_alpha   148.67764156
_cell_angle_beta   148.67764156
_cell_angle_gamma   44.88601832
_symmetry_Int_Tables_number   1
_chemical_formula_structural   Na4I2O
_chemical_formula_sum   'Na4 I2 O1'
_cell_volume   178.59008839
_cell_formula_units_Z   1
loop_
 _symmetry_equiv_pos_site_id
 _symmetry_equiv_pos_as_xyz
  1  'x, y, z'
loop_
 _atom_site_type_symbol
 _atom_site_label
 _atom_site_symmetry_multiplicity
 _atom_site_fract_x
 _atom_site_fract_y
 _atom_site_fract_z
 _atom_site_occupancy
  Na  Na0  1  0.142765  0.142765  0.000000  1
  Na  Na1  1  0.500000  1.000000  0.500000  1
  Na  Na2  1  0.857235  0.857235  0.000000  1
  Na  Na3  1  0.000000  0.500000  0.500000  1
  I  I4  1  0.346773  0.346773  0.000000  1
  I  I5  1  0.653227  0.653227  0.000000  1
  O  O6  1  0.000000  0.000000  0.000000  1
