# generated using pymatgen
data_BaH2I2O7
_symmetry_space_group_name_H-M   'P 1'
_cell_length_a   7.90404390
_cell_length_b   7.90404390
_cell_length_c   9.15114842
_cell_angle_alpha   55.44844206
_cell_angle_beta   124.55155794
_cell_angle_gamma   117.32803040
_symmetry_Int_Tables_number   1
_chemical_formula_structural   BaH2I2O7
_chemical_formula_sum   'Ba2 H4 I4 O14'
_cell_volume   379.77235873
_cell_formula_units_Z   2
loop_
 _symmetry_equiv_pos_site_id
 _symmetry_equiv_pos_as_xyz
  1  'x, y, z'
loop_
 _atom_site_type_symbol
 _atom_site_label
 _atom_site_symmetry_multiplicity
 _atom_site_fract_x
 _atom_site_fract_y
 _atom_site_fract_z
 _atom_site_occupancy
  Ba  Ba0  1  0.140657  0.140657  0.750000  1
  Ba  Ba1  1  0.859343  0.859343  0.250000  1
  H  H2  1  0.708402  0.772642  0.637652  1
  H  H3  1  0.772642  0.708402  0.862348  1
  H  H4  1  0.291598  0.227358  0.362348  1
  H  H5  1  0.227358  0.291598  0.137652  1
  I  I6  1  0.346405  0.716008  0.806938  1
  I  I7  1  0.716008  0.346405  0.693062  1
  I  I8  1  0.653595  0.283992  0.193062  1
  I  I9  1  0.283992  0.653595  0.306938  1
  O  O10  1  0.809169  0.809169  0.750000  1
  O  O11  1  0.190831  0.190831  0.250000  1
  O  O12  1  0.224221  0.592616  0.499942  1
  O  O13  1  0.592616  0.224221  0.000058  1
  O  O14  1  0.775779  0.407384  0.500058  1
  O  O15  1  0.407384  0.775779  0.999942  1
  O  O16  1  0.571943  0.742041  0.413306  1
  O  O17  1  0.742041  0.571943  0.086694  1
  O  O18  1  0.428057  0.257959  0.586694  1
  O  O19  1  0.257959  0.428057  0.913306  1
  O  O20  1  0.200165  0.903110  0.134076  1
  O  O21  1  0.903110  0.200165  0.365924  1
  O  O22  1  0.799835  0.096890  0.865924  1
  O  O23  1  0.096890  0.799835  0.634076  1
