# generated using pymatgen
data_Rb2In4O7
_symmetry_space_group_name_H-M   'P 1'
_cell_length_a   5.73780119
_cell_length_b   5.73780119
_cell_length_c   7.46154809
_cell_angle_alpha   90.00000000
_cell_angle_beta   90.00000000
_cell_angle_gamma   120.00000000
_symmetry_Int_Tables_number   1
_chemical_formula_structural   Rb2In4O7
_chemical_formula_sum   'Rb2 In4 O7'
_cell_volume   212.74069159
_cell_formula_units_Z   1
loop_
 _symmetry_equiv_pos_site_id
 _symmetry_equiv_pos_as_xyz
  1  'x, y, z'
loop_
 _atom_site_type_symbol
 _atom_site_label
 _atom_site_symmetry_multiplicity
 _atom_site_fract_x
 _atom_site_fract_y
 _atom_site_fract_z
 _atom_site_occupancy
  Rb  Rb0  1  0.333333  0.666667  0.000000  1
  Rb  Rb1  1  0.666667  0.333333  0.000000  1
  In  In2  1  0.000000  0.000000  0.723866  1
  In  In3  1  0.666667  0.333333  0.500000  1
  In  In4  1  0.000000  0.000000  0.276134  1
  In  In5  1  0.333333  0.666667  0.500000  1
  O  O6  1  0.357763  0.000000  0.665241  1
  O  O7  1  0.642237  0.642237  0.665241  1
  O  O8  1  0.357763  0.357763  0.334759  1
  O  O9  1  0.000000  0.642237  0.334759  1
  O  O10  1  0.000000  0.357763  0.665241  1
  O  O11  1  0.000000  0.000000  0.000000  1
  O  O12  1  0.642237  0.000000  0.334759  1
