# generated using pymatgen
data_Rb6Cl4O
_symmetry_space_group_name_H-M   'P 1'
_cell_length_a   9.17943626
_cell_length_b   9.17943626
_cell_length_c   9.17943626
_cell_angle_alpha   89.38020738
_cell_angle_beta   89.38020738
_cell_angle_gamma   89.38020738
_symmetry_Int_Tables_number   1
_chemical_formula_structural   Rb6Cl4O
_chemical_formula_sum   'Rb12 Cl8 O2'
_cell_volume   773.34332658
_cell_formula_units_Z   2
loop_
 _symmetry_equiv_pos_site_id
 _symmetry_equiv_pos_as_xyz
  1  'x, y, z'
loop_
 _atom_site_type_symbol
 _atom_site_label
 _atom_site_symmetry_multiplicity
 _atom_site_fract_x
 _atom_site_fract_y
 _atom_site_fract_z
 _atom_site_occupancy
  Rb  Rb0  1  0.282609  0.070321  0.943538  1
  Rb  Rb1  1  0.943538  0.282609  0.070321  1
  Rb  Rb2  1  0.070321  0.943538  0.282609  1
  Rb  Rb3  1  0.217391  0.556462  0.429679  1
  Rb  Rb4  1  0.556462  0.429679  0.217391  1
  Rb  Rb5  1  0.429679  0.217391  0.556462  1
  Rb  Rb6  1  0.056462  0.717391  0.929679  1
  Rb  Rb7  1  0.717391  0.929679  0.056462  1
  Rb  Rb8  1  0.929679  0.056462  0.717391  1
  Rb  Rb9  1  0.782609  0.443538  0.570321  1
  Rb  Rb10  1  0.443538  0.570321  0.782609  1
  Rb  Rb11  1  0.570321  0.782609  0.443538  1
  Cl  Cl12  1  0.250000  0.250000  0.250000  1
  Cl  Cl13  1  0.750000  0.750000  0.750000  1
  Cl  Cl14  1  0.876130  0.623870  0.250000  1
  Cl  Cl15  1  0.623870  0.250000  0.876130  1
  Cl  Cl16  1  0.250000  0.876130  0.623870  1
  Cl  Cl17  1  0.123870  0.376130  0.750000  1
  Cl  Cl18  1  0.376130  0.750000  0.123870  1
  Cl  Cl19  1  0.750000  0.123870  0.376130  1
  O  O20  1  0.500000  0.500000  0.500000  1
  O  O21  1  0.000000  0.000000  0.000000  1
