# generated using pymatgen
data_Pd2Cl2O
_symmetry_space_group_name_H-M   'P 1'
_cell_length_a   6.79923467
_cell_length_b   6.79923467
_cell_length_c   6.79923467
_cell_angle_alpha   123.09464927
_cell_angle_beta   123.09464927
_cell_angle_gamma   84.71859353
_symmetry_Int_Tables_number   1
_chemical_formula_structural   Pd2Cl2O
_chemical_formula_sum   'Pd4 Cl4 O2'
_cell_volume   210.88660831
_cell_formula_units_Z   2
loop_
 _symmetry_equiv_pos_site_id
 _symmetry_equiv_pos_as_xyz
  1  'x, y, z'
loop_
 _atom_site_type_symbol
 _atom_site_label
 _atom_site_symmetry_multiplicity
 _atom_site_fract_x
 _atom_site_fract_y
 _atom_site_fract_z
 _atom_site_occupancy
  Pd  Pd0  1  0.375000  0.125000  0.250000  1
  Pd  Pd1  1  0.875000  0.125000  0.250000  1
  Pd  Pd2  1  0.875000  0.625000  0.750000  1
  Pd  Pd3  1  0.875000  0.125000  0.750000  1
  Cl  Cl4  1  0.705245  0.705245  0.000000  1
  Cl  Cl5  1  0.455245  0.955245  0.500000  1
  Cl  Cl6  1  0.294755  0.294755  0.000000  1
  Cl  Cl7  1  0.044755  0.544755  0.500000  1
  O  O8  1  0.000000  0.000000  0.000000  1
  O  O9  1  0.750000  0.250000  0.500000  1
