# generated using pymatgen
data_GaHO2
_symmetry_space_group_name_H-M   'P 1'
_cell_length_a   3.00395142
_cell_length_b   4.39104437
_cell_length_c   4.98845581
_cell_angle_alpha   90.00000000
_cell_angle_beta   90.00000000
_cell_angle_gamma   90.00000000
_symmetry_Int_Tables_number   1
_chemical_formula_structural   GaHO2
_chemical_formula_sum   'Ga2 H2 O4'
_cell_volume   65.80014640
_cell_formula_units_Z   2
loop_
 _symmetry_equiv_pos_site_id
 _symmetry_equiv_pos_as_xyz
  1  'x, y, z'
loop_
 _atom_site_type_symbol
 _atom_site_label
 _atom_site_symmetry_multiplicity
 _atom_site_fract_x
 _atom_site_fract_y
 _atom_site_fract_z
 _atom_site_occupancy
  Ga  Ga0  1  0.500000  0.221997  0.501880  1
  Ga  Ga1  1  0.000000  0.778003  0.001880  1
  H  H2  1  0.500000  0.308808  0.018899  1
  H  H3  1  0.000000  0.691192  0.518899  1
  O  O4  1  0.000000  0.502394  0.641362  1
  O  O5  1  0.500000  0.497606  0.141362  1
  O  O6  1  0.000000  0.991136  0.351159  1
  O  O7  1  0.500000  0.008864  0.851159  1
