# generated using pymatgen
data_Sn3BrF5
_symmetry_space_group_name_H-M   'P 1'
_cell_length_a   4.33112124
_cell_length_b   12.91274237
_cell_length_c   13.70482226
_cell_angle_alpha   90.00000000
_cell_angle_beta   108.52074818
_cell_angle_gamma   90.00000000
_symmetry_Int_Tables_number   1
_chemical_formula_structural   Sn3BrF5
_chemical_formula_sum   'Sn12 Br4 F20'
_cell_volume   726.76861680
_cell_formula_units_Z   4
loop_
 _symmetry_equiv_pos_site_id
 _symmetry_equiv_pos_as_xyz
  1  'x, y, z'
loop_
 _atom_site_type_symbol
 _atom_site_label
 _atom_site_symmetry_multiplicity
 _atom_site_fract_x
 _atom_site_fract_y
 _atom_site_fract_z
 _atom_site_occupancy
  Sn  Sn0  1  0.019238  0.124967  0.655581  1
  Sn  Sn1  1  0.980762  0.624967  0.844419  1
  Sn  Sn2  1  0.980762  0.875033  0.344419  1
  Sn  Sn3  1  0.019238  0.375033  0.155581  1
  Sn  Sn4  1  0.448275  0.342587  0.867885  1
  Sn  Sn5  1  0.551725  0.842587  0.632115  1
  Sn  Sn6  1  0.551725  0.657413  0.132115  1
  Sn  Sn7  1  0.448275  0.157413  0.367885  1
  Sn  Sn8  1  0.540707  0.398127  0.602179  1
  Sn  Sn9  1  0.459293  0.898127  0.897821  1
  Sn  Sn10  1  0.459293  0.601873  0.397821  1
  Sn  Sn11  1  0.540707  0.101873  0.102179  1
  Br  Br12  1  0.865398  0.124325  0.877203  1
  Br  Br13  1  0.134602  0.624325  0.622797  1
  Br  Br14  1  0.134602  0.875675  0.122797  1
  Br  Br15  1  0.865398  0.375675  0.377203  1
  F  F16  1  0.140791  0.346739  0.657748  1
  F  F17  1  0.859209  0.846739  0.842252  1
  F  F18  1  0.859209  0.653261  0.342252  1
  F  F19  1  0.140791  0.153261  0.157748  1
  F  F20  1  0.624704  0.010904  0.624142  1
  F  F21  1  0.375296  0.510904  0.875858  1
  F  F22  1  0.375296  0.989096  0.375858  1
  F  F23  1  0.624704  0.489096  0.124142  1
  F  F24  1  0.912622  0.379163  0.987789  1
  F  F25  1  0.087378  0.879163  0.512211  1
  F  F26  1  0.087378  0.620837  0.012211  1
  F  F27  1  0.912622  0.120837  0.487789  1
  F  F28  1  0.585550  0.226805  0.604572  1
  F  F29  1  0.414450  0.726805  0.895428  1
  F  F30  1  0.414450  0.773195  0.395428  1
  F  F31  1  0.585550  0.273195  0.104572  1
  F  F32  1  0.744410  0.100246  0.273497  1
  F  F33  1  0.255590  0.600246  0.226503  1
  F  F34  1  0.255590  0.899754  0.726503  1
  F  F35  1  0.744410  0.399754  0.773497  1
