# generated using pymatgen
data_CaPbO3
_symmetry_space_group_name_H-M   'P 1'
_cell_length_a   5.76038334
_cell_length_b   5.98177787
_cell_length_c   8.27381417
_cell_angle_alpha   90.00000000
_cell_angle_beta   90.00000000
_cell_angle_gamma   90.00000000
_symmetry_Int_Tables_number   1
_chemical_formula_structural   CaPbO3
_chemical_formula_sum   'Ca4 Pb4 O12'
_cell_volume   285.09357488
_cell_formula_units_Z   4
loop_
 _symmetry_equiv_pos_site_id
 _symmetry_equiv_pos_as_xyz
  1  'x, y, z'
loop_
 _atom_site_type_symbol
 _atom_site_label
 _atom_site_symmetry_multiplicity
 _atom_site_fract_x
 _atom_site_fract_y
 _atom_site_fract_z
 _atom_site_occupancy
  Ca  Ca0  1  0.984185  0.058662  0.250000  1
  Ca  Ca1  1  0.484185  0.441338  0.750000  1
  Ca  Ca2  1  0.515815  0.558662  0.250000  1
  Ca  Ca3  1  0.015815  0.941338  0.750000  1
  Pb  Pb4  1  0.500000  0.000000  0.000000  1
  Pb  Pb5  1  0.000000  0.500000  0.000000  1
  Pb  Pb6  1  0.000000  0.500000  0.500000  1
  Pb  Pb7  1  0.500000  0.000000  0.500000  1
  O  O8  1  0.688714  0.306607  0.432750  1
  O  O9  1  0.188714  0.193393  0.567250  1
  O  O10  1  0.811286  0.806607  0.067250  1
  O  O11  1  0.311286  0.693393  0.932750  1
  O  O12  1  0.311286  0.693393  0.567250  1
  O  O13  1  0.811286  0.806607  0.432750  1
  O  O14  1  0.188714  0.193393  0.932750  1
  O  O15  1  0.688714  0.306607  0.067250  1
  O  O16  1  0.128418  0.436802  0.250000  1
  O  O17  1  0.628418  0.063198  0.750000  1
  O  O18  1  0.371582  0.936802  0.250000  1
  O  O19  1  0.871582  0.563198  0.750000  1
