# generated using pymatgen
data_KAs4IO6
_symmetry_space_group_name_H-M   'P 1'
_cell_length_a   5.36329652
_cell_length_b   5.36329652
_cell_length_c   9.56356328
_cell_angle_alpha   90.00000000
_cell_angle_beta   90.00000000
_cell_angle_gamma   120.00000000
_symmetry_Int_Tables_number   1
_chemical_formula_structural   KAs4IO6
_chemical_formula_sum   'K1 As4 I1 O6'
_cell_volume   238.23961840
_cell_formula_units_Z   1
loop_
 _symmetry_equiv_pos_site_id
 _symmetry_equiv_pos_as_xyz
  1  'x, y, z'
loop_
 _atom_site_type_symbol
 _atom_site_label
 _atom_site_symmetry_multiplicity
 _atom_site_fract_x
 _atom_site_fract_y
 _atom_site_fract_z
 _atom_site_occupancy
  K  K0  1  0.000000  0.000000  0.500000  1
  As  As1  1  0.333333  0.666667  0.785279  1
  As  As2  1  0.666667  0.333333  0.785279  1
  As  As3  1  0.666667  0.333333  0.214721  1
  As  As4  1  0.333333  0.666667  0.214721  1
  I  I5  1  0.000000  0.000000  0.000000  1
  O  O6  1  0.500000  0.500000  0.319083  1
  O  O7  1  0.000000  0.500000  0.680917  1
  O  O8  1  0.500000  0.500000  0.680917  1
  O  O9  1  0.500000  0.000000  0.680917  1
  O  O10  1  0.000000  0.500000  0.319083  1
  O  O11  1  0.500000  0.000000  0.319083  1
