# generated using pymatgen
data_K2Pb(SO4)2
_symmetry_space_group_name_H-M   'P 1'
_cell_length_a   7.78517133
_cell_length_b   7.78517133
_cell_length_c   7.78517133
_cell_angle_alpha   42.10659764
_cell_angle_beta   42.10659764
_cell_angle_gamma   42.10659764
_symmetry_Int_Tables_number   1
_chemical_formula_structural   K2Pb(SO4)2
_chemical_formula_sum   'K2 Pb1 S2 O8'
_cell_volume   191.93443380
_cell_formula_units_Z   1
loop_
 _symmetry_equiv_pos_site_id
 _symmetry_equiv_pos_as_xyz
  1  'x, y, z'
loop_
 _atom_site_type_symbol
 _atom_site_label
 _atom_site_symmetry_multiplicity
 _atom_site_fract_x
 _atom_site_fract_y
 _atom_site_fract_z
 _atom_site_occupancy
  K  K0  1  0.203725  0.203725  0.203725  1
  K  K1  1  0.796275  0.796275  0.796275  1
  Pb  Pb2  1  0.000000  0.000000  0.000000  1
  S  S3  1  0.400941  0.400941  0.400941  1
  S  S4  1  0.599059  0.599059  0.599059  1
  O  O5  1  0.279289  0.716806  0.279289  1
  O  O6  1  0.716806  0.279289  0.279289  1
  O  O7  1  0.279289  0.279289  0.716806  1
  O  O8  1  0.720711  0.720711  0.283194  1
  O  O9  1  0.720711  0.283194  0.720711  1
  O  O10  1  0.668739  0.668739  0.668739  1
  O  O11  1  0.331261  0.331261  0.331261  1
  O  O12  1  0.283194  0.720711  0.720711  1
