# generated using pymatgen
data_TaTeBr9
_symmetry_space_group_name_H-M   'P 1'
_cell_length_a   7.31639583
_cell_length_b   12.50873368
_cell_length_c   10.47679152
_cell_angle_alpha   90.00000000
_cell_angle_beta   103.68515650
_cell_angle_gamma   90.00000000
_symmetry_Int_Tables_number   1
_chemical_formula_structural   TaTeBr9
_chemical_formula_sum   'Ta2 Te2 Br18'
_cell_volume   931.60329608
_cell_formula_units_Z   2
loop_
 _symmetry_equiv_pos_site_id
 _symmetry_equiv_pos_as_xyz
  1  'x, y, z'
loop_
 _atom_site_type_symbol
 _atom_site_label
 _atom_site_symmetry_multiplicity
 _atom_site_fract_x
 _atom_site_fract_y
 _atom_site_fract_z
 _atom_site_occupancy
  Ta  Ta0  1  0.645754  0.250000  0.145912  1
  Ta  Ta1  1  0.354246  0.750000  0.854088  1
  Te  Te2  1  0.757959  0.250000  0.531344  1
  Te  Te3  1  0.242041  0.750000  0.468656  1
  Br  Br4  1  0.446857  0.608921  0.691819  1
  Br  Br5  1  0.553143  0.108921  0.308181  1
  Br  Br6  1  0.553143  0.391079  0.308181  1
  Br  Br7  1  0.446857  0.891079  0.691819  1
  Br  Br8  1  0.679950  0.750000  0.985116  1
  Br  Br9  1  0.320050  0.250000  0.014884  1
  Br  Br10  1  0.509800  0.750000  0.350511  1
  Br  Br11  1  0.490200  0.250000  0.649489  1
  Br  Br12  1  0.025097  0.750000  0.682102  1
  Br  Br13  1  0.974903  0.250000  0.317898  1
  Br  Br14  1  0.245253  0.895957  0.973729  1
  Br  Br15  1  0.754747  0.395957  0.026271  1
  Br  Br16  1  0.754747  0.104043  0.026271  1
  Br  Br17  1  0.245253  0.604043  0.973729  1
  Br  Br18  1  0.053614  0.902389  0.337586  1
  Br  Br19  1  0.946386  0.402389  0.662414  1
  Br  Br20  1  0.946386  0.097611  0.662414  1
  Br  Br21  1  0.053614  0.597611  0.337586  1
