# generated using pymatgen
data_LiSbP2O7
_symmetry_space_group_name_H-M   'P 1'
_cell_length_a   6.80390349
_cell_length_b   6.81753397
_cell_length_c   6.85584522
_cell_angle_alpha   79.99194632
_cell_angle_beta   65.81917669
_cell_angle_gamma   83.92192946
_symmetry_Int_Tables_number   1
_chemical_formula_structural   LiSbP2O7
_chemical_formula_sum   'Li2 Sb2 P4 O14'
_cell_volume   285.48304642
_cell_formula_units_Z   2
loop_
 _symmetry_equiv_pos_site_id
 _symmetry_equiv_pos_as_xyz
  1  'x, y, z'
loop_
 _atom_site_type_symbol
 _atom_site_label
 _atom_site_symmetry_multiplicity
 _atom_site_fract_x
 _atom_site_fract_y
 _atom_site_fract_z
 _atom_site_occupancy
  Li  Li0  1  0.609075  0.185724  0.925153  1
  Li  Li1  1  0.390925  0.814276  0.074847  1
  Sb  Sb2  1  0.890055  0.298598  0.257679  1
  Sb  Sb3  1  0.109945  0.701402  0.742321  1
  P  P4  1  0.221155  0.161890  0.778108  1
  P  P5  1  0.341159  0.387537  0.316413  1
  P  P6  1  0.658841  0.612463  0.683587  1
  P  P7  1  0.778845  0.838110  0.221892  1
  O  O8  1  0.090035  0.011211  0.738632  1
  O  O9  1  0.909965  0.988789  0.261368  1
  O  O10  1  0.378924  0.071277  0.872234  1
  O  O11  1  0.188617  0.255072  0.282455  1
  O  O12  1  0.351069  0.290905  0.550548  1
  O  O13  1  0.055748  0.318126  0.913380  1
  O  O14  1  0.572713  0.355003  0.156296  1
  O  O15  1  0.739885  0.398060  0.664349  1
  O  O16  1  0.260115  0.601940  0.335651  1
  O  O17  1  0.427287  0.644997  0.843704  1
  O  O18  1  0.944252  0.681874  0.086620  1
  O  O19  1  0.648931  0.709095  0.449452  1
  O  O20  1  0.811383  0.744928  0.717545  1
  O  O21  1  0.621076  0.928723  0.127766  1
