# generated using pymatgen
data_Rb3CuO2
_symmetry_space_group_name_H-M   'P 1'
_cell_length_a   6.82174425
_cell_length_b   9.80181566
_cell_length_c   9.57444308
_cell_angle_alpha   90.00000000
_cell_angle_beta   112.03825212
_cell_angle_gamma   90.00000000
_symmetry_Int_Tables_number   1
_chemical_formula_structural   Rb3CuO2
_chemical_formula_sum   'Rb12 Cu4 O8'
_cell_volume   593.42260778
_cell_formula_units_Z   4
loop_
 _symmetry_equiv_pos_site_id
 _symmetry_equiv_pos_as_xyz
  1  'x, y, z'
loop_
 _atom_site_type_symbol
 _atom_site_label
 _atom_site_symmetry_multiplicity
 _atom_site_fract_x
 _atom_site_fract_y
 _atom_site_fract_z
 _atom_site_occupancy
  Rb  Rb0  1  0.753563  0.965489  0.495201  1
  Rb  Rb1  1  0.246437  0.465489  0.004799  1
  Rb  Rb2  1  0.246437  0.034511  0.504799  1
  Rb  Rb3  1  0.753563  0.534511  0.995201  1
  Rb  Rb4  1  0.737277  0.525064  0.374982  1
  Rb  Rb5  1  0.262723  0.025064  0.125018  1
  Rb  Rb6  1  0.262723  0.474936  0.625018  1
  Rb  Rb7  1  0.737277  0.974936  0.874982  1
  Rb  Rb8  1  0.240597  0.791666  0.812797  1
  Rb  Rb9  1  0.759403  0.291666  0.687203  1
  Rb  Rb10  1  0.759403  0.208334  0.187203  1
  Rb  Rb11  1  0.240597  0.708334  0.312797  1
  Cu  Cu12  1  0.708847  0.820639  0.173017  1
  Cu  Cu13  1  0.291153  0.320639  0.326983  1
  Cu  Cu14  1  0.291153  0.179361  0.826983  1
  Cu  Cu15  1  0.708847  0.679361  0.673017  1
  O  O16  1  0.492544  0.801724  0.621739  1
  O  O17  1  0.507456  0.301724  0.878261  1
  O  O18  1  0.507456  0.198276  0.378261  1
  O  O19  1  0.492544  0.698276  0.121739  1
  O  O20  1  0.069567  0.438836  0.277768  1
  O  O21  1  0.069567  0.061164  0.777768  1
  O  O22  1  0.930433  0.938836  0.222232  1
  O  O23  1  0.930433  0.561164  0.722232  1
