# generated using pymatgen
data_Ca5P8
_symmetry_space_group_name_H-M   'P 1'
_cell_length_a   6.89475653
_cell_length_b   6.89475653
_cell_length_c   7.51671768
_cell_angle_alpha   80.97724899
_cell_angle_beta   99.02275101
_cell_angle_gamma   60.35874529
_symmetry_Int_Tables_number   1
_chemical_formula_structural   Ca5P8
_chemical_formula_sum   'Ca5 P8'
_cell_volume   295.06794337
_cell_formula_units_Z   1
loop_
 _symmetry_equiv_pos_site_id
 _symmetry_equiv_pos_as_xyz
  1  'x, y, z'
loop_
 _atom_site_type_symbol
 _atom_site_label
 _atom_site_symmetry_multiplicity
 _atom_site_fract_x
 _atom_site_fract_y
 _atom_site_fract_z
 _atom_site_occupancy
  Ca  Ca0  1  0.500000  0.500000  0.000000  1
  Ca  Ca1  1  0.824739  0.824739  0.000000  1
  Ca  Ca2  1  0.175261  0.175261  0.000000  1
  Ca  Ca3  1  0.334650  0.334650  0.500000  1
  Ca  Ca4  1  0.665350  0.665350  0.500000  1
  P  P5  1  0.777732  0.222268  0.741975  1
  P  P6  1  0.222268  0.777732  0.258025  1
  P  P7  1  0.078827  0.615408  0.739753  1
  P  P8  1  0.615408  0.078827  0.260247  1
  P  P9  1  0.921173  0.384592  0.260247  1
  P  P10  1  0.384592  0.921173  0.739753  1
  P  P11  1  0.052419  0.947581  0.663476  1
  P  P12  1  0.947581  0.052419  0.336524  1
