# generated using pymatgen
data_P4SO7
_symmetry_space_group_name_H-M   'P 1'
_cell_length_a   7.18421206
_cell_length_b   7.41963271
_cell_length_c   8.47682140
_cell_angle_alpha   93.46697386
_cell_angle_beta   103.97821918
_cell_angle_gamma   95.36614758
_symmetry_Int_Tables_number   1
_chemical_formula_structural   P4SO7
_chemical_formula_sum   'P8 S2 O14'
_cell_volume   434.93190322
_cell_formula_units_Z   2
loop_
 _symmetry_equiv_pos_site_id
 _symmetry_equiv_pos_as_xyz
  1  'x, y, z'
loop_
 _atom_site_type_symbol
 _atom_site_label
 _atom_site_symmetry_multiplicity
 _atom_site_fract_x
 _atom_site_fract_y
 _atom_site_fract_z
 _atom_site_occupancy
  P  P0  1  0.259505  0.244624  0.899558  1
  P  P1  1  0.740495  0.755376  0.100442  1
  P  P2  1  0.391731  0.731733  0.224332  1
  P  P3  1  0.608269  0.268267  0.775668  1
  P  P4  1  0.708020  0.018326  0.350361  1
  P  P5  1  0.291980  0.981674  0.649639  1
  P  P6  1  0.767342  0.648792  0.432046  1
  P  P7  1  0.232658  0.351208  0.567954  1
  S  S8  1  0.162915  0.278357  0.085857  1
  S  S9  1  0.837085  0.721643  0.914143  1
  O  O10  1  0.756523  0.209678  0.411224  1
  O  O11  1  0.243477  0.790322  0.588776  1
  O  O12  1  0.509398  0.712932  0.074557  1
  O  O13  1  0.490602  0.287068  0.925443  1
  O  O14  1  0.482229  0.948637  0.298240  1
  O  O15  1  0.517771  0.051363  0.701760  1
  O  O16  1  0.799175  0.877628  0.474906  1
  O  O17  1  0.200825  0.122372  0.525094  1
  O  O18  1  0.779436  0.964321  0.187937  1
  O  O19  1  0.220564  0.035679  0.812063  1
  O  O20  1  0.470839  0.377780  0.636821  1
  O  O21  1  0.529161  0.622220  0.363179  1
  O  O22  1  0.171569  0.358990  0.747879  1
  O  O23  1  0.828431  0.641010  0.252121  1
