# generated using pymatgen
data_Te4MoBr
_symmetry_space_group_name_H-M   'P 1'
_cell_length_a   6.90304213
_cell_length_b   8.36246210
_cell_length_c   8.37216684
_cell_angle_alpha   115.19864656
_cell_angle_beta   102.79404092
_cell_angle_gamma   100.78379619
_symmetry_Int_Tables_number   1
_chemical_formula_structural   Te4MoBr
_chemical_formula_sum   'Te8 Mo2 Br2'
_cell_volume   404.18119945
_cell_formula_units_Z   2
loop_
 _symmetry_equiv_pos_site_id
 _symmetry_equiv_pos_as_xyz
  1  'x, y, z'
loop_
 _atom_site_type_symbol
 _atom_site_label
 _atom_site_symmetry_multiplicity
 _atom_site_fract_x
 _atom_site_fract_y
 _atom_site_fract_z
 _atom_site_occupancy
  Te  Te0  1  0.878803  0.680089  0.819066  1
  Te  Te1  1  0.034602  0.892561  0.215799  1
  Te  Te2  1  0.965398  0.107439  0.784201  1
  Te  Te3  1  0.536185  0.225256  0.942528  1
  Te  Te4  1  0.613154  0.145501  0.301581  1
  Te  Te5  1  0.386846  0.854499  0.698419  1
  Te  Te6  1  0.121197  0.319911  0.180934  1
  Te  Te7  1  0.463815  0.774744  0.057472  1
  Mo  Mo8  1  0.781578  0.999924  0.000557  1
  Mo  Mo9  1  0.218422  0.000076  0.999443  1
  Br  Br10  1  0.746845  0.591336  0.419381  1
  Br  Br11  1  0.253155  0.408664  0.580619  1
