# generated using pymatgen
data_Sr7(H6Br)2
_symmetry_space_group_name_H-M   'P 1'
_cell_length_a   10.07846825
_cell_length_b   10.07846825
_cell_length_c   4.02248846
_cell_angle_alpha   90.00000000
_cell_angle_beta   90.00000000
_cell_angle_gamma   120.00000000
_symmetry_Int_Tables_number   1
_chemical_formula_structural   Sr7(H6Br)2
_chemical_formula_sum   'Sr7 H12 Br2'
_cell_volume   353.84617286
_cell_formula_units_Z   1
loop_
 _symmetry_equiv_pos_site_id
 _symmetry_equiv_pos_as_xyz
  1  'x, y, z'
loop_
 _atom_site_type_symbol
 _atom_site_label
 _atom_site_symmetry_multiplicity
 _atom_site_fract_x
 _atom_site_fract_y
 _atom_site_fract_z
 _atom_site_occupancy
  Sr  Sr0  1  0.274988  0.224096  0.500000  1
  Sr  Sr1  1  0.567309  0.642019  0.000000  1
  Sr  Sr2  1  0.357981  0.925290  0.000000  1
  Sr  Sr3  1  0.074710  0.432691  0.000000  1
  Sr  Sr4  1  0.666667  0.333333  0.000000  1
  Sr  Sr5  1  0.949107  0.725012  0.500000  1
  Sr  Sr6  1  0.775904  0.050893  0.500000  1
  H  H7  1  0.561957  0.120727  0.500000  1
  H  H8  1  0.879273  0.441230  0.500000  1
  H  H9  1  0.558770  0.438043  0.500000  1
  H  H10  1  0.716806  0.773435  0.500000  1
  H  H11  1  0.226565  0.943371  0.500000  1
  H  H12  1  0.056629  0.283194  0.500000  1
  H  H13  1  0.820603  0.212711  0.000000  1
  H  H14  1  0.787289  0.607892  0.000000  1
  H  H15  1  0.392108  0.179397  0.000000  1
  H  H16  1  0.305346  0.394959  0.000000  1
  H  H17  1  0.089613  0.694654  0.000000  1
  H  H18  1  0.605041  0.910387  0.000000  1
  Br  Br19  1  0.000000  0.000000  0.000000  1
  Br  Br20  1  0.333333  0.666667  0.500000  1
