# generated using pymatgen
data_K2CoCl4
_symmetry_space_group_name_H-M   'P 1'
_cell_length_a   7.36319909
_cell_length_b   12.54030221
_cell_length_c   27.23224247
_cell_angle_alpha   90.00000000
_cell_angle_beta   90.00000000
_cell_angle_gamma   90.00000000
_symmetry_Int_Tables_number   1
_chemical_formula_structural   K2CoCl4
_chemical_formula_sum   'K24 Co12 Cl48'
_cell_volume   2514.53654216
_cell_formula_units_Z   12
loop_
 _symmetry_equiv_pos_site_id
 _symmetry_equiv_pos_as_xyz
  1  'x, y, z'
loop_
 _atom_site_type_symbol
 _atom_site_label
 _atom_site_symmetry_multiplicity
 _atom_site_fract_x
 _atom_site_fract_y
 _atom_site_fract_z
 _atom_site_occupancy
  K  K0  1  0.212962  0.921384  0.044633  1
  K  K1  1  0.712962  0.078616  0.955367  1
  K  K2  1  0.212962  0.578616  0.544633  1
  K  K3  1  0.712962  0.421384  0.455367  1
  K  K4  1  0.230800  0.915767  0.381625  1
  K  K5  1  0.730800  0.084233  0.618375  1
  K  K6  1  0.230800  0.584233  0.881625  1
  K  K7  1  0.730800  0.415767  0.118375  1
  K  K8  1  0.277597  0.920125  0.711285  1
  K  K9  1  0.777597  0.079875  0.288715  1
  K  K10  1  0.277597  0.579875  0.211285  1
  K  K11  1  0.777597  0.420125  0.788715  1
  K  K12  1  0.202619  0.314251  0.999695  1
  K  K13  1  0.702619  0.685749  0.000305  1
  K  K14  1  0.202619  0.185749  0.499695  1
  K  K15  1  0.702619  0.814251  0.500305  1
  K  K16  1  0.279728  0.313655  0.332768  1
  K  K17  1  0.779728  0.686345  0.667232  1
  K  K18  1  0.279728  0.186345  0.832768  1
  K  K19  1  0.779728  0.813655  0.167232  1
  K  K20  1  0.267461  0.317026  0.667515  1
  K  K21  1  0.767461  0.682974  0.332485  1
  K  K22  1  0.267461  0.182974  0.167515  1
  K  K23  1  0.767461  0.817026  0.832485  1
  Co  Co24  1  0.248626  0.582211  0.072987  1
  Co  Co25  1  0.748626  0.417789  0.927013  1
  Co  Co26  1  0.248626  0.917789  0.572987  1
  Co  Co27  1  0.748626  0.082211  0.427013  1
  Co  Co28  1  0.219477  0.583379  0.405452  1
  Co  Co29  1  0.719477  0.416621  0.594548  1
  Co  Co30  1  0.219477  0.916621  0.905452  1
  Co  Co31  1  0.719477  0.083379  0.094548  1
  Co  Co32  1  0.262995  0.584739  0.741678  1
  Co  Co33  1  0.762995  0.415261  0.258322  1
  Co  Co34  1  0.262995  0.915261  0.241678  1
  Co  Co35  1  0.762995  0.084739  0.758322  1
  Cl  Cl36  1  0.324453  0.556666  0.993975  1
  Cl  Cl37  1  0.824453  0.443334  0.006025  1
  Cl  Cl38  1  0.324453  0.943334  0.493975  1
  Cl  Cl39  1  0.824453  0.056666  0.506025  1
  Cl  Cl40  1  0.183057  0.561153  0.324601  1
  Cl  Cl41  1  0.683057  0.438847  0.675399  1
  Cl  Cl42  1  0.183057  0.938847  0.824601  1
  Cl  Cl43  1  0.683057  0.061153  0.175399  1
  Cl  Cl44  1  0.189308  0.566051  0.662116  1
  Cl  Cl45  1  0.689308  0.433949  0.337884  1
  Cl  Cl46  1  0.189308  0.933949  0.162116  1
  Cl  Cl47  1  0.689308  0.066051  0.837884  1
  Cl  Cl48  1  0.171183  0.429571  0.112494  1
  Cl  Cl49  1  0.671183  0.570429  0.887506  1
  Cl  Cl50  1  0.171183  0.070429  0.612494  1
  Cl  Cl51  1  0.671183  0.929571  0.387506  1
  Cl  Cl52  1  0.170104  0.427055  0.445602  1
  Cl  Cl53  1  0.670104  0.572945  0.554398  1
  Cl  Cl54  1  0.170104  0.072945  0.945602  1
  Cl  Cl55  1  0.670104  0.927055  0.054398  1
  Cl  Cl56  1  0.339892  0.430242  0.780023  1
  Cl  Cl57  1  0.839892  0.569758  0.219977  1
  Cl  Cl58  1  0.339892  0.069758  0.280023  1
  Cl  Cl59  1  0.839892  0.930242  0.719977  1
  Cl  Cl60  1  0.025784  0.703881  0.081088  1
  Cl  Cl61  1  0.525784  0.296119  0.918912  1
  Cl  Cl62  1  0.025784  0.796119  0.581088  1
  Cl  Cl63  1  0.525784  0.203881  0.418912  1
  Cl  Cl64  1  0.012486  0.703314  0.432094  1
  Cl  Cl65  1  0.512486  0.296686  0.567906  1
  Cl  Cl66  1  0.012486  0.796686  0.932094  1
  Cl  Cl67  1  0.512486  0.203314  0.067906  1
  Cl  Cl68  1  0.001967  0.636919  0.779508  1
  Cl  Cl69  1  0.501967  0.363081  0.220492  1
  Cl  Cl70  1  0.001967  0.863081  0.279508  1
  Cl  Cl71  1  0.501967  0.136919  0.720492  1
  Cl  Cl72  1  0.506507  0.639343  0.111053  1
  Cl  Cl73  1  0.006507  0.360657  0.888947  1
  Cl  Cl74  1  0.506507  0.860657  0.611053  1
  Cl  Cl75  1  0.006507  0.139343  0.388947  1
  Cl  Cl76  1  0.495686  0.643572  0.427685  1
  Cl  Cl77  1  0.995686  0.356428  0.572315  1
  Cl  Cl78  1  0.495686  0.856428  0.927685  1
  Cl  Cl79  1  0.995686  0.143572  0.072315  1
  Cl  Cl80  1  0.479806  0.709240  0.753059  1
  Cl  Cl81  1  0.979806  0.290760  0.246941  1
  Cl  Cl82  1  0.479806  0.790760  0.253059  1
  Cl  Cl83  1  0.979806  0.209240  0.746941  1
