# generated using pymatgen
data_CoH4(CO3)2
_symmetry_space_group_name_H-M   'P 1'
_cell_length_a   6.85893691
_cell_length_b   6.85893691
_cell_length_c   9.80451376
_cell_angle_alpha   55.04496657
_cell_angle_beta   124.95503343
_cell_angle_gamma   132.58642843
_symmetry_Int_Tables_number   1
_chemical_formula_structural   CoH4(CO3)2
_chemical_formula_sum   'Co2 H8 C4 O12'
_cell_volume   264.90083560
_cell_formula_units_Z   2
loop_
 _symmetry_equiv_pos_site_id
 _symmetry_equiv_pos_as_xyz
  1  'x, y, z'
loop_
 _atom_site_type_symbol
 _atom_site_label
 _atom_site_symmetry_multiplicity
 _atom_site_fract_x
 _atom_site_fract_y
 _atom_site_fract_z
 _atom_site_occupancy
  Co  Co0  1  0.580653  0.580653  0.250000  1
  Co  Co1  1  0.419347  0.419347  0.750000  1
  H  H2  1  0.501291  0.800326  0.359088  1
  H  H3  1  0.800326  0.501291  0.140912  1
  H  H4  1  0.359658  0.869754  0.147849  1
  H  H5  1  0.869754  0.359658  0.352151  1
  H  H6  1  0.640342  0.130246  0.852151  1
  H  H7  1  0.199674  0.498709  0.859088  1
  H  H8  1  0.498709  0.199674  0.640912  1
  H  H9  1  0.130246  0.640342  0.647849  1
  C  C10  1  0.970399  0.867419  0.852098  1
  C  C11  1  0.029601  0.132581  0.147902  1
  C  C12  1  0.132581  0.029601  0.352098  1
  C  C13  1  0.867419  0.970399  0.647902  1
  O  O14  1  0.374847  0.196668  0.427391  1
  O  O15  1  0.418522  0.742140  0.256959  1
  O  O16  1  0.803332  0.625153  0.927391  1
  O  O17  1  0.742140  0.418522  0.243041  1
  O  O18  1  0.257860  0.581478  0.756959  1
  O  O19  1  0.196668  0.374847  0.072609  1
  O  O20  1  0.786334  0.967709  0.071226  1
  O  O21  1  0.967709  0.786334  0.428774  1
  O  O22  1  0.213666  0.032291  0.928774  1
  O  O23  1  0.032291  0.213666  0.571226  1
  O  O24  1  0.581478  0.257860  0.743041  1
  O  O25  1  0.625153  0.803332  0.572609  1
