# generated using pymatgen
data_KIO3
_symmetry_space_group_name_H-M   'P 1'
_cell_length_a   7.78823279
_cell_length_b   7.79154623
_cell_length_c   7.79091011
_cell_angle_alpha   108.92566535
_cell_angle_beta   108.78905218
_cell_angle_gamma   108.89264242
_symmetry_Int_Tables_number   1
_chemical_formula_structural   KIO3
_chemical_formula_sum   'K4 I4 O12'
_cell_volume   371.83049493
_cell_formula_units_Z   4
loop_
 _symmetry_equiv_pos_site_id
 _symmetry_equiv_pos_as_xyz
  1  'x, y, z'
loop_
 _atom_site_type_symbol
 _atom_site_label
 _atom_site_symmetry_multiplicity
 _atom_site_fract_x
 _atom_site_fract_y
 _atom_site_fract_z
 _atom_site_occupancy
  K  K0  1  0.529307  0.493215  0.500965  1
  K  K1  1  0.014569  0.513647  0.001634  1
  K  K2  1  0.011483  0.997623  0.506800  1
  K  K3  1  0.509516  0.000213  0.019873  1
  I  I4  1  0.017658  0.494398  0.491571  1
  I  I5  1  0.507455  0.494284  0.997002  1
  I  I6  1  0.506991  0.988412  0.508298  1
  I  I7  1  0.999082  0.002241  0.001065  1
  O  O8  1  0.854940  0.537688  0.297008  1
  O  O9  1  0.814629  0.287783  0.488390  1
  O  O10  1  0.102249  0.340827  0.338743  1
  O  O11  1  0.349733  0.284655  0.028044  1
  O  O12  1  0.552402  0.346618  0.794228  1
  O  O13  1  0.304940  0.535680  0.843648  1
  O  O14  1  0.340327  0.842331  0.587594  1
  O  O15  1  0.547561  0.786740  0.351605  1
  O  O16  1  0.843832  0.079704  0.840418  1
  O  O17  1  0.990912  0.790683  0.798404  1
  O  O18  1  0.808679  0.850799  0.056371  1
  O  O19  1  0.311637  0.991558  0.300840  1
