# generated using pymatgen
data_Sm10Se19
_symmetry_space_group_name_H-M   'P 1'
_cell_length_a   9.24002589
_cell_length_b   9.24002589
_cell_length_c   16.89414563
_cell_angle_alpha   90.00000000
_cell_angle_beta   90.00000000
_cell_angle_gamma   90.00000000
_symmetry_Int_Tables_number   1
_chemical_formula_structural   Sm10Se19
_chemical_formula_sum   'Sm20 Se38'
_cell_volume   1442.38969091
_cell_formula_units_Z   2
loop_
 _symmetry_equiv_pos_site_id
 _symmetry_equiv_pos_as_xyz
  1  'x, y, z'
loop_
 _atom_site_type_symbol
 _atom_site_label
 _atom_site_symmetry_multiplicity
 _atom_site_fract_x
 _atom_site_fract_y
 _atom_site_fract_z
 _atom_site_occupancy
  Sm  Sm0  1  0.303036  0.602883  0.143617  1
  Sm  Sm1  1  0.897117  0.803036  0.643617  1
  Sm  Sm2  1  0.102883  0.196964  0.643617  1
  Sm  Sm3  1  0.696964  0.397117  0.143617  1
  Sm  Sm4  1  0.196964  0.897117  0.356383  1
  Sm  Sm5  1  0.602883  0.696964  0.856383  1
  Sm  Sm6  1  0.397117  0.303036  0.856383  1
  Sm  Sm7  1  0.803036  0.102883  0.356383  1
  Sm  Sm8  1  0.292950  0.597550  0.630452  1
  Sm  Sm9  1  0.902450  0.792950  0.130452  1
  Sm  Sm10  1  0.097550  0.207050  0.130452  1
  Sm  Sm11  1  0.707050  0.402450  0.630452  1
  Sm  Sm12  1  0.207050  0.902450  0.869548  1
  Sm  Sm13  1  0.597550  0.707050  0.369548  1
  Sm  Sm14  1  0.402450  0.292950  0.369548  1
  Sm  Sm15  1  0.792950  0.097550  0.869548  1
  Sm  Sm16  1  0.000000  0.500000  0.867033  1
  Sm  Sm17  1  0.000000  0.500000  0.367033  1
  Sm  Sm18  1  0.500000  0.000000  0.632967  1
  Sm  Sm19  1  0.500000  0.000000  0.132967  1
  Se  Se20  1  0.500000  0.500000  0.500000  1
  Se  Se21  1  0.000000  0.000000  0.000000  1
  Se  Se22  1  0.923265  0.279496  0.499957  1
  Se  Se23  1  0.220504  0.423265  0.999957  1
  Se  Se24  1  0.779496  0.576735  0.999957  1
  Se  Se25  1  0.076735  0.720504  0.499957  1
  Se  Se26  1  0.576735  0.220504  0.000043  1
  Se  Se27  1  0.279496  0.076735  0.500043  1
  Se  Se28  1  0.720504  0.923265  0.500043  1
  Se  Se29  1  0.423265  0.779496  0.000043  1
  Se  Se30  1  0.402392  0.298889  0.679565  1
  Se  Se31  1  0.201111  0.902392  0.179565  1
  Se  Se32  1  0.798889  0.097608  0.179565  1
  Se  Se33  1  0.597608  0.701111  0.679565  1
  Se  Se34  1  0.097608  0.201111  0.820435  1
  Se  Se35  1  0.298889  0.597608  0.320435  1
  Se  Se36  1  0.701111  0.402392  0.320435  1
  Se  Se37  1  0.902392  0.798889  0.820435  1
  Se  Se38  1  0.399507  0.302642  0.187147  1
  Se  Se39  1  0.197358  0.899507  0.687147  1
  Se  Se40  1  0.870420  0.313215  0.000657  1
  Se  Se41  1  0.186785  0.370420  0.500657  1
  Se  Se42  1  0.813215  0.629580  0.500657  1
  Se  Se43  1  0.129580  0.686785  0.000657  1
  Se  Se44  1  0.629580  0.186785  0.499343  1
  Se  Se45  1  0.313215  0.129580  0.999343  1
  Se  Se46  1  0.686785  0.870420  0.999343  1
  Se  Se47  1  0.370420  0.813215  0.499343  1
  Se  Se48  1  0.500000  0.000000  0.814000  1
  Se  Se49  1  0.500000  0.000000  0.314000  1
  Se  Se50  1  0.000000  0.500000  0.686000  1
  Se  Se51  1  0.000000  0.500000  0.186000  1
  Se  Se52  1  0.899507  0.802642  0.312853  1
  Se  Se53  1  0.697358  0.399507  0.812853  1
  Se  Se54  1  0.302642  0.600493  0.812853  1
  Se  Se55  1  0.100493  0.197358  0.312853  1
  Se  Se56  1  0.600493  0.697358  0.187147  1
  Se  Se57  1  0.802642  0.100493  0.687147  1
