# generated using pymatgen
data_Br2O3
_symmetry_space_group_name_H-M   'P 1'
_cell_length_a   9.43030232
_cell_length_b   8.24236403
_cell_length_c   12.00089982
_cell_angle_alpha   90.00000000
_cell_angle_beta   109.15028844
_cell_angle_gamma   90.00000000
_symmetry_Int_Tables_number   1
_chemical_formula_structural   Br2O3
_chemical_formula_sum   'Br16 O24'
_cell_volume   881.18554445
_cell_formula_units_Z   8
loop_
 _symmetry_equiv_pos_site_id
 _symmetry_equiv_pos_as_xyz
  1  'x, y, z'
loop_
 _atom_site_type_symbol
 _atom_site_label
 _atom_site_symmetry_multiplicity
 _atom_site_fract_x
 _atom_site_fract_y
 _atom_site_fract_z
 _atom_site_occupancy
  Br  Br0  1  0.307622  0.496697  0.048498  1
  Br  Br1  1  0.192378  0.996697  0.951502  1
  Br  Br2  1  0.692378  0.503303  0.951502  1
  Br  Br3  1  0.807622  0.003303  0.048498  1
  Br  Br4  1  0.466321  0.785998  0.219493  1
  Br  Br5  1  0.033679  0.285998  0.780507  1
  Br  Br6  1  0.533679  0.214002  0.780507  1
  Br  Br7  1  0.966321  0.714002  0.219493  1
  Br  Br8  1  0.260129  0.803221  0.781058  1
  Br  Br9  1  0.239871  0.303221  0.218942  1
  Br  Br10  1  0.739871  0.196779  0.218942  1
  Br  Br11  1  0.760129  0.696779  0.781058  1
  Br  Br12  1  0.302039  0.787025  0.530383  1
  Br  Br13  1  0.197961  0.287025  0.469617  1
  Br  Br14  1  0.697961  0.212975  0.469617  1
  Br  Br15  1  0.802039  0.712975  0.530383  1
  O  O16  1  0.429988  0.904713  0.101421  1
  O  O17  1  0.070012  0.404713  0.898579  1
  O  O18  1  0.570012  0.095287  0.898579  1
  O  O19  1  0.929988  0.595287  0.101421  1
  O  O20  1  0.315085  0.770183  0.257841  1
  O  O21  1  0.184915  0.270183  0.742159  1
  O  O22  1  0.684915  0.229817  0.742159  1
  O  O23  1  0.815085  0.729817  0.257841  1
  O  O24  1  0.484868  0.573623  0.155437  1
  O  O25  1  0.015132  0.073623  0.844563  1
  O  O26  1  0.515132  0.426377  0.844563  1
  O  O27  1  0.984868  0.926377  0.155437  1
  O  O28  1  0.125810  0.837309  0.458402  1
  O  O29  1  0.374190  0.337309  0.541598  1
  O  O30  1  0.874190  0.162691  0.541598  1
  O  O31  1  0.625810  0.662691  0.458402  1
  O  O32  1  0.792992  0.831157  0.662800  1
  O  O33  1  0.707008  0.331157  0.337200  1
  O  O34  1  0.207008  0.168843  0.337200  1
  O  O35  1  0.292992  0.668843  0.662800  1
  O  O36  1  0.891639  0.545570  0.588164  1
  O  O37  1  0.608361  0.045570  0.411836  1
  O  O38  1  0.108361  0.454430  0.411836  1
  O  O39  1  0.391639  0.954430  0.588164  1
