# generated using pymatgen
data_GeI4
_symmetry_space_group_name_H-M   'P 1'
_cell_length_a   12.92582617
_cell_length_b   12.92582617
_cell_length_c   12.92582617
_cell_angle_alpha   90.00000000
_cell_angle_beta   90.00000000
_cell_angle_gamma   90.00000000
_symmetry_Int_Tables_number   1
_chemical_formula_structural   GeI4
_chemical_formula_sum   'Ge8 I32'
_cell_volume   2159.60802863
_cell_formula_units_Z   8
loop_
 _symmetry_equiv_pos_site_id
 _symmetry_equiv_pos_as_xyz
  1  'x, y, z'
loop_
 _atom_site_type_symbol
 _atom_site_label
 _atom_site_symmetry_multiplicity
 _atom_site_fract_x
 _atom_site_fract_y
 _atom_site_fract_z
 _atom_site_occupancy
  Ge  Ge0  1  0.130743  0.130743  0.130743  1
  Ge  Ge1  1  0.369257  0.869257  0.630743  1
  Ge  Ge2  1  0.630743  0.369257  0.869257  1
  Ge  Ge3  1  0.869257  0.630743  0.369257  1
  Ge  Ge4  1  0.869257  0.869257  0.869257  1
  Ge  Ge5  1  0.630743  0.130743  0.369257  1
  Ge  Ge6  1  0.369257  0.630743  0.130743  1
  Ge  Ge7  1  0.130743  0.369257  0.630743  1
  I  I8  1  0.244139  0.244139  0.244139  1
  I  I9  1  0.255861  0.755861  0.744139  1
  I  I10  1  0.744139  0.255861  0.755861  1
  I  I11  1  0.755861  0.744139  0.255861  1
  I  I12  1  0.755861  0.755861  0.755861  1
  I  I13  1  0.744139  0.244139  0.255861  1
  I  I14  1  0.255861  0.744139  0.244139  1
  I  I15  1  0.244139  0.255861  0.744139  1
  I  I16  1  0.024203  0.010552  0.244719  1
  I  I17  1  0.244719  0.024203  0.010552  1
  I  I18  1  0.010552  0.244719  0.024203  1
  I  I19  1  0.489448  0.755281  0.524203  1
  I  I20  1  0.744719  0.475797  0.989448  1
  I  I21  1  0.989448  0.744719  0.475797  1
  I  I22  1  0.255281  0.975797  0.510552  1
  I  I23  1  0.755281  0.524203  0.489448  1
  I  I24  1  0.510552  0.255281  0.975797  1
  I  I25  1  0.524203  0.489448  0.755281  1
  I  I26  1  0.975797  0.510552  0.255281  1
  I  I27  1  0.475797  0.989448  0.744719  1
  I  I28  1  0.975797  0.989448  0.755281  1
  I  I29  1  0.755281  0.975797  0.989448  1
  I  I30  1  0.989448  0.755281  0.975797  1
  I  I31  1  0.510552  0.244719  0.475797  1
  I  I32  1  0.255281  0.524203  0.010552  1
  I  I33  1  0.010552  0.255281  0.524203  1
  I  I34  1  0.744719  0.024203  0.489448  1
  I  I35  1  0.244719  0.475797  0.510552  1
  I  I36  1  0.489448  0.744719  0.024203  1
  I  I37  1  0.475797  0.510552  0.244719  1
  I  I38  1  0.024203  0.489448  0.744719  1
  I  I39  1  0.524203  0.010552  0.255281  1
