# generated using pymatgen
data_Sb7F29
_symmetry_space_group_name_H-M   'P 1'
_cell_length_a   8.68351786
_cell_length_b   13.73520657
_cell_length_c   20.35199857
_cell_angle_alpha   90.00000000
_cell_angle_beta   99.79543588
_cell_angle_gamma   90.00000000
_symmetry_Int_Tables_number   1
_chemical_formula_structural   Sb7F29
_chemical_formula_sum   'Sb28 F116'
_cell_volume   2391.99338205
_cell_formula_units_Z   4
loop_
 _symmetry_equiv_pos_site_id
 _symmetry_equiv_pos_as_xyz
  1  'x, y, z'
loop_
 _atom_site_type_symbol
 _atom_site_label
 _atom_site_symmetry_multiplicity
 _atom_site_fract_x
 _atom_site_fract_y
 _atom_site_fract_z
 _atom_site_occupancy
  Sb  Sb0  1  0.979676  0.245669  0.868603  1
  Sb  Sb1  1  0.020324  0.745669  0.631397  1
  Sb  Sb2  1  0.020324  0.754331  0.131397  1
  Sb  Sb3  1  0.979676  0.254331  0.368603  1
  Sb  Sb4  1  0.552404  0.237600  0.748673  1
  Sb  Sb5  1  0.447596  0.737600  0.751327  1
  Sb  Sb6  1  0.447596  0.762400  0.251327  1
  Sb  Sb7  1  0.552404  0.262400  0.248673  1
  Sb  Sb8  1  0.889301  0.941993  0.859880  1
  Sb  Sb9  1  0.110699  0.441993  0.640120  1
  Sb  Sb10  1  0.110699  0.058007  0.140120  1
  Sb  Sb11  1  0.889301  0.558007  0.359880  1
  Sb  Sb12  1  0.877093  0.520937  0.871551  1
  Sb  Sb13  1  0.122907  0.020937  0.628449  1
  Sb  Sb14  1  0.122907  0.479063  0.128449  1
  Sb  Sb15  1  0.877093  0.979063  0.371551  1
  Sb  Sb16  1  0.337253  0.463117  0.886316  1
  Sb  Sb17  1  0.662747  0.963117  0.613684  1
  Sb  Sb18  1  0.662747  0.536883  0.113684  1
  Sb  Sb19  1  0.337253  0.036883  0.386316  1
  Sb  Sb20  1  0.345194  0.030888  0.888928  1
  Sb  Sb21  1  0.654806  0.530888  0.611072  1
  Sb  Sb22  1  0.654806  0.969112  0.111072  1
  Sb  Sb23  1  0.345194  0.469112  0.388928  1
  Sb  Sb24  1  0.562292  0.250042  0.005525  1
  Sb  Sb25  1  0.437708  0.750042  0.494475  1
  Sb  Sb26  1  0.437708  0.749958  0.994475  1
  Sb  Sb27  1  0.562292  0.249958  0.505525  1
  F  F28  1  0.990742  0.222653  0.778087  1
  F  F29  1  0.009258  0.722653  0.721913  1
  F  F30  1  0.009258  0.777347  0.221913  1
  F  F31  1  0.990742  0.277347  0.278087  1
  F  F32  1  0.715501  0.241601  0.832113  1
  F  F33  1  0.284499  0.741601  0.667887  1
  F  F34  1  0.284499  0.758399  0.167887  1
  F  F35  1  0.715501  0.258399  0.332113  1
  F  F36  1  0.899617  0.084259  0.878298  1
  F  F37  1  0.100383  0.584259  0.621702  1
  F  F38  1  0.100383  0.915741  0.121702  1
  F  F39  1  0.899617  0.415741  0.378298  1
  F  F40  1  0.901252  0.396632  0.823813  1
  F  F41  1  0.098748  0.896632  0.676187  1
  F  F42  1  0.098748  0.603368  0.176187  1
  F  F43  1  0.901252  0.103368  0.323813  1
  F  F44  1  0.197332  0.344781  0.874969  1
  F  F45  1  0.802668  0.844781  0.625031  1
  F  F46  1  0.802668  0.655219  0.125031  1
  F  F47  1  0.197332  0.155219  0.374969  1
  F  F48  1  0.202461  0.147610  0.880339  1
  F  F49  1  0.797539  0.647610  0.619661  1
  F  F50  1  0.797539  0.852390  0.119661  1
  F  F51  1  0.202461  0.352390  0.380339  1
  F  F52  1  0.121401  0.957690  0.857658  1
  F  F53  1  0.878599  0.457690  0.642342  1
  F  F54  1  0.878599  0.042310  0.142342  1
  F  F55  1  0.121401  0.542310  0.357658  1
  F  F56  1  0.109847  0.536303  0.872763  1
  F  F57  1  0.890153  0.036303  0.627237  1
  F  F58  1  0.890153  0.463697  0.127237  1
  F  F59  1  0.109847  0.963697  0.372763  1
  F  F60  1  0.519465  0.344955  0.931689  1
  F  F61  1  0.480535  0.844955  0.568311  1
  F  F62  1  0.480535  0.655045  0.068311  1
  F  F63  1  0.519465  0.155045  0.431689  1
  F  F64  1  0.524370  0.147706  0.936073  1
  F  F65  1  0.475630  0.647706  0.563927  1
  F  F66  1  0.475630  0.852294  0.063927  1
  F  F67  1  0.524370  0.352294  0.436073  1
  F  F68  1  0.662254  0.341100  0.715032  1
  F  F69  1  0.337746  0.841100  0.784968  1
  F  F70  1  0.337746  0.658900  0.284968  1
  F  F71  1  0.662254  0.158900  0.215032  1
  F  F72  1  0.436731  0.332175  0.790128  1
  F  F73  1  0.563269  0.832175  0.709872  1
  F  F74  1  0.563269  0.667825  0.209872  1
  F  F75  1  0.436731  0.167825  0.290128  1
  F  F76  1  0.455845  0.136927  0.793936  1
  F  F77  1  0.544155  0.636927  0.706064  1
  F  F78  1  0.544155  0.863073  0.206064  1
  F  F79  1  0.455845  0.363073  0.293936  1
  F  F80  1  0.676587  0.140287  0.715995  1
  F  F81  1  0.323413  0.640287  0.784005  1
  F  F82  1  0.323413  0.859713  0.284005  1
  F  F83  1  0.676587  0.359713  0.215995  1
  F  F84  1  0.398795  0.229258  0.671086  1
  F  F85  1  0.601205  0.729258  0.828914  1
  F  F86  1  0.601205  0.770742  0.328914  1
  F  F87  1  0.398795  0.270742  0.171086  1
  F  F88  1  0.671463  0.946640  0.862657  1
  F  F89  1  0.328537  0.446640  0.637343  1
  F  F90  1  0.328537  0.053360  0.137343  1
  F  F91  1  0.671463  0.553360  0.362657  1
  F  F92  1  0.856704  0.973988  0.767557  1
  F  F93  1  0.143296  0.473988  0.732443  1
  F  F94  1  0.143296  0.026012  0.232443  1
  F  F95  1  0.856704  0.526012  0.267557  1
  F  F96  1  0.909315  0.809267  0.840470  1
  F  F97  1  0.090685  0.309267  0.659530  1
  F  F98  1  0.090685  0.190733  0.159530  1
  F  F99  1  0.909315  0.690733  0.340470  1
  F  F100  1  0.947381  0.921210  0.952465  1
  F  F101  1  0.052619  0.421210  0.547535  1
  F  F102  1  0.052619  0.078790  0.047535  1
  F  F103  1  0.947381  0.578790  0.452465  1
  F  F104  1  0.657922  0.499101  0.865499  1
  F  F105  1  0.342078  0.999101  0.634501  1
  F  F106  1  0.342078  0.500899  0.134501  1
  F  F107  1  0.657922  0.000899  0.365499  1
  F  F108  1  0.848328  0.580073  0.786803  1
  F  F109  1  0.151672  0.080073  0.713197  1
  F  F110  1  0.151672  0.419927  0.213197  1
  F  F111  1  0.848328  0.919927  0.286803  1
  F  F112  1  0.884966  0.635145  0.922647  1
  F  F113  1  0.115034  0.135145  0.577353  1
  F  F114  1  0.115034  0.364855  0.077353  1
  F  F115  1  0.884966  0.864855  0.422647  1
  F  F116  1  0.926920  0.437257  0.946866  1
  F  F117  1  0.073080  0.937257  0.553134  1
  F  F118  1  0.073080  0.562743  0.053134  1
  F  F119  1  0.926920  0.062743  0.446866  1
  F  F120  1  0.321471  0.466857  0.978904  1
  F  F121  1  0.678529  0.966857  0.521096  1
  F  F122  1  0.678529  0.533143  0.021096  1
  F  F123  1  0.321471  0.033143  0.478904  1
  F  F124  1  0.316976  0.021404  0.979970  1
  F  F125  1  0.683024  0.521403  0.520030  1
  F  F126  1  0.683024  0.978596  0.020030  1
  F  F127  1  0.316976  0.478596  0.479970  1
  F  F128  1  0.604400  0.152666  0.073688  1
  F  F129  1  0.395600  0.652666  0.426312  1
  F  F130  1  0.395600  0.847334  0.926312  1
  F  F131  1  0.604400  0.347334  0.573688  1
  F  F132  1  0.772857  0.249521  0.992061  1
  F  F133  1  0.227143  0.749521  0.507939  1
  F  F134  1  0.227143  0.750479  0.007939  1
  F  F135  1  0.772857  0.250479  0.492061  1
  F  F136  1  0.346828  0.248117  0.009181  1
  F  F137  1  0.653172  0.748117  0.490819  1
  F  F138  1  0.653172  0.751883  0.990819  1
  F  F139  1  0.346828  0.251883  0.509181  1
  F  F140  1  0.601943  0.353034  0.069677  1
  F  F141  1  0.398057  0.853034  0.430323  1
  F  F142  1  0.398057  0.646966  0.930323  1
  F  F143  1  0.601943  0.146966  0.569677  1
