# generated using pymatgen
data_Mg3BN3
_symmetry_space_group_name_H-M   'P 1'
_cell_length_a   3.56454764
_cell_length_b   3.56454764
_cell_length_c   16.16081466
_cell_angle_alpha   90.00000000
_cell_angle_beta   90.00000000
_cell_angle_gamma   120.00000000
_symmetry_Int_Tables_number   1
_chemical_formula_structural   Mg3BN3
_chemical_formula_sum   'Mg6 B2 N6'
_cell_volume   177.82905811
_cell_formula_units_Z   2
loop_
 _symmetry_equiv_pos_site_id
 _symmetry_equiv_pos_as_xyz
  1  'x, y, z'
loop_
 _atom_site_type_symbol
 _atom_site_label
 _atom_site_symmetry_multiplicity
 _atom_site_fract_x
 _atom_site_fract_y
 _atom_site_fract_z
 _atom_site_occupancy
  Mg  Mg0  1  0.333333  0.666667  0.377503  1
  Mg  Mg1  1  0.666667  0.333333  0.877503  1
  Mg  Mg2  1  0.666667  0.333333  0.622497  1
  Mg  Mg3  1  0.333333  0.666667  0.122497  1
  Mg  Mg4  1  0.000000  0.000000  0.750000  1
  Mg  Mg5  1  0.000000  0.000000  0.250000  1
  B  B6  1  0.000000  0.000000  0.500000  1
  B  B7  1  0.000000  0.000000  0.000000  1
  N  N8  1  0.000000  0.000000  0.416631  1
  N  N9  1  0.000000  0.000000  0.916631  1
  N  N10  1  0.000000  0.000000  0.583369  1
  N  N11  1  0.000000  0.000000  0.083369  1
  N  N12  1  0.333333  0.666667  0.250000  1
  N  N13  1  0.666667  0.333333  0.750000  1
