# generated using pymatgen
data_KSn2Br5
_symmetry_space_group_name_H-M   'P 1'
_cell_length_a   9.62016662
_cell_length_b   9.62016662
_cell_length_c   9.62016662
_cell_angle_alpha   127.70748952
_cell_angle_beta   127.70748952
_cell_angle_gamma   77.09936481
_symmetry_Int_Tables_number   1
_chemical_formula_structural   KSn2Br5
_chemical_formula_sum   'K2 Sn4 Br10'
_cell_volume   540.83836442
_cell_formula_units_Z   2
loop_
 _symmetry_equiv_pos_site_id
 _symmetry_equiv_pos_as_xyz
  1  'x, y, z'
loop_
 _atom_site_type_symbol
 _atom_site_label
 _atom_site_symmetry_multiplicity
 _atom_site_fract_x
 _atom_site_fract_y
 _atom_site_fract_z
 _atom_site_occupancy
  K  K0  1  0.250000  0.250000  0.000000  1
  K  K1  1  0.750000  0.750000  0.000000  1
  Sn  Sn2  1  0.677023  0.177023  0.854046  1
  Sn  Sn3  1  0.322977  0.822977  0.145954  1
  Sn  Sn4  1  0.822977  0.677023  0.500000  1
  Sn  Sn5  1  0.177023  0.322977  0.500000  1
  Br  Br6  1  0.296434  0.796434  0.825259  1
  Br  Br7  1  0.703566  0.203566  0.174741  1
  Br  Br8  1  0.971175  0.471175  0.174741  1
  Br  Br9  1  0.028825  0.528825  0.825259  1
  Br  Br10  1  0.000000  0.000000  0.000000  1
  Br  Br11  1  0.500000  0.500000  0.000000  1
  Br  Br12  1  0.528825  0.703566  0.500000  1
  Br  Br13  1  0.471175  0.296434  0.500000  1
  Br  Br14  1  0.203566  0.028825  0.500000  1
  Br  Br15  1  0.796434  0.971175  0.500000  1
