# generated using pymatgen
data_Rb4CdBr6
_symmetry_space_group_name_H-M   'P 1'
_cell_length_a   9.48221212
_cell_length_b   9.48221212
_cell_length_c   9.48221212
_cell_angle_alpha   89.35993473
_cell_angle_beta   89.35993473
_cell_angle_gamma   89.35993473
_symmetry_Int_Tables_number   1
_chemical_formula_structural   Rb4CdBr6
_chemical_formula_sum   'Rb8 Cd2 Br12'
_cell_volume   852.40952701
_cell_formula_units_Z   2
loop_
 _symmetry_equiv_pos_site_id
 _symmetry_equiv_pos_as_xyz
  1  'x, y, z'
loop_
 _atom_site_type_symbol
 _atom_site_label
 _atom_site_symmetry_multiplicity
 _atom_site_fract_x
 _atom_site_fract_y
 _atom_site_fract_z
 _atom_site_occupancy
  Rb  Rb0  1  0.867560  0.632440  0.250000  1
  Rb  Rb1  1  0.632440  0.250000  0.867560  1
  Rb  Rb2  1  0.250000  0.867560  0.632440  1
  Rb  Rb3  1  0.132440  0.367560  0.750000  1
  Rb  Rb4  1  0.367560  0.750000  0.132440  1
  Rb  Rb5  1  0.750000  0.132440  0.367560  1
  Rb  Rb6  1  0.250000  0.250000  0.250000  1
  Rb  Rb7  1  0.750000  0.750000  0.750000  1
  Cd  Cd8  1  0.500000  0.500000  0.500000  1
  Cd  Cd9  1  0.000000  0.000000  0.000000  1
  Br  Br10  1  0.442264  0.567429  0.787554  1
  Br  Br11  1  0.567429  0.787554  0.442264  1
  Br  Br12  1  0.787554  0.442264  0.567429  1
  Br  Br13  1  0.932571  0.057736  0.712446  1
  Br  Br14  1  0.057736  0.712446  0.932571  1
  Br  Br15  1  0.712446  0.932571  0.057736  1
  Br  Br16  1  0.557736  0.432571  0.212446  1
  Br  Br17  1  0.432571  0.212446  0.557736  1
  Br  Br18  1  0.212446  0.557736  0.432571  1
  Br  Br19  1  0.067429  0.942264  0.287554  1
  Br  Br20  1  0.287554  0.067429  0.942264  1
  Br  Br21  1  0.942264  0.287554  0.067429  1
