# generated using pymatgen
data_NaZn2P2HO8
_symmetry_space_group_name_H-M   'P 1'
_cell_length_a   5.18248673
_cell_length_b   8.73823318
_cell_length_c   8.97027667
_cell_angle_alpha   96.98878667
_cell_angle_beta   100.24835672
_cell_angle_gamma   106.33672002
_symmetry_Int_Tables_number   1
_chemical_formula_structural   NaZn2P2HO8
_chemical_formula_sum   'Na2 Zn4 P4 H2 O16'
_cell_volume   377.20952455
_cell_formula_units_Z   2
loop_
 _symmetry_equiv_pos_site_id
 _symmetry_equiv_pos_as_xyz
  1  'x, y, z'
loop_
 _atom_site_type_symbol
 _atom_site_label
 _atom_site_symmetry_multiplicity
 _atom_site_fract_x
 _atom_site_fract_y
 _atom_site_fract_z
 _atom_site_occupancy
  Na  Na0  1  0.407652  0.186612  0.688374  1
  Na  Na1  1  0.592348  0.813388  0.311626  1
  Zn  Zn2  1  0.777653  0.886767  0.742361  1
  Zn  Zn3  1  0.222347  0.113233  0.257639  1
  Zn  Zn4  1  0.323942  0.617598  0.892364  1
  Zn  Zn5  1  0.676058  0.382402  0.107636  1
  P  P6  1  0.907262  0.749218  0.060396  1
  P  P7  1  0.842178  0.245807  0.416863  1
  P  P8  1  0.092738  0.250782  0.939604  1
  P  P9  1  0.157822  0.754193  0.583137  1
  H  H10  1  0.921994  0.430853  0.621438  1
  H  H11  1  0.078006  0.569147  0.378562  1
  O  O12  1  0.189301  0.728913  0.049144  1
  O  O13  1  0.810699  0.271087  0.950856  1
  O  O14  1  0.725546  0.614624  0.129111  1
  O  O15  1  0.274454  0.385376  0.870889  1
  O  O16  1  0.940237  0.910685  0.163539  1
  O  O17  1  0.059763  0.089315  0.836461  1
  O  O18  1  0.412329  0.903038  0.654236  1
  O  O19  1  0.587671  0.096962  0.345764  1
  O  O20  1  0.866937  0.383322  0.321006  1
  O  O21  1  0.133063  0.616678  0.678994  1
  O  O22  1  0.797939  0.315335  0.580483  1
  O  O23  1  0.202061  0.684665  0.419517  1
  O  O24  1  0.107330  0.196606  0.443115  1
  O  O25  1  0.892670  0.803394  0.556885  1
  O  O26  1  0.275426  0.261503  0.105315  1
  O  O27  1  0.724574  0.738497  0.894685  1
