# generated using pymatgen
data_MgPb2WO6
_symmetry_space_group_name_H-M   'P 1'
_cell_length_a   5.80099826
_cell_length_b   8.05258547
_cell_length_c   11.60754685
_cell_angle_alpha   90.00000000
_cell_angle_beta   90.00000000
_cell_angle_gamma   90.00000000
_symmetry_Int_Tables_number   1
_chemical_formula_structural   MgPb2WO6
_chemical_formula_sum   'Mg4 Pb8 W4 O24'
_cell_volume   542.22373414
_cell_formula_units_Z   4
loop_
 _symmetry_equiv_pos_site_id
 _symmetry_equiv_pos_as_xyz
  1  'x, y, z'
loop_
 _atom_site_type_symbol
 _atom_site_label
 _atom_site_symmetry_multiplicity
 _atom_site_fract_x
 _atom_site_fract_y
 _atom_site_fract_z
 _atom_site_occupancy
  Mg  Mg0  1  0.244330  0.750000  0.379722  1
  Mg  Mg1  1  0.744330  0.250000  0.120278  1
  Mg  Mg2  1  0.755670  0.250000  0.620278  1
  Mg  Mg3  1  0.255670  0.750000  0.879722  1
  Pb  Pb4  1  0.708735  0.494701  0.354669  1
  Pb  Pb5  1  0.208735  0.505299  0.145331  1
  Pb  Pb6  1  0.291265  0.994701  0.645331  1
  Pb  Pb7  1  0.791265  0.005299  0.854669  1
  Pb  Pb8  1  0.291265  0.505299  0.645331  1
  Pb  Pb9  1  0.791265  0.494701  0.854669  1
  Pb  Pb10  1  0.708735  0.005299  0.354669  1
  Pb  Pb11  1  0.208735  0.994701  0.145331  1
  W  W12  1  0.746010  0.750000  0.116607  1
  W  W13  1  0.246010  0.250000  0.383393  1
  W  W14  1  0.253990  0.250000  0.883393  1
  W  W15  1  0.753990  0.750000  0.616607  1
  O  O16  1  0.962642  0.750000  0.751460  1
  O  O17  1  0.462642  0.250000  0.748540  1
  O  O18  1  0.037358  0.250000  0.248540  1
  O  O19  1  0.537358  0.750000  0.251460  1
  O  O20  1  0.477400  0.750000  0.735503  1
  O  O21  1  0.977400  0.250000  0.764497  1
  O  O22  1  0.522600  0.250000  0.264497  1
  O  O23  1  0.022600  0.750000  0.235503  1
  O  O24  1  0.995392  0.750000  0.510262  1
  O  O25  1  0.495392  0.250000  0.989738  1
  O  O26  1  0.004608  0.250000  0.489738  1
  O  O27  1  0.504608  0.750000  0.010262  1
  O  O28  1  0.514990  0.750000  0.501323  1
  O  O29  1  0.014990  0.250000  0.998677  1
  O  O30  1  0.485010  0.250000  0.498677  1
  O  O31  1  0.985010  0.750000  0.001323  1
  O  O32  1  0.770867  0.508343  0.133893  1
  O  O33  1  0.270867  0.491657  0.366107  1
  O  O34  1  0.229133  0.008343  0.866107  1
  O  O35  1  0.729133  0.991657  0.633893  1
  O  O36  1  0.229133  0.491657  0.866107  1
  O  O37  1  0.729133  0.508343  0.633893  1
  O  O38  1  0.770867  0.991657  0.133893  1
  O  O39  1  0.270867  0.008343  0.366107  1
