# generated using pymatgen
data_CaH12(ClO3)2
_symmetry_space_group_name_H-M   'P 1'
_cell_length_a   7.88405480
_cell_length_b   7.88405480
_cell_length_c   4.03027960
_cell_angle_alpha   90.00000000
_cell_angle_beta   90.00000000
_cell_angle_gamma   120.00000000
_symmetry_Int_Tables_number   1
_chemical_formula_structural   CaH12(ClO3)2
_chemical_formula_sum   'Ca1 H12 Cl2 O6'
_cell_volume   216.95270856
_cell_formula_units_Z   1
loop_
 _symmetry_equiv_pos_site_id
 _symmetry_equiv_pos_as_xyz
  1  'x, y, z'
loop_
 _atom_site_type_symbol
 _atom_site_label
 _atom_site_symmetry_multiplicity
 _atom_site_fract_x
 _atom_site_fract_y
 _atom_site_fract_z
 _atom_site_occupancy
  Ca  Ca0  1  0.000000  0.000000  0.000000  1
  H  H1  1  0.113832  0.765684  0.519378  1
  H  H2  1  0.234316  0.348149  0.519378  1
  H  H3  1  0.651851  0.886168  0.519378  1
  H  H4  1  0.348149  0.234316  0.480622  1
  H  H5  1  0.886168  0.651851  0.480622  1
  H  H6  1  0.765684  0.113832  0.480622  1
  H  H7  1  0.100136  0.436148  0.099618  1
  H  H8  1  0.563852  0.663988  0.099618  1
  H  H9  1  0.336012  0.899864  0.099618  1
  H  H10  1  0.436148  0.100136  0.900382  1
  H  H11  1  0.899864  0.336012  0.900382  1
  H  H12  1  0.663988  0.563852  0.900382  1
  Cl  Cl13  1  0.666667  0.333333  0.600608  1
  Cl  Cl14  1  0.333333  0.666667  0.399392  1
  O  O15  1  0.214698  0.214698  0.500000  1
  O  O16  1  0.000000  0.785302  0.500000  1
  O  O17  1  0.785302  0.000000  0.500000  1
  O  O18  1  0.688507  0.688507  0.000000  1
  O  O19  1  0.000000  0.311493  0.000000  1
  O  O20  1  0.311493  0.000000  0.000000  1
