# generated using pymatgen
data_TlSb3S5
_symmetry_space_group_name_H-M   'P 1'
_cell_length_a   7.47970152
_cell_length_b   15.95388864
_cell_length_c   9.19703394
_cell_angle_alpha   90.00000000
_cell_angle_beta   114.36142664
_cell_angle_gamma   90.00000000
_symmetry_Int_Tables_number   1
_chemical_formula_structural   TlSb3S5
_chemical_formula_sum   'Tl4 Sb12 S20'
_cell_volume   999.76670320
_cell_formula_units_Z   4
loop_
 _symmetry_equiv_pos_site_id
 _symmetry_equiv_pos_as_xyz
  1  'x, y, z'
loop_
 _atom_site_type_symbol
 _atom_site_label
 _atom_site_symmetry_multiplicity
 _atom_site_fract_x
 _atom_site_fract_y
 _atom_site_fract_z
 _atom_site_occupancy
  Tl  Tl0  1  0.526725  0.736017  0.037521  1
  Tl  Tl1  1  0.473275  0.236017  0.462479  1
  Tl  Tl2  1  0.473275  0.263983  0.962479  1
  Tl  Tl3  1  0.526725  0.763983  0.537521  1
  Sb  Sb4  1  0.996759  0.869187  0.436555  1
  Sb  Sb5  1  0.003241  0.369187  0.063445  1
  Sb  Sb6  1  0.003241  0.130813  0.563445  1
  Sb  Sb7  1  0.996759  0.630813  0.936555  1
  Sb  Sb8  1  0.493130  0.503352  0.286786  1
  Sb  Sb9  1  0.506870  0.003352  0.213214  1
  Sb  Sb10  1  0.506870  0.496648  0.713214  1
  Sb  Sb11  1  0.493130  0.996648  0.786786  1
  Sb  Sb12  1  0.033462  0.596325  0.387722  1
  Sb  Sb13  1  0.966538  0.096325  0.112278  1
  Sb  Sb14  1  0.966538  0.403675  0.612278  1
  Sb  Sb15  1  0.033462  0.903675  0.887722  1
  S  S16  1  0.828085  0.728342  0.388689  1
  S  S17  1  0.171915  0.228342  0.111311  1
  S  S18  1  0.171915  0.271658  0.611311  1
  S  S19  1  0.828085  0.771658  0.888689  1
  S  S20  1  0.288951  0.873384  0.159157  1
  S  S21  1  0.711049  0.373384  0.340843  1
  S  S22  1  0.711049  0.126616  0.840843  1
  S  S23  1  0.288951  0.626616  0.659157  1
  S  S24  1  0.750422  0.556171  0.000091  1
  S  S25  1  0.249578  0.056171  0.499909  1
  S  S26  1  0.249578  0.443829  0.999909  1
  S  S27  1  0.750422  0.943829  0.500091  1
  S  S28  1  0.725178  0.940614  0.103196  1
  S  S29  1  0.274822  0.440614  0.396804  1
  S  S30  1  0.274822  0.059386  0.896804  1
  S  S31  1  0.725178  0.559386  0.603196  1
  S  S32  1  0.209529  0.841141  0.736826  1
  S  S33  1  0.790471  0.341141  0.763174  1
  S  S34  1  0.790471  0.158859  0.263174  1
  S  S35  1  0.209529  0.658859  0.236826  1
