# generated using pymatgen
data_In2(PS3)3
_symmetry_space_group_name_H-M   'P 1'
_cell_length_a   7.41102051
_cell_length_b   10.68509846
_cell_length_c   18.55166094
_cell_angle_alpha   90.00000000
_cell_angle_beta   106.15206357
_cell_angle_gamma   90.00000000
_symmetry_Int_Tables_number   1
_chemical_formula_structural   In2(PS3)3
_chemical_formula_sum   'In8 P12 S36'
_cell_volume   1411.07082906
_cell_formula_units_Z   4
loop_
 _symmetry_equiv_pos_site_id
 _symmetry_equiv_pos_as_xyz
  1  'x, y, z'
loop_
 _atom_site_type_symbol
 _atom_site_label
 _atom_site_symmetry_multiplicity
 _atom_site_fract_x
 _atom_site_fract_y
 _atom_site_fract_z
 _atom_site_occupancy
  In  In0  1  0.998753  0.851641  0.175929  1
  In  In1  1  0.001247  0.351641  0.324071  1
  In  In2  1  0.001247  0.148359  0.824071  1
  In  In3  1  0.998753  0.648359  0.675929  1
  In  In4  1  0.998309  0.821002  0.489749  1
  In  In5  1  0.001691  0.321002  0.010251  1
  In  In6  1  0.001691  0.178998  0.510251  1
  In  In7  1  0.998309  0.678998  0.989749  1
  P  P8  1  0.842333  0.996220  0.985898  1
  P  P9  1  0.843350  0.508513  0.147573  1
  P  P10  1  0.156650  0.008513  0.352427  1
  P  P11  1  0.156650  0.491487  0.852427  1
  P  P12  1  0.843350  0.991487  0.647573  1
  P  P13  1  0.841257  0.013532  0.316059  1
  P  P14  1  0.158743  0.513532  0.183941  1
  P  P15  1  0.158743  0.986468  0.683941  1
  P  P16  1  0.841257  0.486468  0.816059  1
  P  P17  1  0.157667  0.496220  0.514102  1
  P  P18  1  0.157667  0.003780  0.014102  1
  P  P19  1  0.842333  0.503780  0.485898  1
  S  S20  1  0.771977  0.673201  0.087139  1
  S  S21  1  0.233610  0.655807  0.578778  1
  S  S22  1  0.766390  0.155807  0.921222  1
  S  S23  1  0.766390  0.344193  0.421222  1
  S  S24  1  0.233610  0.844193  0.078778  1
  S  S25  1  0.771977  0.826799  0.587139  1
  S  S26  1  0.228023  0.326799  0.912861  1
  S  S27  1  0.228023  0.173201  0.412861  1
  S  S28  1  0.769798  0.490770  0.582628  1
  S  S29  1  0.230202  0.990770  0.917372  1
  S  S30  1  0.230202  0.509230  0.417372  1
  S  S31  1  0.769798  0.009230  0.082628  1
  S  S32  1  0.758180  0.845284  0.918627  1
  S  S33  1  0.241820  0.345284  0.581373  1
  S  S34  1  0.241820  0.154716  0.081373  1
  S  S35  1  0.758180  0.654716  0.418627  1
  S  S36  1  0.240610  0.649277  0.912927  1
  S  S37  1  0.759390  0.149277  0.587073  1
  S  S38  1  0.759390  0.350723  0.087073  1
  S  S39  1  0.240610  0.850723  0.412927  1
  S  S40  1  0.761057  0.985104  0.742510  1
  S  S41  1  0.238943  0.485104  0.757490  1
  S  S42  1  0.238943  0.014896  0.257490  1
  S  S43  1  0.761057  0.514896  0.242510  1
  S  S44  1  0.241421  0.825855  0.740603  1
  S  S45  1  0.758579  0.325855  0.759397  1
  S  S46  1  0.758579  0.174145  0.259397  1
  S  S47  1  0.241421  0.674145  0.240603  1
  S  S48  1  0.755933  0.644253  0.756459  1
  S  S49  1  0.244067  0.144253  0.743541  1
  S  S50  1  0.244067  0.355747  0.243541  1
  S  S51  1  0.755933  0.855747  0.256459  1
  S  S52  1  0.771254  0.495429  0.917365  1
  S  S53  1  0.228746  0.995429  0.582635  1
  S  S54  1  0.228746  0.504571  0.082635  1
  S  S55  1  0.771254  0.004571  0.417365  1
