# generated using pymatgen
data_FeH8(BrO2)2
_symmetry_space_group_name_H-M   'P 1'
_cell_length_a   6.13903324
_cell_length_b   7.65288124
_cell_length_c   8.79389509
_cell_angle_alpha   90.00000000
_cell_angle_beta   111.21904597
_cell_angle_gamma   90.00000000
_symmetry_Int_Tables_number   1
_chemical_formula_structural   FeH8(BrO2)2
_chemical_formula_sum   'Fe2 H16 Br4 O8'
_cell_volume   385.13854620
_cell_formula_units_Z   2
loop_
 _symmetry_equiv_pos_site_id
 _symmetry_equiv_pos_as_xyz
  1  'x, y, z'
loop_
 _atom_site_type_symbol
 _atom_site_label
 _atom_site_symmetry_multiplicity
 _atom_site_fract_x
 _atom_site_fract_y
 _atom_site_fract_z
 _atom_site_occupancy
  Fe  Fe0  1  0.000000  0.000000  0.000000  1
  Fe  Fe1  1  0.000000  0.500000  0.500000  1
  H  H2  1  0.632942  0.705903  0.504700  1
  H  H3  1  0.367058  0.205903  0.995300  1
  H  H4  1  0.367058  0.294097  0.495300  1
  H  H5  1  0.632942  0.794097  0.004700  1
  H  H6  1  0.622639  0.700687  0.324521  1
  H  H7  1  0.377361  0.200687  0.175479  1
  H  H8  1  0.377361  0.299313  0.675479  1
  H  H9  1  0.622639  0.799313  0.824521  1
  H  H10  1  0.108730  0.567959  0.836658  1
  H  H11  1  0.891270  0.067959  0.663342  1
  H  H12  1  0.891270  0.432041  0.163342  1
  H  H13  1  0.108730  0.932041  0.336658  1
  H  H14  1  0.908915  0.425507  0.787655  1
  H  H15  1  0.091085  0.925507  0.712345  1
  H  H16  1  0.908915  0.074493  0.287655  1
  H  H17  1  0.091085  0.574493  0.212345  1
  Br  Br18  1  0.688498  0.229637  0.421096  1
  Br  Br19  1  0.311502  0.729637  0.078904  1
  Br  Br20  1  0.688498  0.270363  0.921096  1
  Br  Br21  1  0.311502  0.770363  0.578904  1
  O  O22  1  0.731897  0.689871  0.438705  1
  O  O23  1  0.268103  0.189871  0.061295  1
  O  O24  1  0.268103  0.310129  0.561295  1
  O  O25  1  0.731897  0.810129  0.938705  1
  O  O26  1  0.009297  0.495320  0.745143  1
  O  O27  1  0.990703  0.995320  0.754857  1
  O  O28  1  0.990703  0.504680  0.254857  1
  O  O29  1  0.009297  0.004680  0.245143  1
