# generated using pymatgen
data_Pb3O4
_symmetry_space_group_name_H-M   'P 1'
_cell_length_a   6.78126610
_cell_length_b   8.72224335
_cell_length_c   9.32949446
_cell_angle_alpha   90.00000000
_cell_angle_beta   90.00000000
_cell_angle_gamma   90.00000000
_symmetry_Int_Tables_number   1
_chemical_formula_structural   Pb3O4
_chemical_formula_sum   'Pb12 O16'
_cell_volume   551.81956824
_cell_formula_units_Z   4
loop_
 _symmetry_equiv_pos_site_id
 _symmetry_equiv_pos_as_xyz
  1  'x, y, z'
loop_
 _atom_site_type_symbol
 _atom_site_label
 _atom_site_symmetry_multiplicity
 _atom_site_fract_x
 _atom_site_fract_y
 _atom_site_fract_z
 _atom_site_occupancy
  Pb  Pb0  1  0.500000  0.367383  0.325353  1
  Pb  Pb1  1  0.500000  0.632617  0.674647  1
  Pb  Pb2  1  0.500000  0.867383  0.174647  1
  Pb  Pb3  1  0.500000  0.132617  0.825353  1
  Pb  Pb4  1  0.000000  0.658362  0.343224  1
  Pb  Pb5  1  0.000000  0.341638  0.656776  1
  Pb  Pb6  1  0.000000  0.158362  0.156776  1
  Pb  Pb7  1  0.000000  0.841638  0.843224  1
  Pb  Pb8  1  0.750757  0.000000  0.500000  1
  Pb  Pb9  1  0.249243  0.500000  0.000000  1
  Pb  Pb10  1  0.249243  0.000000  0.500000  1
  Pb  Pb11  1  0.750757  0.500000  0.000000  1
  O  O12  1  0.500000  0.097949  0.371286  1
  O  O13  1  0.500000  0.902051  0.628714  1
  O  O14  1  0.500000  0.597949  0.128714  1
  O  O15  1  0.500000  0.402051  0.871286  1
  O  O16  1  0.000000  0.139357  0.409060  1
  O  O17  1  0.000000  0.860643  0.590939  1
  O  O18  1  0.000000  0.639357  0.090940  1
  O  O19  1  0.000000  0.360643  0.909061  1
  O  O20  1  0.750826  0.328702  0.170892  1
  O  O21  1  0.750826  0.671298  0.829108  1
  O  O22  1  0.249174  0.828702  0.329108  1
  O  O23  1  0.249174  0.171298  0.670892  1
  O  O24  1  0.750826  0.828702  0.329108  1
  O  O25  1  0.750826  0.171298  0.670892  1
  O  O26  1  0.249174  0.328702  0.170892  1
  O  O27  1  0.249174  0.671298  0.829108  1
