# generated using pymatgen
data_SICl7
_symmetry_space_group_name_H-M   'P 1'
_cell_length_a   8.87678993
_cell_length_b   13.04998808
_cell_length_c   10.58883476
_cell_angle_alpha   90.00000000
_cell_angle_beta   108.02627179
_cell_angle_gamma   90.00000000
_symmetry_Int_Tables_number   1
_chemical_formula_structural   SICl7
_chemical_formula_sum   'S4 I4 Cl28'
_cell_volume   1166.42226343
_cell_formula_units_Z   4
loop_
 _symmetry_equiv_pos_site_id
 _symmetry_equiv_pos_as_xyz
  1  'x, y, z'
loop_
 _atom_site_type_symbol
 _atom_site_label
 _atom_site_symmetry_multiplicity
 _atom_site_fract_x
 _atom_site_fract_y
 _atom_site_fract_z
 _atom_site_occupancy
  S  S0  1  0.763497  0.919442  0.865758  1
  S  S1  1  0.263497  0.580558  0.865758  1
  S  S2  1  0.236503  0.080558  0.134242  1
  S  S3  1  0.736503  0.419442  0.134242  1
  I  I4  1  0.345964  0.602092  0.267729  1
  I  I5  1  0.154036  0.102092  0.732271  1
  I  I6  1  0.654036  0.397908  0.732271  1
  I  I7  1  0.845964  0.897908  0.267729  1
  Cl  Cl8  1  0.413613  0.720822  0.097661  1
  Cl  Cl9  1  0.913613  0.779178  0.097661  1
  Cl  Cl10  1  0.586387  0.279178  0.902339  1
  Cl  Cl11  1  0.086387  0.220822  0.902339  1
  Cl  Cl12  1  0.555499  0.894396  0.902151  1
  Cl  Cl13  1  0.944501  0.394396  0.097849  1
  Cl  Cl14  1  0.444501  0.105604  0.097849  1
  Cl  Cl15  1  0.055499  0.605604  0.902151  1
  Cl  Cl16  1  0.750976  0.811038  0.725326  1
  Cl  Cl17  1  0.749024  0.311038  0.274674  1
  Cl  Cl18  1  0.249024  0.188962  0.274674  1
  Cl  Cl19  1  0.250976  0.688962  0.725326  1
  Cl  Cl20  1  0.712417  0.048508  0.753463  1
  Cl  Cl21  1  0.787583  0.548508  0.246537  1
  Cl  Cl22  1  0.287583  0.951492  0.246537  1
  Cl  Cl23  1  0.212417  0.451492  0.753463  1
  Cl  Cl24  1  0.864955  0.048693  0.110752  1
  Cl  Cl25  1  0.635045  0.548693  0.889248  1
  Cl  Cl26  1  0.135045  0.951307  0.889248  1
  Cl  Cl27  1  0.364955  0.451307  0.110752  1
  Cl  Cl28  1  0.834453  0.749999  0.412208  1
  Cl  Cl29  1  0.665547  0.249999  0.587792  1
  Cl  Cl30  1  0.165547  0.250001  0.587792  1
  Cl  Cl31  1  0.334453  0.750001  0.412208  1
  Cl  Cl32  1  0.772169  0.021518  0.415784  1
  Cl  Cl33  1  0.727831  0.521518  0.584216  1
  Cl  Cl34  1  0.227831  0.978482  0.584216  1
  Cl  Cl35  1  0.272169  0.478482  0.415784  1
