# generated using pymatgen
data_Si2H6Se
_symmetry_space_group_name_H-M   'P 1'
_cell_length_a   9.00699400
_cell_length_b   9.00699400
_cell_length_c   15.88946700
_cell_angle_alpha   90.00000000
_cell_angle_beta   90.00000000
_cell_angle_gamma   90.00000000
_symmetry_Int_Tables_number   1
_chemical_formula_structural   Si2H6Se
_chemical_formula_sum   'Si16 H48 Se8'
_cell_volume   1289.04796103
_cell_formula_units_Z   8
loop_
 _symmetry_equiv_pos_site_id
 _symmetry_equiv_pos_as_xyz
  1  'x, y, z'
loop_
 _atom_site_type_symbol
 _atom_site_label
 _atom_site_symmetry_multiplicity
 _atom_site_fract_x
 _atom_site_fract_y
 _atom_site_fract_z
 _atom_site_occupancy
  Si  Si0  1  0.263004  0.115751  0.350627  1
  Si  Si1  1  0.736996  0.884249  0.850627  1
  Si  Si2  1  0.115751  0.263004  0.649373  1
  Si  Si3  1  0.615751  0.236996  0.600627  1
  Si  Si4  1  0.384249  0.763004  0.100627  1
  Si  Si5  1  0.236996  0.615751  0.399373  1
  Si  Si6  1  0.763004  0.384249  0.899373  1
  Si  Si7  1  0.884249  0.736996  0.149373  1
  Si  Si8  1  0.671895  0.221014  0.085041  1
  Si  Si9  1  0.328105  0.778986  0.585041  1
  Si  Si10  1  0.221014  0.671895  0.914959  1
  Si  Si11  1  0.778986  0.328105  0.414959  1
  Si  Si12  1  0.721014  0.828105  0.335041  1
  Si  Si13  1  0.278986  0.171895  0.835041  1
  Si  Si14  1  0.828105  0.721014  0.664959  1
  Si  Si15  1  0.171895  0.278986  0.164959  1
  H  H16  1  0.350037  0.126708  0.429997  1
  H  H17  1  0.649963  0.873292  0.929997  1
  H  H18  1  0.126708  0.350037  0.570003  1
  H  H19  1  0.626708  0.149963  0.679997  1
  H  H20  1  0.373292  0.850037  0.179997  1
  H  H21  1  0.149963  0.626708  0.320003  1
  H  H22  1  0.850037  0.373292  0.820003  1
  H  H23  1  0.873292  0.649963  0.070003  1
  H  H24  1  0.102897  0.147205  0.366508  1
  H  H25  1  0.897103  0.852795  0.866508  1
  H  H26  1  0.147205  0.102897  0.633492  1
  H  H27  1  0.647205  0.397103  0.616508  1
  H  H28  1  0.352795  0.602897  0.116508  1
  H  H29  1  0.397103  0.647205  0.383492  1
  H  H30  1  0.602897  0.352795  0.883492  1
  H  H31  1  0.852795  0.897103  0.133492  1
  H  H32  1  0.279516  0.966497  0.311436  1
  H  H33  1  0.233190  0.339072  0.084921  1
  H  H34  1  0.720484  0.033503  0.811436  1
  H  H35  1  0.466497  0.220484  0.561436  1
  H  H36  1  0.533503  0.779516  0.061436  1
  H  H37  1  0.220484  0.466497  0.438564  1
  H  H38  1  0.779516  0.533503  0.938564  1
  H  H39  1  0.033503  0.720484  0.188564  1
  H  H40  1  0.879258  0.873372  0.345480  1
  H  H41  1  0.626628  0.379258  0.095480  1
  H  H42  1  0.373372  0.620742  0.595480  1
  H  H43  1  0.379258  0.626628  0.904520  1
  H  H44  1  0.620742  0.373372  0.404520  1
  H  H45  1  0.120742  0.126628  0.845480  1
  H  H46  1  0.873372  0.879258  0.654520  1
  H  H47  1  0.126628  0.120742  0.154520  1
  H  H48  1  0.631363  0.958496  0.307348  1
  H  H49  1  0.541504  0.131363  0.057348  1
  H  H50  1  0.458496  0.868637  0.557348  1
  H  H51  1  0.131363  0.541504  0.942652  1
  H  H52  1  0.868637  0.458496  0.442652  1
  H  H53  1  0.368637  0.041504  0.807348  1
  H  H54  1  0.958496  0.631363  0.692652  1
  H  H55  1  0.041504  0.368637  0.192652  1
  H  H56  1  0.660928  0.766810  0.415079  1
  H  H57  1  0.733190  0.160928  0.165079  1
  H  H58  1  0.266810  0.839072  0.665079  1
  H  H59  1  0.160928  0.733190  0.834921  1
  H  H60  1  0.839072  0.266810  0.334921  1
  H  H61  1  0.339072  0.233190  0.915079  1
  H  H62  1  0.766810  0.660928  0.584921  1
  H  H63  1  0.966497  0.279516  0.688564  1
  Se  Se64  1  0.705492  0.638799  0.237744  1
  Se  Se65  1  0.861201  0.205492  0.987744  1
  Se  Se66  1  0.138799  0.794508  0.487744  1
  Se  Se67  1  0.794508  0.138799  0.512256  1
  Se  Se68  1  0.294508  0.361201  0.737744  1
  Se  Se69  1  0.638799  0.705492  0.762256  1
  Se  Se70  1  0.361201  0.294508  0.262256  1
  Se  Se71  1  0.205492  0.861201  0.012256  1
