# generated using pymatgen
data_CaAsH5O6
_symmetry_space_group_name_H-M   'P 1'
_cell_length_a   8.41560614
_cell_length_b   8.41560614
_cell_length_c   6.06829006
_cell_angle_alpha   78.15425536
_cell_angle_beta   101.84574464
_cell_angle_gamma   46.97166436
_symmetry_Int_Tables_number   1
_chemical_formula_structural   CaAsH5O6
_chemical_formula_sum   'Ca2 As2 H10 O12'
_cell_volume   269.28487805
_cell_formula_units_Z   2
loop_
 _symmetry_equiv_pos_site_id
 _symmetry_equiv_pos_as_xyz
  1  'x, y, z'
loop_
 _atom_site_type_symbol
 _atom_site_label
 _atom_site_symmetry_multiplicity
 _atom_site_fract_x
 _atom_site_fract_y
 _atom_site_fract_z
 _atom_site_occupancy
  Ca  Ca0  1  0.180626  0.164187  0.746997  1
  Ca  Ca1  1  0.835813  0.819374  0.246997  1
  As  As2  1  0.663124  0.687964  0.730546  1
  As  As3  1  0.312036  0.336876  0.230546  1
  H  H4  1  0.964769  0.369567  0.148359  1
  H  H5  1  0.630433  0.035231  0.648359  1
  H  H6  1  0.265236  0.755278  0.095809  1
  H  H7  1  0.244722  0.734764  0.595809  1
  H  H8  1  0.328939  0.842755  0.266890  1
  H  H9  1  0.157245  0.671061  0.766890  1
  H  H10  1  0.765362  0.214437  0.517211  1
  H  H11  1  0.785563  0.234638  0.017211  1
  H  H12  1  0.678109  0.455764  0.358833  1
  H  H13  1  0.544236  0.321891  0.858833  1
  O  O14  1  0.821262  0.286202  0.503945  1
  O  O15  1  0.178083  0.672595  0.610351  1
  O  O16  1  0.327405  0.821917  0.110351  1
  O  O17  1  0.713798  0.178738  0.003945  1
  O  O18  1  0.860475  0.390307  0.996676  1
  O  O19  1  0.609693  0.139525  0.496676  1
  O  O20  1  0.823579  0.619500  0.565765  1
  O  O21  1  0.380500  0.176421  0.065765  1
  O  O22  1  0.374475  0.827073  0.571747  1
  O  O23  1  0.172927  0.625525  0.071747  1
  O  O24  1  0.625854  0.875266  0.848471  1
  O  O25  1  0.124734  0.374146  0.348471  1
