# generated using pymatgen
data_ErSeF
_symmetry_space_group_name_H-M   'P 1'
_cell_length_a   4.07901188
_cell_length_b   9.95609934
_cell_length_c   18.87984010
_cell_angle_alpha   90.00000000
_cell_angle_beta   90.00000000
_cell_angle_gamma   90.00000000
_symmetry_Int_Tables_number   1
_chemical_formula_structural   ErSeF
_chemical_formula_sum   'Er12 Se12 F12'
_cell_volume   766.73008284
_cell_formula_units_Z   12
loop_
 _symmetry_equiv_pos_site_id
 _symmetry_equiv_pos_as_xyz
  1  'x, y, z'
loop_
 _atom_site_type_symbol
 _atom_site_label
 _atom_site_symmetry_multiplicity
 _atom_site_fract_x
 _atom_site_fract_y
 _atom_site_fract_z
 _atom_site_occupancy
  Er  Er0  1  0.250000  0.256765  0.259490  1
  Er  Er1  1  0.750000  0.743235  0.740510  1
  Er  Er2  1  0.250000  0.756765  0.240510  1
  Er  Er3  1  0.750000  0.243235  0.759490  1
  Er  Er4  1  0.250000  0.076665  0.918588  1
  Er  Er5  1  0.750000  0.923335  0.081412  1
  Er  Er6  1  0.250000  0.576665  0.581412  1
  Er  Er7  1  0.750000  0.423335  0.418588  1
  Er  Er8  1  0.250000  0.090864  0.583227  1
  Er  Er9  1  0.750000  0.909136  0.416773  1
  Er  Er10  1  0.250000  0.590864  0.916773  1
  Er  Er11  1  0.750000  0.409136  0.083227  1
  Se  Se12  1  0.750000  0.165075  0.158312  1
  Se  Se13  1  0.250000  0.834925  0.841688  1
  Se  Se14  1  0.750000  0.665075  0.341688  1
  Se  Se15  1  0.250000  0.334925  0.658312  1
  Se  Se16  1  0.750000  0.165812  0.486111  1
  Se  Se17  1  0.250000  0.834188  0.513889  1
  Se  Se18  1  0.750000  0.665812  0.013889  1
  Se  Se19  1  0.250000  0.334188  0.986111  1
  Se  Se20  1  0.750000  0.503970  0.822620  1
  Se  Se21  1  0.250000  0.496030  0.177380  1
  Se  Se22  1  0.750000  0.003970  0.677380  1
  Se  Se23  1  0.250000  0.996030  0.322620  1
  F  F24  1  0.250000  0.201549  0.805356  1
  F  F25  1  0.750000  0.798451  0.194644  1
  F  F26  1  0.250000  0.701549  0.694644  1
  F  F27  1  0.750000  0.298451  0.305356  1
  F  F28  1  0.250000  0.869875  0.137863  1
  F  F29  1  0.750000  0.130125  0.862137  1
  F  F30  1  0.250000  0.369875  0.362137  1
  F  F31  1  0.750000  0.630125  0.637863  1
  F  F32  1  0.250000  0.973328  0.026836  1
  F  F33  1  0.750000  0.026672  0.973164  1
  F  F34  1  0.250000  0.473328  0.473164  1
  F  F35  1  0.750000  0.526672  0.526836  1
