# generated using pymatgen
data_Ba2TaBiO6
_symmetry_space_group_name_H-M   'P 1'
_cell_length_a   6.09727691
_cell_length_b   6.09727691
_cell_length_c   6.09727691
_cell_angle_alpha   60.58654774
_cell_angle_beta   60.58654774
_cell_angle_gamma   60.58654774
_symmetry_Int_Tables_number   1
_chemical_formula_structural   Ba2TaBiO6
_chemical_formula_sum   'Ba2 Ta1 Bi1 O6'
_cell_volume   162.40847442
_cell_formula_units_Z   1
loop_
 _symmetry_equiv_pos_site_id
 _symmetry_equiv_pos_as_xyz
  1  'x, y, z'
loop_
 _atom_site_type_symbol
 _atom_site_label
 _atom_site_symmetry_multiplicity
 _atom_site_fract_x
 _atom_site_fract_y
 _atom_site_fract_z
 _atom_site_occupancy
  Ba  Ba0  1  0.748816  0.748816  0.748816  1
  Ba  Ba1  1  0.251184  0.251184  0.251184  1
  Ta  Ta2  1  0.500000  0.500000  0.500000  1
  Bi  Bi3  1  0.000000  0.000000  0.000000  1
  O  O4  1  0.322035  0.725510  0.218856  1
  O  O5  1  0.725510  0.218856  0.322035  1
  O  O6  1  0.218856  0.322035  0.725510  1
  O  O7  1  0.677965  0.274490  0.781144  1
  O  O8  1  0.781144  0.677965  0.274490  1
  O  O9  1  0.274490  0.781144  0.677965  1
