# generated using pymatgen
data_Ti4Bi2O11
_symmetry_space_group_name_H-M   'P 1'
_cell_length_a   7.70292928
_cell_length_b   7.70292928
_cell_length_c   10.31121953
_cell_angle_alpha   48.73635885
_cell_angle_beta   131.26364115
_cell_angle_gamma   151.46362506
_symmetry_Int_Tables_number   1
_chemical_formula_structural   Ti4Bi2O11
_chemical_formula_sum   'Ti4 Bi2 O11'
_cell_volume   214.15961273
_cell_formula_units_Z   1
loop_
 _symmetry_equiv_pos_site_id
 _symmetry_equiv_pos_as_xyz
  1  'x, y, z'
loop_
 _atom_site_type_symbol
 _atom_site_label
 _atom_site_symmetry_multiplicity
 _atom_site_fract_x
 _atom_site_fract_y
 _atom_site_fract_z
 _atom_site_occupancy
  Ti  Ti0  1  0.381202  0.618798  0.468292  1
  Ti  Ti1  1  0.618798  0.381202  0.531708  1
  Ti  Ti2  1  0.339170  0.660830  0.782053  1
  Ti  Ti3  1  0.660830  0.339170  0.217947  1
  Bi  Bi4  1  0.889247  0.110753  0.141905  1
  Bi  Bi5  1  0.110753  0.889247  0.858095  1
  O  O6  1  0.292613  0.707387  0.951283  1
  O  O7  1  0.707387  0.292613  0.048717  1
  O  O8  1  0.376525  0.623475  0.647225  1
  O  O9  1  0.623475  0.376525  0.352775  1
  O  O10  1  0.563077  0.436923  0.667141  1
  O  O11  1  0.436923  0.563077  0.332859  1
  O  O12  1  0.200930  0.799070  0.241856  1
  O  O13  1  0.799070  0.200930  0.758144  1
  O  O14  1  0.854224  0.145776  0.429626  1
  O  O15  1  0.145776  0.854224  0.570374  1
  O  O16  1  0.500000  0.500000  0.000000  1
