# generated using pymatgen
data_RbIn5S8
_symmetry_space_group_name_H-M   'P 1'
_cell_length_a   9.85152905
_cell_length_b   9.85152905
_cell_length_c   9.39676524
_cell_angle_alpha   77.98746521
_cell_angle_beta   102.01253479
_cell_angle_gamma   157.00710355
_symmetry_Int_Tables_number   1
_chemical_formula_structural   RbIn5S8
_chemical_formula_sum   'Rb1 In5 S8'
_cell_volume   348.10791462
_cell_formula_units_Z   1
loop_
 _symmetry_equiv_pos_site_id
 _symmetry_equiv_pos_as_xyz
  1  'x, y, z'
loop_
 _atom_site_type_symbol
 _atom_site_label
 _atom_site_symmetry_multiplicity
 _atom_site_fract_x
 _atom_site_fract_y
 _atom_site_fract_z
 _atom_site_occupancy
  Rb  Rb0  1  0.500000  0.500000  0.500000  1
  In  In1  1  0.288285  0.711715  0.660827  1
  In  In2  1  0.352534  0.647466  0.081104  1
  In  In3  1  0.647466  0.352534  0.918896  1
  In  In4  1  0.711715  0.288285  0.339173  1
  In  In5  1  0.000000  0.000000  0.000000  1
  S  S6  1  0.165857  0.834143  0.479629  1
  S  S7  1  0.073667  0.926333  0.792769  1
  S  S8  1  0.926333  0.073667  0.207231  1
  S  S9  1  0.416255  0.583745  0.870347  1
  S  S10  1  0.583745  0.416255  0.129653  1
  S  S11  1  0.236284  0.763716  0.152661  1
  S  S12  1  0.763716  0.236284  0.847339  1
  S  S13  1  0.834143  0.165857  0.520371  1
