# generated using pymatgen
data_PH6NO4
_symmetry_space_group_name_H-M   'P 1'
_cell_length_a   7.16843934
_cell_length_b   7.94445985
_cell_length_c   8.56831867
_cell_angle_alpha   90.00000000
_cell_angle_beta   90.00000000
_cell_angle_gamma   90.00000000
_symmetry_Int_Tables_number   1
_chemical_formula_structural   PH6NO4
_chemical_formula_sum   'P4 H24 N4 O16'
_cell_volume   487.96042325
_cell_formula_units_Z   4
loop_
 _symmetry_equiv_pos_site_id
 _symmetry_equiv_pos_as_xyz
  1  'x, y, z'
loop_
 _atom_site_type_symbol
 _atom_site_label
 _atom_site_symmetry_multiplicity
 _atom_site_fract_x
 _atom_site_fract_y
 _atom_site_fract_z
 _atom_site_occupancy
  P  P0  1  0.152689  0.217041  0.694151  1
  P  P1  1  0.652689  0.282959  0.305849  1
  P  P2  1  0.347311  0.782959  0.194151  1
  P  P3  1  0.847311  0.717041  0.805849  1
  H  H4  1  0.060549  0.438933  0.846250  1
  H  H5  1  0.560549  0.061067  0.153750  1
  H  H6  1  0.439451  0.561067  0.346250  1
  H  H7  1  0.939451  0.938933  0.653750  1
  H  H8  1  0.319109  0.348266  0.507843  1
  H  H9  1  0.819109  0.151734  0.492157  1
  H  H10  1  0.180891  0.651734  0.007843  1
  H  H11  1  0.680891  0.848266  0.992157  1
  H  H12  1  0.654923  0.232585  0.936603  1
  H  H13  1  0.154923  0.267415  0.063397  1
  H  H14  1  0.845077  0.767415  0.436603  1
  H  H15  1  0.345077  0.732585  0.563397  1
  H  H16  1  0.528411  0.198968  0.773811  1
  H  H17  1  0.233302  0.694754  0.734356  1
  H  H18  1  0.971589  0.801032  0.273811  1
  H  H19  1  0.471589  0.698968  0.726189  1
  H  H20  1  0.659525  0.381978  0.795478  1
  H  H21  1  0.159525  0.118022  0.204522  1
  H  H22  1  0.840475  0.618022  0.295478  1
  H  H23  1  0.340475  0.881978  0.704522  1
  H  H24  1  0.766698  0.194754  0.765644  1
  H  H25  1  0.266698  0.305246  0.234356  1
  H  H26  1  0.733302  0.805246  0.265644  1
  H  H27  1  0.028411  0.301032  0.226189  1
  N  N28  1  0.347693  0.752062  0.682892  1
  N  N29  1  0.152307  0.247938  0.182892  1
  N  N30  1  0.652307  0.252062  0.817108  1
  N  N31  1  0.847693  0.747938  0.317108  1
  O  O32  1  0.708227  0.134767  0.421497  1
  O  O33  1  0.475854  0.371556  0.366519  1
  O  O34  1  0.524146  0.871556  0.133481  1
  O  O35  1  0.024146  0.628444  0.866519  1
  O  O36  1  0.208227  0.365233  0.578503  1
  O  O37  1  0.975854  0.128444  0.633481  1
  O  O38  1  0.291773  0.634767  0.078503  1
  O  O39  1  0.791773  0.865233  0.921497  1
  O  O40  1  0.902829  0.813536  0.649125  1
  O  O41  1  0.814917  0.399556  0.272675  1
  O  O42  1  0.314917  0.100444  0.727325  1
  O  O43  1  0.685083  0.600444  0.772675  1
  O  O44  1  0.402829  0.686464  0.350875  1
  O  O45  1  0.597171  0.186464  0.149125  1
  O  O46  1  0.097171  0.313536  0.850875  1
  O  O47  1  0.185083  0.899556  0.227325  1
