# generated using pymatgen
data_CaH12(BrO3)2
_symmetry_space_group_name_H-M   'P 1'
_cell_length_a   8.14929011
_cell_length_b   8.14929011
_cell_length_c   4.07543343
_cell_angle_alpha   90.00000000
_cell_angle_beta   90.00000000
_cell_angle_gamma   120.00000000
_symmetry_Int_Tables_number   1
_chemical_formula_structural   CaH12(BrO3)2
_chemical_formula_sum   'Ca1 H12 Br2 O6'
_cell_volume   234.39265205
_cell_formula_units_Z   1
loop_
 _symmetry_equiv_pos_site_id
 _symmetry_equiv_pos_as_xyz
  1  'x, y, z'
loop_
 _atom_site_type_symbol
 _atom_site_label
 _atom_site_symmetry_multiplicity
 _atom_site_fract_x
 _atom_site_fract_y
 _atom_site_fract_z
 _atom_site_occupancy
  Ca  Ca0  1  0.000000  0.000000  0.000000  1
  H  H1  1  0.098816  0.422659  0.090588  1
  H  H2  1  0.577341  0.676158  0.090588  1
  H  H3  1  0.323842  0.901184  0.090588  1
  H  H4  1  0.676158  0.577341  0.909412  1
  H  H5  1  0.901184  0.323842  0.909412  1
  H  H6  1  0.422659  0.098816  0.909412  1
  H  H7  1  0.110074  0.774576  0.517671  1
  H  H8  1  0.225424  0.335499  0.517671  1
  H  H9  1  0.664501  0.889926  0.517671  1
  H  H10  1  0.774576  0.110074  0.482329  1
  H  H11  1  0.889926  0.664501  0.482329  1
  H  H12  1  0.335499  0.225424  0.482329  1
  Br  Br13  1  0.333333  0.666667  0.410450  1
  Br  Br14  1  0.666667  0.333333  0.589550  1
  O  O15  1  0.699388  0.699388  0.000000  1
  O  O16  1  0.000000  0.300612  0.000000  1
  O  O17  1  0.300612  0.000000  0.000000  1
  O  O18  1  0.206324  0.206324  0.500000  1
  O  O19  1  0.000000  0.793676  0.500000  1
  O  O20  1  0.793676  0.000000  0.500000  1
