# generated using pymatgen
data_K2MgCl4
_symmetry_space_group_name_H-M   'P 1'
_cell_length_a   8.63855191
_cell_length_b   8.63855191
_cell_length_c   8.63855191
_cell_angle_alpha   146.31815109
_cell_angle_beta   146.31815109
_cell_angle_gamma   48.37444290
_symmetry_Int_Tables_number   1
_chemical_formula_structural   K2MgCl4
_chemical_formula_sum   'K2 Mg1 Cl4'
_cell_volume   197.43396143
_cell_formula_units_Z   1
loop_
 _symmetry_equiv_pos_site_id
 _symmetry_equiv_pos_as_xyz
  1  'x, y, z'
loop_
 _atom_site_type_symbol
 _atom_site_label
 _atom_site_symmetry_multiplicity
 _atom_site_fract_x
 _atom_site_fract_y
 _atom_site_fract_z
 _atom_site_occupancy
  K  K0  1  0.642620  0.642620  0.000000  1
  K  K1  1  0.357380  0.357380  0.000000  1
  Mg  Mg2  1  0.000000  0.000000  0.000000  1
  Cl  Cl3  1  0.840550  0.840550  0.000000  1
  Cl  Cl4  1  0.159450  0.159450  0.000000  1
  Cl  Cl5  1  0.500000  0.000000  0.500000  1
  Cl  Cl6  1  1.000000  0.500000  0.500000  1
