# generated using pymatgen
data_Na3Sb5F18
_symmetry_space_group_name_H-M   'P 1'
_cell_length_a   5.58879048
_cell_length_b   24.26632788
_cell_length_c   13.45194051
_cell_angle_alpha   90.00000000
_cell_angle_beta   113.56123740
_cell_angle_gamma   90.00000000
_symmetry_Int_Tables_number   1
_chemical_formula_structural   Na3Sb5F18
_chemical_formula_sum   'Na12 Sb20 F72'
_cell_volume   1672.25495557
_cell_formula_units_Z   4
loop_
 _symmetry_equiv_pos_site_id
 _symmetry_equiv_pos_as_xyz
  1  'x, y, z'
loop_
 _atom_site_type_symbol
 _atom_site_label
 _atom_site_symmetry_multiplicity
 _atom_site_fract_x
 _atom_site_fract_y
 _atom_site_fract_z
 _atom_site_occupancy
  Na  Na0  1  0.237121  0.068612  0.007933  1
  Na  Na1  1  0.762879  0.568612  0.492067  1
  Na  Na2  1  0.762879  0.931388  0.992067  1
  Na  Na3  1  0.237121  0.431388  0.507933  1
  Na  Na4  1  0.458274  0.193305  0.240094  1
  Na  Na5  1  0.541726  0.693305  0.259906  1
  Na  Na6  1  0.541726  0.806695  0.759906  1
  Na  Na7  1  0.458274  0.306695  0.740094  1
  Na  Na8  1  0.992533  0.067087  0.242185  1
  Na  Na9  1  0.007467  0.567087  0.257815  1
  Na  Na10  1  0.007467  0.932913  0.757815  1
  Na  Na11  1  0.992533  0.432913  0.742185  1
  Sb  Sb12  1  0.867927  0.695585  0.033705  1
  Sb  Sb13  1  0.132073  0.195585  0.466295  1
  Sb  Sb14  1  0.132073  0.304415  0.966295  1
  Sb  Sb15  1  0.867927  0.804415  0.533705  1
  Sb  Sb16  1  0.336351  0.933535  0.530533  1
  Sb  Sb17  1  0.663649  0.433535  0.969467  1
  Sb  Sb18  1  0.663649  0.066465  0.469467  1
  Sb  Sb19  1  0.336351  0.566465  0.030533  1
  Sb  Sb20  1  0.943662  0.820464  0.243653  1
  Sb  Sb21  1  0.056338  0.320464  0.256347  1
  Sb  Sb22  1  0.056338  0.179536  0.756347  1
  Sb  Sb23  1  0.943662  0.679536  0.743653  1
  Sb  Sb24  1  0.775416  0.326030  0.535548  1
  Sb  Sb25  1  0.224584  0.826030  0.964452  1
  Sb  Sb26  1  0.224584  0.673970  0.464452  1
  Sb  Sb27  1  0.775416  0.173970  0.035548  1
  Sb  Sb28  1  0.486496  0.544092  0.715503  1
  Sb  Sb29  1  0.513504  0.044092  0.784497  1
  Sb  Sb30  1  0.513504  0.455908  0.284497  1
  Sb  Sb31  1  0.486496  0.955908  0.215503  1
  F  F32  1  0.622754  0.114938  0.102385  1
  F  F33  1  0.377246  0.614938  0.397615  1
  F  F34  1  0.377246  0.885062  0.897615  1
  F  F35  1  0.622754  0.385062  0.602385  1
  F  F36  1  0.100570  0.134980  0.134089  1
  F  F37  1  0.899430  0.634980  0.365911  1
  F  F38  1  0.899430  0.865020  0.865911  1
  F  F39  1  0.100570  0.365020  0.634089  1
  F  F40  1  0.463594  0.118337  0.353603  1
  F  F41  1  0.536406  0.618337  0.146397  1
  F  F42  1  0.536406  0.881663  0.646397  1
  F  F43  1  0.463594  0.381663  0.853603  1
  F  F44  1  0.095338  0.237814  0.086172  1
  F  F45  1  0.904662  0.737814  0.413828  1
  F  F46  1  0.904662  0.762186  0.913828  1
  F  F47  1  0.095338  0.262186  0.586172  1
  F  F48  1  0.477310  0.401296  0.054130  1
  F  F49  1  0.522690  0.901296  0.445870  1
  F  F50  1  0.522690  0.598704  0.945870  1
  F  F51  1  0.477310  0.098704  0.554130  1
  F  F52  1  0.964373  0.137033  0.354644  1
  F  F53  1  0.035627  0.637033  0.145356  1
  F  F54  1  0.035627  0.862967  0.645356  1
  F  F55  1  0.964373  0.362967  0.854644  1
  F  F56  1  0.924953  0.345418  0.042246  1
  F  F57  1  0.075047  0.845418  0.457754  1
  F  F58  1  0.075047  0.654582  0.957754  1
  F  F59  1  0.924953  0.154582  0.542246  1
  F  F60  1  0.779059  0.085158  0.925309  1
  F  F61  1  0.220941  0.585158  0.574691  1
  F  F62  1  0.220941  0.914842  0.074691  1
  F  F63  1  0.779059  0.414842  0.425309  1
  F  F64  1  0.688289  0.279200  0.638581  1
  F  F65  1  0.311711  0.779200  0.861419  1
  F  F66  1  0.311711  0.720800  0.361419  1
  F  F67  1  0.688289  0.220800  0.138581  1
  F  F68  1  0.341904  0.018410  0.399666  1
  F  F69  1  0.658096  0.518410  0.100334  1
  F  F70  1  0.658096  0.981590  0.600334  1
  F  F71  1  0.341904  0.481590  0.899666  1
  F  F72  1  0.726837  0.020395  0.314766  1
  F  F73  1  0.273163  0.520395  0.185234  1
  F  F74  1  0.273163  0.979605  0.685234  1
  F  F75  1  0.726837  0.479605  0.814766  1
  F  F76  1  0.367683  0.015726  0.886483  1
  F  F77  1  0.632317  0.515726  0.613517  1
  F  F78  1  0.632317  0.984274  0.113517  1
  F  F79  1  0.367683  0.484274  0.386483  1
  F  F80  1  0.210433  0.159963  0.914723  1
  F  F81  1  0.789567  0.659963  0.585277  1
  F  F82  1  0.789567  0.840037  0.085277  1
  F  F83  1  0.210433  0.340037  0.414723  1
  F  F84  1  0.802643  0.235428  0.384031  1
  F  F85  1  0.197357  0.735428  0.115969  1
  F  F86  1  0.197357  0.764572  0.615969  1
  F  F87  1  0.802643  0.264572  0.884031  1
  F  F88  1  0.218935  0.259844  0.830075  1
  F  F89  1  0.781065  0.759844  0.669925  1
  F  F90  1  0.781065  0.740156  0.169925  1
  F  F91  1  0.218935  0.240156  0.330075  1
  F  F92  1  0.079607  0.094278  0.743764  1
  F  F93  1  0.920393  0.594278  0.756236  1
  F  F94  1  0.920393  0.905722  0.256236  1
  F  F95  1  0.079607  0.405722  0.243764  1
  F  F96  1  0.217922  0.016194  0.155219  1
  F  F97  1  0.782078  0.516194  0.344781  1
  F  F98  1  0.782078  0.983806  0.844781  1
  F  F99  1  0.217922  0.483806  0.655219  1
  F  F100  1  0.399207  0.323229  0.249096  1
  F  F101  1  0.600793  0.823229  0.250904  1
  F  F102  1  0.600793  0.676771  0.750904  1
  F  F103  1  0.399207  0.176771  0.749096  1
