# generated using pymatgen
data_GeAsSe
_symmetry_space_group_name_H-M   'P 1'
_cell_length_a   5.14712066
_cell_length_b   10.38416984
_cell_length_c   12.67703566
_cell_angle_alpha   90.00000000
_cell_angle_beta   90.00000000
_cell_angle_gamma   90.00000000
_symmetry_Int_Tables_number   1
_chemical_formula_structural   GeAsSe
_chemical_formula_sum   'Ge8 As8 Se8'
_cell_volume   677.56949278
_cell_formula_units_Z   8
loop_
 _symmetry_equiv_pos_site_id
 _symmetry_equiv_pos_as_xyz
  1  'x, y, z'
loop_
 _atom_site_type_symbol
 _atom_site_label
 _atom_site_symmetry_multiplicity
 _atom_site_fract_x
 _atom_site_fract_y
 _atom_site_fract_z
 _atom_site_occupancy
  Ge  Ge0  1  0.250000  0.000000  0.766181  1
  Ge  Ge1  1  0.250000  0.500000  0.733819  1
  Ge  Ge2  1  0.750000  0.000000  0.233819  1
  Ge  Ge3  1  0.750000  0.500000  0.266181  1
  Ge  Ge4  1  0.298456  0.250000  0.250000  1
  Ge  Ge5  1  0.201544  0.750000  0.250000  1
  Ge  Ge6  1  0.701544  0.750000  0.750000  1
  Ge  Ge7  1  0.798456  0.250000  0.750000  1
  As  As8  1  0.079527  0.414877  0.137387  1
  As  As9  1  0.079527  0.085123  0.362613  1
  As  As10  1  0.420473  0.914877  0.362613  1
  As  As11  1  0.420473  0.585123  0.137387  1
  As  As12  1  0.920473  0.585123  0.862613  1
  As  As13  1  0.920473  0.914877  0.637387  1
  As  As14  1  0.579527  0.085123  0.637387  1
  As  As15  1  0.579527  0.414877  0.862613  1
  Se  Se16  1  0.926521  0.842773  0.116120  1
  Se  Se17  1  0.926521  0.657227  0.383880  1
  Se  Se18  1  0.573479  0.342773  0.383880  1
  Se  Se19  1  0.573479  0.157227  0.116120  1
  Se  Se20  1  0.073479  0.157227  0.883880  1
  Se  Se21  1  0.073479  0.342773  0.616120  1
  Se  Se22  1  0.426521  0.657227  0.616120  1
  Se  Se23  1  0.426521  0.842773  0.883880  1
