# generated using pymatgen
data_CsHgCl3
_symmetry_space_group_name_H-M   'P 1'
_cell_length_a   13.71152014
_cell_length_b   13.71152014
_cell_length_c   9.69073734
_cell_angle_alpha   90.00000000
_cell_angle_beta   90.00000000
_cell_angle_gamma   120.00000000
_symmetry_Int_Tables_number   1
_chemical_formula_structural   CsHgCl3
_chemical_formula_sum   'Cs9 Hg9 Cl27'
_cell_volume   1577.82439386
_cell_formula_units_Z   9
loop_
 _symmetry_equiv_pos_site_id
 _symmetry_equiv_pos_as_xyz
  1  'x, y, z'
loop_
 _atom_site_type_symbol
 _atom_site_label
 _atom_site_symmetry_multiplicity
 _atom_site_fract_x
 _atom_site_fract_y
 _atom_site_fract_z
 _atom_site_occupancy
  Cs  Cs0  1  0.550608  0.447597  0.135596  1
  Cs  Cs1  1  0.896989  0.449392  0.468929  1
  Cs  Cs2  1  0.552403  0.103011  0.802262  1
  Cs  Cs3  1  0.231328  0.445262  0.827906  1
  Cs  Cs4  1  0.213934  0.768672  0.161240  1
  Cs  Cs5  1  0.554738  0.786066  0.494573  1
  Cs  Cs6  1  0.227579  0.110230  0.476653  1
  Cs  Cs7  1  0.882651  0.772421  0.809987  1
  Cs  Cs8  1  0.889770  0.117349  0.143320  1
  Hg  Hg9  1  0.226853  0.116269  0.978012  1
  Hg  Hg10  1  0.889416  0.773147  0.311345  1
  Hg  Hg11  1  0.883731  0.110584  0.644678  1
  Hg  Hg12  1  0.551810  0.441048  0.652461  1
  Hg  Hg13  1  0.889238  0.448190  0.985794  1
  Hg  Hg14  1  0.558952  0.110762  0.319127  1
  Hg  Hg15  1  0.218569  0.439943  0.307507  1
  Hg  Hg16  1  0.221374  0.781431  0.640841  1
  Hg  Hg17  1  0.560057  0.778626  0.974174  1
  Cl  Cl18  1  0.228000  0.283597  0.139388  1
  Cl  Cl19  1  0.055597  0.772000  0.472721  1
  Cl  Cl20  1  0.716403  0.944403  0.806054  1
  Cl  Cl21  1  0.047737  0.446327  0.163705  1
  Cl  Cl22  1  0.398590  0.952263  0.497039  1
  Cl  Cl23  1  0.553673  0.601410  0.830372  1
  Cl  Cl24  1  0.395877  0.255609  0.798133  1
  Cl  Cl25  1  0.859732  0.604123  0.131466  1
  Cl  Cl26  1  0.744391  0.140268  0.464799  1
  Cl  Cl27  1  0.073425  0.087140  0.829357  1
  Cl  Cl28  1  0.013715  0.926575  0.162690  1
  Cl  Cl29  1  0.912860  0.986285  0.496023  1
  Cl  Cl30  1  0.342021  0.078733  0.132687  1
  Cl  Cl31  1  0.736712  0.657979  0.466020  1
  Cl  Cl32  1  0.921267  0.263288  0.799354  1
  Cl  Cl33  1  0.424679  0.449015  0.487177  1
  Cl  Cl34  1  0.024335  0.575321  0.820511  1
  Cl  Cl35  1  0.550985  0.975665  0.153844  1
  Cl  Cl36  1  0.395471  0.767460  0.866876  1
  Cl  Cl37  1  0.232540  0.628011  0.533543  1
  Cl  Cl38  1  0.371989  0.604529  0.200209  1
  Cl  Cl39  1  0.687654  0.790669  0.153607  1
  Cl  Cl40  1  0.209331  0.896985  0.820273  1
  Cl  Cl41  1  0.103015  0.312346  0.486940  1
  Cl  Cl42  1  0.557005  0.272762  0.412785  1
  Cl  Cl43  1  0.727238  0.284242  0.079452  1
  Cl  Cl44  1  0.715758  0.442995  0.746119  1
