# generated using pymatgen
data_Br2O
_symmetry_space_group_name_H-M   'P 1'
_cell_length_a   4.34793175
_cell_length_b   7.08528976
_cell_length_c   10.40958042
_cell_angle_alpha   90.00000000
_cell_angle_beta   90.00000000
_cell_angle_gamma   90.00000000
_symmetry_Int_Tables_number   1
_chemical_formula_structural   Br2O
_chemical_formula_sum   'Br8 O4'
_cell_volume   320.68124341
_cell_formula_units_Z   4
loop_
 _symmetry_equiv_pos_site_id
 _symmetry_equiv_pos_as_xyz
  1  'x, y, z'
loop_
 _atom_site_type_symbol
 _atom_site_label
 _atom_site_symmetry_multiplicity
 _atom_site_fract_x
 _atom_site_fract_y
 _atom_site_fract_z
 _atom_site_occupancy
  Br  Br0  1  0.622526  0.321902  0.507040  1
  Br  Br1  1  0.377474  0.821902  0.492960  1
  Br  Br2  1  0.877474  0.321902  0.007040  1
  Br  Br3  1  0.122526  0.821902  0.992960  1
  Br  Br4  1  0.071905  0.503110  0.215799  1
  Br  Br5  1  0.928095  0.003110  0.784201  1
  Br  Br6  1  0.428095  0.503110  0.715799  1
  Br  Br7  1  0.571905  0.003110  0.284201  1
  O  O8  1  0.307682  0.696888  0.144791  1
  O  O9  1  0.692318  0.196888  0.855209  1
  O  O10  1  0.192318  0.696888  0.644791  1
  O  O11  1  0.807682  0.196888  0.355209  1
