# generated using pymatgen
data_KSbClF3
_symmetry_space_group_name_H-M   'P 1'
_cell_length_a   8.03267859
_cell_length_b   8.25863661
_cell_length_c   15.09932588
_cell_angle_alpha   90.00000000
_cell_angle_beta   90.00000000
_cell_angle_gamma   90.00000000
_symmetry_Int_Tables_number   1
_chemical_formula_structural   KSbClF3
_chemical_formula_sum   'K8 Sb8 Cl8 F24'
_cell_volume   1001.67377912
_cell_formula_units_Z   8
loop_
 _symmetry_equiv_pos_site_id
 _symmetry_equiv_pos_as_xyz
  1  'x, y, z'
loop_
 _atom_site_type_symbol
 _atom_site_label
 _atom_site_symmetry_multiplicity
 _atom_site_fract_x
 _atom_site_fract_y
 _atom_site_fract_z
 _atom_site_occupancy
  K  K0  1  0.681587  0.195691  0.057429  1
  K  K1  1  0.181587  0.304309  0.942571  1
  K  K2  1  0.318413  0.695691  0.442571  1
  K  K3  1  0.818413  0.804309  0.557429  1
  K  K4  1  0.181587  0.195691  0.442571  1
  K  K5  1  0.818413  0.695691  0.057429  1
  K  K6  1  0.681587  0.304309  0.557429  1
  K  K7  1  0.318413  0.804309  0.942571  1
  Sb  Sb8  1  0.629997  0.004730  0.324535  1
  Sb  Sb9  1  0.129997  0.495270  0.675465  1
  Sb  Sb10  1  0.370003  0.504730  0.175465  1
  Sb  Sb11  1  0.870003  0.995270  0.824535  1
  Sb  Sb12  1  0.370003  0.995270  0.675465  1
  Sb  Sb13  1  0.870003  0.504730  0.324535  1
  Sb  Sb14  1  0.629997  0.495270  0.824535  1
  Sb  Sb15  1  0.129997  0.004730  0.175465  1
  Cl  Cl16  1  0.018394  0.376979  0.150592  1
  Cl  Cl17  1  0.018394  0.123021  0.650592  1
  Cl  Cl18  1  0.481606  0.876979  0.150592  1
  Cl  Cl19  1  0.981606  0.623021  0.849408  1
  Cl  Cl20  1  0.481606  0.623021  0.650592  1
  Cl  Cl21  1  0.981606  0.876979  0.349408  1
  Cl  Cl22  1  0.518394  0.123021  0.849408  1
  Cl  Cl23  1  0.518394  0.376979  0.349408  1
  F  F24  1  0.892570  0.271109  0.354214  1
  F  F25  1  0.392570  0.228891  0.645786  1
  F  F26  1  0.107430  0.771109  0.145786  1
  F  F27  1  0.607430  0.728891  0.854214  1
  F  F28  1  0.107430  0.728891  0.645786  1
  F  F29  1  0.607430  0.771109  0.354214  1
  F  F30  1  0.892570  0.228891  0.854214  1
  F  F31  1  0.392570  0.271109  0.145786  1
  F  F32  1  0.614768  0.504979  0.151035  1
  F  F33  1  0.114768  0.995021  0.848965  1
  F  F34  1  0.385232  0.004979  0.348965  1
  F  F35  1  0.885232  0.495021  0.651035  1
  F  F36  1  0.385232  0.495021  0.848965  1
  F  F37  1  0.885232  0.004979  0.151035  1
  F  F38  1  0.614768  0.995021  0.651035  1
  F  F39  1  0.164383  0.038681  0.046115  1
  F  F40  1  0.664383  0.038681  0.453885  1
  F  F41  1  0.164383  0.461319  0.546115  1
  F  F42  1  0.335617  0.538681  0.046115  1
  F  F43  1  0.835617  0.961319  0.953885  1
  F  F44  1  0.335617  0.961319  0.546115  1
  F  F45  1  0.835617  0.538681  0.453885  1
  F  F46  1  0.664383  0.461319  0.953885  1
  F  F47  1  0.114768  0.504979  0.348965  1
