# generated using pymatgen
data_Sr5P3BrO12
_symmetry_space_group_name_H-M   'P 1'
_cell_length_a   10.12349094
_cell_length_b   10.12349094
_cell_length_c   7.26310291
_cell_angle_alpha   90.00000000
_cell_angle_beta   90.00000000
_cell_angle_gamma   120.00000000
_symmetry_Int_Tables_number   1
_chemical_formula_structural   Sr5P3BrO12
_chemical_formula_sum   'Sr10 P6 Br2 O24'
_cell_volume   644.63432412
_cell_formula_units_Z   2
loop_
 _symmetry_equiv_pos_site_id
 _symmetry_equiv_pos_as_xyz
  1  'x, y, z'
loop_
 _atom_site_type_symbol
 _atom_site_label
 _atom_site_symmetry_multiplicity
 _atom_site_fract_x
 _atom_site_fract_y
 _atom_site_fract_z
 _atom_site_occupancy
  Sr  Sr0  1  0.997289  0.738577  0.750000  1
  Sr  Sr1  1  0.258712  0.997289  0.250000  1
  Sr  Sr2  1  0.738577  0.741288  0.250000  1
  Sr  Sr3  1  0.261423  0.258712  0.750000  1
  Sr  Sr4  1  0.741288  0.002711  0.750000  1
  Sr  Sr5  1  0.002711  0.261423  0.250000  1
  Sr  Sr6  1  0.333333  0.666667  0.498630  1
  Sr  Sr7  1  0.666667  0.333333  0.998630  1
  Sr  Sr8  1  0.666667  0.333333  0.501370  1
  Sr  Sr9  1  0.333333  0.666667  0.001370  1
  P  P10  1  0.408147  0.372843  0.250000  1
  P  P11  1  0.035304  0.408147  0.750000  1
  P  P12  1  0.591853  0.627157  0.750000  1
  P  P13  1  0.964696  0.591853  0.250000  1
  P  P14  1  0.627157  0.035304  0.250000  1
  P  P15  1  0.372843  0.964696  0.750000  1
  Br  Br16  1  0.000000  0.000000  0.500000  1
  Br  Br17  1  0.000000  0.000000  0.000000  1
  O  O18  1  0.357672  0.269149  0.423795  1
  O  O19  1  0.088523  0.357672  0.923795  1
  O  O20  1  0.269149  0.911477  0.923795  1
  O  O21  1  0.730851  0.088523  0.423795  1
  O  O22  1  0.911477  0.642328  0.423795  1
  O  O23  1  0.642328  0.730851  0.923795  1
  O  O24  1  0.642328  0.730851  0.576205  1
  O  O25  1  0.911477  0.642328  0.076205  1
  O  O26  1  0.730851  0.088523  0.076205  1
  O  O27  1  0.269149  0.911477  0.576205  1
  O  O28  1  0.088523  0.357672  0.576205  1
  O  O29  1  0.357672  0.269149  0.076205  1
  O  O30  1  0.413052  0.536107  0.750000  1
  O  O31  1  0.876945  0.413052  0.250000  1
  O  O32  1  0.536107  0.123055  0.250000  1
  O  O33  1  0.463893  0.876945  0.750000  1
  O  O34  1  0.123055  0.586948  0.750000  1
  O  O35  1  0.586948  0.463893  0.250000  1
  O  O36  1  0.342580  0.483261  0.250000  1
  O  O37  1  0.859320  0.342580  0.750000  1
  O  O38  1  0.483261  0.140680  0.750000  1
  O  O39  1  0.516739  0.859320  0.250000  1
  O  O40  1  0.140680  0.657420  0.250000  1
  O  O41  1  0.657420  0.516739  0.750000  1
