# generated using pymatgen
data_K2In2As3
_symmetry_space_group_name_H-M   'P 1'
_cell_length_a   14.63744068
_cell_length_b   7.27327821
_cell_length_c   16.13991961
_cell_angle_alpha   90.00000000
_cell_angle_beta   90.08741925
_cell_angle_gamma   90.00000000
_symmetry_Int_Tables_number   1
_chemical_formula_structural   K2In2As3
_chemical_formula_sum   'K16 In16 As24'
_cell_volume   1718.28899934
_cell_formula_units_Z   8
loop_
 _symmetry_equiv_pos_site_id
 _symmetry_equiv_pos_as_xyz
  1  'x, y, z'
loop_
 _atom_site_type_symbol
 _atom_site_label
 _atom_site_symmetry_multiplicity
 _atom_site_fract_x
 _atom_site_fract_y
 _atom_site_fract_z
 _atom_site_occupancy
  K  K0  1  0.856704  0.958259  0.007086  1
  K  K1  1  0.143296  0.458259  0.492914  1
  K  K2  1  0.143296  0.041741  0.992914  1
  K  K3  1  0.856704  0.541741  0.507086  1
  K  K4  1  0.343637  0.566801  0.977626  1
  K  K5  1  0.656363  0.066801  0.522374  1
  K  K6  1  0.656363  0.433199  0.022374  1
  K  K7  1  0.343637  0.933199  0.477626  1
  K  K8  1  0.082963  0.545992  0.892757  1
  K  K9  1  0.917037  0.045992  0.607243  1
  K  K10  1  0.917037  0.454008  0.107243  1
  K  K11  1  0.082963  0.954008  0.392757  1
  K  K12  1  0.562824  0.917054  0.092372  1
  K  K13  1  0.437176  0.417054  0.407628  1
  K  K14  1  0.437176  0.082946  0.907628  1
  K  K15  1  0.562824  0.582946  0.592372  1
  In  In16  1  0.410441  0.750006  0.741780  1
  In  In17  1  0.589559  0.250006  0.758220  1
  In  In18  1  0.589559  0.249994  0.258220  1
  In  In19  1  0.184406  0.747494  0.676272  1
  In  In20  1  0.815594  0.247494  0.823728  1
  In  In21  1  0.815594  0.252506  0.323728  1
  In  In22  1  0.184406  0.752506  0.176272  1
  In  In23  1  0.908457  0.715408  0.769755  1
  In  In24  1  0.091543  0.215408  0.730245  1
  In  In25  1  0.091543  0.284592  0.230245  1
  In  In26  1  0.908457  0.784592  0.269755  1
  In  In27  1  0.317513  0.229871  0.667903  1
  In  In28  1  0.682487  0.729871  0.832097  1
  In  In29  1  0.682487  0.770129  0.332097  1
  In  In30  1  0.317513  0.270129  0.167903  1
  In  In31  1  0.410441  0.749994  0.241780  1
  As  As32  1  0.752338  0.799794  0.177500  1
  As  As33  1  0.752338  0.700206  0.677500  1
  As  As34  1  0.247662  0.200206  0.822500  1
  As  As35  1  0.478290  0.045276  0.657716  1
  As  As36  1  0.521710  0.545276  0.842284  1
  As  As37  1  0.521710  0.954724  0.342284  1
  As  As38  1  0.478290  0.454724  0.157716  1
  As  As39  1  0.253399  0.645067  0.327512  1
  As  As40  1  0.746601  0.145067  0.172488  1
  As  As41  1  0.746601  0.354933  0.672488  1
  As  As42  1  0.253399  0.854933  0.827512  1
  As  As43  1  0.334442  0.570954  0.608766  1
  As  As44  1  0.247662  0.299794  0.322500  1
  As  As45  1  0.665558  0.070954  0.891234  1
  As  As46  1  0.665558  0.429046  0.391234  1
  As  As47  1  0.334442  0.929046  0.108766  1
  As  As48  1  0.030365  0.957714  0.171561  1
  As  As49  1  0.969635  0.457714  0.328439  1
  As  As50  1  0.969635  0.042286  0.828439  1
  As  As51  1  0.030365  0.542286  0.671561  1
  As  As52  1  0.163167  0.439349  0.091340  1
  As  As53  1  0.836833  0.939349  0.408660  1
  As  As54  1  0.836833  0.560651  0.908660  1
  As  As55  1  0.163167  0.060651  0.591340  1
