# generated using pymatgen
data_Al2P3(HO3)3
_symmetry_space_group_name_H-M   'P 1'
_cell_length_a   7.98270063
_cell_length_b   7.98270063
_cell_length_c   7.18165955
_cell_angle_alpha   90.00000000
_cell_angle_beta   90.00000000
_cell_angle_gamma   120.00000000
_symmetry_Int_Tables_number   1
_chemical_formula_structural   Al2P3(HO3)3
_chemical_formula_sum   'Al4 P6 H6 O18'
_cell_volume   396.32834167
_cell_formula_units_Z   2
loop_
 _symmetry_equiv_pos_site_id
 _symmetry_equiv_pos_as_xyz
  1  'x, y, z'
loop_
 _atom_site_type_symbol
 _atom_site_label
 _atom_site_symmetry_multiplicity
 _atom_site_fract_x
 _atom_site_fract_y
 _atom_site_fract_z
 _atom_site_occupancy
  Al  Al0  1  0.333333  0.666667  0.945378  1
  Al  Al1  1  0.666667  0.333333  0.445378  1
  Al  Al2  1  0.666667  0.333333  0.054622  1
  Al  Al3  1  0.333333  0.666667  0.554622  1
  P  P4  1  0.362793  0.049367  0.750000  1
  P  P5  1  0.049367  0.686574  0.250000  1
  P  P6  1  0.686574  0.637207  0.750000  1
  P  P7  1  0.313426  0.362793  0.250000  1
  P  P8  1  0.637207  0.950633  0.250000  1
  P  P9  1  0.950633  0.313426  0.750000  1
  H  H10  1  0.823123  0.835431  0.750000  1
  H  H11  1  0.987692  0.823123  0.250000  1
  H  H12  1  0.835431  0.012308  0.250000  1
  H  H13  1  0.164569  0.987692  0.750000  1
  H  H14  1  0.012308  0.176877  0.750000  1
  H  H15  1  0.176877  0.164569  0.250000  1
  O  O16  1  0.138239  0.516743  0.750000  1
  O  O17  1  0.621495  0.138239  0.250000  1
  O  O18  1  0.516743  0.378505  0.250000  1
  O  O19  1  0.483257  0.621495  0.750000  1
  O  O20  1  0.163922  0.718634  0.071291  1
  O  O21  1  0.445288  0.163922  0.571291  1
  O  O22  1  0.718634  0.554712  0.571291  1
  O  O23  1  0.281366  0.445288  0.071291  1
  O  O24  1  0.554712  0.836078  0.071291  1
  O  O25  1  0.836078  0.281366  0.571291  1
  O  O26  1  0.836078  0.281366  0.928709  1
  O  O27  1  0.554712  0.836078  0.428709  1
  O  O28  1  0.281366  0.445288  0.428709  1
  O  O29  1  0.718634  0.554712  0.928709  1
  O  O30  1  0.445288  0.163922  0.928709  1
  O  O31  1  0.163922  0.718634  0.428709  1
  O  O32  1  0.861761  0.483257  0.250000  1
  O  O33  1  0.378505  0.861761  0.750000  1
