# generated using pymatgen
data_CsTcO4
_symmetry_space_group_name_H-M   'P 1'
_cell_length_a   5.91515046
_cell_length_b   6.08746718
_cell_length_c   14.78408216
_cell_angle_alpha   90.00000000
_cell_angle_beta   90.00000000
_cell_angle_gamma   90.00000000
_symmetry_Int_Tables_number   1
_chemical_formula_structural   CsTcO4
_chemical_formula_sum   'Cs4 Tc4 O16'
_cell_volume   532.34943338
_cell_formula_units_Z   4
loop_
 _symmetry_equiv_pos_site_id
 _symmetry_equiv_pos_as_xyz
  1  'x, y, z'
loop_
 _atom_site_type_symbol
 _atom_site_label
 _atom_site_symmetry_multiplicity
 _atom_site_fract_x
 _atom_site_fract_y
 _atom_site_fract_z
 _atom_site_occupancy
  Cs  Cs0  1  0.473445  0.750000  0.626446  1
  Cs  Cs1  1  0.973445  0.750000  0.873554  1
  Cs  Cs2  1  0.526555  0.250000  0.373554  1
  Cs  Cs3  1  0.026555  0.250000  0.126446  1
  Tc  Tc4  1  0.536439  0.750000  0.121511  1
  Tc  Tc5  1  0.036439  0.750000  0.378489  1
  Tc  Tc6  1  0.463561  0.250000  0.878489  1
  Tc  Tc7  1  0.963561  0.250000  0.621511  1
  O  O8  1  0.493249  0.984344  0.186986  1
  O  O9  1  0.993249  0.515656  0.313014  1
  O  O10  1  0.506751  0.484344  0.813014  1
  O  O11  1  0.006751  0.015656  0.686986  1
  O  O12  1  0.506751  0.015656  0.813014  1
  O  O13  1  0.006751  0.484344  0.686986  1
  O  O14  1  0.493249  0.515656  0.186986  1
  O  O15  1  0.993249  0.984344  0.313014  1
  O  O16  1  0.186676  0.250000  0.919647  1
  O  O17  1  0.686676  0.250000  0.580353  1
  O  O18  1  0.813324  0.750000  0.080353  1
  O  O19  1  0.313324  0.750000  0.419647  1
  O  O20  1  0.654173  0.250000  0.968088  1
  O  O21  1  0.154173  0.250000  0.531912  1
  O  O22  1  0.345827  0.750000  0.031912  1
  O  O23  1  0.845827  0.750000  0.468088  1
