# generated using pymatgen
data_YH3(SO4)3
_symmetry_space_group_name_H-M   'P 1'
_cell_length_a   9.62295890
_cell_length_b   12.17667163
_cell_length_c   17.01644492
_cell_angle_alpha   90.00000000
_cell_angle_beta   90.00000000
_cell_angle_gamma   90.00000000
_symmetry_Int_Tables_number   1
_chemical_formula_structural   YH3(SO4)3
_chemical_formula_sum   'Y8 H24 S24 O96'
_cell_volume   1993.91232433
_cell_formula_units_Z   8
loop_
 _symmetry_equiv_pos_site_id
 _symmetry_equiv_pos_as_xyz
  1  'x, y, z'
loop_
 _atom_site_type_symbol
 _atom_site_label
 _atom_site_symmetry_multiplicity
 _atom_site_fract_x
 _atom_site_fract_y
 _atom_site_fract_z
 _atom_site_occupancy
  Y  Y0  1  0.832877  0.606489  0.269030  1
  Y  Y1  1  0.332877  0.393511  0.230970  1
  Y  Y2  1  0.667123  0.106489  0.730970  1
  Y  Y3  1  0.167123  0.893511  0.769030  1
  Y  Y4  1  0.167123  0.393511  0.730970  1
  Y  Y5  1  0.667123  0.606489  0.769030  1
  Y  Y6  1  0.332877  0.893511  0.269030  1
  Y  Y7  1  0.832877  0.106489  0.230970  1
  H  H8  1  0.100819  0.759987  0.070495  1
  H  H9  1  0.600819  0.240013  0.429505  1
  H  H10  1  0.399181  0.259987  0.929505  1
  H  H11  1  0.899181  0.740013  0.570495  1
  H  H12  1  0.899181  0.240013  0.929505  1
  H  H13  1  0.399181  0.759987  0.570495  1
  H  H14  1  0.600819  0.740013  0.070495  1
  H  H15  1  0.100819  0.259987  0.429505  1
  H  H16  1  0.618041  0.420283  0.997293  1
  H  H17  1  0.118041  0.579717  0.502707  1
  H  H18  1  0.881959  0.920283  0.002707  1
  H  H19  1  0.381959  0.079717  0.497293  1
  H  H20  1  0.381959  0.579717  0.002707  1
  H  H21  1  0.881959  0.420283  0.497293  1
  H  H22  1  0.118041  0.079717  0.997293  1
  H  H23  1  0.618041  0.920283  0.502707  1
  H  H24  1  0.878478  0.421596  0.055799  1
  H  H25  1  0.378478  0.578404  0.444201  1
  H  H26  1  0.621522  0.921596  0.944201  1
  H  H27  1  0.121522  0.078404  0.555799  1
  H  H28  1  0.121522  0.578404  0.944201  1
  H  H29  1  0.621522  0.421596  0.555799  1
  H  H30  1  0.378478  0.078404  0.055799  1
  H  H31  1  0.878478  0.921596  0.444201  1
  S  S32  1  0.169560  0.658387  0.165858  1
  S  S33  1  0.669560  0.341613  0.334142  1
  S  S34  1  0.330440  0.158387  0.834142  1
  S  S35  1  0.830440  0.841613  0.665858  1
  S  S36  1  0.830440  0.341613  0.834142  1
  S  S37  1  0.330440  0.658387  0.665858  1
  S  S38  1  0.669560  0.841613  0.165858  1
  S  S39  1  0.169560  0.158387  0.334142  1
  S  S40  1  0.092775  0.483788  0.397636  1
  S  S41  1  0.592775  0.516212  0.102364  1
  S  S42  1  0.407225  0.983788  0.602364  1
  S  S43  1  0.907225  0.016212  0.897636  1
  S  S44  1  0.907225  0.516212  0.602364  1
  S  S45  1  0.407225  0.483788  0.897636  1
  S  S46  1  0.592775  0.016212  0.397636  1
  S  S47  1  0.092775  0.983788  0.102364  1
  S  S48  1  0.982948  0.363615  0.159266  1
  S  S49  1  0.482948  0.636385  0.340734  1
  S  S50  1  0.517052  0.863615  0.840734  1
  S  S51  1  0.017052  0.136385  0.659266  1
  S  S52  1  0.017052  0.636385  0.840734  1
  S  S53  1  0.517052  0.363615  0.659266  1
  S  S54  1  0.482948  0.136385  0.159266  1
  S  S55  1  0.982948  0.863615  0.340734  1
  O  O56  1  0.035661  0.666323  0.206731  1
  O  O57  1  0.535661  0.333677  0.293269  1
  O  O58  1  0.464339  0.166323  0.793269  1
  O  O59  1  0.964339  0.833677  0.706731  1
  O  O60  1  0.964339  0.333677  0.793269  1
  O  O61  1  0.464339  0.666323  0.706731  1
  O  O62  1  0.535661  0.833677  0.206731  1
  O  O63  1  0.035661  0.166323  0.293269  1
  O  O64  1  0.768739  0.759668  0.193825  1
  O  O65  1  0.268739  0.240332  0.306175  1
  O  O66  1  0.731261  0.259668  0.806175  1
  O  O67  1  0.231261  0.740332  0.693825  1
  O  O68  1  0.231261  0.240332  0.806175  1
  O  O69  1  0.731261  0.759668  0.693825  1
  O  O70  1  0.268739  0.740332  0.193825  1
  O  O71  1  0.768739  0.259668  0.306175  1
  O  O72  1  0.141543  0.684174  0.076333  1
  O  O73  1  0.641543  0.315826  0.423667  1
  O  O74  1  0.358457  0.184174  0.923667  1
  O  O75  1  0.858457  0.815826  0.576333  1
  O  O76  1  0.858457  0.315826  0.923667  1
  O  O77  1  0.358457  0.684174  0.576333  1
  O  O78  1  0.641543  0.815826  0.076333  1
  O  O79  1  0.141543  0.184174  0.423667  1
  O  O80  1  0.226872  0.547697  0.164077  1
  O  O81  1  0.726872  0.452303  0.335923  1
  O  O82  1  0.273128  0.047697  0.835923  1
  O  O83  1  0.773128  0.952303  0.664077  1
  O  O84  1  0.773128  0.452303  0.835923  1
  O  O85  1  0.273128  0.547697  0.664077  1
  O  O86  1  0.726872  0.952303  0.164077  1
  O  O87  1  0.226872  0.047697  0.335923  1
  O  O88  1  0.696520  0.545953  0.160534  1
  O  O89  1  0.196520  0.454047  0.339466  1
  O  O90  1  0.803480  0.045953  0.839466  1
  O  O91  1  0.303480  0.954047  0.660534  1
  O  O92  1  0.303480  0.454047  0.839466  1
  O  O93  1  0.803480  0.545953  0.660534  1
  O  O94  1  0.196520  0.954047  0.160534  1
  O  O95  1  0.696520  0.045953  0.339466  1
  O  O96  1  0.986988  0.559994  0.369395  1
  O  O97  1  0.486988  0.440006  0.130605  1
  O  O98  1  0.513012  0.059994  0.630605  1
  O  O99  1  0.013012  0.940006  0.869395  1
  O  O100  1  0.013012  0.440006  0.630605  1
  O  O101  1  0.513012  0.559994  0.869395  1
  O  O102  1  0.486988  0.940006  0.369395  1
  O  O103  1  0.986988  0.059994  0.130605  1
  O  O104  1  0.030170  0.388604  0.438033  1
  O  O105  1  0.530170  0.611396  0.061967  1
  O  O106  1  0.469830  0.888604  0.561967  1
  O  O107  1  0.969830  0.111396  0.938033  1
  O  O108  1  0.969830  0.611396  0.561967  1
  O  O109  1  0.469830  0.388604  0.938033  1
  O  O110  1  0.530170  0.111396  0.438033  1
  O  O111  1  0.030170  0.888604  0.061967  1
  O  O112  1  0.681613  0.450411  0.038951  1
  O  O113  1  0.181613  0.549589  0.461049  1
  O  O114  1  0.818387  0.950411  0.961049  1
  O  O115  1  0.318387  0.049589  0.538951  1
  O  O116  1  0.318387  0.549589  0.961049  1
  O  O117  1  0.818387  0.450411  0.538951  1
  O  O118  1  0.181613  0.049589  0.038951  1
  O  O119  1  0.681613  0.950411  0.461049  1
  O  O120  1  0.130099  0.335319  0.167542  1
  O  O121  1  0.630099  0.664681  0.332458  1
  O  O122  1  0.369901  0.835319  0.832458  1
  O  O123  1  0.869901  0.164681  0.667542  1
  O  O124  1  0.869901  0.664681  0.832458  1
  O  O125  1  0.369901  0.335319  0.667542  1
  O  O126  1  0.630099  0.164681  0.167542  1
  O  O127  1  0.130099  0.835319  0.332458  1
  O  O128  1  0.939109  0.445342  0.217379  1
  O  O129  1  0.439109  0.554658  0.282621  1
  O  O130  1  0.560891  0.945342  0.782621  1
  O  O131  1  0.060891  0.054658  0.717379  1
  O  O132  1  0.060891  0.554658  0.782621  1
  O  O133  1  0.560891  0.445342  0.717379  1
  O  O134  1  0.439109  0.054658  0.217379  1
  O  O135  1  0.939109  0.945342  0.282621  1
  O  O136  1  0.975751  0.417703  0.074839  1
  O  O137  1  0.475751  0.582297  0.425161  1
  O  O138  1  0.524249  0.917703  0.925161  1
  O  O139  1  0.024249  0.082297  0.574839  1
  O  O140  1  0.024249  0.582297  0.925161  1
  O  O141  1  0.524249  0.417703  0.574839  1
  O  O142  1  0.475751  0.082297  0.074839  1
  O  O143  1  0.975751  0.917703  0.425161  1
  O  O144  1  0.891787  0.267620  0.156778  1
  O  O145  1  0.391787  0.732380  0.343222  1
  O  O146  1  0.608213  0.767620  0.843222  1
  O  O147  1  0.108213  0.232380  0.656778  1
  O  O148  1  0.108213  0.732380  0.843222  1
  O  O149  1  0.608213  0.267620  0.656778  1
  O  O150  1  0.391787  0.232380  0.156778  1
  O  O151  1  0.891787  0.767620  0.343222  1
