# generated using pymatgen
data_Pd(Se3Cl)2
_symmetry_space_group_name_H-M   'P 1'
_cell_length_a   4.95376487
_cell_length_b   8.60234738
_cell_length_c   13.27015719
_cell_angle_alpha   90.00000000
_cell_angle_beta   102.33098486
_cell_angle_gamma   90.00000000
_symmetry_Int_Tables_number   1
_chemical_formula_structural   Pd(Se3Cl)2
_chemical_formula_sum   'Pd2 Se12 Cl4'
_cell_volume   552.44873038
_cell_formula_units_Z   2
loop_
 _symmetry_equiv_pos_site_id
 _symmetry_equiv_pos_as_xyz
  1  'x, y, z'
loop_
 _atom_site_type_symbol
 _atom_site_label
 _atom_site_symmetry_multiplicity
 _atom_site_fract_x
 _atom_site_fract_y
 _atom_site_fract_z
 _atom_site_occupancy
  Pd  Pd0  1  0.000000  0.500000  0.500000  1
  Pd  Pd1  1  0.000000  0.000000  0.000000  1
  Se  Se2  1  0.179708  0.121262  0.647182  1
  Se  Se3  1  0.820292  0.878738  0.352818  1
  Se  Se4  1  0.005456  0.368776  0.860523  1
  Se  Se5  1  0.179708  0.378738  0.147182  1
  Se  Se6  1  0.994544  0.631224  0.139477  1
  Se  Se7  1  0.005456  0.131224  0.360523  1
  Se  Se8  1  0.160917  0.732271  0.993384  1
  Se  Se9  1  0.839083  0.232271  0.506616  1
  Se  Se10  1  0.839083  0.267729  0.006616  1
  Se  Se11  1  0.160917  0.767729  0.493384  1
  Se  Se12  1  0.994544  0.868776  0.639477  1
  Se  Se13  1  0.820292  0.621262  0.852818  1
  Cl  Cl14  1  0.645783  0.536654  0.355552  1
  Cl  Cl15  1  0.354217  0.036654  0.144448  1
  Cl  Cl16  1  0.354217  0.463346  0.644448  1
  Cl  Cl17  1  0.645783  0.963346  0.855552  1
