# generated using pymatgen
data_SnP2PbO8
_symmetry_space_group_name_H-M   'P 1'
_cell_length_a   4.93070710
_cell_length_b   15.07305123
_cell_length_c   10.01866199
_cell_angle_alpha   90.00000000
_cell_angle_beta   116.78479499
_cell_angle_gamma   90.00000000
_symmetry_Int_Tables_number   1
_chemical_formula_structural   SnP2PbO8
_chemical_formula_sum   'Sn4 P8 Pb4 O32'
_cell_volume   664.70399062
_cell_formula_units_Z   4
loop_
 _symmetry_equiv_pos_site_id
 _symmetry_equiv_pos_as_xyz
  1  'x, y, z'
loop_
 _atom_site_type_symbol
 _atom_site_label
 _atom_site_symmetry_multiplicity
 _atom_site_fract_x
 _atom_site_fract_y
 _atom_site_fract_z
 _atom_site_occupancy
  Sn  Sn0  1  0.186125  0.141540  0.949802  1
  Sn  Sn1  1  0.813875  0.641540  0.550198  1
  Sn  Sn2  1  0.813875  0.858460  0.050198  1
  Sn  Sn3  1  0.186125  0.358460  0.449802  1
  P  P4  1  0.552724  0.023490  0.796518  1
  P  P5  1  0.447276  0.523490  0.703482  1
  P  P6  1  0.447276  0.976510  0.203482  1
  P  P7  1  0.552724  0.476510  0.296518  1
  P  P8  1  0.171943  0.737427  0.890523  1
  P  P9  1  0.828057  0.237427  0.609477  1
  P  P10  1  0.828057  0.262573  0.109477  1
  P  P11  1  0.171943  0.762573  0.390523  1
  Pb  Pb12  1  0.125016  0.399398  0.910830  1
  Pb  Pb13  1  0.874984  0.899398  0.589170  1
  Pb  Pb14  1  0.874984  0.600602  0.089170  1
  Pb  Pb15  1  0.125016  0.100602  0.410830  1
  O  O16  1  0.432118  0.107301  0.839247  1
  O  O17  1  0.567882  0.607301  0.660753  1
  O  O18  1  0.567882  0.892699  0.160753  1
  O  O19  1  0.432118  0.392699  0.339247  1
  O  O20  1  0.894340  0.039169  0.837698  1
  O  O21  1  0.105660  0.539169  0.662302  1
  O  O22  1  0.105660  0.960831  0.162302  1
  O  O23  1  0.894340  0.460831  0.337698  1
  O  O24  1  0.522556  0.937931  0.875827  1
  O  O25  1  0.477444  0.437931  0.624173  1
  O  O26  1  0.477444  0.062069  0.124173  1
  O  O27  1  0.522556  0.562069  0.375827  1
  O  O28  1  0.628527  0.504602  0.872788  1
  O  O29  1  0.371473  0.004602  0.627212  1
  O  O30  1  0.371473  0.495398  0.127212  1
  O  O31  1  0.628527  0.995398  0.372788  1
  O  O32  1  0.109482  0.848343  0.450685  1
  O  O33  1  0.890518  0.348343  0.049315  1
  O  O34  1  0.890518  0.151657  0.549315  1
  O  O35  1  0.109482  0.651657  0.950685  1
  O  O36  1  0.526693  0.750453  0.464538  1
  O  O37  1  0.473307  0.250453  0.035462  1
  O  O38  1  0.473307  0.249547  0.535462  1
  O  O39  1  0.526693  0.749547  0.964538  1
  O  O40  1  0.017460  0.678787  0.416747  1
  O  O41  1  0.982540  0.178787  0.083253  1
  O  O42  1  0.982540  0.321213  0.583253  1
  O  O43  1  0.017460  0.821213  0.916747  1
  O  O44  1  0.935060  0.265925  0.282906  1
  O  O45  1  0.064940  0.765925  0.217094  1
  O  O46  1  0.064940  0.734075  0.717094  1
  O  O47  1  0.935060  0.234075  0.782906  1
