# generated using pymatgen
data_Ti(PO3)4
_symmetry_space_group_name_H-M   'P 1'
_cell_length_a   8.33176968
_cell_length_b   9.30344473
_cell_length_c   12.99585527
_cell_angle_alpha   90.00000000
_cell_angle_beta   90.00000000
_cell_angle_gamma   90.00000000
_symmetry_Int_Tables_number   1
_chemical_formula_structural   Ti(PO3)4
_chemical_formula_sum   'Ti4 P16 O48'
_cell_volume   1007.36278811
_cell_formula_units_Z   4
loop_
 _symmetry_equiv_pos_site_id
 _symmetry_equiv_pos_as_xyz
  1  'x, y, z'
loop_
 _atom_site_type_symbol
 _atom_site_label
 _atom_site_symmetry_multiplicity
 _atom_site_fract_x
 _atom_site_fract_y
 _atom_site_fract_z
 _atom_site_occupancy
  Ti  Ti0  1  0.848121  0.750000  0.000000  1
  Ti  Ti1  1  0.151879  0.250000  0.000000  1
  Ti  Ti2  1  0.651879  0.250000  0.500000  1
  Ti  Ti3  1  0.348121  0.750000  0.500000  1
  P  P4  1  0.681209  0.506082  0.147280  1
  P  P5  1  0.318791  0.006082  0.147280  1
  P  P6  1  0.962949  0.017718  0.148257  1
  P  P7  1  0.037051  0.517718  0.148257  1
  P  P8  1  0.537051  0.517718  0.351743  1
  P  P9  1  0.462949  0.017718  0.351743  1
  P  P10  1  0.818791  0.006082  0.352720  1
  P  P11  1  0.181209  0.506082  0.352720  1
  P  P12  1  0.818791  0.493918  0.647280  1
  P  P13  1  0.181209  0.993918  0.647280  1
  P  P14  1  0.537051  0.982282  0.648257  1
  P  P15  1  0.462949  0.482282  0.648257  1
  P  P16  1  0.962949  0.482282  0.851743  1
  P  P17  1  0.037051  0.982282  0.851743  1
  P  P18  1  0.681209  0.993918  0.852720  1
  P  P19  1  0.318791  0.493918  0.852720  1
  O  O20  1  0.700782  0.634570  0.073280  1
  O  O21  1  0.299218  0.134570  0.073280  1
  O  O22  1  0.975927  0.136671  0.069424  1
  O  O23  1  0.024073  0.636671  0.069424  1
  O  O24  1  0.588174  0.379732  0.117631  1
  O  O25  1  0.411826  0.879732  0.117631  1
  O  O26  1  0.865541  0.887863  0.115631  1
  O  O27  1  0.134459  0.387863  0.115631  1
  O  O28  1  0.863686  0.464941  0.182821  1
  O  O29  1  0.136314  0.964941  0.182821  1
  O  O30  1  0.616652  0.584684  0.251794  1
  O  O31  1  0.383348  0.084684  0.251794  1
  O  O32  1  0.883348  0.084684  0.248206  1
  O  O33  1  0.116652  0.584684  0.248206  1
  O  O34  1  0.636314  0.964941  0.317179  1
  O  O35  1  0.363686  0.464941  0.317179  1
  O  O36  1  0.634459  0.387863  0.384369  1
  O  O37  1  0.365541  0.887863  0.384369  1
  O  O38  1  0.911826  0.879732  0.382369  1
  O  O39  1  0.088174  0.379732  0.382369  1
  O  O40  1  0.524073  0.636671  0.430576  1
  O  O41  1  0.475927  0.136671  0.430576  1
  O  O42  1  0.799218  0.134570  0.426720  1
  O  O43  1  0.200782  0.634570  0.426720  1
  O  O44  1  0.799218  0.365430  0.573280  1
  O  O45  1  0.200782  0.865430  0.573280  1
  O  O46  1  0.524073  0.863329  0.569424  1
  O  O47  1  0.475927  0.363329  0.569424  1
  O  O48  1  0.911826  0.620268  0.617631  1
  O  O49  1  0.088174  0.120268  0.617631  1
  O  O50  1  0.634459  0.112137  0.615631  1
  O  O51  1  0.365541  0.612137  0.615631  1
  O  O52  1  0.636314  0.535059  0.682821  1
  O  O53  1  0.363686  0.035059  0.682821  1
  O  O54  1  0.883348  0.415316  0.751794  1
  O  O55  1  0.116652  0.915316  0.751794  1
  O  O56  1  0.616652  0.915316  0.748206  1
  O  O57  1  0.383348  0.415316  0.748206  1
  O  O58  1  0.863686  0.035059  0.817179  1
  O  O59  1  0.136314  0.535059  0.817179  1
  O  O60  1  0.865541  0.612137  0.884369  1
  O  O61  1  0.134459  0.112137  0.884369  1
  O  O62  1  0.588174  0.120268  0.882369  1
  O  O63  1  0.411826  0.620268  0.882369  1
  O  O64  1  0.975927  0.363329  0.930576  1
  O  O65  1  0.024073  0.863329  0.930576  1
  O  O66  1  0.700782  0.865430  0.926720  1
  O  O67  1  0.299218  0.365430  0.926720  1
