# generated using pymatgen
data_H5BrO2
_symmetry_space_group_name_H-M   'P 1'
_cell_length_a   4.26466779
_cell_length_b   12.62576419
_cell_length_c   6.97744452
_cell_angle_alpha   90.00000000
_cell_angle_beta   100.92784043
_cell_angle_gamma   90.00000000
_symmetry_Int_Tables_number   1
_chemical_formula_structural   H5BrO2
_chemical_formula_sum   'H20 Br4 O8'
_cell_volume   368.88569063
_cell_formula_units_Z   4
loop_
 _symmetry_equiv_pos_site_id
 _symmetry_equiv_pos_as_xyz
  1  'x, y, z'
loop_
 _atom_site_type_symbol
 _atom_site_label
 _atom_site_symmetry_multiplicity
 _atom_site_fract_x
 _atom_site_fract_y
 _atom_site_fract_z
 _atom_site_occupancy
  H  H0  1  0.227618  0.602384  0.900579  1
  H  H1  1  0.772382  0.102384  0.599421  1
  H  H2  1  0.772382  0.397616  0.099421  1
  H  H3  1  0.227618  0.897616  0.400579  1
  H  H4  1  0.219832  0.486882  0.800317  1
  H  H5  1  0.780168  0.986882  0.699683  1
  H  H6  1  0.780168  0.513118  0.199683  1
  H  H7  1  0.219832  0.013118  0.300317  1
  H  H8  1  0.388789  0.647147  0.422017  1
  H  H9  1  0.611211  0.147147  0.077983  1
  H  H10  1  0.611211  0.352853  0.577983  1
  H  H11  1  0.388789  0.852853  0.922017  1
  H  H12  1  0.429456  0.901984  0.165959  1
  H  H13  1  0.570544  0.401984  0.334041  1
  H  H14  1  0.570544  0.098016  0.834041  1
  H  H15  1  0.429456  0.598016  0.665959  1
  H  H16  1  0.691802  0.808764  0.080227  1
  H  H17  1  0.308198  0.308764  0.419773  1
  H  H18  1  0.308198  0.191236  0.919773  1
  H  H19  1  0.691802  0.691236  0.580227  1
  Br  Br20  1  0.022018  0.831664  0.657877  1
  Br  Br21  1  0.977982  0.331664  0.842123  1
  Br  Br22  1  0.977982  0.168336  0.342123  1
  Br  Br23  1  0.022018  0.668336  0.157877  1
  O  O24  1  0.315757  0.558920  0.804632  1
  O  O25  1  0.684243  0.058920  0.695368  1
  O  O26  1  0.684243  0.441080  0.195368  1
  O  O27  1  0.315757  0.941080  0.304632  1
  O  O28  1  0.551952  0.627969  0.541310  1
  O  O29  1  0.448048  0.127969  0.958690  1
  O  O30  1  0.448048  0.372031  0.458690  1
  O  O31  1  0.551952  0.872031  0.041310  1
