# generated using pymatgen
data_K4CdCl6
_symmetry_space_group_name_H-M   'P 1'
_cell_length_a   8.72620730
_cell_length_b   8.72620730
_cell_length_c   8.72620730
_cell_angle_alpha   89.87045656
_cell_angle_beta   89.87045656
_cell_angle_gamma   89.87045656
_symmetry_Int_Tables_number   1
_chemical_formula_structural   K4CdCl6
_chemical_formula_sum   'K8 Cd2 Cl12'
_cell_volume   664.46674836
_cell_formula_units_Z   2
loop_
 _symmetry_equiv_pos_site_id
 _symmetry_equiv_pos_as_xyz
  1  'x, y, z'
loop_
 _atom_site_type_symbol
 _atom_site_label
 _atom_site_symmetry_multiplicity
 _atom_site_fract_x
 _atom_site_fract_y
 _atom_site_fract_z
 _atom_site_occupancy
  K  K0  1  0.750000  0.750000  0.750000  1
  K  K1  1  0.250000  0.250000  0.250000  1
  K  K2  1  0.626535  0.873465  0.250000  1
  K  K3  1  0.873465  0.250000  0.626535  1
  K  K4  1  0.250000  0.626535  0.873465  1
  K  K5  1  0.373465  0.126535  0.750000  1
  K  K6  1  0.126535  0.750000  0.373465  1
  K  K7  1  0.750000  0.373465  0.126535  1
  Cd  Cd8  1  0.000000  0.000000  0.000000  1
  Cd  Cd9  1  0.500000  0.500000  0.500000  1
  Cl  Cl10  1  0.206279  0.429670  0.556454  1
  Cl  Cl11  1  0.429670  0.556454  0.206279  1
  Cl  Cl12  1  0.556454  0.206279  0.429670  1
  Cl  Cl13  1  0.070330  0.293721  0.943546  1
  Cl  Cl14  1  0.293721  0.943546  0.070330  1
  Cl  Cl15  1  0.943546  0.070330  0.293721  1
  Cl  Cl16  1  0.793721  0.570330  0.443546  1
  Cl  Cl17  1  0.570330  0.443546  0.793721  1
  Cl  Cl18  1  0.443546  0.793721  0.570330  1
  Cl  Cl19  1  0.929670  0.706279  0.056454  1
  Cl  Cl20  1  0.056454  0.929670  0.706279  1
  Cl  Cl21  1  0.706279  0.056454  0.929670  1
