# generated using pymatgen
data_K2CoH8(CO5)2
_symmetry_space_group_name_H-M   'P 1'
_cell_length_a   6.93099797
_cell_length_b   6.31692063
_cell_length_c   12.33420538
_cell_angle_alpha   90.00000000
_cell_angle_beta   114.25633202
_cell_angle_gamma   90.00000000
_symmetry_Int_Tables_number   1
_chemical_formula_structural   K2CoH8(CO5)2
_chemical_formula_sum   'K4 Co2 H16 C4 O20'
_cell_volume   492.34808418
_cell_formula_units_Z   2
loop_
 _symmetry_equiv_pos_site_id
 _symmetry_equiv_pos_as_xyz
  1  'x, y, z'
loop_
 _atom_site_type_symbol
 _atom_site_label
 _atom_site_symmetry_multiplicity
 _atom_site_fract_x
 _atom_site_fract_y
 _atom_site_fract_z
 _atom_site_occupancy
  K  K0  1  0.732670  0.654542  0.316334  1
  K  K1  1  0.267330  0.154542  0.183666  1
  K  K2  1  0.267330  0.345458  0.683666  1
  K  K3  1  0.732670  0.845458  0.816334  1
  Co  Co4  1  0.500000  0.000000  0.500000  1
  Co  Co5  1  0.500000  0.500000  0.000000  1
  H  H6  1  0.800370  0.674544  0.578221  1
  H  H7  1  0.199630  0.174544  0.921779  1
  H  H8  1  0.199630  0.325456  0.421779  1
  H  H9  1  0.800370  0.825456  0.078221  1
  H  H10  1  0.928115  0.890163  0.611055  1
  H  H11  1  0.071885  0.390163  0.888945  1
  H  H12  1  0.290746  0.697260  0.516538  1
  H  H13  1  0.709254  0.197260  0.983462  1
  H  H14  1  0.709254  0.302740  0.483462  1
  H  H15  1  0.290746  0.802740  0.016538  1
  H  H16  1  0.299966  0.836391  0.632277  1
  H  H17  1  0.700034  0.336391  0.867723  1
  H  H18  1  0.700034  0.163609  0.367723  1
  H  H19  1  0.299966  0.663609  0.132277  1
  H  H20  1  0.071885  0.109837  0.388945  1
  H  H21  1  0.928115  0.609837  0.111055  1
  C  C22  1  0.242302  0.654086  0.319019  1
  C  C23  1  0.242302  0.845914  0.819019  1
  C  C24  1  0.757698  0.345914  0.680981  1
  C  C25  1  0.757698  0.154086  0.180981  1
  O  O26  1  0.207807  0.172546  0.446387  1
  O  O27  1  0.168947  0.583150  0.394236  1
  O  O28  1  0.387723  0.723189  0.091163  1
  O  O29  1  0.182032  0.933294  0.714796  1
  O  O30  1  0.612277  0.276811  0.908837  1
  O  O31  1  0.387723  0.776811  0.591163  1
  O  O32  1  0.792193  0.672546  0.053613  1
  O  O33  1  0.831053  0.083150  0.105764  1
  O  O34  1  0.207807  0.327454  0.946387  1
  O  O35  1  0.792193  0.827454  0.553613  1
  O  O36  1  0.375808  0.810231  0.347077  1
  O  O37  1  0.624192  0.310231  0.152923  1
  O  O38  1  0.624192  0.189769  0.652923  1
  O  O39  1  0.375808  0.689769  0.847077  1
  O  O40  1  0.817968  0.066706  0.285204  1
  O  O41  1  0.817968  0.433294  0.785204  1
  O  O42  1  0.168947  0.916850  0.894236  1
  O  O43  1  0.182032  0.566706  0.214796  1
  O  O44  1  0.831053  0.416850  0.605764  1
  O  O45  1  0.612277  0.223189  0.408837  1
