# generated using pymatgen
data_NaClO4
_symmetry_space_group_name_H-M   'P 1'
_cell_length_a   4.87425159
_cell_length_b   4.87425159
_cell_length_c   7.17920379
_cell_angle_alpha   90.00000000
_cell_angle_beta   90.00000000
_cell_angle_gamma   94.95124784
_symmetry_Int_Tables_number   1
_chemical_formula_structural   NaClO4
_chemical_formula_sum   'Na2 Cl2 O8'
_cell_volume   169.92941524
_cell_formula_units_Z   2
loop_
 _symmetry_equiv_pos_site_id
 _symmetry_equiv_pos_as_xyz
  1  'x, y, z'
loop_
 _atom_site_type_symbol
 _atom_site_label
 _atom_site_symmetry_multiplicity
 _atom_site_fract_x
 _atom_site_fract_y
 _atom_site_fract_z
 _atom_site_occupancy
  Na  Na0  1  0.663653  0.663653  0.250000  1
  Na  Na1  1  0.336347  0.336347  0.750000  1
  Cl  Cl2  1  0.168131  0.168131  0.250000  1
  Cl  Cl3  1  0.831869  0.831869  0.750000  1
  O  O4  1  0.797080  0.126662  0.750000  1
  O  O5  1  0.202920  0.873338  0.250000  1
  O  O6  1  0.126662  0.797080  0.750000  1
  O  O7  1  0.873338  0.202920  0.250000  1
  O  O8  1  0.298994  0.298994  0.085988  1
  O  O9  1  0.701006  0.701006  0.585988  1
  O  O10  1  0.298994  0.298994  0.414012  1
  O  O11  1  0.701006  0.701006  0.914012  1
