# generated using pymatgen
data_Sm3InS6
_symmetry_space_group_name_H-M   'P 1'
_cell_length_a   3.93522056
_cell_length_b   13.73468402
_cell_length_c   16.71713498
_cell_angle_alpha   90.00000000
_cell_angle_beta   90.00000000
_cell_angle_gamma   90.00000000
_symmetry_Int_Tables_number   1
_chemical_formula_structural   Sm3InS6
_chemical_formula_sum   'Sm12 In4 S24'
_cell_volume   903.54461143
_cell_formula_units_Z   4
loop_
 _symmetry_equiv_pos_site_id
 _symmetry_equiv_pos_as_xyz
  1  'x, y, z'
loop_
 _atom_site_type_symbol
 _atom_site_label
 _atom_site_symmetry_multiplicity
 _atom_site_fract_x
 _atom_site_fract_y
 _atom_site_fract_z
 _atom_site_occupancy
  Sm  Sm0  1  0.500000  0.688170  0.353842  1
  Sm  Sm1  1  0.500000  0.311830  0.646158  1
  Sm  Sm2  1  0.000000  0.188170  0.146158  1
  Sm  Sm3  1  0.000000  0.811830  0.853842  1
  Sm  Sm4  1  0.000000  0.748403  0.106472  1
  Sm  Sm5  1  0.000000  0.251597  0.893528  1
  Sm  Sm6  1  0.500000  0.248403  0.393528  1
  Sm  Sm7  1  0.500000  0.751597  0.606472  1
  Sm  Sm8  1  0.000000  0.959346  0.276793  1
  Sm  Sm9  1  0.000000  0.040654  0.723207  1
  Sm  Sm10  1  0.500000  0.459346  0.223207  1
  Sm  Sm11  1  0.500000  0.540654  0.776793  1
  In  In12  1  0.000000  0.500000  0.000000  1
  In  In13  1  0.500000  0.000000  0.500000  1
  In  In14  1  0.000000  0.500000  0.500000  1
  In  In15  1  0.500000  0.000000  0.000000  1
  S  S16  1  0.000000  0.978599  0.104025  1
  S  S17  1  0.000000  0.021401  0.895975  1
  S  S18  1  0.500000  0.478599  0.395975  1
  S  S19  1  0.500000  0.521401  0.604025  1
  S  S20  1  0.000000  0.690413  0.480089  1
  S  S21  1  0.000000  0.309587  0.519911  1
  S  S22  1  0.500000  0.190413  0.019911  1
  S  S23  1  0.500000  0.809587  0.980089  1
  S  S24  1  0.500000  0.887757  0.384071  1
  S  S25  1  0.500000  0.112243  0.615929  1
  S  S26  1  0.000000  0.387757  0.115929  1
  S  S27  1  0.000000  0.612243  0.884071  1
  S  S28  1  0.000000  0.611378  0.252743  1
  S  S29  1  0.000000  0.388622  0.747257  1
  S  S30  1  0.500000  0.111378  0.247257  1
  S  S31  1  0.500000  0.888622  0.752743  1
  S  S32  1  0.000000  0.905079  0.585275  1
  S  S33  1  0.000000  0.094921  0.414725  1
  S  S34  1  0.500000  0.405079  0.914725  1
  S  S35  1  0.500000  0.594921  0.085275  1
  S  S36  1  0.000000  0.682243  0.714107  1
  S  S37  1  0.000000  0.317757  0.285893  1
  S  S38  1  0.500000  0.182243  0.785893  1
  S  S39  1  0.500000  0.817757  0.214107  1
