# generated using pymatgen
data_NbPCl10
_symmetry_space_group_name_H-M   'P 1'
_cell_length_a   7.34782090
_cell_length_b   7.59511169
_cell_length_c   14.17640338
_cell_angle_alpha   91.08802972
_cell_angle_beta   91.15233596
_cell_angle_gamma   106.27275828
_symmetry_Int_Tables_number   1
_chemical_formula_structural   NbPCl10
_chemical_formula_sum   'Nb2 P2 Cl20'
_cell_volume   759.05182664
_cell_formula_units_Z   2
loop_
 _symmetry_equiv_pos_site_id
 _symmetry_equiv_pos_as_xyz
  1  'x, y, z'
loop_
 _atom_site_type_symbol
 _atom_site_label
 _atom_site_symmetry_multiplicity
 _atom_site_fract_x
 _atom_site_fract_y
 _atom_site_fract_z
 _atom_site_occupancy
  Nb  Nb0  1  0.000000  0.000000  0.500000  1
  Nb  Nb1  1  0.000000  0.000000  0.000000  1
  P  P2  1  0.380553  0.591828  0.760715  1
  P  P3  1  0.619447  0.408172  0.239285  1
  Cl  Cl4  1  0.293864  0.078895  0.920991  1
  Cl  Cl5  1  0.706136  0.921105  0.079009  1
  Cl  Cl6  1  0.111602  0.268880  0.099414  1
  Cl  Cl7  1  0.888398  0.731120  0.900586  1
  Cl  Cl8  1  0.126761  0.827216  0.109151  1
  Cl  Cl9  1  0.873239  0.172784  0.890849  1
  Cl  Cl10  1  0.225140  0.290248  0.477405  1
  Cl  Cl11  1  0.774860  0.709752  0.522595  1
  Cl  Cl12  1  0.230033  0.846219  0.455432  1
  Cl  Cl13  1  0.769967  0.153781  0.544568  1
  Cl  Cl14  1  0.102023  0.007657  0.660627  1
  Cl  Cl15  1  0.897977  0.992343  0.339373  1
  Cl  Cl16  1  0.658384  0.411588  0.103411  1
  Cl  Cl17  1  0.341616  0.588412  0.896589  1
  Cl  Cl18  1  0.864760  0.476479  0.306342  1
  Cl  Cl19  1  0.135240  0.523521  0.693658  1
  Cl  Cl20  1  0.473207  0.164121  0.276021  1
  Cl  Cl21  1  0.526793  0.835879  0.723979  1
  Cl  Cl22  1  0.480577  0.584750  0.273775  1
  Cl  Cl23  1  0.519423  0.415250  0.726225  1
