# generated using pymatgen
data_PH4N3
_symmetry_space_group_name_H-M   'P 1'
_cell_length_a   10.83542154
_cell_length_b   6.17200450
_cell_length_c   13.81452825
_cell_angle_alpha   90.00000000
_cell_angle_beta   97.44998576
_cell_angle_gamma   90.00000000
_symmetry_Int_Tables_number   1
_chemical_formula_structural   PH4N3
_chemical_formula_sum   'P12 H48 N36'
_cell_volume   916.06525667
_cell_formula_units_Z   12
loop_
 _symmetry_equiv_pos_site_id
 _symmetry_equiv_pos_as_xyz
  1  'x, y, z'
loop_
 _atom_site_type_symbol
 _atom_site_label
 _atom_site_symmetry_multiplicity
 _atom_site_fract_x
 _atom_site_fract_y
 _atom_site_fract_z
 _atom_site_occupancy
  P  P0  1  0.851596  0.498813  0.161080  1
  P  P1  1  0.148404  0.998813  0.338920  1
  P  P2  1  0.148404  0.501187  0.838920  1
  P  P3  1  0.851596  0.001187  0.661080  1
  P  P4  1  0.611705  0.676237  0.159030  1
  P  P5  1  0.388295  0.176237  0.340970  1
  P  P6  1  0.388295  0.323763  0.840970  1
  P  P7  1  0.611705  0.823763  0.659030  1
  P  P8  1  0.760314  0.608063  0.340130  1
  P  P9  1  0.239686  0.108063  0.159870  1
  P  P10  1  0.239686  0.391937  0.659870  1
  P  P11  1  0.760314  0.891937  0.840130  1
  H  H12  1  0.551556  0.566504  0.842778  1
  H  H13  1  0.448444  0.066504  0.657222  1
  H  H14  1  0.448444  0.433496  0.157222  1
  H  H15  1  0.551556  0.933496  0.342778  1
  H  H16  1  0.442232  0.568006  0.049820  1
  H  H17  1  0.557768  0.068006  0.450180  1
  H  H18  1  0.557768  0.431994  0.950180  1
  H  H19  1  0.442232  0.931994  0.549820  1
  H  H20  1  0.625828  0.535956  0.553854  1
  H  H21  1  0.374172  0.035956  0.946146  1
  H  H22  1  0.374172  0.464044  0.446146  1
  H  H23  1  0.625828  0.964044  0.053854  1
  H  H24  1  0.462521  0.526751  0.355325  1
  H  H25  1  0.537479  0.026751  0.144675  1
  H  H26  1  0.537479  0.473249  0.644675  1
  H  H27  1  0.462521  0.973249  0.855325  1
  H  H28  1  0.868517  0.574067  0.882828  1
  H  H29  1  0.131483  0.074067  0.617172  1
  H  H30  1  0.131483  0.425933  0.117172  1
  H  H31  1  0.868517  0.925933  0.382828  1
  H  H32  1  0.766254  0.639829  0.964118  1
  H  H33  1  0.233746  0.139829  0.535882  1
  H  H34  1  0.233746  0.360171  0.035882  1
  H  H35  1  0.330035  0.804432  0.106176  1
  H  H36  1  0.040457  0.678121  0.345871  1
  H  H37  1  0.959543  0.178121  0.154129  1
  H  H38  1  0.959543  0.321879  0.654129  1
  H  H39  1  0.040457  0.821879  0.845871  1
  H  H40  1  0.196886  0.643662  0.360338  1
  H  H41  1  0.803114  0.143662  0.139662  1
  H  H42  1  0.803114  0.356338  0.639662  1
  H  H43  1  0.196886  0.856338  0.860338  1
  H  H44  1  0.956084  0.663519  0.047780  1
  H  H45  1  0.043916  0.163519  0.452220  1
  H  H46  1  0.043916  0.336481  0.952220  1
  H  H47  1  0.956084  0.836481  0.547780  1
  H  H48  1  0.002761  0.761470  0.159977  1
  H  H49  1  0.997239  0.261470  0.340023  1
  H  H50  1  0.997239  0.238530  0.840023  1
  H  H51  1  0.002761  0.738530  0.659977  1
  H  H52  1  0.201695  0.625266  0.528119  1
  H  H53  1  0.798305  0.125266  0.971881  1
  H  H54  1  0.798305  0.374734  0.471881  1
  H  H55  1  0.201695  0.874734  0.028119  1
  H  H56  1  0.330035  0.695568  0.606176  1
  H  H57  1  0.669965  0.195568  0.893824  1
  H  H58  1  0.669965  0.304432  0.393824  1
  H  H59  1  0.766254  0.860171  0.464118  1
  N  N60  1  0.626799  0.656894  0.276148  1
  N  N61  1  0.373201  0.156894  0.223852  1
  N  N62  1  0.373201  0.343106  0.723852  1
  N  N63  1  0.626799  0.843106  0.776148  1
  N  N64  1  0.716457  0.559968  0.103906  1
  N  N65  1  0.283543  0.059968  0.396094  1
  N  N66  1  0.283543  0.440032  0.896094  1
  N  N67  1  0.716457  0.940032  0.603906  1
  N  N68  1  0.871026  0.540979  0.277604  1
  N  N69  1  0.128974  0.040979  0.222396  1
  N  N70  1  0.128974  0.459021  0.722396  1
  N  N71  1  0.871026  0.959021  0.777604  1
  N  N72  1  0.469342  0.575403  0.123418  1
  N  N73  1  0.530658  0.075403  0.376582  1
  N  N74  1  0.530658  0.424597  0.876582  1
  N  N75  1  0.469342  0.924597  0.623418  1
  N  N76  1  0.608589  0.564878  0.623947  1
  N  N77  1  0.391411  0.064878  0.876053  1
  N  N78  1  0.391411  0.435122  0.376053  1
  N  N79  1  0.608589  0.935122  0.123947  1
  N  N80  1  0.819055  0.693539  0.912336  1
  N  N81  1  0.180945  0.193539  0.587664  1
  N  N82  1  0.180945  0.306461  0.087664  1
  N  N83  1  0.819055  0.806461  0.412336  1
  N  N84  1  0.273985  0.929324  0.077269  1
  N  N85  1  0.874684  0.243894  0.126608  1
  N  N86  1  0.874684  0.256106  0.626608  1
  N  N87  1  0.125316  0.756106  0.873392  1
  N  N88  1  0.971914  0.626386  0.120784  1
  N  N89  1  0.028086  0.126386  0.379216  1
  N  N90  1  0.028086  0.373614  0.879216  1
  N  N91  1  0.971914  0.873614  0.620784  1
  N  N92  1  0.273985  0.570676  0.577269  1
  N  N93  1  0.726015  0.070676  0.922731  1
  N  N94  1  0.726015  0.429324  0.422731  1
  N  N95  1  0.125316  0.743894  0.373392  1
