# generated using pymatgen
data_TlInSe2
_symmetry_space_group_name_H-M   'P 1'
_cell_length_a   6.80392746
_cell_length_b   6.80392746
_cell_length_c   6.80392746
_cell_angle_alpha   105.30286073
_cell_angle_beta   105.30286073
_cell_angle_gamma   118.17444121
_symmetry_Int_Tables_number   1
_chemical_formula_structural   TlInSe2
_chemical_formula_sum   'Tl2 In2 Se4'
_cell_volume   238.21574915
_cell_formula_units_Z   2
loop_
 _symmetry_equiv_pos_site_id
 _symmetry_equiv_pos_as_xyz
  1  'x, y, z'
loop_
 _atom_site_type_symbol
 _atom_site_label
 _atom_site_symmetry_multiplicity
 _atom_site_fract_x
 _atom_site_fract_y
 _atom_site_fract_z
 _atom_site_occupancy
  Tl  Tl0  1  0.750000  0.750000  0.000000  1
  Tl  Tl1  1  0.250000  0.250000  0.000000  1
  In  In2  1  0.750000  0.250000  0.500000  1
  In  In3  1  0.250000  0.750000  0.500000  1
  Se  Se4  1  0.329281  0.829281  0.158561  1
  Se  Se5  1  0.670719  0.170719  0.841439  1
  Se  Se6  1  0.829281  0.670719  0.500000  1
  Se  Se7  1  0.170719  0.329281  0.500000  1
