# generated using pymatgen
data_KSnF3
_symmetry_space_group_name_H-M   'P 1'
_cell_length_a   8.22964687
_cell_length_b   10.20420187
_cell_length_c   10.50167557
_cell_angle_alpha   79.88334348
_cell_angle_beta   72.31119116
_cell_angle_gamma   74.39245754
_symmetry_Int_Tables_number   1
_chemical_formula_structural   KSnF3
_chemical_formula_sum   'K8 Sn8 F24'
_cell_volume   804.97422267
_cell_formula_units_Z   8
loop_
 _symmetry_equiv_pos_site_id
 _symmetry_equiv_pos_as_xyz
  1  'x, y, z'
loop_
 _atom_site_type_symbol
 _atom_site_label
 _atom_site_symmetry_multiplicity
 _atom_site_fract_x
 _atom_site_fract_y
 _atom_site_fract_z
 _atom_site_occupancy
  K  K0  1  0.542591  0.876304  0.367945  1
  K  K1  1  0.457409  0.123696  0.632055  1
  K  K2  1  0.050247  0.849422  0.394307  1
  K  K3  1  0.949753  0.150578  0.605693  1
  K  K4  1  0.747471  0.509936  0.490560  1
  K  K5  1  0.252529  0.490064  0.509440  1
  K  K6  1  0.736979  0.025200  0.990395  1
  K  K7  1  0.263021  0.974800  0.009605  1
  Sn  Sn8  1  0.540851  0.623898  0.144765  1
  Sn  Sn9  1  0.459149  0.376102  0.855235  1
  Sn  Sn10  1  0.028173  0.644605  0.130745  1
  Sn  Sn11  1  0.971827  0.355395  0.869255  1
  Sn  Sn12  1  0.274319  0.246630  0.251701  1
  Sn  Sn13  1  0.725681  0.753370  0.748299  1
  Sn  Sn14  1  0.786981  0.221068  0.261288  1
  Sn  Sn15  1  0.213019  0.778932  0.738712  1
  F  F16  1  0.383839  0.692295  0.327905  1
  F  F17  1  0.616161  0.307705  0.672095  1
  F  F18  1  0.566741  0.824426  0.069740  1
  F  F19  1  0.433259  0.175574  0.930260  1
  F  F20  1  0.939088  0.855352  0.155007  1
  F  F21  1  0.060912  0.144648  0.844993  1
  F  F22  1  0.054461  0.596735  0.325683  1
  F  F23  1  0.945539  0.403265  0.674317  1
  F  F24  1  0.744352  0.643809  0.246690  1
  F  F25  1  0.255648  0.356191  0.753310  1
  F  F26  1  0.284507  0.707909  0.089114  1
  F  F27  1  0.715493  0.292091  0.910886  1
  F  F28  1  0.219531  0.057260  0.255175  1
  F  F29  1  0.780469  0.942740  0.744825  1
  F  F30  1  0.256543  0.223132  0.455778  1
  F  F31  1  0.743457  0.776868  0.544222  1
  F  F32  1  0.050667  0.706318  0.646946  1
  F  F33  1  0.949333  0.293682  0.353054  1
  F  F34  1  0.453913  0.872626  0.765936  1
  F  F35  1  0.546087  0.127374  0.234064  1
  F  F36  1  0.233799  0.923383  0.571787  1
  F  F37  1  0.766201  0.076617  0.428213  1
  F  F38  1  0.419380  0.637650  0.633916  1
  F  F39  1  0.580620  0.362350  0.366084  1
