# generated using pymatgen
data_CaPHO4
_symmetry_space_group_name_H-M   'P 1'
_cell_length_a   6.72047043
_cell_length_b   6.98101733
_cell_length_c   7.09704071
_cell_angle_alpha   75.71615568
_cell_angle_beta   83.35935137
_cell_angle_gamma   88.17619005
_symmetry_Int_Tables_number   1
_chemical_formula_structural   CaPHO4
_chemical_formula_sum   'Ca4 P4 H4 O16'
_cell_volume   320.50267285
_cell_formula_units_Z   4
loop_
 _symmetry_equiv_pos_site_id
 _symmetry_equiv_pos_as_xyz
  1  'x, y, z'
loop_
 _atom_site_type_symbol
 _atom_site_label
 _atom_site_symmetry_multiplicity
 _atom_site_fract_x
 _atom_site_fract_y
 _atom_site_fract_z
 _atom_site_occupancy
  Ca  Ca0  1  0.557938  0.698649  0.274906  1
  Ca  Ca1  1  0.441015  0.290179  0.729922  1
  Ca  Ca2  1  0.159330  0.838922  0.671666  1
  Ca  Ca3  1  0.835023  0.189407  0.333690  1
  P  P4  1  0.619577  0.791996  0.716756  1
  P  P5  1  0.378601  0.204474  0.277142  1
  P  P6  1  0.047934  0.692752  0.206074  1
  P  P7  1  0.941432  0.289599  0.788583  1
  H  H8  1  0.119289  0.529685  0.539169  1
  H  H9  1  0.265736  0.463341  0.048320  1
  H  H10  1  0.741817  0.543321  0.946091  1
  H  H11  1  0.003001  0.991013  0.022704  1
  O  O12  1  0.788966  0.277168  0.649944  1
  O  O13  1  0.193659  0.684685  0.362979  1
  O  O14  1  0.077645  0.103572  0.832757  1
  O  O15  1  0.944144  0.906316  0.161719  1
  O  O16  1  0.662862  0.675375  0.934891  1
  O  O17  1  0.339860  0.327557  0.059803  1
  O  O18  1  0.506565  0.649129  0.628761  1
  O  O19  1  0.487210  0.344381  0.371988  1
  O  O20  1  0.819265  0.862106  0.596127  1
  O  O21  1  0.177209  0.134774  0.395126  1
  O  O22  1  0.474202  0.959405  0.743320  1
  O  O23  1  0.522620  0.036735  0.249245  1
  O  O24  1  0.167788  0.666716  0.015168  1
  O  O25  1  0.844734  0.338139  0.977793  1
  O  O26  1  0.877335  0.545230  0.284707  1
  O  O27  1  0.103743  0.462573  0.688751  1
