# generated using pymatgen
data_LiAlSi2H2O7
_symmetry_space_group_name_H-M   'P 1'
_cell_length_a   4.99205934
_cell_length_b   7.70566512
_cell_length_c   8.69970304
_cell_angle_alpha   114.40772120
_cell_angle_beta   90.09190453
_cell_angle_gamma   90.05196951
_symmetry_Int_Tables_number   1
_chemical_formula_structural   LiAlSi2H2O7
_chemical_formula_sum   'Li2 Al2 Si4 H4 O14'
_cell_volume   304.74324416
_cell_formula_units_Z   2
loop_
 _symmetry_equiv_pos_site_id
 _symmetry_equiv_pos_as_xyz
  1  'x, y, z'
loop_
 _atom_site_type_symbol
 _atom_site_label
 _atom_site_symmetry_multiplicity
 _atom_site_fract_x
 _atom_site_fract_y
 _atom_site_fract_z
 _atom_site_occupancy
  Li  Li0  1  0.868967  0.124670  0.300608  1
  Li  Li1  1  0.366892  0.853826  0.688350  1
  Al  Al2  1  0.874345  0.062990  0.620228  1
  Al  Al3  1  0.367183  0.093192  0.099971  1
  Si  Si4  1  0.301522  0.513821  0.108743  1
  Si  Si5  1  0.375076  0.937326  0.380505  1
  Si  Si6  1  0.802552  0.497088  0.896686  1
  Si  Si7  1  0.867335  0.903004  0.893542  1
  H  H8  1  0.675436  0.462858  0.485588  1
  H  H9  1  0.796437  0.457460  0.320098  1
  H  H10  1  0.173552  0.513650  0.515899  1
  H  H11  1  0.299206  0.529213  0.683940  1
  O  O12  1  0.329946  0.567091  0.591136  1
  O  O13  1  0.186356  0.957645  0.913176  1
  O  O14  1  0.834278  0.674541  0.841562  1
  O  O15  1  0.739614  0.941223  0.736537  1
  O  O16  1  0.891289  0.306891  0.739954  1
  O  O17  1  0.197287  0.971234  0.548378  1
  O  O18  1  0.242922  0.042370  0.268470  1
  O  O19  1  0.709121  0.026862  0.070169  1
  O  O20  1  0.334496  0.335947  0.157725  1
  O  O21  1  0.986909  0.536838  0.064690  1
  O  O22  1  0.394861  0.706140  0.269885  1
  O  O23  1  0.678196  0.019182  0.438453  1
  O  O24  1  0.485825  0.490892  0.945003  1
  O  O25  1  0.830624  0.413628  0.408891  1
