# generated using pymatgen
data_NaNdTiO4
_symmetry_space_group_name_H-M   'P 1'
_cell_length_a   3.75920907
_cell_length_b   3.75920907
_cell_length_c   13.09858380
_cell_angle_alpha   90.00000000
_cell_angle_beta   90.00000000
_cell_angle_gamma   90.00000000
_symmetry_Int_Tables_number   1
_chemical_formula_structural   NaNdTiO4
_chemical_formula_sum   'Na2 Nd2 Ti2 O8'
_cell_volume   185.10463885
_cell_formula_units_Z   2
loop_
 _symmetry_equiv_pos_site_id
 _symmetry_equiv_pos_as_xyz
  1  'x, y, z'
loop_
 _atom_site_type_symbol
 _atom_site_label
 _atom_site_symmetry_multiplicity
 _atom_site_fract_x
 _atom_site_fract_y
 _atom_site_fract_z
 _atom_site_occupancy
  Na  Na0  1  0.500000  0.000000  0.583517  1
  Na  Na1  1  0.000000  0.500000  0.416483  1
  Nd  Nd2  1  0.000000  0.500000  0.108070  1
  Nd  Nd3  1  0.500000  0.000000  0.891930  1
  Ti  Ti4  1  0.500000  0.000000  0.271140  1
  Ti  Ti5  1  0.000000  0.500000  0.728860  1
  O  O6  1  0.000000  0.500000  0.930532  1
  O  O7  1  0.500000  0.000000  0.069468  1
  O  O8  1  0.000000  0.500000  0.594098  1
  O  O9  1  0.500000  0.000000  0.405902  1
  O  O10  1  0.000000  0.000000  0.233865  1
  O  O11  1  0.500000  0.500000  0.233865  1
  O  O12  1  0.000000  0.000000  0.766135  1
  O  O13  1  0.500000  0.500000  0.766135  1
