# generated using pymatgen
data_K2S5O16
_symmetry_space_group_name_H-M   'P 1'
_cell_length_a   9.45309498
_cell_length_b   11.14156860
_cell_length_c   14.86214402
_cell_angle_alpha   90.00000000
_cell_angle_beta   90.00000000
_cell_angle_gamma   90.00000000
_symmetry_Int_Tables_number   1
_chemical_formula_structural   K2S5O16
_chemical_formula_sum   'K8 S20 O64'
_cell_volume   1565.31528329
_cell_formula_units_Z   4
loop_
 _symmetry_equiv_pos_site_id
 _symmetry_equiv_pos_as_xyz
  1  'x, y, z'
loop_
 _atom_site_type_symbol
 _atom_site_label
 _atom_site_symmetry_multiplicity
 _atom_site_fract_x
 _atom_site_fract_y
 _atom_site_fract_z
 _atom_site_occupancy
  K  K0  1  0.240062  0.010624  0.048269  1
  K  K1  1  0.740062  0.489376  0.951731  1
  K  K2  1  0.759938  0.010624  0.451731  1
  K  K3  1  0.259938  0.489376  0.548269  1
  K  K4  1  0.759938  0.989376  0.951731  1
  K  K5  1  0.259938  0.510624  0.048269  1
  K  K6  1  0.240062  0.989376  0.548269  1
  K  K7  1  0.740062  0.510624  0.451731  1
  S  S8  1  0.000000  0.168964  0.250000  1
  S  S9  1  0.500000  0.331036  0.750000  1
  S  S10  1  0.000000  0.831036  0.750000  1
  S  S11  1  0.500000  0.668964  0.250000  1
  S  S12  1  0.218435  0.348056  0.295259  1
  S  S13  1  0.718435  0.151944  0.704741  1
  S  S14  1  0.781565  0.348056  0.204741  1
  S  S15  1  0.281565  0.151944  0.795259  1
  S  S16  1  0.931787  0.750863  0.071209  1
  S  S17  1  0.431787  0.749137  0.928791  1
  S  S18  1  0.068213  0.750863  0.428791  1
  S  S19  1  0.568213  0.749137  0.571209  1
  S  S20  1  0.068213  0.249137  0.928791  1
  S  S21  1  0.568213  0.250863  0.071209  1
  S  S22  1  0.931787  0.249137  0.571209  1
  S  S23  1  0.431787  0.250863  0.428791  1
  S  S24  1  0.718435  0.848056  0.204741  1
  S  S25  1  0.218435  0.651944  0.795259  1
  S  S26  1  0.281565  0.848056  0.295259  1
  S  S27  1  0.781565  0.651944  0.704741  1
  O  O28  1  0.602420  0.606728  0.302841  1
  O  O29  1  0.102420  0.893272  0.697159  1
  O  O30  1  0.397580  0.606728  0.197159  1
  O  O31  1  0.897580  0.893272  0.802841  1
  O  O32  1  0.397580  0.393272  0.697159  1
  O  O33  1  0.897580  0.106728  0.302841  1
  O  O34  1  0.602420  0.393272  0.802841  1
  O  O35  1  0.102420  0.106728  0.197159  1
  O  O36  1  0.708185  0.873796  0.298691  1
  O  O37  1  0.208185  0.626204  0.701309  1
  O  O38  1  0.291815  0.873796  0.201309  1
  O  O39  1  0.791815  0.626204  0.798691  1
  O  O40  1  0.291815  0.126204  0.701309  1
  O  O41  1  0.791815  0.373796  0.298691  1
  O  O42  1  0.708185  0.126204  0.798691  1
  O  O43  1  0.208185  0.373796  0.201309  1
  O  O44  1  0.701707  0.939738  0.138230  1
  O  O45  1  0.201707  0.560262  0.861770  1
  O  O46  1  0.298293  0.939738  0.361770  1
  O  O47  1  0.798293  0.560262  0.638230  1
  O  O48  1  0.298293  0.060262  0.861770  1
  O  O49  1  0.798293  0.439738  0.138230  1
  O  O50  1  0.972457  0.344227  0.905429  1
  O  O51  1  0.701707  0.060262  0.638230  1
  O  O52  1  0.027543  0.655773  0.094571  1
  O  O53  1  0.527543  0.844227  0.905429  1
  O  O54  1  0.972457  0.655773  0.405429  1
  O  O55  1  0.472457  0.844227  0.594571  1
  O  O56  1  0.075736  0.257580  0.320405  1
  O  O57  1  0.575736  0.242420  0.679595  1
  O  O58  1  0.924264  0.257580  0.179595  1
  O  O59  1  0.424264  0.242420  0.820405  1
  O  O60  1  0.924264  0.742420  0.679595  1
  O  O61  1  0.424264  0.757580  0.320405  1
  O  O62  1  0.075736  0.742420  0.820405  1
  O  O63  1  0.575736  0.757580  0.179595  1
  O  O64  1  0.343752  0.264798  0.312482  1
  O  O65  1  0.843752  0.235202  0.687518  1
  O  O66  1  0.656248  0.264798  0.187518  1
  O  O67  1  0.156248  0.235202  0.812482  1
  O  O68  1  0.656248  0.735202  0.687518  1
  O  O69  1  0.156248  0.764798  0.312482  1
  O  O70  1  0.343752  0.735202  0.812482  1
  O  O71  1  0.843752  0.764798  0.187518  1
  O  O72  1  0.488244  0.370617  0.439782  1
  O  O73  1  0.988244  0.129383  0.560218  1
  O  O74  1  0.511756  0.370617  0.060218  1
  O  O75  1  0.011756  0.129383  0.939782  1
  O  O76  1  0.511756  0.629383  0.560218  1
  O  O77  1  0.011756  0.870617  0.439782  1
  O  O78  1  0.488244  0.629383  0.939782  1
  O  O79  1  0.988244  0.870617  0.060218  1
  O  O80  1  0.311016  0.221408  0.484493  1
  O  O81  1  0.811016  0.278592  0.515507  1
  O  O82  1  0.688984  0.221408  0.015507  1
  O  O83  1  0.188984  0.278592  0.984493  1
  O  O84  1  0.688984  0.778592  0.515507  1
  O  O85  1  0.188984  0.721408  0.484493  1
  O  O86  1  0.311016  0.778592  0.984493  1
  O  O87  1  0.811016  0.721408  0.015507  1
  O  O88  1  0.527543  0.155773  0.405429  1
  O  O89  1  0.027543  0.344227  0.594571  1
  O  O90  1  0.472457  0.155773  0.094571  1
  O  O91  1  0.201707  0.439738  0.361770  1
