# generated using pymatgen
data_Li3Sn2(PO4)3
_symmetry_space_group_name_H-M   'P 1'
_cell_length_a   8.77270531
_cell_length_b   8.90902626
_cell_length_c   15.61539703
_cell_angle_alpha   90.00000000
_cell_angle_beta   122.59049971
_cell_angle_gamma   90.00000000
_symmetry_Int_Tables_number   1
_chemical_formula_structural   Li3Sn2(PO4)3
_chemical_formula_sum   'Li12 Sn8 P12 O48'
_cell_volume   1028.27251092
_cell_formula_units_Z   4
loop_
 _symmetry_equiv_pos_site_id
 _symmetry_equiv_pos_as_xyz
  1  'x, y, z'
loop_
 _atom_site_type_symbol
 _atom_site_label
 _atom_site_symmetry_multiplicity
 _atom_site_fract_x
 _atom_site_fract_y
 _atom_site_fract_z
 _atom_site_occupancy
  Li  Li0  1  0.396743  0.889762  0.310668  1
  Li  Li1  1  0.399401  0.274434  0.253873  1
  Li  Li2  1  0.022767  0.223259  0.836685  1
  Li  Li3  1  0.977233  0.723259  0.663315  1
  Li  Li4  1  0.600599  0.774434  0.246127  1
  Li  Li5  1  0.603257  0.389762  0.189332  1
  Li  Li6  1  0.396743  0.610238  0.810668  1
  Li  Li7  1  0.399401  0.225566  0.753873  1
  Li  Li8  1  0.022767  0.276741  0.336685  1
  Li  Li9  1  0.977233  0.776741  0.163315  1
  Li  Li10  1  0.600599  0.725566  0.746127  1
  Li  Li11  1  0.603257  0.110238  0.689332  1
  Sn  Sn12  1  0.300951  0.970125  0.071606  1
  Sn  Sn13  1  0.848371  0.055996  0.597124  1
  Sn  Sn14  1  0.151629  0.555996  0.902876  1
  Sn  Sn15  1  0.699049  0.470125  0.428394  1
  Sn  Sn16  1  0.300951  0.529875  0.571606  1
  Sn  Sn17  1  0.848371  0.444004  0.097124  1
  Sn  Sn18  1  0.151629  0.944004  0.402876  1
  Sn  Sn19  1  0.699049  0.029875  0.928394  1
  P  P20  1  0.561421  0.761353  0.515952  1
  P  P21  1  0.254372  0.591737  0.146973  1
  P  P22  1  0.940792  0.900818  0.827010  1
  P  P23  1  0.745628  0.091737  0.353027  1
  P  P24  1  0.059208  0.400818  0.672990  1
  P  P25  1  0.438579  0.261353  0.984048  1
  P  P26  1  0.561421  0.738647  0.015952  1
  P  P27  1  0.940792  0.599182  0.327010  1
  P  P28  1  0.254372  0.908263  0.646973  1
  P  P29  1  0.059208  0.099182  0.172990  1
  P  P30  1  0.745628  0.408263  0.853027  1
  P  P31  1  0.438579  0.238647  0.484048  1
  O  O32  1  0.594953  0.127929  0.558577  1
  O  O33  1  0.201893  0.149852  0.151173  1
  O  O34  1  0.446259  0.279447  0.391973  1
  O  O35  1  0.911397  0.440986  0.841464  1
  O  O36  1  0.539067  0.627349  0.448339  1
  O  O37  1  0.842999  0.995526  0.726242  1
  O  O38  1  0.342426  0.733603  0.210203  1
  O  O39  1  0.169041  0.632598  0.030661  1
  O  O40  1  0.079596  0.013371  0.906613  1
  O  O41  1  0.384481  0.459553  0.181166  1
  O  O42  1  0.747269  0.838673  0.549476  1
  O  O43  1  0.032843  0.757361  0.814274  1
  O  O44  1  0.967157  0.257361  0.685726  1
  O  O45  1  0.615519  0.959553  0.318834  1
  O  O46  1  0.252731  0.338673  0.950524  1
  O  O47  1  0.920404  0.513371  0.593387  1
  O  O48  1  0.830959  0.132598  0.469339  1
  O  O49  1  0.657574  0.233603  0.289797  1
  O  O50  1  0.157001  0.495526  0.773758  1
  O  O51  1  0.460933  0.127349  0.051661  1
  O  O52  1  0.553741  0.779447  0.108027  1
  O  O53  1  0.088603  0.940986  0.658536  1
  O  O54  1  0.798107  0.649852  0.348827  1
  O  O55  1  0.405047  0.627929  0.941423  1
  O  O56  1  0.594953  0.372071  0.058577  1
  O  O57  1  0.201893  0.350148  0.651173  1
  O  O58  1  0.911397  0.059014  0.341464  1
  O  O59  1  0.446259  0.220553  0.891973  1
  O  O60  1  0.539067  0.872651  0.948339  1
  O  O61  1  0.842999  0.504474  0.226242  1
  O  O62  1  0.342426  0.766397  0.710203  1
  O  O63  1  0.169041  0.867402  0.530661  1
  O  O64  1  0.079596  0.486629  0.406613  1
  O  O65  1  0.747269  0.661327  0.049476  1
  O  O66  1  0.384481  0.040447  0.681166  1
  O  O67  1  0.032843  0.742639  0.314274  1
  O  O68  1  0.967157  0.242639  0.185726  1
  O  O69  1  0.252731  0.161327  0.450524  1
  O  O70  1  0.615519  0.540447  0.818834  1
  O  O71  1  0.920404  0.986629  0.093387  1
  O  O72  1  0.830959  0.367402  0.969339  1
  O  O73  1  0.657574  0.266397  0.789797  1
  O  O74  1  0.157001  0.004474  0.273758  1
  O  O75  1  0.460933  0.372651  0.551661  1
  O  O76  1  0.088603  0.559014  0.158536  1
  O  O77  1  0.553741  0.720553  0.608027  1
  O  O78  1  0.798107  0.850148  0.848827  1
  O  O79  1  0.405047  0.872071  0.441423  1
