# generated using pymatgen
data_GaSbCl6
_symmetry_space_group_name_H-M   'P 1'
_cell_length_a   10.65693224
_cell_length_b   7.93172437
_cell_length_c   13.65060030
_cell_angle_alpha   90.00000000
_cell_angle_beta   102.07651507
_cell_angle_gamma   90.00000000
_symmetry_Int_Tables_number   1
_chemical_formula_structural   GaSbCl6
_chemical_formula_sum   'Ga4 Sb4 Cl24'
_cell_volume   1128.31998513
_cell_formula_units_Z   4
loop_
 _symmetry_equiv_pos_site_id
 _symmetry_equiv_pos_as_xyz
  1  'x, y, z'
loop_
 _atom_site_type_symbol
 _atom_site_label
 _atom_site_symmetry_multiplicity
 _atom_site_fract_x
 _atom_site_fract_y
 _atom_site_fract_z
 _atom_site_occupancy
  Ga  Ga0  1  0.658954  0.763587  0.078518  1
  Ga  Ga1  1  0.341046  0.263587  0.421482  1
  Ga  Ga2  1  0.341046  0.236413  0.921482  1
  Ga  Ga3  1  0.658954  0.736413  0.578518  1
  Sb  Sb4  1  0.755566  0.232426  0.626286  1
  Sb  Sb5  1  0.244434  0.732426  0.873714  1
  Sb  Sb6  1  0.244434  0.767574  0.373714  1
  Sb  Sb7  1  0.755566  0.267574  0.126286  1
  Cl  Cl8  1  0.041836  0.663961  0.905436  1
  Cl  Cl9  1  0.958164  0.163961  0.594564  1
  Cl  Cl10  1  0.958164  0.336039  0.094564  1
  Cl  Cl11  1  0.041836  0.836039  0.405436  1
  Cl  Cl12  1  0.180236  0.813581  0.704803  1
  Cl  Cl13  1  0.819764  0.313581  0.795197  1
  Cl  Cl14  1  0.819764  0.186419  0.295197  1
  Cl  Cl15  1  0.180236  0.686419  0.204803  1
  Cl  Cl16  1  0.257360  0.415813  0.794814  1
  Cl  Cl17  1  0.742640  0.915813  0.705186  1
  Cl  Cl18  1  0.742640  0.584187  0.205186  1
  Cl  Cl19  1  0.257360  0.084187  0.294814  1
  Cl  Cl20  1  0.380020  0.380991  0.059144  1
  Cl  Cl21  1  0.619980  0.880991  0.440856  1
  Cl  Cl22  1  0.619980  0.619009  0.940856  1
  Cl  Cl23  1  0.380020  0.119009  0.559144  1
  Cl  Cl24  1  0.503583  0.896706  0.124163  1
  Cl  Cl25  1  0.496417  0.396706  0.375837  1
  Cl  Cl26  1  0.496417  0.103294  0.875837  1
  Cl  Cl27  1  0.503583  0.603294  0.624163  1
  Cl  Cl28  1  0.181112  0.053842  0.930113  1
  Cl  Cl29  1  0.818888  0.553842  0.569887  1
  Cl  Cl30  1  0.818888  0.946158  0.069887  1
  Cl  Cl31  1  0.181112  0.446158  0.430113  1
