# generated using pymatgen
data_CaAl4Si2(HO6)2
_symmetry_space_group_name_H-M   'P 1'
_cell_length_a   5.15675039
_cell_length_b   5.15675039
_cell_length_c   19.41432980
_cell_angle_alpha   87.19830435
_cell_angle_beta   92.80169565
_cell_angle_gamma   59.95868294
_symmetry_Int_Tables_number   1
_chemical_formula_structural   CaAl4Si2(HO6)2
_chemical_formula_sum   'Ca2 Al8 Si4 H4 O24'
_cell_volume   444.77100650
_cell_formula_units_Z   2
loop_
 _symmetry_equiv_pos_site_id
 _symmetry_equiv_pos_as_xyz
  1  'x, y, z'
loop_
 _atom_site_type_symbol
 _atom_site_label
 _atom_site_symmetry_multiplicity
 _atom_site_fract_x
 _atom_site_fract_y
 _atom_site_fract_z
 _atom_site_occupancy
  Ca  Ca0  1  0.092437  0.094050  0.749163  1
  Ca  Ca1  1  0.905950  0.907563  0.249163  1
  Al  Al2  1  0.291398  0.195139  0.357569  1
  Al  Al3  1  0.804861  0.708602  0.857569  1
  Al  Al4  1  0.832062  0.332499  0.998997  1
  Al  Al5  1  0.667501  0.167938  0.498997  1
  Al  Al6  1  0.165675  0.664451  0.999132  1
  Al  Al7  1  0.335549  0.834325  0.499132  1
  Al  Al8  1  0.391881  0.466987  0.640438  1
  Al  Al9  1  0.533013  0.608119  0.140438  1
  Si  Si10  1  0.461806  0.391554  0.854279  1
  Si  Si11  1  0.608446  0.538194  0.354279  1
  Si  Si12  1  0.194067  0.288920  0.143885  1
  Si  Si13  1  0.711080  0.805933  0.643885  1
  H  H14  1  0.982273  0.708076  0.438099  1
  H  H15  1  0.291924  0.017727  0.938099  1
  H  H16  1  0.023442  0.290182  0.561266  1
  H  H17  1  0.709818  0.976558  0.061266  1
  O  O18  1  0.984810  0.890349  0.447385  1
  O  O19  1  0.109651  0.015190  0.947385  1
  O  O20  1  0.021568  0.108750  0.550837  1
  O  O21  1  0.891250  0.978432  0.050837  1
  O  O22  1  0.336115  0.869563  0.319271  1
  O  O23  1  0.130437  0.663885  0.819271  1
  O  O24  1  0.679780  0.105429  0.678597  1
  O  O25  1  0.894571  0.320220  0.178597  1
  O  O26  1  0.926830  0.503767  0.330365  1
  O  O27  1  0.496233  0.073170  0.830365  1
  O  O28  1  0.515281  0.588253  0.051444  1
  O  O29  1  0.411747  0.484719  0.551444  1
  O  O30  1  0.483687  0.396475  0.938612  1
  O  O31  1  0.603525  0.516313  0.438612  1
  O  O32  1  0.136604  0.353277  0.059533  1
  O  O33  1  0.646723  0.863396  0.559533  1
  O  O34  1  0.873162  0.627458  0.946713  1
  O  O35  1  0.372542  0.126838  0.446713  1
  O  O36  1  0.262772  0.538723  0.177636  1
  O  O37  1  0.461277  0.737228  0.677636  1
  O  O38  1  0.720400  0.445382  0.820737  1
  O  O39  1  0.554618  0.279600  0.320737  1
  O  O40  1  0.487324  0.952689  0.167641  1
  O  O41  1  0.047311  0.512676  0.667641  1
