# generated using pymatgen
data_H5ClO2
_symmetry_space_group_name_H-M   'P 1'
_cell_length_a   4.05842625
_cell_length_b   12.14470698
_cell_length_c   6.74736735
_cell_angle_alpha   90.00000000
_cell_angle_beta   100.91501087
_cell_angle_gamma   90.00000000
_symmetry_Int_Tables_number   1
_chemical_formula_structural   H5ClO2
_chemical_formula_sum   'H20 Cl4 O8'
_cell_volume   326.55050250
_cell_formula_units_Z   4
loop_
 _symmetry_equiv_pos_site_id
 _symmetry_equiv_pos_as_xyz
  1  'x, y, z'
loop_
 _atom_site_type_symbol
 _atom_site_label
 _atom_site_symmetry_multiplicity
 _atom_site_fract_x
 _atom_site_fract_y
 _atom_site_fract_z
 _atom_site_occupancy
  H  H0  1  0.212371  0.602371  0.907696  1
  H  H1  1  0.787629  0.102371  0.592304  1
  H  H2  1  0.787629  0.397629  0.092304  1
  H  H3  1  0.212371  0.897629  0.407696  1
  H  H4  1  0.197598  0.483174  0.799773  1
  H  H5  1  0.802402  0.983174  0.700227  1
  H  H6  1  0.802402  0.516826  0.200227  1
  H  H7  1  0.197598  0.016826  0.299773  1
  H  H8  1  0.703606  0.696312  0.576577  1
  H  H9  1  0.296394  0.196312  0.923423  1
  H  H10  1  0.296394  0.303688  0.423423  1
  H  H11  1  0.703606  0.803688  0.076577  1
  H  H12  1  0.424091  0.899442  0.157571  1
  H  H13  1  0.575909  0.399442  0.342429  1
  H  H14  1  0.575909  0.100558  0.842429  1
  H  H15  1  0.424091  0.600558  0.657571  1
  H  H16  1  0.384340  0.848653  0.909220  1
  H  H17  1  0.615660  0.348653  0.590780  1
  H  H18  1  0.615660  0.151347  0.090780  1
  H  H19  1  0.384340  0.651347  0.409220  1
  Cl  Cl20  1  0.027458  0.830085  0.658133  1
  Cl  Cl21  1  0.972542  0.330085  0.841867  1
  Cl  Cl22  1  0.972542  0.169915  0.341867  1
  Cl  Cl23  1  0.027458  0.669915  0.158133  1
  O  O24  1  0.285643  0.559445  0.798729  1
  O  O25  1  0.714357  0.059445  0.701271  1
  O  O26  1  0.714357  0.440555  0.201271  1
  O  O27  1  0.285643  0.940555  0.298729  1
  O  O28  1  0.554647  0.631172  0.533553  1
  O  O29  1  0.445353  0.131172  0.966447  1
  O  O30  1  0.445353  0.368828  0.466447  1
  O  O31  1  0.554647  0.868828  0.033553  1
