# generated using pymatgen
data_NdHSO5
_symmetry_space_group_name_H-M   'P 1'
_cell_length_a   4.51612240
_cell_length_b   12.54062341
_cell_length_c   7.14954612
_cell_angle_alpha   90.00000000
_cell_angle_beta   110.96626474
_cell_angle_gamma   90.00000000
_symmetry_Int_Tables_number   1
_chemical_formula_structural   NdHSO5
_chemical_formula_sum   'Nd4 H4 S4 O20'
_cell_volume   378.10560102
_cell_formula_units_Z   4
loop_
 _symmetry_equiv_pos_site_id
 _symmetry_equiv_pos_as_xyz
  1  'x, y, z'
loop_
 _atom_site_type_symbol
 _atom_site_label
 _atom_site_symmetry_multiplicity
 _atom_site_fract_x
 _atom_site_fract_y
 _atom_site_fract_z
 _atom_site_occupancy
  Nd  Nd0  1  0.338624  0.562944  0.700282  1
  Nd  Nd1  1  0.661376  0.062944  0.799718  1
  Nd  Nd2  1  0.661376  0.437056  0.299718  1
  Nd  Nd3  1  0.338624  0.937056  0.200282  1
  H  H4  1  0.283145  0.346212  0.521692  1
  H  H5  1  0.716855  0.846212  0.978308  1
  H  H6  1  0.716855  0.653788  0.478308  1
  H  H7  1  0.283145  0.153788  0.021692  1
  S  S8  1  0.092028  0.646784  0.110845  1
  S  S9  1  0.907972  0.146784  0.389155  1
  S  S10  1  0.907972  0.353216  0.889155  1
  S  S11  1  0.092028  0.853216  0.610845  1
  O  O12  1  0.260888  0.416521  0.457692  1
  O  O13  1  0.739112  0.916521  0.042308  1
  O  O14  1  0.739112  0.583479  0.542308  1
  O  O15  1  0.260888  0.083479  0.957692  1
  O  O16  1  0.800729  0.834233  0.437301  1
  O  O17  1  0.199271  0.334233  0.062699  1
  O  O18  1  0.199271  0.165767  0.562699  1
  O  O19  1  0.800729  0.665767  0.937301  1
  O  O20  1  0.024366  0.902373  0.780535  1
  O  O21  1  0.975634  0.402373  0.719465  1
  O  O22  1  0.975634  0.097627  0.219465  1
  O  O23  1  0.024366  0.597627  0.280535  1
  O  O24  1  0.302872  0.930014  0.550837  1
  O  O25  1  0.697128  0.430014  0.949163  1
  O  O26  1  0.697128  0.069986  0.449163  1
  O  O27  1  0.302872  0.569986  0.050837  1
  O  O28  1  0.266249  0.752392  0.677229  1
  O  O29  1  0.733751  0.252392  0.822771  1
  O  O30  1  0.733751  0.247608  0.322771  1
  O  O31  1  0.266249  0.747608  0.177229  1
