# generated using pymatgen
data_YCl3
_symmetry_space_group_name_H-M   'P 1'
_cell_length_a   6.99301936
_cell_length_b   6.99301936
_cell_length_c   7.06619995
_cell_angle_alpha   80.23461290
_cell_angle_beta   99.76538710
_cell_angle_gamma   60.14722948
_symmetry_Int_Tables_number   1
_chemical_formula_structural   YCl3
_chemical_formula_sum   'Y2 Cl6'
_cell_volume   282.01136691
_cell_formula_units_Z   2
loop_
 _symmetry_equiv_pos_site_id
 _symmetry_equiv_pos_as_xyz
  1  'x, y, z'
loop_
 _atom_site_type_symbol
 _atom_site_label
 _atom_site_symmetry_multiplicity
 _atom_site_fract_x
 _atom_site_fract_y
 _atom_site_fract_z
 _atom_site_occupancy
  Y  Y0  1  0.166513  0.166513  0.000000  1
  Y  Y1  1  0.833487  0.833488  0.000000  1
  Cl  Cl2  1  0.423473  0.949738  0.775885  1
  Cl  Cl3  1  0.949738  0.423473  0.224115  1
  Cl  Cl4  1  0.198582  0.801418  0.229103  1
  Cl  Cl5  1  0.801418  0.198582  0.770897  1
  Cl  Cl6  1  0.050262  0.576527  0.775885  1
  Cl  Cl7  1  0.576527  0.050262  0.224115  1
