# generated using pymatgen
data_WCl6
_symmetry_space_group_name_H-M   'P 1'
_cell_length_a   11.27471076
_cell_length_b   11.27471076
_cell_length_c   6.21537025
_cell_angle_alpha   90.00000000
_cell_angle_beta   90.00000000
_cell_angle_gamma   120.00000000
_symmetry_Int_Tables_number   1
_chemical_formula_structural   WCl6
_chemical_formula_sum   'W3 Cl18'
_cell_volume   684.23999392
_cell_formula_units_Z   3
loop_
 _symmetry_equiv_pos_site_id
 _symmetry_equiv_pos_as_xyz
  1  'x, y, z'
loop_
 _atom_site_type_symbol
 _atom_site_label
 _atom_site_symmetry_multiplicity
 _atom_site_fract_x
 _atom_site_fract_y
 _atom_site_fract_z
 _atom_site_occupancy
  W  W0  1  0.666667  0.333333  0.537157  1
  W  W1  1  0.333333  0.666667  0.462843  1
  W  W2  1  0.000000  0.000000  0.000000  1
  Cl  Cl3  1  0.236722  0.763278  0.676751  1
  Cl  Cl4  1  0.236722  0.473444  0.676751  1
  Cl  Cl5  1  0.526556  0.763278  0.676751  1
  Cl  Cl6  1  0.096497  0.903503  0.214348  1
  Cl  Cl7  1  0.096497  0.192995  0.214348  1
  Cl  Cl8  1  0.807005  0.903503  0.214348  1
  Cl  Cl9  1  0.192995  0.096497  0.785652  1
  Cl  Cl10  1  0.903503  0.807005  0.785652  1
  Cl  Cl11  1  0.903503  0.096497  0.785652  1
  Cl  Cl12  1  0.429771  0.570229  0.248155  1
  Cl  Cl13  1  0.429771  0.859542  0.248155  1
  Cl  Cl14  1  0.140458  0.570229  0.248155  1
  Cl  Cl15  1  0.859542  0.429771  0.751845  1
  Cl  Cl16  1  0.570229  0.140458  0.751845  1
  Cl  Cl17  1  0.570229  0.429771  0.751845  1
  Cl  Cl18  1  0.763278  0.236722  0.323249  1
  Cl  Cl19  1  0.763278  0.526556  0.323249  1
  Cl  Cl20  1  0.473444  0.236722  0.323249  1
