# generated using pymatgen
data_BrF5
_symmetry_space_group_name_H-M   'P 1'
_cell_length_a   5.03968973
_cell_length_b   5.03968973
_cell_length_c   7.99567448
_cell_angle_alpha   90.00000000
_cell_angle_beta   90.00000000
_cell_angle_gamma   96.17788057
_symmetry_Int_Tables_number   1
_chemical_formula_structural   BrF5
_chemical_formula_sum   'Br2 F10'
_cell_volume   201.89856107
_cell_formula_units_Z   2
loop_
 _symmetry_equiv_pos_site_id
 _symmetry_equiv_pos_as_xyz
  1  'x, y, z'
loop_
 _atom_site_type_symbol
 _atom_site_label
 _atom_site_symmetry_multiplicity
 _atom_site_fract_x
 _atom_site_fract_y
 _atom_site_fract_z
 _atom_site_occupancy
  Br  Br0  1  0.173571  0.826429  0.750014  1
  Br  Br1  1  0.826429  0.173571  0.250014  1
  F  F2  1  0.457250  0.082691  0.758997  1
  F  F3  1  0.542750  0.917309  0.258997  1
  F  F4  1  0.651350  0.348650  0.395563  1
  F  F5  1  0.348650  0.651350  0.895563  1
  F  F6  1  0.655936  0.344064  0.090261  1
  F  F7  1  0.344064  0.655936  0.590261  1
  F  F8  1  0.974303  0.025697  0.436166  1
  F  F9  1  0.025697  0.974303  0.936166  1
  F  F10  1  0.082691  0.457250  0.258997  1
  F  F11  1  0.917309  0.542750  0.758997  1
