# generated using pymatgen
data_BiClF8
_symmetry_space_group_name_H-M   'P 1'
_cell_length_a   5.39978657
_cell_length_b   5.92029737
_cell_length_c   10.77904800
_cell_angle_alpha   90.57691147
_cell_angle_beta   93.60526529
_cell_angle_gamma   93.71773952
_symmetry_Int_Tables_number   1
_chemical_formula_structural   BiClF8
_chemical_formula_sum   'Bi2 Cl2 F16'
_cell_volume   343.14799802
_cell_formula_units_Z   2
loop_
 _symmetry_equiv_pos_site_id
 _symmetry_equiv_pos_as_xyz
  1  'x, y, z'
loop_
 _atom_site_type_symbol
 _atom_site_label
 _atom_site_symmetry_multiplicity
 _atom_site_fract_x
 _atom_site_fract_y
 _atom_site_fract_z
 _atom_site_occupancy
  Bi  Bi0  1  0.000000  0.000000  0.500000  1
  Bi  Bi1  1  0.000000  0.000000  0.000000  1
  Cl  Cl2  1  0.410456  0.384701  0.748640  1
  Cl  Cl3  1  0.589544  0.615299  0.251360  1
  F  F4  1  0.848790  0.185274  0.361338  1
  F  F5  1  0.151210  0.814726  0.638662  1
  F  F6  1  0.708877  0.049299  0.604773  1
  F  F7  1  0.291123  0.950701  0.395227  1
  F  F8  1  0.424694  0.547056  0.123596  1
  F  F9  1  0.575306  0.452944  0.876404  1
  F  F10  1  0.401929  0.478493  0.340518  1
  F  F11  1  0.598071  0.521507  0.659482  1
  F  F12  1  0.888728  0.280270  0.083903  1
  F  F13  1  0.111272  0.719730  0.916097  1
  F  F14  1  0.327413  0.036902  0.103185  1
  F  F15  1  0.672587  0.963098  0.896815  1
  F  F16  1  0.862493  0.792567  0.142707  1
  F  F17  1  0.137507  0.207433  0.857293  1
  F  F18  1  0.816266  0.699721  0.421728  1
  F  F19  1  0.183734  0.300279  0.578272  1
