# generated using pymatgen
data_Tl4PbI6
_symmetry_space_group_name_H-M   'P 1'
_cell_length_a   4.68031729
_cell_length_b   10.12358088
_cell_length_c   19.54354882
_cell_angle_alpha   90.00000000
_cell_angle_beta   90.00000000
_cell_angle_gamma   90.00000000
_symmetry_Int_Tables_number   1
_chemical_formula_structural   Tl4PbI6
_chemical_formula_sum   'Tl8 Pb2 I12'
_cell_volume   926.00403876
_cell_formula_units_Z   2
loop_
 _symmetry_equiv_pos_site_id
 _symmetry_equiv_pos_as_xyz
  1  'x, y, z'
loop_
 _atom_site_type_symbol
 _atom_site_label
 _atom_site_symmetry_multiplicity
 _atom_site_fract_x
 _atom_site_fract_y
 _atom_site_fract_z
 _atom_site_occupancy
  Tl  Tl0  1  0.500000  0.393415  0.919337  1
  Tl  Tl1  1  0.500000  0.606585  0.080663  1
  Tl  Tl2  1  0.500000  0.790734  0.294749  1
  Tl  Tl3  1  0.500000  0.209266  0.705251  1
  Tl  Tl4  1  0.500000  0.290734  0.205251  1
  Tl  Tl5  1  0.500000  0.709266  0.794749  1
  Tl  Tl6  1  0.500000  0.106585  0.419337  1
  Tl  Tl7  1  0.500000  0.893415  0.580663  1
  Pb  Pb8  1  0.000000  0.000000  0.000000  1
  Pb  Pb9  1  0.000000  0.500000  0.500000  1
  I  I10  1  0.000000  0.592861  0.213186  1
  I  I11  1  0.000000  0.407139  0.786814  1
  I  I12  1  0.000000  0.092861  0.286814  1
  I  I13  1  0.000000  0.907139  0.713186  1
  I  I14  1  0.500000  0.438589  0.387028  1
  I  I15  1  0.500000  0.561411  0.612972  1
  I  I16  1  0.500000  0.938589  0.112972  1
  I  I17  1  0.500000  0.061411  0.887028  1
  I  I18  1  0.000000  0.804293  0.446563  1
  I  I19  1  0.000000  0.195707  0.553437  1
  I  I20  1  0.000000  0.695707  0.946563  1
  I  I21  1  0.000000  0.304293  0.053437  1
