# generated using pymatgen
data_K2Ti2O5
_symmetry_space_group_name_H-M   'P 1'
_cell_length_a   6.06862333
_cell_length_b   6.06862333
_cell_length_c   6.73078809
_cell_angle_alpha   80.97673058
_cell_angle_beta   99.02326942
_cell_angle_gamma   143.44008974
_symmetry_Int_Tables_number   1
_chemical_formula_structural   K2Ti2O5
_chemical_formula_sum   'K2 Ti2 O5'
_cell_volume   145.62653345
_cell_formula_units_Z   1
loop_
 _symmetry_equiv_pos_site_id
 _symmetry_equiv_pos_as_xyz
  1  'x, y, z'
loop_
 _atom_site_type_symbol
 _atom_site_label
 _atom_site_symmetry_multiplicity
 _atom_site_fract_x
 _atom_site_fract_y
 _atom_site_fract_z
 _atom_site_occupancy
  K  K0  1  0.401296  0.598704  0.648106  1
  K  K1  1  0.598704  0.401296  0.351894  1
  Ti  Ti2  1  0.147379  0.852621  0.908173  1
  Ti  Ti3  1  0.852621  0.147379  0.091827  1
  O  O4  1  0.322097  0.677903  0.010839  1
  O  O5  1  0.677903  0.322097  0.989161  1
  O  O6  1  0.125662  0.874338  0.647387  1
  O  O7  1  0.874338  0.125662  0.352613  1
  O  O8  1  0.000000  0.000000  0.000000  1
