# generated using pymatgen
data_H2Pb3O4
_symmetry_space_group_name_H-M   'P 1'
_cell_length_a   8.31931375
_cell_length_b   8.31931375
_cell_length_c   9.44910172
_cell_angle_alpha   90.00000000
_cell_angle_beta   90.00000000
_cell_angle_gamma   90.00000000
_symmetry_Int_Tables_number   1
_chemical_formula_structural   H2Pb3O4
_chemical_formula_sum   'H8 Pb12 O16'
_cell_volume   653.98160217
_cell_formula_units_Z   4
loop_
 _symmetry_equiv_pos_site_id
 _symmetry_equiv_pos_as_xyz
  1  'x, y, z'
loop_
 _atom_site_type_symbol
 _atom_site_label
 _atom_site_symmetry_multiplicity
 _atom_site_fract_x
 _atom_site_fract_y
 _atom_site_fract_z
 _atom_site_occupancy
  H  H0  1  0.176935  0.661735  0.740162  1
  H  H1  1  0.823065  0.338265  0.740162  1
  H  H2  1  0.161735  0.676935  0.240162  1
  H  H3  1  0.338265  0.176935  0.259838  1
  H  H4  1  0.661735  0.823065  0.259838  1
  H  H5  1  0.676935  0.838265  0.759838  1
  H  H6  1  0.323065  0.161735  0.759838  1
  H  H7  1  0.838265  0.323065  0.240162  1
  Pb  Pb8  1  0.500000  0.500000  0.778118  1
  Pb  Pb9  1  0.500000  0.500000  0.221882  1
  Pb  Pb10  1  0.000000  0.000000  0.721882  1
  Pb  Pb11  1  0.000000  0.000000  0.278118  1
  Pb  Pb12  1  0.375608  0.795002  0.503501  1
  Pb  Pb13  1  0.624392  0.204998  0.503501  1
  Pb  Pb14  1  0.295002  0.875608  0.003501  1
  Pb  Pb15  1  0.204998  0.375608  0.496499  1
  Pb  Pb16  1  0.795002  0.624392  0.496499  1
  Pb  Pb17  1  0.875608  0.704998  0.996499  1
  Pb  Pb18  1  0.124392  0.295002  0.996499  1
  Pb  Pb19  1  0.704998  0.124392  0.003501  1
  O  O20  1  0.081427  0.806615  0.871759  1
  O  O21  1  0.918573  0.193385  0.871759  1
  O  O22  1  0.306615  0.581427  0.371759  1
  O  O23  1  0.193385  0.081427  0.128241  1
  O  O24  1  0.892423  0.250967  0.171145  1
  O  O25  1  0.250967  0.107577  0.828855  1
  O  O26  1  0.749033  0.892423  0.828855  1
  O  O27  1  0.607577  0.750967  0.328855  1
  O  O28  1  0.392423  0.249033  0.328855  1
  O  O29  1  0.107577  0.749033  0.171145  1
  O  O30  1  0.750967  0.392423  0.671145  1
  O  O31  1  0.249033  0.607577  0.671145  1
  O  O32  1  0.693385  0.418573  0.371759  1
  O  O33  1  0.418573  0.306615  0.628241  1
  O  O34  1  0.581427  0.693385  0.628241  1
  O  O35  1  0.806615  0.918573  0.128241  1
