# generated using pymatgen
data_ZnBP2H4NO8
_symmetry_space_group_name_H-M   'P 1'
_cell_length_a   7.52078206
_cell_length_b   7.83192033
_cell_length_c   7.87831779
_cell_angle_alpha   60.63999003
_cell_angle_beta   76.66195681
_cell_angle_gamma   64.69769900
_symmetry_Int_Tables_number   1
_chemical_formula_structural   ZnBP2H4NO8
_chemical_formula_sum   'Zn2 B2 P4 H8 N2 O16'
_cell_volume   365.51361361
_cell_formula_units_Z   2
loop_
 _symmetry_equiv_pos_site_id
 _symmetry_equiv_pos_as_xyz
  1  'x, y, z'
loop_
 _atom_site_type_symbol
 _atom_site_label
 _atom_site_symmetry_multiplicity
 _atom_site_fract_x
 _atom_site_fract_y
 _atom_site_fract_z
 _atom_site_occupancy
  Zn  Zn0  1  0.805972  0.747738  0.547945  1
  Zn  Zn1  1  0.194028  0.252262  0.452055  1
  B  B2  1  0.696522  0.084134  0.996667  1
  B  B3  1  0.303478  0.915866  0.003333  1
  P  P4  1  0.540581  0.086856  0.700782  1
  P  P5  1  0.027833  0.727574  0.166061  1
  P  P6  1  0.972167  0.272426  0.833939  1
  P  P7  1  0.459419  0.913144  0.299218  1
  H  H8  1  0.390333  0.481834  0.748429  1
  H  H9  1  0.609667  0.518166  0.251571  1
  H  H10  1  0.856582  0.436163  0.226681  1
  H  H11  1  0.143418  0.563837  0.773319  1
  H  H12  1  0.731697  0.357698  0.140976  1
  H  H13  1  0.253350  0.739714  0.618019  1
  H  H14  1  0.268303  0.642302  0.859024  1
  H  H15  1  0.746650  0.260286  0.381981  1
  N  N16  1  0.735608  0.393168  0.250301  1
  N  N17  1  0.264392  0.606832  0.749699  1
  O  O18  1  0.157552  0.127883  0.966490  1
  O  O19  1  0.010306  0.771595  0.337849  1
  O  O20  1  0.269651  0.014117  0.394109  1
  O  O21  1  0.584531  0.175519  0.820603  1
  O  O22  1  0.415469  0.824481  0.179397  1
  O  O23  1  0.842448  0.872117  0.033510  1
  O  O24  1  0.989694  0.228405  0.662151  1
  O  O25  1  0.730349  0.985883  0.605891  1
  O  O26  1  0.942021  0.498862  0.783700  1
  O  O27  1  0.057979  0.501138  0.216300  1
  O  O28  1  0.787211  0.231852  0.968078  1
  O  O29  1  0.212789  0.768148  0.031922  1
  O  O30  1  0.606043  0.720637  0.452050  1
  O  O31  1  0.393957  0.279363  0.547950  1
  O  O32  1  0.552162  0.084405  0.161513  1
  O  O33  1  0.447838  0.915595  0.838487  1
