# generated using pymatgen
data_H8S(NO2)2
_symmetry_space_group_name_H-M   'P 1'
_cell_length_a   6.47073195
_cell_length_b   7.70018154
_cell_length_c   10.67747289
_cell_angle_alpha   90.00000000
_cell_angle_beta   90.00000000
_cell_angle_gamma   90.00000000
_symmetry_Int_Tables_number   1
_chemical_formula_structural   H8S(NO2)2
_chemical_formula_sum   'H32 S4 N8 O16'
_cell_volume   532.01374310
_cell_formula_units_Z   4
loop_
 _symmetry_equiv_pos_site_id
 _symmetry_equiv_pos_as_xyz
  1  'x, y, z'
loop_
 _atom_site_type_symbol
 _atom_site_label
 _atom_site_symmetry_multiplicity
 _atom_site_fract_x
 _atom_site_fract_y
 _atom_site_fract_z
 _atom_site_occupancy
  H  H0  1  0.119804  0.325621  0.173825  1
  H  H1  1  0.619804  0.674379  0.826175  1
  H  H2  1  0.380196  0.825621  0.326175  1
  H  H3  1  0.880196  0.174379  0.673825  1
  H  H4  1  0.880196  0.674379  0.826175  1
  H  H5  1  0.380196  0.325621  0.173825  1
  H  H6  1  0.619804  0.174379  0.673825  1
  H  H7  1  0.119804  0.825621  0.326175  1
  H  H8  1  0.750000  0.595167  0.702660  1
  H  H9  1  0.250000  0.404833  0.297340  1
  H  H10  1  0.750000  0.095167  0.797340  1
  H  H11  1  0.250000  0.904833  0.202660  1
  H  H12  1  0.750000  0.482240  0.843603  1
  H  H13  1  0.250000  0.517760  0.156397  1
  H  H14  1  0.750000  0.669906  0.112515  1
  H  H15  1  0.750000  0.982240  0.656397  1
  H  H16  1  0.120311  0.169173  0.962675  1
  H  H17  1  0.620311  0.830827  0.037325  1
  H  H18  1  0.379689  0.669173  0.537325  1
  H  H19  1  0.879689  0.330827  0.462675  1
  H  H20  1  0.879689  0.830827  0.037325  1
  H  H21  1  0.379689  0.169173  0.962675  1
  H  H22  1  0.620311  0.330827  0.462675  1
  H  H23  1  0.120311  0.669173  0.537325  1
  H  H24  1  0.750000  0.876596  0.171928  1
  H  H25  1  0.250000  0.123404  0.828072  1
  H  H26  1  0.750000  0.376596  0.328072  1
  H  H27  1  0.250000  0.623404  0.671928  1
  H  H28  1  0.250000  0.830094  0.612515  1
  H  H29  1  0.750000  0.169906  0.387485  1
  H  H30  1  0.250000  0.330094  0.887485  1
  H  H31  1  0.250000  0.017760  0.343603  1
  S  S32  1  0.750000  0.270025  0.069170  1
  S  S33  1  0.250000  0.729975  0.930830  1
  S  S34  1  0.750000  0.770025  0.430830  1
  S  S35  1  0.250000  0.229975  0.569170  1
  N  N36  1  0.750000  0.603495  0.798786  1
  N  N37  1  0.250000  0.396505  0.201214  1
  N  N38  1  0.750000  0.103495  0.701214  1
  N  N39  1  0.250000  0.896505  0.298786  1
  N  N40  1  0.750000  0.802382  0.091166  1
  N  N41  1  0.250000  0.197618  0.908834  1
  N  N42  1  0.750000  0.302382  0.408834  1
  N  N43  1  0.250000  0.697618  0.591166  1
  O  O44  1  0.059973  0.829388  0.894309  1
  O  O45  1  0.559973  0.170612  0.105691  1
  O  O46  1  0.440027  0.329388  0.605691  1
  O  O47  1  0.940027  0.670612  0.394309  1
  O  O48  1  0.940027  0.170612  0.105691  1
  O  O49  1  0.440027  0.829388  0.894309  1
  O  O50  1  0.559973  0.670612  0.394309  1
  O  O51  1  0.059973  0.329388  0.605691  1
  O  O52  1  0.750000  0.293239  0.930136  1
  O  O53  1  0.250000  0.706761  0.069864  1
  O  O54  1  0.750000  0.793239  0.569864  1
  O  O55  1  0.250000  0.206761  0.430136  1
  O  O56  1  0.750000  0.440004  0.136161  1
  O  O57  1  0.250000  0.559996  0.863839  1
  O  O58  1  0.750000  0.940004  0.363839  1
  O  O59  1  0.250000  0.059996  0.636161  1
