# generated using pymatgen
data_Tl(BH)6
_symmetry_space_group_name_H-M   'P 1'
_cell_length_a   7.67207307
_cell_length_b   7.67207307
_cell_length_c   7.67207307
_cell_angle_alpha   60.00000000
_cell_angle_beta   60.00000000
_cell_angle_gamma   60.00000000
_symmetry_Int_Tables_number   1
_chemical_formula_structural   Tl(BH)6
_chemical_formula_sum   'Tl2 B12 H12'
_cell_volume   319.31784795
_cell_formula_units_Z   2
loop_
 _symmetry_equiv_pos_site_id
 _symmetry_equiv_pos_as_xyz
  1  'x, y, z'
loop_
 _atom_site_type_symbol
 _atom_site_label
 _atom_site_symmetry_multiplicity
 _atom_site_fract_x
 _atom_site_fract_y
 _atom_site_fract_z
 _atom_site_occupancy
  Tl  Tl0  1  0.250000  0.250000  0.250000  1
  Tl  Tl1  1  0.750000  0.750000  0.750000  1
  B  B2  1  0.051099  0.785438  0.214562  1
  B  B3  1  0.785438  0.051099  0.948901  1
  B  B4  1  0.051099  0.948901  0.785438  1
  B  B5  1  0.948901  0.785438  0.051099  1
  B  B6  1  0.948901  0.051099  0.214562  1
  B  B7  1  0.214562  0.785438  0.948901  1
  B  B8  1  0.785438  0.948901  0.214562  1
  B  B9  1  0.051099  0.214562  0.948901  1
  B  B10  1  0.785438  0.214562  0.051099  1
  B  B11  1  0.948901  0.214562  0.785438  1
  B  B12  1  0.214562  0.948901  0.051099  1
  B  B13  1  0.214562  0.051099  0.785438  1
  H  H14  1  0.632559  0.087890  0.912110  1
  H  H15  1  0.087890  0.632559  0.367441  1
  H  H16  1  0.087890  0.912110  0.632559  1
  H  H17  1  0.912110  0.632559  0.087890  1
  H  H18  1  0.912110  0.087890  0.367441  1
  H  H19  1  0.367441  0.632559  0.912110  1
  H  H20  1  0.632559  0.912110  0.367441  1
  H  H21  1  0.087890  0.367441  0.912110  1
  H  H22  1  0.632559  0.367441  0.087890  1
  H  H23  1  0.912110  0.367441  0.632559  1
  H  H24  1  0.367441  0.912110  0.087890  1
  H  H25  1  0.367441  0.087890  0.632559  1
