# generated using pymatgen
data_Ca2Hf7O16
_symmetry_space_group_name_H-M   'P 1'
_cell_length_a   9.56535117
_cell_length_b   9.56535117
_cell_length_c   9.56535117
_cell_angle_alpha   38.81819417
_cell_angle_beta   38.81819417
_cell_angle_gamma   38.81819417
_symmetry_Int_Tables_number   1
_chemical_formula_structural   Ca2Hf7O16
_chemical_formula_sum   'Ca2 Hf7 O16'
_cell_volume   309.16886436
_cell_formula_units_Z   1
loop_
 _symmetry_equiv_pos_site_id
 _symmetry_equiv_pos_as_xyz
  1  'x, y, z'
loop_
 _atom_site_type_symbol
 _atom_site_label
 _atom_site_symmetry_multiplicity
 _atom_site_fract_x
 _atom_site_fract_y
 _atom_site_fract_z
 _atom_site_occupancy
  Ca  Ca0  1  0.333001  0.333001  0.333001  1
  Ca  Ca1  1  0.666999  0.666999  0.666999  1
  Hf  Hf2  1  0.742769  0.113105  0.486772  1
  Hf  Hf3  1  0.113105  0.486772  0.742769  1
  Hf  Hf4  1  0.486772  0.742769  0.113105  1
  Hf  Hf5  1  0.257231  0.886895  0.513228  1
  Hf  Hf6  1  0.886895  0.513228  0.257231  1
  Hf  Hf7  1  0.513228  0.257231  0.886895  1
  Hf  Hf8  1  0.000000  0.000000  0.000000  1
  O  O9  1  0.849515  0.152722  0.589016  1
  O  O10  1  0.152722  0.589016  0.849515  1
  O  O11  1  0.589016  0.849515  0.152722  1
  O  O12  1  0.150485  0.847278  0.410984  1
  O  O13  1  0.847278  0.410984  0.150485  1
  O  O14  1  0.410984  0.150485  0.847278  1
  O  O15  1  0.762447  0.031206  0.328549  1
  O  O16  1  0.031206  0.328549  0.762447  1
  O  O17  1  0.328549  0.762447  0.031206  1
  O  O18  1  0.762590  0.762590  0.762590  1
  O  O19  1  0.237410  0.237410  0.237410  1
  O  O20  1  0.574005  0.574005  0.574005  1
  O  O21  1  0.425995  0.425995  0.425995  1
  O  O22  1  0.671451  0.237553  0.968794  1
  O  O23  1  0.968794  0.671451  0.237553  1
  O  O24  1  0.237553  0.968794  0.671451  1
