# generated using pymatgen
data_Ba2In2O5
_symmetry_space_group_name_H-M   'P 1'
_cell_length_a   9.50185485
_cell_length_b   9.50185485
_cell_length_c   9.50185485
_cell_angle_alpha   142.83137935
_cell_angle_beta   141.67938413
_cell_angle_gamma   54.44992600
_symmetry_Int_Tables_number   1
_chemical_formula_structural   Ba2In2O5
_chemical_formula_sum   'Ba4 In4 O10'
_cell_volume   319.17557109
_cell_formula_units_Z   2
loop_
 _symmetry_equiv_pos_site_id
 _symmetry_equiv_pos_as_xyz
  1  'x, y, z'
loop_
 _atom_site_type_symbol
 _atom_site_label
 _atom_site_symmetry_multiplicity
 _atom_site_fract_x
 _atom_site_fract_y
 _atom_site_fract_z
 _atom_site_occupancy
  Ba  Ba0  1  0.626908  0.088811  0.497731  1
  Ba  Ba1  1  0.373092  0.870823  0.461903  1
  Ba  Ba2  1  0.091080  0.588811  0.461903  1
  Ba  Ba3  1  0.908920  0.370823  0.497731  1
  In  In4  1  0.316597  0.256925  0.073522  1
  In  In5  1  0.683403  0.756925  0.940328  1
  In  In6  1  0.500000  0.474721  0.974721  1
  In  In7  1  0.000000  0.974721  0.974721  1
  O  O8  1  0.379591  0.601459  0.481050  1
  O  O9  1  0.620409  0.101459  0.221868  1
  O  O10  1  0.692868  0.589089  0.006286  1
  O  O11  1  0.307132  0.313418  0.896221  1
  O  O12  1  0.082803  0.089089  0.896221  1
  O  O13  1  0.917197  0.813418  0.006286  1
  O  O14  1  0.746575  0.220833  0.983797  1
  O  O15  1  0.253425  0.237221  0.474258  1
  O  O16  1  0.262964  0.737221  0.983797  1
  O  O17  1  0.737036  0.720833  0.474258  1
