# generated using pymatgen
data_Ge19(AsI)4
_symmetry_space_group_name_H-M   'P 1'
_cell_length_a   10.83637220
_cell_length_b   10.83637220
_cell_length_c   10.83637220
_cell_angle_alpha   90.00000000
_cell_angle_beta   90.00000000
_cell_angle_gamma   90.00000000
_symmetry_Int_Tables_number   1
_chemical_formula_structural   Ge19(AsI)4
_chemical_formula_sum   'Ge38 As8 I8'
_cell_volume   1272.48227150
_cell_formula_units_Z   2
loop_
 _symmetry_equiv_pos_site_id
 _symmetry_equiv_pos_as_xyz
  1  'x, y, z'
loop_
 _atom_site_type_symbol
 _atom_site_label
 _atom_site_symmetry_multiplicity
 _atom_site_fract_x
 _atom_site_fract_y
 _atom_site_fract_z
 _atom_site_occupancy
  Ge  Ge0  1  0.002685  0.117329  0.309716  1
  Ge  Ge1  1  0.497315  0.809716  0.382671  1
  Ge  Ge2  1  0.497315  0.190284  0.617329  1
  Ge  Ge3  1  0.190284  0.382671  0.502685  1
  Ge  Ge4  1  0.809716  0.382671  0.497315  1
  Ge  Ge5  1  0.617329  0.497315  0.190284  1
  Ge  Ge6  1  0.382671  0.502685  0.190284  1
  Ge  Ge7  1  0.309716  0.002685  0.117329  1
  Ge  Ge8  1  0.117329  0.309716  0.002685  1
  Ge  Ge9  1  0.882671  0.690284  0.002685  1
  Ge  Ge10  1  0.309716  0.997315  0.882671  1
  Ge  Ge11  1  0.882671  0.309716  0.997315  1
  Ge  Ge12  1  0.690284  0.997315  0.117329  1
  Ge  Ge13  1  0.690284  0.002685  0.882671  1
  Ge  Ge14  1  0.117329  0.690284  0.997315  1
  Ge  Ge15  1  0.002685  0.882671  0.690284  1
  Ge  Ge16  1  0.997315  0.117329  0.690284  1
  Ge  Ge17  1  0.997315  0.882671  0.309716  1
  Ge  Ge18  1  0.382671  0.497315  0.809716  1
  Ge  Ge19  1  0.617329  0.502685  0.809716  1
  Ge  Ge20  1  0.190284  0.617329  0.497315  1
  Ge  Ge21  1  0.809716  0.617329  0.502685  1
  Ge  Ge22  1  0.502685  0.190284  0.382671  1
  Ge  Ge23  1  0.502685  0.809716  0.617329  1
  Ge  Ge24  1  0.182546  0.182546  0.182546  1
  Ge  Ge25  1  0.317454  0.682546  0.317454  1
  Ge  Ge26  1  0.317454  0.317454  0.682546  1
  Ge  Ge27  1  0.682546  0.317454  0.317454  1
  Ge  Ge28  1  0.817454  0.817454  0.182546  1
  Ge  Ge29  1  0.182546  0.817454  0.817454  1
  Ge  Ge30  1  0.817454  0.182546  0.817454  1
  Ge  Ge31  1  0.682546  0.682546  0.682546  1
  Ge  Ge32  1  0.000000  0.250000  0.500000  1
  Ge  Ge33  1  0.500000  0.000000  0.250000  1
  Ge  Ge34  1  0.500000  0.000000  0.750000  1
  Ge  Ge35  1  0.750000  0.500000  0.000000  1
  Ge  Ge36  1  0.250000  0.500000  0.000000  1
  Ge  Ge37  1  0.000000  0.750000  0.500000  1
  As  As38  1  0.815734  0.815734  0.815734  1
  As  As39  1  0.684266  0.315734  0.684266  1
  As  As40  1  0.684266  0.684266  0.315734  1
  As  As41  1  0.315734  0.684266  0.684266  1
  As  As42  1  0.184266  0.184266  0.815734  1
  As  As43  1  0.815734  0.184266  0.184266  1
  As  As44  1  0.184266  0.815734  0.184266  1
  As  As45  1  0.315734  0.315734  0.315734  1
  I  I46  1  0.000000  0.500000  0.250000  1
  I  I47  1  0.500000  0.750000  0.000000  1
  I  I48  1  0.500000  0.250000  0.000000  1
  I  I49  1  0.250000  0.000000  0.500000  1
  I  I50  1  0.750000  0.000000  0.500000  1
  I  I51  1  0.000000  0.500000  0.750000  1
  I  I52  1  0.000000  0.000000  0.000000  1
  I  I53  1  0.500000  0.500000  0.500000  1
