# generated using pymatgen
data_TcH4NO4
_symmetry_space_group_name_H-M   'P 1'
_cell_length_a   7.63579456
_cell_length_b   7.63579456
_cell_length_c   7.63579456
_cell_angle_alpha   131.61804055
_cell_angle_beta   131.61804055
_cell_angle_gamma   70.83296342
_symmetry_Int_Tables_number   1
_chemical_formula_structural   TcH4NO4
_chemical_formula_sum   'Tc2 H8 N2 O8'
_cell_volume   243.70245239
_cell_formula_units_Z   2
loop_
 _symmetry_equiv_pos_site_id
 _symmetry_equiv_pos_as_xyz
  1  'x, y, z'
loop_
 _atom_site_type_symbol
 _atom_site_label
 _atom_site_symmetry_multiplicity
 _atom_site_fract_x
 _atom_site_fract_y
 _atom_site_fract_z
 _atom_site_occupancy
  Tc  Tc0  1  0.500000  0.500000  0.000000  1
  Tc  Tc1  1  0.250000  0.750000  0.500000  1
  H  H2  1  0.073081  0.181000  0.155448  1
  H  H3  1  0.931000  0.275552  0.607918  1
  H  H4  1  0.676919  0.069000  0.344552  1
  H  H5  1  0.819000  0.974448  0.892082  1
  H  H6  1  0.025552  0.917633  0.844552  1
  H  H7  1  0.724448  0.332367  0.655448  1
  H  H8  1  0.667633  0.323081  0.392082  1
  H  H9  1  0.082367  0.926919  0.107918  1
  N  N10  1  0.750000  0.250000  0.500000  1
  N  N11  1  0.000000  0.000000  0.000000  1
  O  O12  1  0.269509  0.464826  0.395362  1
  O  O13  1  0.624147  0.519509  0.304683  1
  O  O14  1  0.480491  0.785174  0.104638  1
  O  O15  1  0.535174  0.930536  0.804683  1
  O  O16  1  0.125853  0.730491  0.195317  1
  O  O17  1  0.069464  0.874147  0.604638  1
  O  O18  1  0.214826  0.319464  0.695317  1
  O  O19  1  0.680536  0.375853  0.895362  1
