# generated using pymatgen
data_B5H8
_symmetry_space_group_name_H-M   'P 1'
_cell_length_a   6.06112658
_cell_length_b   11.41239209
_cell_length_c   15.18370510
_cell_angle_alpha   90.00000000
_cell_angle_beta   90.00000000
_cell_angle_gamma   90.00000000
_symmetry_Int_Tables_number   1
_chemical_formula_structural   B5H8
_chemical_formula_sum   'B40 H64'
_cell_volume   1050.28653612
_cell_formula_units_Z   8
loop_
 _symmetry_equiv_pos_site_id
 _symmetry_equiv_pos_as_xyz
  1  'x, y, z'
loop_
 _atom_site_type_symbol
 _atom_site_label
 _atom_site_symmetry_multiplicity
 _atom_site_fract_x
 _atom_site_fract_y
 _atom_site_fract_z
 _atom_site_occupancy
  B  B0  1  0.062241  0.151830  0.110425  1
  B  B1  1  0.937759  0.848170  0.610425  1
  B  B2  1  0.437759  0.651830  0.110425  1
  B  B3  1  0.562241  0.348170  0.610425  1
  B  B4  1  0.176069  0.042086  0.039582  1
  B  B5  1  0.823931  0.957914  0.539582  1
  B  B6  1  0.323931  0.542086  0.039582  1
  B  B7  1  0.676069  0.457914  0.539582  1
  B  B8  1  0.403779  0.025875  0.113236  1
  B  B9  1  0.596221  0.974125  0.613236  1
  B  B10  1  0.096221  0.525875  0.113236  1
  B  B11  1  0.903779  0.474125  0.613236  1
  B  B12  1  0.293426  0.138014  0.184910  1
  B  B13  1  0.706574  0.861986  0.684910  1
  B  B14  1  0.206574  0.638014  0.184910  1
  B  B15  1  0.793426  0.361986  0.684910  1
  B  B16  1  0.326219  0.158635  0.074361  1
  B  B17  1  0.673781  0.841365  0.574361  1
  B  B18  1  0.173781  0.658635  0.074361  1
  B  B19  1  0.826219  0.341365  0.574361  1
  B  B20  1  0.540423  0.334671  0.282994  1
  B  B21  1  0.459577  0.665329  0.782994  1
  B  B22  1  0.959577  0.834671  0.282994  1
  B  B23  1  0.040423  0.165329  0.782994  1
  B  B24  1  0.276701  0.322226  0.334623  1
  B  B25  1  0.723299  0.677774  0.834623  1
  B  B26  1  0.223299  0.822226  0.334623  1
  B  B27  1  0.776701  0.177774  0.834623  1
  B  B28  1  0.360908  0.188333  0.385111  1
  B  B29  1  0.639092  0.811667  0.885111  1
  B  B30  1  0.139092  0.688333  0.385111  1
  B  B31  1  0.860908  0.311667  0.885111  1
  B  B32  1  0.623397  0.200457  0.332981  1
  B  B33  1  0.376603  0.799543  0.832981  1
  B  B34  1  0.876603  0.700457  0.332981  1
  B  B35  1  0.123397  0.299543  0.832981  1
  B  B36  1  0.385022  0.210579  0.274316  1
  B  B37  1  0.614978  0.789421  0.774316  1
  B  B38  1  0.114978  0.710579  0.274316  1
  B  B39  1  0.885022  0.289421  0.774316  1
  H  H40  1  0.985655  0.045185  0.085037  1
  H  H41  1  0.014345  0.954815  0.585037  1
  H  H42  1  0.514345  0.545185  0.085037  1
  H  H43  1  0.485655  0.454815  0.585037  1
  H  H44  1  0.072023  0.116166  0.194091  1
  H  H45  1  0.927977  0.883834  0.694091  1
  H  H46  1  0.427977  0.616166  0.194091  1
  H  H47  1  0.572023  0.383834  0.694091  1
  H  H48  1  0.134980  0.007290  0.967383  1
  H  H49  1  0.865020  0.992710  0.467383  1
  H  H50  1  0.365020  0.507290  0.967383  1
  H  H51  1  0.634980  0.492710  0.467383  1
  H  H52  1  0.912100  0.218747  0.103898  1
  H  H53  1  0.087900  0.781253  0.603898  1
  H  H54  1  0.587900  0.718747  0.103898  1
  H  H55  1  0.412100  0.281253  0.603898  1
  H  H56  1  0.574731  0.974529  0.109525  1
  H  H57  1  0.425269  0.025471  0.609525  1
  H  H58  1  0.925269  0.474529  0.109525  1
  H  H59  1  0.074731  0.525471  0.609525  1
  H  H60  1  0.424212  0.231623  0.034120  1
  H  H61  1  0.575788  0.768377  0.534120  1
  H  H62  1  0.075788  0.731623  0.034120  1
  H  H63  1  0.924212  0.268377  0.534120  1
  H  H64  1  0.617168  0.397035  0.228032  1
  H  H65  1  0.331650  0.020562  0.196194  1
  H  H66  1  0.382832  0.602965  0.728032  1
  H  H67  1  0.117168  0.102965  0.728032  1
  H  H68  1  0.107062  0.374332  0.328647  1
  H  H69  1  0.892938  0.625668  0.828647  1
  H  H70  1  0.392938  0.874332  0.328647  1
  H  H71  1  0.607062  0.125668  0.828647  1
  H  H72  1  0.269862  0.113919  0.426352  1
  H  H73  1  0.730138  0.886081  0.926352  1
  H  H74  1  0.230138  0.613919  0.426352  1
  H  H75  1  0.769862  0.386081  0.926352  1
  H  H76  1  0.779148  0.137536  0.325853  1
  H  H77  1  0.220852  0.862464  0.825853  1
  H  H78  1  0.720852  0.637536  0.325853  1
  H  H79  1  0.279148  0.362464  0.825853  1
  H  H80  1  0.065302  0.299334  0.919023  1
  H  H81  1  0.934698  0.700666  0.419023  1
  H  H82  1  0.434698  0.799334  0.919023  1
  H  H83  1  0.565302  0.200666  0.419023  1
  H  H84  1  0.938639  0.096823  0.842957  1
  H  H85  1  0.061361  0.903177  0.342957  1
  H  H86  1  0.561361  0.596823  0.842957  1
  H  H87  1  0.438639  0.403177  0.342957  1
  H  H88  1  0.744426  0.550350  0.587305  1
  H  H89  1  0.255574  0.449650  0.087305  1
  H  H90  1  0.755574  0.050350  0.587305  1
  H  H91  1  0.244426  0.949650  0.087305  1
  H  H92  1  0.801482  0.207598  0.920227  1
  H  H93  1  0.198518  0.792402  0.420227  1
  H  H94  1  0.698518  0.707598  0.920227  1
  H  H95  1  0.301482  0.292402  0.420227  1
  H  H96  1  0.201164  0.188894  0.841714  1
  H  H97  1  0.798836  0.811106  0.341714  1
  H  H98  1  0.298836  0.688894  0.841714  1
  H  H99  1  0.701164  0.311106  0.341714  1
  H  H100  1  0.831650  0.479438  0.696194  1
  H  H101  1  0.168350  0.520562  0.196194  1
  H  H102  1  0.668350  0.979438  0.696194  1
  H  H103  1  0.882832  0.897035  0.228032  1
