# generated using pymatgen
data_Ge19(PI)4
_symmetry_space_group_name_H-M   'P 1'
_cell_length_a   10.68904600
_cell_length_b   10.68904600
_cell_length_c   10.68904600
_cell_angle_alpha   90.00000000
_cell_angle_beta   90.00000000
_cell_angle_gamma   90.00000000
_symmetry_Int_Tables_number   1
_chemical_formula_structural   Ge19(PI)4
_chemical_formula_sum   'Ge38 P8 I8'
_cell_volume   1221.28447999
_cell_formula_units_Z   2
loop_
 _symmetry_equiv_pos_site_id
 _symmetry_equiv_pos_as_xyz
  1  'x, y, z'
loop_
 _atom_site_type_symbol
 _atom_site_label
 _atom_site_symmetry_multiplicity
 _atom_site_fract_x
 _atom_site_fract_y
 _atom_site_fract_z
 _atom_site_occupancy
  Ge  Ge0  1  0.998336  0.118974  0.306054  1
  Ge  Ge1  1  0.501664  0.806054  0.381026  1
  Ge  Ge2  1  0.501664  0.193946  0.618974  1
  Ge  Ge3  1  0.193946  0.381026  0.498336  1
  Ge  Ge4  1  0.806054  0.381026  0.501664  1
  Ge  Ge5  1  0.618974  0.501664  0.193946  1
  Ge  Ge6  1  0.381026  0.498336  0.193946  1
  Ge  Ge7  1  0.306054  0.998336  0.118974  1
  Ge  Ge8  1  0.118974  0.306054  0.998336  1
  Ge  Ge9  1  0.881026  0.693946  0.998336  1
  Ge  Ge10  1  0.306054  0.001664  0.881026  1
  Ge  Ge11  1  0.881026  0.306054  0.001664  1
  Ge  Ge12  1  0.693946  0.001664  0.118974  1
  Ge  Ge13  1  0.693946  0.998336  0.881026  1
  Ge  Ge14  1  0.118974  0.693946  0.001664  1
  Ge  Ge15  1  0.998336  0.881026  0.693946  1
  Ge  Ge16  1  0.001664  0.118974  0.693946  1
  Ge  Ge17  1  0.001664  0.881026  0.306054  1
  Ge  Ge18  1  0.381026  0.501664  0.806054  1
  Ge  Ge19  1  0.618974  0.498336  0.806054  1
  Ge  Ge20  1  0.193946  0.618974  0.501664  1
  Ge  Ge21  1  0.806054  0.618974  0.498336  1
  Ge  Ge22  1  0.498336  0.193946  0.381026  1
  Ge  Ge23  1  0.498336  0.806054  0.618974  1
  Ge  Ge24  1  0.185841  0.185841  0.185841  1
  Ge  Ge25  1  0.314159  0.685841  0.314159  1
  Ge  Ge26  1  0.314159  0.314159  0.685841  1
  Ge  Ge27  1  0.685841  0.314159  0.314159  1
  Ge  Ge28  1  0.814159  0.814159  0.185841  1
  Ge  Ge29  1  0.185841  0.814159  0.814159  1
  Ge  Ge30  1  0.814159  0.185841  0.814159  1
  Ge  Ge31  1  0.685841  0.685841  0.685841  1
  Ge  Ge32  1  0.000000  0.250000  0.500000  1
  Ge  Ge33  1  0.500000  0.000000  0.250000  1
  Ge  Ge34  1  0.500000  0.000000  0.750000  1
  Ge  Ge35  1  0.750000  0.500000  0.000000  1
  Ge  Ge36  1  0.250000  0.500000  0.000000  1
  Ge  Ge37  1  0.000000  0.750000  0.500000  1
  P  P38  1  0.815836  0.815836  0.815836  1
  P  P39  1  0.684164  0.315836  0.684164  1
  P  P40  1  0.684164  0.684164  0.315836  1
  P  P41  1  0.315836  0.684164  0.684164  1
  P  P42  1  0.184164  0.184164  0.815836  1
  P  P43  1  0.815836  0.184164  0.184164  1
  P  P44  1  0.184164  0.815836  0.184164  1
  P  P45  1  0.315836  0.315836  0.315836  1
  I  I46  1  0.000000  0.500000  0.250000  1
  I  I47  1  0.500000  0.750000  0.000000  1
  I  I48  1  0.500000  0.250000  0.000000  1
  I  I49  1  0.250000  0.000000  0.500000  1
  I  I50  1  0.750000  0.000000  0.500000  1
  I  I51  1  0.000000  0.500000  0.750000  1
  I  I52  1  0.000000  0.000000  0.000000  1
  I  I53  1  0.500000  0.500000  0.500000  1
