# generated using pymatgen
data_K5CuSb2
_symmetry_space_group_name_H-M   'P 1'
_cell_length_a   10.07547734
_cell_length_b   10.07547734
_cell_length_c   10.07547734
_cell_angle_alpha   34.62386721
_cell_angle_beta   34.62386721
_cell_angle_gamma   34.62386721
_symmetry_Int_Tables_number   1
_chemical_formula_structural   K5CuSb2
_chemical_formula_sum   'K5 Cu1 Sb2'
_cell_volume   294.64190844
_cell_formula_units_Z   1
loop_
 _symmetry_equiv_pos_site_id
 _symmetry_equiv_pos_as_xyz
  1  'x, y, z'
loop_
 _atom_site_type_symbol
 _atom_site_label
 _atom_site_symmetry_multiplicity
 _atom_site_fract_x
 _atom_site_fract_y
 _atom_site_fract_z
 _atom_site_occupancy
  K  K0  1  0.500000  0.500000  0.500000  1
  K  K1  1  0.635158  0.635158  0.635158  1
  K  K2  1  0.364842  0.364842  0.364842  1
  K  K3  1  0.783207  0.783207  0.783207  1
  K  K4  1  0.216793  0.216793  0.216793  1
  Cu  Cu5  1  0.000000  0.000000  0.000000  1
  Sb  Sb6  1  0.911572  0.911572  0.911572  1
  Sb  Sb7  1  0.088428  0.088428  0.088428  1
