# generated using pymatgen
data_AsPbF7
_symmetry_space_group_name_H-M   'P 1'
_cell_length_a   4.77220208
_cell_length_b   7.41579482
_cell_length_c   7.67584947
_cell_angle_alpha   105.66724738
_cell_angle_beta   101.07386648
_cell_angle_gamma   90.87866532
_symmetry_Int_Tables_number   1
_chemical_formula_structural   AsPbF7
_chemical_formula_sum   'As2 Pb2 F14'
_cell_volume   256.03309451
_cell_formula_units_Z   2
loop_
 _symmetry_equiv_pos_site_id
 _symmetry_equiv_pos_as_xyz
  1  'x, y, z'
loop_
 _atom_site_type_symbol
 _atom_site_label
 _atom_site_symmetry_multiplicity
 _atom_site_fract_x
 _atom_site_fract_y
 _atom_site_fract_z
 _atom_site_occupancy
  As  As0  1  0.647866  0.810625  0.711028  1
  As  As1  1  0.352134  0.189375  0.288972  1
  Pb  Pb2  1  0.181945  0.349794  0.804534  1
  Pb  Pb3  1  0.818055  0.650206  0.195466  1
  F  F4  1  0.139381  0.185475  0.068812  1
  F  F5  1  0.436412  0.795076  0.490055  1
  F  F6  1  0.563588  0.204924  0.509945  1
  F  F7  1  0.506397  0.022896  0.811370  1
  F  F8  1  0.493603  0.977104  0.188630  1
  F  F9  1  0.372293  0.680412  0.760833  1
  F  F10  1  0.860619  0.814525  0.931188  1
  F  F11  1  0.278120  0.578430  0.085414  1
  F  F12  1  0.076947  0.060100  0.337291  1
  F  F13  1  0.202626  0.401584  0.389105  1
  F  F14  1  0.721880  0.421570  0.914586  1
  F  F15  1  0.797374  0.598416  0.610895  1
  F  F16  1  0.627707  0.319588  0.239167  1
  F  F17  1  0.923053  0.939900  0.662709  1
