# generated using pymatgen
data_NaInBr4
_symmetry_space_group_name_H-M   'P 1'
_cell_length_a   6.89019419
_cell_length_b   10.82036872
_cell_length_c   11.61800747
_cell_angle_alpha   90.00000000
_cell_angle_beta   90.00000000
_cell_angle_gamma   90.00000000
_symmetry_Int_Tables_number   1
_chemical_formula_structural   NaInBr4
_chemical_formula_sum   'Na4 In4 Br16'
_cell_volume   866.17406046
_cell_formula_units_Z   4
loop_
 _symmetry_equiv_pos_site_id
 _symmetry_equiv_pos_as_xyz
  1  'x, y, z'
loop_
 _atom_site_type_symbol
 _atom_site_label
 _atom_site_symmetry_multiplicity
 _atom_site_fract_x
 _atom_site_fract_y
 _atom_site_fract_z
 _atom_site_occupancy
  Na  Na0  1  0.068269  0.525376  0.646997  1
  Na  Na1  1  0.568269  0.974624  0.353003  1
  Na  Na2  1  0.931731  0.025376  0.853003  1
  Na  Na3  1  0.431731  0.474624  0.146997  1
  In  In4  1  0.545705  0.257428  0.711461  1
  In  In5  1  0.954295  0.742572  0.211461  1
  In  In6  1  0.454295  0.757428  0.788539  1
  In  In7  1  0.045705  0.242572  0.288539  1
  Br  Br8  1  0.675090  0.242743  0.289104  1
  Br  Br9  1  0.317967  0.560324  0.880983  1
  Br  Br10  1  0.817967  0.939676  0.119017  1
  Br  Br11  1  0.682033  0.060324  0.619017  1
  Br  Br12  1  0.175090  0.257257  0.710896  1
  Br  Br13  1  0.660052  0.446509  0.599508  1
  Br  Br14  1  0.824910  0.757257  0.789104  1
  Br  Br15  1  0.324910  0.742743  0.210896  1
  Br  Br16  1  0.339948  0.946509  0.900492  1
  Br  Br17  1  0.160052  0.053491  0.400492  1
  Br  Br18  1  0.697378  0.252483  0.911500  1
  Br  Br19  1  0.839948  0.553491  0.099508  1
  Br  Br20  1  0.802622  0.747517  0.411500  1
  Br  Br21  1  0.302622  0.752483  0.588500  1
  Br  Br22  1  0.197378  0.247517  0.088500  1
  Br  Br23  1  0.182033  0.439676  0.380983  1
