# generated using pymatgen
data_Ta(TeCl3)2
_symmetry_space_group_name_H-M   'P 1'
_cell_length_a   7.16192705
_cell_length_b   7.66870412
_cell_length_c   11.83897797
_cell_angle_alpha   78.98952628
_cell_angle_beta   75.82876445
_cell_angle_gamma   83.68975767
_symmetry_Int_Tables_number   1
_chemical_formula_structural   Ta(TeCl3)2
_chemical_formula_sum   'Ta2 Te4 Cl12'
_cell_volume   617.47215932
_cell_formula_units_Z   2
loop_
 _symmetry_equiv_pos_site_id
 _symmetry_equiv_pos_as_xyz
  1  'x, y, z'
loop_
 _atom_site_type_symbol
 _atom_site_label
 _atom_site_symmetry_multiplicity
 _atom_site_fract_x
 _atom_site_fract_y
 _atom_site_fract_z
 _atom_site_occupancy
  Ta  Ta0  1  0.795274  0.330013  0.797317  1
  Ta  Ta1  1  0.204726  0.669987  0.202683  1
  Te  Te2  1  0.270502  0.156664  0.495427  1
  Te  Te3  1  0.729498  0.843336  0.504573  1
  Te  Te4  1  0.392059  0.906359  0.662658  1
  Te  Te5  1  0.607941  0.093641  0.337342  1
  Cl  Cl6  1  0.856171  0.288906  0.984887  1
  Cl  Cl7  1  0.143829  0.711094  0.015113  1
  Cl  Cl8  1  0.947062  0.040225  0.762958  1
  Cl  Cl9  1  0.052938  0.959775  0.237042  1
  Cl  Cl10  1  0.101239  0.447139  0.714525  1
  Cl  Cl11  1  0.898761  0.552861  0.285475  1
  Cl  Cl12  1  0.263475  0.627927  0.397406  1
  Cl  Cl13  1  0.736525  0.372073  0.602594  1
  Cl  Cl14  1  0.499372  0.799430  0.126899  1
  Cl  Cl15  1  0.500628  0.200570  0.873101  1
  Cl  Cl16  1  0.345431  0.377558  0.186932  1
  Cl  Cl17  1  0.654569  0.622442  0.813068  1
