# generated using pymatgen
data_BaSr(FeO2)4
_symmetry_space_group_name_H-M   'P 1'
_cell_length_a   5.56407782
_cell_length_b   5.56407782
_cell_length_c   8.20573369
_cell_angle_alpha   90.00000000
_cell_angle_beta   90.00000000
_cell_angle_gamma   120.00000000
_symmetry_Int_Tables_number   1
_chemical_formula_structural   BaSr(FeO2)4
_chemical_formula_sum   'Ba1 Sr1 Fe4 O8'
_cell_volume   220.00595731
_cell_formula_units_Z   1
loop_
 _symmetry_equiv_pos_site_id
 _symmetry_equiv_pos_as_xyz
  1  'x, y, z'
loop_
 _atom_site_type_symbol
 _atom_site_label
 _atom_site_symmetry_multiplicity
 _atom_site_fract_x
 _atom_site_fract_y
 _atom_site_fract_z
 _atom_site_occupancy
  Ba  Ba0  1  0.000000  0.000000  0.000000  1
  Sr  Sr1  1  0.000000  0.000000  0.500000  1
  Fe  Fe2  1  0.666667  0.333333  0.229426  1
  Fe  Fe3  1  0.666667  0.333333  0.770574  1
  Fe  Fe4  1  0.333333  0.666667  0.770574  1
  Fe  Fe5  1  0.333333  0.666667  0.229426  1
  O  O6  1  0.337831  0.337831  0.707725  1
  O  O7  1  0.662169  0.000000  0.707725  1
  O  O8  1  0.000000  0.662169  0.707725  1
  O  O9  1  0.662169  0.662169  0.292275  1
  O  O10  1  0.000000  0.337831  0.292275  1
  O  O11  1  0.337831  0.000000  0.292275  1
  O  O12  1  0.333333  0.666667  0.000000  1
  O  O13  1  0.666667  0.333333  0.000000  1
