# generated using pymatgen
data_KGaSb4
_symmetry_space_group_name_H-M   'P 1'
_cell_length_a   4.27533758
_cell_length_b   10.57068660
_cell_length_c   18.21241463
_cell_angle_alpha   90.00000000
_cell_angle_beta   90.00000000
_cell_angle_gamma   90.00000000
_symmetry_Int_Tables_number   1
_chemical_formula_structural   KGaSb4
_chemical_formula_sum   'K4 Ga4 Sb16'
_cell_volume   823.07827427
_cell_formula_units_Z   4
loop_
 _symmetry_equiv_pos_site_id
 _symmetry_equiv_pos_as_xyz
  1  'x, y, z'
loop_
 _atom_site_type_symbol
 _atom_site_label
 _atom_site_symmetry_multiplicity
 _atom_site_fract_x
 _atom_site_fract_y
 _atom_site_fract_z
 _atom_site_occupancy
  K  K0  1  0.750000  0.678401  0.065547  1
  K  K1  1  0.250000  0.321599  0.934453  1
  K  K2  1  0.750000  0.178401  0.434453  1
  K  K3  1  0.250000  0.821599  0.565547  1
  Ga  Ga4  1  0.750000  0.817257  0.869064  1
  Ga  Ga5  1  0.250000  0.182743  0.130936  1
  Ga  Ga6  1  0.750000  0.317257  0.630936  1
  Ga  Ga7  1  0.250000  0.682743  0.369064  1
  Sb  Sb8  1  0.750000  0.330739  0.102064  1
  Sb  Sb9  1  0.250000  0.669261  0.897936  1
  Sb  Sb10  1  0.750000  0.830739  0.397936  1
  Sb  Sb11  1  0.250000  0.169261  0.602064  1
  Sb  Sb12  1  0.750000  0.888761  0.726671  1
  Sb  Sb13  1  0.250000  0.111239  0.273329  1
  Sb  Sb14  1  0.750000  0.388761  0.773329  1
  Sb  Sb15  1  0.250000  0.611239  0.226671  1
  Sb  Sb16  1  0.750000  0.033479  0.949738  1
  Sb  Sb17  1  0.250000  0.966521  0.050262  1
  Sb  Sb18  1  0.750000  0.533479  0.550262  1
  Sb  Sb19  1  0.250000  0.466521  0.449738  1
  Sb  Sb20  1  0.750000  0.429028  0.249016  1
  Sb  Sb21  1  0.250000  0.570972  0.750984  1
  Sb  Sb22  1  0.750000  0.929028  0.250984  1
  Sb  Sb23  1  0.250000  0.070972  0.749016  1
