# generated using pymatgen
data_Zn(InTe2)2
_symmetry_space_group_name_H-M   'P 1'
_cell_length_a   7.70607248
_cell_length_b   7.70607248
_cell_length_c   7.70607248
_cell_angle_alpha   132.24747931
_cell_angle_beta   132.24747931
_cell_angle_gamma   69.83843996
_symmetry_Int_Tables_number   1
_chemical_formula_structural   Zn(InTe2)2
_chemical_formula_sum   'Zn1 In2 Te4'
_cell_volume   245.89683480
_cell_formula_units_Z   1
loop_
 _symmetry_equiv_pos_site_id
 _symmetry_equiv_pos_as_xyz
  1  'x, y, z'
loop_
 _atom_site_type_symbol
 _atom_site_label
 _atom_site_symmetry_multiplicity
 _atom_site_fract_x
 _atom_site_fract_y
 _atom_site_fract_z
 _atom_site_occupancy
  Zn  Zn0  1  0.000000  0.000000  0.000000  1
  In  In1  1  0.500000  0.500000  0.000000  1
  In  In2  1  0.250000  0.750000  0.500000  1
  Te  Te3  1  0.396770  0.918243  0.051408  1
  Te  Te4  1  0.081757  0.133165  0.478527  1
  Te  Te5  1  0.654638  0.603230  0.521473  1
  Te  Te6  1  0.866835  0.345362  0.948592  1
