# generated using pymatgen
data_Ta3TeI7
_symmetry_space_group_name_H-M   'P 1'
_cell_length_a   7.68760178
_cell_length_b   7.68760178
_cell_length_c   15.07368264
_cell_angle_alpha   90.00000000
_cell_angle_beta   90.00000000
_cell_angle_gamma   120.00000000
_symmetry_Int_Tables_number   1
_chemical_formula_structural   Ta3TeI7
_chemical_formula_sum   'Ta6 Te2 I14'
_cell_volume   771.49258563
_cell_formula_units_Z   2
loop_
 _symmetry_equiv_pos_site_id
 _symmetry_equiv_pos_as_xyz
  1  'x, y, z'
loop_
 _atom_site_type_symbol
 _atom_site_label
 _atom_site_symmetry_multiplicity
 _atom_site_fract_x
 _atom_site_fract_y
 _atom_site_fract_z
 _atom_site_occupancy
  Ta  Ta0  1  0.130681  0.869319  0.750511  1
  Ta  Ta1  1  0.261362  0.130681  0.250511  1
  Ta  Ta2  1  0.869319  0.738638  0.250511  1
  Ta  Ta3  1  0.130681  0.261362  0.750511  1
  Ta  Ta4  1  0.738638  0.869319  0.750511  1
  Ta  Ta5  1  0.869319  0.130681  0.250511  1
  Te  Te6  1  0.000000  0.000000  0.890848  1
  Te  Te7  1  0.000000  0.000000  0.390848  1
  I  I8  1  0.498497  0.996995  0.351135  1
  I  I9  1  0.501503  0.003005  0.851135  1
  I  I10  1  0.996995  0.498497  0.851135  1
  I  I11  1  0.498497  0.501503  0.351135  1
  I  I12  1  0.003005  0.501503  0.351135  1
  I  I13  1  0.501503  0.498497  0.851135  1
  I  I14  1  0.333333  0.666667  0.654099  1
  I  I15  1  0.666667  0.333333  0.154099  1
  I  I16  1  0.832777  0.167223  0.626271  1
  I  I17  1  0.665554  0.832777  0.126272  1
  I  I18  1  0.167223  0.334446  0.126272  1
  I  I19  1  0.832777  0.665554  0.626271  1
  I  I20  1  0.334446  0.167223  0.626271  1
  I  I21  1  0.167223  0.832777  0.126272  1
