# generated using pymatgen
data_SrCaB5H2ClO10
_symmetry_space_group_name_H-M   'P 1'
_cell_length_a   6.42453403
_cell_length_b   6.58036042
_cell_length_c   6.72956425
_cell_angle_alpha   74.47613888
_cell_angle_beta   61.56877004
_cell_angle_gamma   60.88488411
_symmetry_Int_Tables_number   1
_chemical_formula_structural   SrCaB5H2ClO10
_chemical_formula_sum   'Sr1 Ca1 B5 H2 Cl1 O10'
_cell_volume   218.33177159
_cell_formula_units_Z   1
loop_
 _symmetry_equiv_pos_site_id
 _symmetry_equiv_pos_as_xyz
  1  'x, y, z'
loop_
 _atom_site_type_symbol
 _atom_site_label
 _atom_site_symmetry_multiplicity
 _atom_site_fract_x
 _atom_site_fract_y
 _atom_site_fract_z
 _atom_site_occupancy
  Sr  Sr0  1  0.675526  0.376564  0.292742  1
  Ca  Ca1  1  0.564605  0.831712  0.744706  1
  B  B2  1  0.267375  0.389847  0.168104  1
  B  B3  1  0.029225  0.354882  0.619671  1
  B  B4  1  0.167331  0.502493  0.831931  1
  B  B5  1  0.628885  0.276594  0.779040  1
  B  B6  1  0.050443  0.947518  0.738972  1
  H  H7  1  0.697800  0.898883  0.247075  1
  H  H8  1  0.956734  0.833554  0.272340  1
  Cl  Cl9  1  0.342804  0.864511  0.203747  1
  O  O10  1  0.526490  0.335820  0.016720  1
  O  O11  1  0.766022  0.926705  0.335844  1
  O  O12  1  0.220303  0.386800  0.389693  1
  O  O13  1  0.150859  0.105419  0.698084  1
  O  O14  1  0.778542  0.410483  0.616813  1
  O  O15  1  0.970204  0.515946  0.774622  1
  O  O16  1  0.208863  0.721490  0.773214  1
  O  O17  1  0.077728  0.462752  0.089235  1
  O  O18  1  0.422929  0.313548  0.720791  1
  O  O19  1  0.802312  0.020148  0.756755  1
