# generated using pymatgen
data_Sr2PbO4
_symmetry_space_group_name_H-M   'P 1'
_cell_length_a   3.55807575
_cell_length_b   6.23841909
_cell_length_c   10.23816996
_cell_angle_alpha   90.00000000
_cell_angle_beta   90.00000000
_cell_angle_gamma   90.00000000
_symmetry_Int_Tables_number   1
_chemical_formula_structural   Sr2PbO4
_chemical_formula_sum   'Sr4 Pb2 O8'
_cell_volume   227.25428010
_cell_formula_units_Z   2
loop_
 _symmetry_equiv_pos_site_id
 _symmetry_equiv_pos_as_xyz
  1  'x, y, z'
loop_
 _atom_site_type_symbol
 _atom_site_label
 _atom_site_symmetry_multiplicity
 _atom_site_fract_x
 _atom_site_fract_y
 _atom_site_fract_z
 _atom_site_occupancy
  Sr  Sr0  1  0.500000  0.426667  0.818712  1
  Sr  Sr1  1  0.500000  0.573333  0.181288  1
  Sr  Sr2  1  0.500000  0.926667  0.681288  1
  Sr  Sr3  1  0.500000  0.073333  0.318712  1
  Pb  Pb4  1  0.000000  0.500000  0.500000  1
  Pb  Pb5  1  0.000000  0.000000  0.000000  1
  O  O6  1  0.000000  0.135472  0.806306  1
  O  O7  1  0.000000  0.864528  0.193694  1
  O  O8  1  0.000000  0.635472  0.693694  1
  O  O9  1  0.000000  0.364528  0.306306  1
  O  O10  1  0.500000  0.274497  0.551355  1
  O  O11  1  0.500000  0.725503  0.448645  1
  O  O12  1  0.500000  0.225503  0.051355  1
  O  O13  1  0.500000  0.774497  0.948645  1
