# generated using pymatgen
data_Zn3P2
_symmetry_space_group_name_H-M   'P 1'
_cell_length_a   8.12069138
_cell_length_b   8.12069138
_cell_length_c   11.46658978
_cell_angle_alpha   90.00000000
_cell_angle_beta   90.00000000
_cell_angle_gamma   90.00000000
_symmetry_Int_Tables_number   1
_chemical_formula_structural   Zn3P2
_chemical_formula_sum   'Zn24 P16'
_cell_volume   756.17146967
_cell_formula_units_Z   8
loop_
 _symmetry_equiv_pos_site_id
 _symmetry_equiv_pos_as_xyz
  1  'x, y, z'
loop_
 _atom_site_type_symbol
 _atom_site_label
 _atom_site_symmetry_multiplicity
 _atom_site_fract_x
 _atom_site_fract_y
 _atom_site_fract_z
 _atom_site_occupancy
  Zn  Zn0  1  0.500000  0.717082  0.606249  1
  Zn  Zn1  1  0.782918  0.000000  0.106249  1
  Zn  Zn2  1  0.217082  0.000000  0.106249  1
  Zn  Zn3  1  0.000000  0.782918  0.893751  1
  Zn  Zn4  1  0.000000  0.217082  0.893751  1
  Zn  Zn5  1  0.500000  0.282918  0.606249  1
  Zn  Zn6  1  0.717082  0.500000  0.393751  1
  Zn  Zn7  1  0.282918  0.500000  0.393751  1
  Zn  Zn8  1  0.500000  0.783043  0.885170  1
  Zn  Zn9  1  0.716957  0.000000  0.385170  1
  Zn  Zn10  1  0.283043  0.000000  0.385170  1
  Zn  Zn11  1  0.000000  0.716957  0.614830  1
  Zn  Zn12  1  0.000000  0.283043  0.614830  1
  Zn  Zn13  1  0.500000  0.216957  0.885170  1
  Zn  Zn14  1  0.783043  0.500000  0.114830  1
  Zn  Zn15  1  0.216957  0.500000  0.114830  1
  Zn  Zn16  1  0.500000  0.746795  0.148155  1
  Zn  Zn17  1  0.753205  0.000000  0.648155  1
  Zn  Zn18  1  0.246795  0.000000  0.648155  1
  Zn  Zn19  1  0.000000  0.753205  0.351845  1
  Zn  Zn20  1  0.000000  0.246795  0.351845  1
  Zn  Zn21  1  0.500000  0.253205  0.148155  1
  Zn  Zn22  1  0.746795  0.500000  0.851845  1
  Zn  Zn23  1  0.253205  0.500000  0.851845  1
  P  P24  1  0.500000  0.500000  0.746106  1
  P  P25  1  0.000000  0.000000  0.246106  1
  P  P26  1  0.000000  0.000000  0.753894  1
  P  P27  1  0.500000  0.500000  0.253894  1
  P  P28  1  0.500000  0.000000  0.745801  1
  P  P29  1  0.500000  0.000000  0.245801  1
  P  P30  1  0.000000  0.500000  0.754199  1
  P  P31  1  0.000000  0.500000  0.254199  1
  P  P32  1  0.754391  0.754391  0.500000  1
  P  P33  1  0.745609  0.254391  0.000000  1
  P  P34  1  0.254391  0.745609  0.000000  1
  P  P35  1  0.245609  0.245609  0.500000  1
  P  P36  1  0.745609  0.745609  0.000000  1
  P  P37  1  0.754391  0.245609  0.500000  1
  P  P38  1  0.245609  0.754391  0.500000  1
  P  P39  1  0.254391  0.254391  0.000000  1
