# generated using pymatgen
data_Ag2Hg7(As2I3)2
_symmetry_space_group_name_H-M   'P 1'
_cell_length_a   13.58181603
_cell_length_b   13.58181603
_cell_length_c   13.58181603
_cell_angle_alpha   90.00000000
_cell_angle_beta   90.00000000
_cell_angle_gamma   90.00000000
_symmetry_Int_Tables_number   1
_chemical_formula_structural   Ag2Hg7(As2I3)2
_chemical_formula_sum   'Ag8 Hg28 As16 I24'
_cell_volume   2505.37956351
_cell_formula_units_Z   4
loop_
 _symmetry_equiv_pos_site_id
 _symmetry_equiv_pos_as_xyz
  1  'x, y, z'
loop_
 _atom_site_type_symbol
 _atom_site_label
 _atom_site_symmetry_multiplicity
 _atom_site_fract_x
 _atom_site_fract_y
 _atom_site_fract_z
 _atom_site_occupancy
  Ag  Ag0  1  0.220630  0.220630  0.220630  1
  Ag  Ag1  1  0.279370  0.779370  0.720630  1
  Ag  Ag2  1  0.720630  0.279370  0.779370  1
  Ag  Ag3  1  0.779370  0.720630  0.279370  1
  Ag  Ag4  1  0.779370  0.779370  0.779370  1
  Ag  Ag5  1  0.720630  0.220630  0.279370  1
  Ag  Ag6  1  0.279370  0.720630  0.220630  1
  Ag  Ag7  1  0.220630  0.279370  0.720630  1
  Hg  Hg8  1  0.210542  0.419016  0.447392  1
  Hg  Hg9  1  0.447392  0.210542  0.419016  1
  Hg  Hg10  1  0.419016  0.447392  0.210542  1
  Hg  Hg11  1  0.080984  0.552608  0.710542  1
  Hg  Hg12  1  0.947392  0.289458  0.580984  1
  Hg  Hg13  1  0.580984  0.947392  0.289458  1
  Hg  Hg14  1  0.052608  0.789458  0.919016  1
  Hg  Hg15  1  0.552608  0.710542  0.080984  1
  Hg  Hg16  1  0.919016  0.052608  0.789458  1
  Hg  Hg17  1  0.710542  0.080984  0.552608  1
  Hg  Hg18  1  0.789458  0.919016  0.052608  1
  Hg  Hg19  1  0.289458  0.580984  0.947392  1
  Hg  Hg20  1  0.789458  0.580984  0.552608  1
  Hg  Hg21  1  0.552608  0.789458  0.580984  1
  Hg  Hg22  1  0.580984  0.552608  0.789458  1
  Hg  Hg23  1  0.919016  0.447392  0.289458  1
  Hg  Hg24  1  0.052608  0.710542  0.419016  1
  Hg  Hg25  1  0.419016  0.052608  0.710542  1
  Hg  Hg26  1  0.947392  0.210542  0.080984  1
  Hg  Hg27  1  0.447392  0.289458  0.919016  1
  Hg  Hg28  1  0.080984  0.947392  0.210542  1
  Hg  Hg29  1  0.289458  0.919016  0.447392  1
  Hg  Hg30  1  0.210542  0.080984  0.947392  1
  Hg  Hg31  1  0.710542  0.419016  0.052608  1
  Hg  Hg32  1  0.500000  0.500000  0.500000  1
  Hg  Hg33  1  0.000000  0.500000  0.000000  1
  Hg  Hg34  1  0.000000  0.000000  0.500000  1
  Hg  Hg35  1  0.500000  0.000000  0.000000  1
  As  As36  1  0.052350  0.052350  0.052350  1
  As  As37  1  0.447650  0.947650  0.552350  1
  As  As38  1  0.552350  0.447650  0.947650  1
  As  As39  1  0.947650  0.552350  0.447650  1
  As  As40  1  0.947650  0.947650  0.947650  1
  As  As41  1  0.552350  0.052350  0.447650  1
  As  As42  1  0.447650  0.552350  0.052350  1
  As  As43  1  0.052350  0.447650  0.552350  1
  As  As44  1  0.390372  0.390372  0.390372  1
  As  As45  1  0.109628  0.609628  0.890372  1
  As  As46  1  0.890372  0.109628  0.609628  1
  As  As47  1  0.609628  0.890372  0.109628  1
  As  As48  1  0.609628  0.609628  0.609628  1
  As  As49  1  0.890372  0.390372  0.109628  1
  As  As50  1  0.109628  0.890372  0.390372  1
  As  As51  1  0.390372  0.109628  0.890372  1
  I  I52  1  0.164009  0.557425  0.253827  1
  I  I53  1  0.253827  0.164009  0.557425  1
  I  I54  1  0.557425  0.253827  0.164009  1
  I  I55  1  0.942575  0.746173  0.664009  1
  I  I56  1  0.753827  0.335991  0.442575  1
  I  I57  1  0.442575  0.753827  0.335991  1
  I  I58  1  0.246173  0.835991  0.057425  1
  I  I59  1  0.746173  0.664009  0.942575  1
  I  I60  1  0.057425  0.246173  0.835991  1
  I  I61  1  0.664009  0.942575  0.746173  1
  I  I62  1  0.835991  0.057425  0.246173  1
  I  I63  1  0.335991  0.442575  0.753827  1
  I  I64  1  0.835991  0.442575  0.746173  1
  I  I65  1  0.746173  0.835991  0.442575  1
  I  I66  1  0.442575  0.746173  0.835991  1
  I  I67  1  0.057425  0.253827  0.335991  1
  I  I68  1  0.246173  0.664009  0.557425  1
  I  I69  1  0.557425  0.246173  0.664009  1
  I  I70  1  0.753827  0.164009  0.942575  1
  I  I71  1  0.253827  0.335991  0.057425  1
  I  I72  1  0.942575  0.753827  0.164009  1
  I  I73  1  0.335991  0.057425  0.253827  1
  I  I74  1  0.164009  0.942575  0.753827  1
  I  I75  1  0.664009  0.557425  0.246173  1
