# generated using pymatgen
data_Co3B7IO13
_symmetry_space_group_name_H-M   'P 1'
_cell_length_a   8.66489043
_cell_length_b   8.66489043
_cell_length_c   8.66489043
_cell_angle_alpha   60.00000000
_cell_angle_beta   60.00000000
_cell_angle_gamma   60.00000000
_symmetry_Int_Tables_number   1
_chemical_formula_structural   Co3B7IO13
_chemical_formula_sum   'Co6 B14 I2 O26'
_cell_volume   460.01736762
_cell_formula_units_Z   2
loop_
 _symmetry_equiv_pos_site_id
 _symmetry_equiv_pos_as_xyz
  1  'x, y, z'
loop_
 _atom_site_type_symbol
 _atom_site_label
 _atom_site_symmetry_multiplicity
 _atom_site_fract_x
 _atom_site_fract_y
 _atom_site_fract_z
 _atom_site_occupancy
  Co  Co0  1  0.500000  0.500000  1.000000  1
  Co  Co1  1  0.000000  0.500000  0.500000  1
  Co  Co2  1  0.500000  0.000000  1.000000  1
  Co  Co3  1  0.000000  0.500000  1.000000  1
  Co  Co4  1  0.500000  0.000000  0.500000  1
  Co  Co5  1  0.000000  0.000000  0.500000  1
  B  B6  1  0.240872  0.919709  0.919709  1
  B  B7  1  0.919709  0.240872  0.919709  1
  B  B8  1  0.419709  0.419709  0.419709  1
  B  B9  1  0.740872  0.419709  0.419709  1
  B  B10  1  0.419709  0.419709  0.740872  1
  B  B11  1  0.919709  0.919709  0.240872  1
  B  B12  1  0.919709  0.919709  0.919709  1
  B  B13  1  0.419709  0.740872  0.419709  1
  B  B14  1  0.750000  0.250000  0.250000  1
  B  B15  1  0.750000  0.750000  0.250000  1
  B  B16  1  0.250000  0.750000  0.750000  1
  B  B17  1  0.750000  0.250000  0.750000  1
  B  B18  1  0.250000  0.750000  0.250000  1
  B  B19  1  0.250000  0.250000  0.750000  1
  I  I20  1  0.750000  0.750000  0.750000  1
  I  I21  1  0.250000  0.250000  0.250000  1
  O  O22  1  0.395646  0.563469  0.797249  1
  O  O23  1  0.563469  0.395646  0.243636  1
  O  O24  1  0.743636  0.063469  0.297249  1
  O  O25  1  0.297249  0.743636  0.063469  1
  O  O26  1  0.743636  0.895646  0.063469  1
  O  O27  1  0.500000  0.500000  0.500000  1
  O  O28  1  0.063469  0.297249  0.743636  1
  O  O29  1  0.743636  0.297249  0.895646  1
  O  O30  1  0.895646  0.297249  0.063469  1
  O  O31  1  0.000000  0.000000  1.000000  1
  O  O32  1  0.243636  0.797249  0.563469  1
  O  O33  1  0.895646  0.063469  0.743636  1
  O  O34  1  0.063469  0.895646  0.297249  1
  O  O35  1  0.297249  0.895646  0.743636  1
  O  O36  1  0.063469  0.743636  0.895646  1
  O  O37  1  0.297249  0.063469  0.895646  1
  O  O38  1  0.895646  0.743636  0.297249  1
  O  O39  1  0.563469  0.797249  0.395646  1
  O  O40  1  0.395646  0.797249  0.243636  1
  O  O41  1  0.563469  0.243636  0.797249  1
  O  O42  1  0.797249  0.563469  0.243636  1
  O  O43  1  0.243636  0.395646  0.797249  1
  O  O44  1  0.243636  0.563469  0.395646  1
  O  O45  1  0.395646  0.243636  0.563469  1
  O  O46  1  0.797249  0.395646  0.563469  1
  O  O47  1  0.797249  0.243636  0.395646  1
