# generated using pymatgen
data_Sb2S2O
_symmetry_space_group_name_H-M   'P 1'
_cell_length_a   6.06055098
_cell_length_b   8.23775983
_cell_length_c   11.07382980
_cell_angle_alpha   100.75981558
_cell_angle_beta   104.23120570
_cell_angle_gamma   109.85931705
_symmetry_Int_Tables_number   1
_chemical_formula_structural   Sb2S2O
_chemical_formula_sum   'Sb8 S8 O4'
_cell_volume   481.38137869
_cell_formula_units_Z   4
loop_
 _symmetry_equiv_pos_site_id
 _symmetry_equiv_pos_as_xyz
  1  'x, y, z'
loop_
 _atom_site_type_symbol
 _atom_site_label
 _atom_site_symmetry_multiplicity
 _atom_site_fract_x
 _atom_site_fract_y
 _atom_site_fract_z
 _atom_site_occupancy
  Sb  Sb0  1  0.341254  0.353946  0.089705  1
  Sb  Sb1  1  0.658746  0.646054  0.910295  1
  Sb  Sb2  1  0.375412  0.873570  0.137029  1
  Sb  Sb3  1  0.624588  0.126430  0.862971  1
  Sb  Sb4  1  0.981007  0.338526  0.371527  1
  Sb  Sb5  1  0.018993  0.661474  0.628473  1
  Sb  Sb6  1  0.955857  0.830799  0.368679  1
  Sb  Sb7  1  0.044143  0.169201  0.631321  1
  S  S8  1  0.769021  0.477644  0.085705  1
  S  S9  1  0.230979  0.522356  0.914295  1
  S  S10  1  0.768203  0.949388  0.087276  1
  S  S11  1  0.231797  0.050612  0.912724  1
  S  S12  1  0.489105  0.809552  0.708958  1
  S  S13  1  0.510895  0.190448  0.291042  1
  S  S14  1  0.510832  0.290354  0.699503  1
  S  S15  1  0.489168  0.709646  0.300497  1
  O  O16  1  0.928384  0.587021  0.429719  1
  O  O17  1  0.071616  0.412979  0.570281  1
  O  O18  1  0.972011  0.103052  0.433491  1
  O  O19  1  0.027989  0.896948  0.566509  1
