# generated using pymatgen
data_Cl2O
_symmetry_space_group_name_H-M   'P 1'
_cell_length_a   7.44005085
_cell_length_b   7.44005085
_cell_length_c   7.44005085
_cell_angle_alpha   115.58442415
_cell_angle_beta   115.58442415
_cell_angle_gamma   97.83489011
_symmetry_Int_Tables_number   1
_chemical_formula_structural   Cl2O
_chemical_formula_sum   'Cl8 O4'
_cell_volume   307.53152836
_cell_formula_units_Z   4
loop_
 _symmetry_equiv_pos_site_id
 _symmetry_equiv_pos_as_xyz
  1  'x, y, z'
loop_
 _atom_site_type_symbol
 _atom_site_label
 _atom_site_symmetry_multiplicity
 _atom_site_fract_x
 _atom_site_fract_y
 _atom_site_fract_z
 _atom_site_occupancy
  Cl  Cl0  1  0.067052  0.385764  0.318711  1
  Cl  Cl1  1  0.135764  0.317052  0.818711  1
  Cl  Cl2  1  0.498341  0.317052  0.181289  1
  Cl  Cl3  1  0.682948  0.501659  0.818711  1
  Cl  Cl4  1  0.682948  0.864236  0.181289  1
  Cl  Cl5  1  0.067052  0.748341  0.681289  1
  Cl  Cl6  1  0.251659  0.932948  0.318711  1
  Cl  Cl7  1  0.614236  0.932948  0.681289  1
  O  O8  1  0.969455  0.469455  0.500000  1
  O  O9  1  0.219455  0.219455  0.000000  1
  O  O10  1  0.780545  0.780545  0.000000  1
  O  O11  1  0.530545  0.030545  0.500000  1
