# generated using pymatgen
data_Li5BiO5
_symmetry_space_group_name_H-M   'P 1'
_cell_length_a   5.43769688
_cell_length_b   5.43769688
_cell_length_c   6.05401960
_cell_angle_alpha   71.91324387
_cell_angle_beta   108.08675613
_cell_angle_gamma   133.71929567
_symmetry_Int_Tables_number   1
_chemical_formula_structural   Li5BiO5
_chemical_formula_sum   'Li5 Bi1 O5'
_cell_volume   121.77904142
_cell_formula_units_Z   1
loop_
 _symmetry_equiv_pos_site_id
 _symmetry_equiv_pos_as_xyz
  1  'x, y, z'
loop_
 _atom_site_type_symbol
 _atom_site_label
 _atom_site_symmetry_multiplicity
 _atom_site_fract_x
 _atom_site_fract_y
 _atom_site_fract_z
 _atom_site_occupancy
  Li  Li0  1  0.701754  0.298246  0.352093  1
  Li  Li1  1  0.989280  0.010720  0.517466  1
  Li  Li2  1  0.307141  0.692859  0.154219  1
  Li  Li3  1  0.682770  0.317230  0.876641  1
  Li  Li4  1  0.281147  0.718853  0.671358  1
  Bi  Bi5  1  0.994658  0.005342  0.016286  1
  O  O6  1  0.845595  0.154405  0.194801  1
  O  O7  1  0.496806  0.503194  0.023868  1
  O  O8  1  0.161696  0.838304  0.340388  1
  O  O9  1  0.829019  0.170981  0.688701  1
  O  O10  1  0.142134  0.857866  0.834179  1
