# generated using pymatgen
data_Bi3NF6
_symmetry_space_group_name_H-M   'P 1'
_cell_length_a   5.80738429
_cell_length_b   5.82520556
_cell_length_c   18.82476717
_cell_angle_alpha   90.00000000
_cell_angle_beta   90.00000000
_cell_angle_gamma   90.00000000
_symmetry_Int_Tables_number   1
_chemical_formula_structural   Bi3NF6
_chemical_formula_sum   'Bi12 N4 F24'
_cell_volume   636.82695012
_cell_formula_units_Z   4
loop_
 _symmetry_equiv_pos_site_id
 _symmetry_equiv_pos_as_xyz
  1  'x, y, z'
loop_
 _atom_site_type_symbol
 _atom_site_label
 _atom_site_symmetry_multiplicity
 _atom_site_fract_x
 _atom_site_fract_y
 _atom_site_fract_z
 _atom_site_occupancy
  Bi  Bi0  1  0.487421  0.703311  0.431615  1
  Bi  Bi1  1  0.987421  0.296689  0.068385  1
  Bi  Bi2  1  0.012579  0.703311  0.568385  1
  Bi  Bi3  1  0.512579  0.296689  0.931615  1
  Bi  Bi4  1  0.512579  0.296689  0.568385  1
  Bi  Bi5  1  0.012579  0.703311  0.931615  1
  Bi  Bi6  1  0.987421  0.296689  0.431615  1
  Bi  Bi7  1  0.487421  0.703311  0.068385  1
  Bi  Bi8  1  0.974276  0.218525  0.750000  1
  Bi  Bi9  1  0.474276  0.781475  0.750000  1
  Bi  Bi10  1  0.525724  0.218525  0.250000  1
  Bi  Bi11  1  0.025724  0.781475  0.250000  1
  N  N12  1  0.750000  0.516620  0.500000  1
  N  N13  1  0.250000  0.483380  0.000000  1
  N  N14  1  0.250000  0.483380  0.500000  1
  N  N15  1  0.750000  0.516620  0.000000  1
  F  F16  1  0.750000  0.011637  0.500000  1
  F  F17  1  0.250000  0.988363  0.000000  1
  F  F18  1  0.250000  0.988363  0.500000  1
  F  F19  1  0.750000  0.011637  0.000000  1
  F  F20  1  0.130661  0.592973  0.750000  1
  F  F21  1  0.630661  0.407027  0.750000  1
  F  F22  1  0.369339  0.592973  0.250000  1
  F  F23  1  0.869339  0.407027  0.250000  1
  F  F24  1  0.263885  0.037611  0.678486  1
  F  F25  1  0.763885  0.962389  0.821514  1
  F  F26  1  0.236115  0.037611  0.321514  1
  F  F27  1  0.736115  0.962389  0.178486  1
  F  F28  1  0.736115  0.962389  0.321514  1
  F  F29  1  0.236115  0.037611  0.178486  1
  F  F30  1  0.763885  0.962389  0.678486  1
  F  F31  1  0.263885  0.037611  0.821514  1
  F  F32  1  0.443612  0.624706  0.871154  1
  F  F33  1  0.943612  0.375294  0.628846  1
  F  F34  1  0.056388  0.624706  0.128846  1
  F  F35  1  0.556388  0.375294  0.371154  1
  F  F36  1  0.556388  0.375294  0.128846  1
  F  F37  1  0.056388  0.624706  0.371154  1
  F  F38  1  0.943612  0.375294  0.871154  1
  F  F39  1  0.443612  0.624706  0.628846  1
