# generated using pymatgen
data_BiI
_symmetry_space_group_name_H-M   'P 1'
_cell_length_a   8.27490817
_cell_length_b   8.27490817
_cell_length_c   21.61785084
_cell_angle_alpha   83.66169854
_cell_angle_beta   96.33830146
_cell_angle_gamma   149.10520816
_symmetry_Int_Tables_number   1
_chemical_formula_structural   BiI
_chemical_formula_sum   'Bi8 I8'
_cell_volume   755.05873937
_cell_formula_units_Z   8
loop_
 _symmetry_equiv_pos_site_id
 _symmetry_equiv_pos_as_xyz
  1  'x, y, z'
loop_
 _atom_site_type_symbol
 _atom_site_label
 _atom_site_symmetry_multiplicity
 _atom_site_fract_x
 _atom_site_fract_y
 _atom_site_fract_z
 _atom_site_occupancy
  Bi  Bi0  1  0.253524  0.746476  0.612072  1
  Bi  Bi1  1  0.746476  0.253524  0.387928  1
  Bi  Bi2  1  0.003783  0.996217  0.112670  1
  Bi  Bi3  1  0.996217  0.003783  0.887330  1
  Bi  Bi4  1  0.693534  0.306466  0.245616  1
  Bi  Bi5  1  0.306466  0.693534  0.754384  1
  Bi  Bi6  1  0.062344  0.937656  0.254000  1
  Bi  Bi7  1  0.937656  0.062344  0.746000  1
  I  I8  1  0.376890  0.623110  0.361762  1
  I  I9  1  0.623110  0.376890  0.638238  1
  I  I10  1  0.123880  0.876120  0.430099  1
  I  I11  1  0.876120  0.123880  0.569901  1
  I  I12  1  0.376108  0.623892  0.145365  1
  I  I13  1  0.623892  0.376108  0.854635  1
  I  I14  1  0.624794  0.375206  0.069479  1
  I  I15  1  0.375206  0.624794  0.930521  1
