# generated using pymatgen
data_Nb2GeTe4
_symmetry_space_group_name_H-M   'P 1'
_cell_length_a   6.54705045
_cell_length_b   8.00733699
_cell_length_c   16.37409578
_cell_angle_alpha   90.00000000
_cell_angle_beta   105.81949821
_cell_angle_gamma   90.00000000
_symmetry_Int_Tables_number   1
_chemical_formula_structural   Nb2GeTe4
_chemical_formula_sum   'Nb8 Ge4 Te16'
_cell_volume   825.89102266
_cell_formula_units_Z   4
loop_
 _symmetry_equiv_pos_site_id
 _symmetry_equiv_pos_as_xyz
  1  'x, y, z'
loop_
 _atom_site_type_symbol
 _atom_site_label
 _atom_site_symmetry_multiplicity
 _atom_site_fract_x
 _atom_site_fract_y
 _atom_site_fract_z
 _atom_site_occupancy
  Nb  Nb0  1  0.642574  0.034373  0.249959  1
  Nb  Nb1  1  0.357426  0.534373  0.250041  1
  Nb  Nb2  1  0.357426  0.965627  0.750041  1
  Nb  Nb3  1  0.642574  0.465627  0.749959  1
  Nb  Nb4  1  0.857312  0.785479  0.750037  1
  Nb  Nb5  1  0.142688  0.285479  0.749963  1
  Nb  Nb6  1  0.142688  0.214521  0.249963  1
  Nb  Nb7  1  0.857312  0.714521  0.250037  1
  Ge  Ge8  1  0.249839  0.625597  0.749852  1
  Ge  Ge9  1  0.750161  0.125597  0.750148  1
  Ge  Ge10  1  0.750161  0.374403  0.250148  1
  Ge  Ge11  1  0.249839  0.874403  0.249852  1
  Te  Te12  1  0.878236  0.989799  0.129415  1
  Te  Te13  1  0.121764  0.489799  0.370585  1
  Te  Te14  1  0.121764  0.010201  0.870585  1
  Te  Te15  1  0.878236  0.510201  0.629415  1
  Te  Te16  1  0.621436  0.759297  0.370555  1
  Te  Te17  1  0.378564  0.259297  0.129445  1
  Te  Te18  1  0.378564  0.240703  0.629445  1
  Te  Te19  1  0.621436  0.740703  0.870555  1
  Te  Te20  1  0.957311  0.489754  0.129545  1
  Te  Te21  1  0.042689  0.989754  0.370455  1
  Te  Te22  1  0.042689  0.510246  0.870455  1
  Te  Te23  1  0.957311  0.010246  0.629545  1
  Te  Te24  1  0.542492  0.258836  0.370575  1
  Te  Te25  1  0.457508  0.758836  0.129425  1
  Te  Te26  1  0.457508  0.741164  0.629425  1
  Te  Te27  1  0.542492  0.241164  0.870575  1
