# generated using pymatgen
data_K2H12Ru(SO7)2
_symmetry_space_group_name_H-M   'P 1'
_cell_length_a   6.22444842
_cell_length_b   12.45810679
_cell_length_c   8.98158791
_cell_angle_alpha   90.00000000
_cell_angle_beta   104.92440930
_cell_angle_gamma   90.00000000
_symmetry_Int_Tables_number   1
_chemical_formula_structural   K2H12Ru(SO7)2
_chemical_formula_sum   'K4 H24 Ru2 S4 O28'
_cell_volume   672.98122170
_cell_formula_units_Z   2
loop_
 _symmetry_equiv_pos_site_id
 _symmetry_equiv_pos_as_xyz
  1  'x, y, z'
loop_
 _atom_site_type_symbol
 _atom_site_label
 _atom_site_symmetry_multiplicity
 _atom_site_fract_x
 _atom_site_fract_y
 _atom_site_fract_z
 _atom_site_occupancy
  K  K0  1  0.353384  0.152730  0.641697  1
  K  K1  1  0.646616  0.652730  0.858303  1
  K  K2  1  0.646616  0.847270  0.358303  1
  K  K3  1  0.353384  0.347270  0.141697  1
  H  H4  1  0.347167  0.559689  0.402666  1
  H  H5  1  0.652833  0.059689  0.097334  1
  H  H6  1  0.003525  0.309106  0.362661  1
  H  H7  1  0.996475  0.809106  0.137339  1
  H  H8  1  0.996475  0.690894  0.637339  1
  H  H9  1  0.003525  0.190894  0.862661  1
  H  H10  1  0.909129  0.623750  0.246057  1
  H  H11  1  0.090871  0.123750  0.253943  1
  H  H12  1  0.090871  0.376250  0.753943  1
  H  H13  1  0.909129  0.876250  0.746057  1
  H  H14  1  0.677322  0.588621  0.279062  1
  H  H15  1  0.322678  0.088621  0.220938  1
  H  H16  1  0.322678  0.411379  0.720938  1
  H  H17  1  0.677322  0.911379  0.779062  1
  H  H18  1  0.652833  0.440311  0.597334  1
  H  H19  1  0.347167  0.940311  0.902666  1
  H  H20  1  0.329328  0.646689  0.527134  1
  H  H21  1  0.670672  0.146689  0.972866  1
  H  H22  1  0.067461  0.896814  0.269677  1
  H  H23  1  0.932539  0.396814  0.230323  1
  H  H24  1  0.329328  0.853311  0.027134  1
  H  H25  1  0.670672  0.353311  0.472866  1
  H  H26  1  0.067461  0.603186  0.769677  1
  H  H27  1  0.932539  0.103186  0.730323  1
  Ru  Ru28  1  0.000000  0.500000  0.500000  1
  Ru  Ru29  1  0.000000  0.000000  0.000000  1
  S  S30  1  0.730911  0.364050  0.913337  1
  S  S31  1  0.269089  0.635950  0.086663  1
  S  S32  1  0.730911  0.135950  0.413337  1
  S  S33  1  0.269089  0.864050  0.586663  1
  O  O34  1  0.617445  0.063788  0.283498  1
  O  O35  1  0.617445  0.436212  0.783498  1
  O  O36  1  0.415794  0.731058  0.086141  1
  O  O37  1  0.584206  0.231058  0.413859  1
  O  O38  1  0.584206  0.268942  0.913859  1
  O  O39  1  0.415794  0.768942  0.586141  1
  O  O40  1  0.237011  0.575867  0.939456  1
  O  O41  1  0.382555  0.563788  0.216502  1
  O  O42  1  0.762989  0.424133  0.060544  1
  O  O43  1  0.237011  0.924133  0.439456  1
  O  O44  1  0.048958  0.827389  0.607888  1
  O  O45  1  0.951042  0.327389  0.892112  1
  O  O46  1  0.951042  0.172611  0.392112  1
  O  O47  1  0.048958  0.672611  0.107888  1
  O  O48  1  0.314352  0.568175  0.504472  1
  O  O49  1  0.685648  0.068175  0.995528  1
  O  O50  1  0.685648  0.431825  0.495528  1
  O  O51  1  0.314352  0.931825  0.004472  1
  O  O52  1  0.040656  0.382363  0.332374  1
  O  O53  1  0.959344  0.882363  0.167626  1
  O  O54  1  0.959344  0.617637  0.667626  1
  O  O55  1  0.040656  0.117637  0.832374  1
  O  O56  1  0.762989  0.075867  0.560544  1
  O  O57  1  0.168830  0.113380  0.171370  1
  O  O58  1  0.168830  0.386620  0.671370  1
  O  O59  1  0.831170  0.886620  0.828630  1
  O  O60  1  0.382555  0.936212  0.716502  1
  O  O61  1  0.831170  0.613380  0.328630  1
