# generated using pymatgen
data_ZrFeCl6
_symmetry_space_group_name_H-M   'P 1'
_cell_length_a   6.36425229
_cell_length_b   6.36425229
_cell_length_c   13.33921597
_cell_angle_alpha   90.00000000
_cell_angle_beta   90.00000000
_cell_angle_gamma   120.00000000
_symmetry_Int_Tables_number   1
_chemical_formula_structural   ZrFeCl6
_chemical_formula_sum   'Zr2 Fe2 Cl12'
_cell_volume   467.90287175
_cell_formula_units_Z   2
loop_
 _symmetry_equiv_pos_site_id
 _symmetry_equiv_pos_as_xyz
  1  'x, y, z'
loop_
 _atom_site_type_symbol
 _atom_site_label
 _atom_site_symmetry_multiplicity
 _atom_site_fract_x
 _atom_site_fract_y
 _atom_site_fract_z
 _atom_site_occupancy
  Zr  Zr0  1  0.333333  0.666667  0.250000  1
  Zr  Zr1  1  0.666667  0.333333  0.750000  1
  Fe  Fe2  1  0.000000  0.000000  0.250000  1
  Fe  Fe3  1  0.000000  0.000000  0.750000  1
  Cl  Cl4  1  0.668722  0.975228  0.143318  1
  Cl  Cl5  1  0.024772  0.693494  0.143318  1
  Cl  Cl6  1  0.306506  0.331278  0.143318  1
  Cl  Cl7  1  0.024772  0.331278  0.356682  1
  Cl  Cl8  1  0.331278  0.306506  0.643318  1
  Cl  Cl9  1  0.693494  0.024772  0.643318  1
  Cl  Cl10  1  0.975228  0.668722  0.643318  1
  Cl  Cl11  1  0.693494  0.668722  0.856682  1
  Cl  Cl12  1  0.975228  0.306506  0.856682  1
  Cl  Cl13  1  0.331278  0.024772  0.856682  1
  Cl  Cl14  1  0.668722  0.693494  0.356682  1
  Cl  Cl15  1  0.306506  0.975228  0.356682  1
