# generated using pymatgen
data_SO2
_symmetry_space_group_name_H-M   'P 1'
_cell_length_a   4.77129335
_cell_length_b   4.77129335
_cell_length_c   6.69126626
_cell_angle_alpha   90.00000000
_cell_angle_beta   90.00000000
_cell_angle_gamma   94.14845796
_symmetry_Int_Tables_number   1
_chemical_formula_structural   SO2
_chemical_formula_sum   'S2 O4'
_cell_volume   151.92917729
_cell_formula_units_Z   2
loop_
 _symmetry_equiv_pos_site_id
 _symmetry_equiv_pos_as_xyz
  1  'x, y, z'
loop_
 _atom_site_type_symbol
 _atom_site_label
 _atom_site_symmetry_multiplicity
 _atom_site_fract_x
 _atom_site_fract_y
 _atom_site_fract_z
 _atom_site_occupancy
  S  S0  1  0.359902  0.640098  0.500000  1
  S  S1  1  0.859902  0.140098  0.000000  1
  O  O2  1  0.606453  0.671545  0.373521  1
  O  O3  1  0.328455  0.393547  0.626479  1
  O  O4  1  0.106453  0.171545  0.126479  1
  O  O5  1  0.828455  0.893547  0.873521  1
