# generated using pymatgen
data_GaCuI4
_symmetry_space_group_name_H-M   'P 1'
_cell_length_a   7.34799479
_cell_length_b   7.34799479
_cell_length_c   7.34799479
_cell_angle_alpha   127.43262524
_cell_angle_beta   127.43262524
_cell_angle_gamma   77.54597262
_symmetry_Int_Tables_number   1
_chemical_formula_structural   GaCuI4
_chemical_formula_sum   'Ga1 Cu1 I4'
_cell_volume   242.60702799
_cell_formula_units_Z   1
loop_
 _symmetry_equiv_pos_site_id
 _symmetry_equiv_pos_as_xyz
  1  'x, y, z'
loop_
 _atom_site_type_symbol
 _atom_site_label
 _atom_site_symmetry_multiplicity
 _atom_site_fract_x
 _atom_site_fract_y
 _atom_site_fract_z
 _atom_site_occupancy
  Ga  Ga0  1  0.250000  0.750000  0.500000  1
  Cu  Cu1  1  0.500000  0.500000  0.000000  1
  I  I2  1  0.603392  0.121958  0.969938  1
  I  I3  1  0.878042  0.847980  0.481434  1
  I  I4  1  0.366546  0.396608  0.518566  1
  I  I5  1  0.152020  0.633454  0.030062  1
