# generated using pymatgen
data_Na2PbO2
_symmetry_space_group_name_H-M   'P 1'
_cell_length_a   6.05667073
_cell_length_b   7.02271914
_cell_length_c   17.17160853
_cell_angle_alpha   90.00000000
_cell_angle_beta   90.00000000
_cell_angle_gamma   90.00000000
_symmetry_Int_Tables_number   1
_chemical_formula_structural   Na2PbO2
_chemical_formula_sum   'Na16 Pb8 O16'
_cell_volume   730.38230509
_cell_formula_units_Z   8
loop_
 _symmetry_equiv_pos_site_id
 _symmetry_equiv_pos_as_xyz
  1  'x, y, z'
loop_
 _atom_site_type_symbol
 _atom_site_label
 _atom_site_symmetry_multiplicity
 _atom_site_fract_x
 _atom_site_fract_y
 _atom_site_fract_z
 _atom_site_occupancy
  Na  Na0  1  0.915897  0.624974  0.366434  1
  Na  Na1  1  0.415897  0.875026  0.133566  1
  Na  Na2  1  0.584103  0.624974  0.633566  1
  Na  Na3  1  0.084103  0.875026  0.866434  1
  Na  Na4  1  0.084103  0.375026  0.633566  1
  Na  Na5  1  0.584103  0.124974  0.866434  1
  Na  Na6  1  0.415897  0.375026  0.366434  1
  Na  Na7  1  0.915897  0.124974  0.133566  1
  Na  Na8  1  0.250000  0.122680  0.500000  1
  Na  Na9  1  0.750000  0.377320  0.000000  1
  Na  Na10  1  0.750000  0.357563  0.500000  1
  Na  Na11  1  0.250000  0.142437  0.000000  1
  Na  Na12  1  0.250000  0.642437  0.500000  1
  Na  Na13  1  0.750000  0.857563  0.000000  1
  Na  Na14  1  0.750000  0.877320  0.500000  1
  Na  Na15  1  0.250000  0.622680  0.000000  1
  Pb  Pb16  1  0.933286  0.133511  0.337857  1
  Pb  Pb17  1  0.433286  0.366489  0.162143  1
  Pb  Pb18  1  0.566714  0.133511  0.662143  1
  Pb  Pb19  1  0.066714  0.366489  0.837857  1
  Pb  Pb20  1  0.066714  0.866489  0.662143  1
  Pb  Pb21  1  0.566714  0.633511  0.837857  1
  Pb  Pb22  1  0.433286  0.866489  0.337857  1
  Pb  Pb23  1  0.933286  0.633511  0.162143  1
  O  O24  1  0.562979  0.149011  0.086475  1
  O  O25  1  0.062979  0.350989  0.413525  1
  O  O26  1  0.937021  0.149011  0.913525  1
  O  O27  1  0.437021  0.350989  0.586475  1
  O  O28  1  0.437021  0.850989  0.913525  1
  O  O29  1  0.937021  0.649011  0.586475  1
  O  O30  1  0.062979  0.850989  0.086475  1
  O  O31  1  0.562979  0.649011  0.413525  1
  O  O32  1  0.889281  0.103963  0.596916  1
  O  O33  1  0.389281  0.396037  0.903084  1
  O  O34  1  0.389281  0.896037  0.596916  1
  O  O35  1  0.889281  0.603963  0.903084  1
  O  O36  1  0.110719  0.896037  0.403084  1
  O  O37  1  0.610719  0.603963  0.096916  1
  O  O38  1  0.610719  0.103963  0.403084  1
  O  O39  1  0.110719  0.396037  0.096916  1
