# generated using pymatgen
data_PdBr2
_symmetry_space_group_name_H-M   'P 1'
_cell_length_a   7.39353967
_cell_length_b   7.39353967
_cell_length_c   6.64543259
_cell_angle_alpha   77.99047925
_cell_angle_beta   102.00952075
_cell_angle_gamma   142.15094500
_symmetry_Int_Tables_number   1
_chemical_formula_structural   PdBr2
_chemical_formula_sum   'Pd2 Br4'
_cell_volume   217.43650402
_cell_formula_units_Z   2
loop_
 _symmetry_equiv_pos_site_id
 _symmetry_equiv_pos_as_xyz
  1  'x, y, z'
loop_
 _atom_site_type_symbol
 _atom_site_label
 _atom_site_symmetry_multiplicity
 _atom_site_fract_x
 _atom_site_fract_y
 _atom_site_fract_z
 _atom_site_occupancy
  Pd  Pd0  1  0.500000  0.500000  0.500000  1
  Pd  Pd1  1  0.500000  0.500000  0.000000  1
  Br  Br2  1  0.772471  0.527178  0.806929  1
  Br  Br3  1  0.527178  0.772471  0.693071  1
  Br  Br4  1  0.227529  0.472822  0.193071  1
  Br  Br5  1  0.472822  0.227529  0.306929  1
