# generated using pymatgen
data_LiNb6Cl19
_symmetry_space_group_name_H-M   'P 1'
_cell_length_a   6.88172478
_cell_length_b   6.95400697
_cell_length_c   28.63649573
_cell_angle_alpha   90.00000000
_cell_angle_beta   90.00000000
_cell_angle_gamma   90.00000000
_symmetry_Int_Tables_number   1
_chemical_formula_structural   LiNb6Cl19
_chemical_formula_sum   'Li2 Nb12 Cl38'
_cell_volume   1370.41559933
_cell_formula_units_Z   2
loop_
 _symmetry_equiv_pos_site_id
 _symmetry_equiv_pos_as_xyz
  1  'x, y, z'
loop_
 _atom_site_type_symbol
 _atom_site_label
 _atom_site_symmetry_multiplicity
 _atom_site_fract_x
 _atom_site_fract_y
 _atom_site_fract_z
 _atom_site_occupancy
  Li  Li0  1  0.000000  0.500000  0.000000  1
  Li  Li1  1  0.000000  0.500000  0.500000  1
  Nb  Nb2  1  0.287558  0.340778  0.107041  1
  Nb  Nb3  1  0.712442  0.340778  0.392959  1
  Nb  Nb4  1  0.287558  0.659222  0.892959  1
  Nb  Nb5  1  0.712442  0.659222  0.607041  1
  Nb  Nb6  1  0.712442  0.659222  0.892959  1
  Nb  Nb7  1  0.287558  0.659222  0.607041  1
  Nb  Nb8  1  0.712442  0.340778  0.107041  1
  Nb  Nb9  1  0.287558  0.340778  0.392959  1
  Nb  Nb10  1  0.500000  0.778814  0.810075  1
  Nb  Nb11  1  0.500000  0.778814  0.689925  1
  Nb  Nb12  1  0.500000  0.221186  0.189925  1
  Nb  Nb13  1  0.500000  0.221186  0.310075  1
  Cl  Cl14  1  0.253854  0.617828  0.057248  1
  Cl  Cl15  1  0.746146  0.617828  0.442752  1
  Cl  Cl16  1  0.253854  0.382172  0.942752  1
  Cl  Cl17  1  0.746146  0.382172  0.557248  1
  Cl  Cl18  1  0.746146  0.382172  0.942752  1
  Cl  Cl19  1  0.253854  0.382172  0.557248  1
  Cl  Cl20  1  0.746146  0.617828  0.057248  1
  Cl  Cl21  1  0.253854  0.617828  0.442752  1
  Cl  Cl22  1  0.000000  0.798476  0.942318  1
  Cl  Cl23  1  0.000000  0.798476  0.557682  1
  Cl  Cl24  1  0.500000  0.545591  0.344681  1
  Cl  Cl25  1  0.500000  0.545591  0.155319  1
  Cl  Cl26  1  0.500000  0.454409  0.655319  1
  Cl  Cl27  1  0.500000  0.454409  0.844681  1
  Cl  Cl28  1  0.249693  0.038042  0.348918  1
  Cl  Cl29  1  0.750307  0.038042  0.151082  1
  Cl  Cl30  1  0.249693  0.961958  0.651082  1
  Cl  Cl31  1  0.750307  0.961958  0.848918  1
  Cl  Cl32  1  0.750307  0.961958  0.651082  1
  Cl  Cl33  1  0.249693  0.961958  0.848918  1
  Cl  Cl34  1  0.750307  0.038042  0.348918  1
  Cl  Cl35  1  0.249693  0.038042  0.151082  1
  Cl  Cl36  1  0.500000  0.173072  0.447345  1
  Cl  Cl37  1  0.500000  0.173072  0.052655  1
  Cl  Cl38  1  0.500000  0.826928  0.552655  1
  Cl  Cl39  1  0.500000  0.826928  0.947345  1
  Cl  Cl40  1  0.500000  0.946160  0.250000  1
  Cl  Cl41  1  0.500000  0.053840  0.750000  1
  Cl  Cl42  1  0.265040  0.357628  0.250000  1
  Cl  Cl43  1  0.734960  0.357628  0.250000  1
  Cl  Cl44  1  0.265040  0.642372  0.750000  1
  Cl  Cl45  1  0.734960  0.642372  0.750000  1
  Cl  Cl46  1  0.000000  0.470906  0.346148  1
  Cl  Cl47  1  0.000000  0.470906  0.153852  1
  Cl  Cl48  1  0.000000  0.529094  0.653852  1
  Cl  Cl49  1  0.000000  0.529094  0.846148  1
  Cl  Cl50  1  0.000000  0.201524  0.442318  1
  Cl  Cl51  1  0.000000  0.201524  0.057682  1
