# generated using pymatgen
data_BaH4(IO)2
_symmetry_space_group_name_H-M   'P 1'
_cell_length_a   6.74771711
_cell_length_b   6.74771711
_cell_length_c   8.80088258
_cell_angle_alpha   72.87090050
_cell_angle_beta   107.12909950
_cell_angle_gamma   110.83503405
_symmetry_Int_Tables_number   1
_chemical_formula_structural   BaH4(IO)2
_chemical_formula_sum   'Ba2 H8 I4 O4'
_cell_volume   349.73129111
_cell_formula_units_Z   2
loop_
 _symmetry_equiv_pos_site_id
 _symmetry_equiv_pos_as_xyz
  1  'x, y, z'
loop_
 _atom_site_type_symbol
 _atom_site_label
 _atom_site_symmetry_multiplicity
 _atom_site_fract_x
 _atom_site_fract_y
 _atom_site_fract_z
 _atom_site_occupancy
  Ba  Ba0  1  0.595663  0.595663  0.750000  1
  Ba  Ba1  1  0.404337  0.404337  0.250000  1
  H  H2  1  0.713392  0.860536  0.386665  1
  H  H3  1  0.860536  0.713392  0.113335  1
  H  H4  1  0.286608  0.139464  0.613335  1
  H  H5  1  0.139464  0.286608  0.886665  1
  H  H6  1  0.872515  0.719786  0.448096  1
  H  H7  1  0.719786  0.872515  0.051904  1
  H  H8  1  0.280214  0.127485  0.948096  1
  H  H9  1  0.127485  0.280214  0.551904  1
  I  I10  1  0.190173  0.773864  0.850784  1
  I  I11  1  0.773864  0.190173  0.649216  1
  I  I12  1  0.226136  0.809827  0.350784  1
  I  I13  1  0.809827  0.226136  0.149216  1
  O  O14  1  0.713476  0.722276  0.055238  1
  O  O15  1  0.722276  0.713476  0.444762  1
  O  O16  1  0.286524  0.277724  0.944762  1
  O  O17  1  0.277724  0.286524  0.555238  1
