# generated using pymatgen
data_Mn2Si(P2O7)2
_symmetry_space_group_name_H-M   'P 1'
_cell_length_a   9.04684589
_cell_length_b   9.04684589
_cell_length_c   12.56241777
_cell_angle_alpha   77.42496014
_cell_angle_beta   102.57503986
_cell_angle_gamma   146.77483466
_symmetry_Int_Tables_number   1
_chemical_formula_structural   Mn2Si(P2O7)2
_chemical_formula_sum   'Mn4 Si2 P8 O28'
_cell_volume   548.63602065
_cell_formula_units_Z   2
loop_
 _symmetry_equiv_pos_site_id
 _symmetry_equiv_pos_as_xyz
  1  'x, y, z'
loop_
 _atom_site_type_symbol
 _atom_site_label
 _atom_site_symmetry_multiplicity
 _atom_site_fract_x
 _atom_site_fract_y
 _atom_site_fract_z
 _atom_site_occupancy
  Mn  Mn0  1  0.910485  0.403204  0.368806  1
  Mn  Mn1  1  0.403204  0.910485  0.131194  1
  Mn  Mn2  1  0.089515  0.596796  0.631194  1
  Mn  Mn3  1  0.596796  0.089515  0.868806  1
  Si  Si4  1  0.859805  0.859805  0.250000  1
  Si  Si5  1  0.140195  0.140195  0.750000  1
  P  P6  1  0.704281  0.971304  0.583412  1
  P  P7  1  0.971304  0.704281  0.916588  1
  P  P8  1  0.295719  0.028696  0.416588  1
  P  P9  1  0.028696  0.295719  0.083412  1
  P  P10  1  0.527061  0.773291  0.365506  1
  P  P11  1  0.773291  0.527061  0.134494  1
  P  P12  1  0.472939  0.226709  0.634494  1
  P  P13  1  0.226709  0.472939  0.865506  1
  O  O14  1  0.896858  0.019899  0.667822  1
  O  O15  1  0.019899  0.896858  0.832178  1
  O  O16  1  0.103142  0.980101  0.332178  1
  O  O17  1  0.980101  0.103142  0.167822  1
  O  O18  1  0.162472  0.766649  0.453290  1
  O  O19  1  0.766649  0.162472  0.046710  1
  O  O20  1  0.837528  0.233351  0.546710  1
  O  O21  1  0.233351  0.837528  0.953290  1
  O  O22  1  0.571712  0.260629  0.373074  1
  O  O23  1  0.260629  0.571712  0.126926  1
  O  O24  1  0.428288  0.739371  0.626926  1
  O  O25  1  0.739371  0.428288  0.873074  1
  O  O26  1  0.697210  0.880770  0.482366  1
  O  O27  1  0.880770  0.697210  0.017634  1
  O  O28  1  0.285352  0.375285  0.820315  1
  O  O29  1  0.375285  0.285352  0.679685  1
  O  O30  1  0.714648  0.624715  0.179685  1
  O  O31  1  0.624715  0.714648  0.320315  1
  O  O32  1  0.490386  0.772431  0.878870  1
  O  O33  1  0.772431  0.490386  0.621130  1
  O  O34  1  0.509614  0.227569  0.121130  1
  O  O35  1  0.227569  0.509614  0.378870  1
  O  O36  1  0.377369  0.997961  0.702507  1
  O  O37  1  0.997961  0.377369  0.797493  1
  O  O38  1  0.622631  0.002039  0.297493  1
  O  O39  1  0.002039  0.622631  0.202507  1
  O  O40  1  0.119230  0.302790  0.982366  1
  O  O41  1  0.302790  0.119230  0.517634  1
