# generated using pymatgen
data_Re2PbO8
_symmetry_space_group_name_H-M   'P 1'
_cell_length_a   11.54274017
_cell_length_b   11.54274017
_cell_length_c   4.99404098
_cell_angle_alpha   90.00000000
_cell_angle_beta   90.00000000
_cell_angle_gamma   120.00000000
_symmetry_Int_Tables_number   1
_chemical_formula_structural   Re2PbO8
_chemical_formula_sum   'Re6 Pb3 O24'
_cell_volume   576.23624674
_cell_formula_units_Z   3
loop_
 _symmetry_equiv_pos_site_id
 _symmetry_equiv_pos_as_xyz
  1  'x, y, z'
loop_
 _atom_site_type_symbol
 _atom_site_label
 _atom_site_symmetry_multiplicity
 _atom_site_fract_x
 _atom_site_fract_y
 _atom_site_fract_z
 _atom_site_occupancy
  Re  Re0  1  0.377689  0.000000  0.989425  1
  Re  Re1  1  0.000000  0.377689  0.989425  1
  Re  Re2  1  0.622311  0.622311  0.989425  1
  Re  Re3  1  0.290579  0.290579  0.489693  1
  Re  Re4  1  0.000000  0.709421  0.489693  1
  Re  Re5  1  0.709421  0.000000  0.489693  1
  Pb  Pb6  1  0.000000  0.000000  0.966647  1
  Pb  Pb7  1  0.333333  0.666667  0.419485  1
  Pb  Pb8  1  0.666667  0.333333  0.419485  1
  O  O9  1  0.615178  0.615178  0.642415  1
  O  O10  1  0.000000  0.384822  0.642415  1
  O  O11  1  0.384822  0.000000  0.642415  1
  O  O12  1  0.147401  0.147401  0.614357  1
  O  O13  1  0.000000  0.852599  0.614357  1
  O  O14  1  0.852599  0.000000  0.614357  1
  O  O15  1  0.293434  0.437396  0.594273  1
  O  O16  1  0.562604  0.856038  0.594273  1
  O  O17  1  0.143962  0.706566  0.594273  1
  O  O18  1  0.231450  0.000000  0.084175  1
  O  O19  1  0.000000  0.231450  0.084175  1
  O  O20  1  0.768550  0.768550  0.084175  1
  O  O21  1  0.520352  0.146106  0.106826  1
  O  O22  1  0.853894  0.374246  0.106826  1
  O  O23  1  0.625754  0.479648  0.106826  1
  O  O24  1  0.146106  0.520352  0.106826  1
  O  O25  1  0.374246  0.853894  0.106826  1
  O  O26  1  0.479648  0.625754  0.106826  1
  O  O27  1  0.715774  0.000000  0.142566  1
  O  O28  1  0.000000  0.715774  0.142566  1
  O  O29  1  0.284226  0.284226  0.142566  1
  O  O30  1  0.706566  0.143962  0.594273  1
  O  O31  1  0.856038  0.562604  0.594273  1
  O  O32  1  0.437396  0.293434  0.594273  1
