# generated using pymatgen
data_Al2CdCl8
_symmetry_space_group_name_H-M   'P 1'
_cell_length_a   7.19146928
_cell_length_b   7.10763094
_cell_length_c   13.23018986
_cell_angle_alpha   90.00000000
_cell_angle_beta   92.33702830
_cell_angle_gamma   90.00000000
_symmetry_Int_Tables_number   1
_chemical_formula_structural   Al2CdCl8
_chemical_formula_sum   'Al4 Cd2 Cl16'
_cell_volume   675.68954807
_cell_formula_units_Z   2
loop_
 _symmetry_equiv_pos_site_id
 _symmetry_equiv_pos_as_xyz
  1  'x, y, z'
loop_
 _atom_site_type_symbol
 _atom_site_label
 _atom_site_symmetry_multiplicity
 _atom_site_fract_x
 _atom_site_fract_y
 _atom_site_fract_z
 _atom_site_occupancy
  Al  Al0  1  0.436790  0.924674  0.458744  1
  Al  Al1  1  0.853719  0.435126  0.758501  1
  Al  Al2  1  0.853719  0.564874  0.258501  1
  Al  Al3  1  0.436790  0.075326  0.958744  1
  Cd  Cd4  1  0.996876  0.743284  0.496063  1
  Cd  Cd5  1  0.996876  0.256716  0.996063  1
  Cl  Cl6  1  0.464303  0.926327  0.823341  1
  Cl  Cl7  1  0.464303  0.073673  0.323341  1
  Cl  Cl8  1  0.344823  0.633298  0.441493  1
  Cl  Cl9  1  0.344823  0.366702  0.941493  1
  Cl  Cl10  1  0.695692  0.928915  0.553466  1
  Cl  Cl11  1  0.695692  0.071085  0.053466  1
  Cl  Cl12  1  0.848141  0.437970  0.410415  1
  Cl  Cl13  1  0.848141  0.562030  0.910415  1
  Cl  Cl14  1  0.210731  0.041195  0.546965  1
  Cl  Cl15  1  0.210731  0.958805  0.046965  1
  Cl  Cl16  1  0.949932  0.151177  0.797230  1
  Cl  Cl17  1  0.949932  0.848823  0.297230  1
  Cl  Cl18  1  0.597441  0.438240  0.677274  1
  Cl  Cl19  1  0.597441  0.561760  0.177274  1
  Cl  Cl20  1  0.070152  0.583037  0.677507  1
  Cl  Cl21  1  0.070152  0.416963  0.177507  1
