# generated using pymatgen
data_AlSiH9C3Cl2O
_symmetry_space_group_name_H-M   'P 1'
_cell_length_a   7.07420641
_cell_length_b   9.42965000
_cell_length_c   15.68046609
_cell_angle_alpha   90.00000000
_cell_angle_beta   104.66851985
_cell_angle_gamma   90.00000000
_symmetry_Int_Tables_number   1
_chemical_formula_structural   AlSiH9C3Cl2O
_chemical_formula_sum   'Al4 Si4 H36 C12 Cl8 O4'
_cell_volume   1011.90911278
_cell_formula_units_Z   4
loop_
 _symmetry_equiv_pos_site_id
 _symmetry_equiv_pos_as_xyz
  1  'x, y, z'
loop_
 _atom_site_type_symbol
 _atom_site_label
 _atom_site_symmetry_multiplicity
 _atom_site_fract_x
 _atom_site_fract_y
 _atom_site_fract_z
 _atom_site_occupancy
  Al  Al0  1  0.966503  0.430498  0.569860  1
  Al  Al1  1  0.966503  0.069502  0.069860  1
  Al  Al2  1  0.033497  0.569502  0.430140  1
  Al  Al3  1  0.033497  0.930498  0.930140  1
  Si  Si4  1  0.809762  0.266333  0.381703  1
  Si  Si5  1  0.190238  0.766333  0.118297  1
  Si  Si6  1  0.809762  0.233667  0.881703  1
  Si  Si7  1  0.190238  0.733667  0.618297  1
  H  H8  1  0.571178  0.083864  0.396145  1
  H  H9  1  0.428822  0.583864  0.103855  1
  H  H10  1  0.428822  0.916136  0.603855  1
  H  H11  1  0.571178  0.416136  0.896145  1
  H  H12  1  0.703615  0.140788  0.502057  1
  H  H13  1  0.296385  0.640788  0.997943  1
  H  H14  1  0.296385  0.859212  0.497943  1
  H  H15  1  0.703615  0.359212  0.002057  1
  H  H16  1  0.511526  0.248280  0.438588  1
  H  H17  1  0.488474  0.748280  0.061412  1
  H  H18  1  0.488474  0.751720  0.561412  1
  H  H19  1  0.511526  0.251720  0.938588  1
  H  H20  1  0.615109  0.266094  0.227055  1
  H  H21  1  0.900774  0.613811  0.057977  1
  H  H22  1  0.900774  0.886189  0.557977  1
  H  H23  1  0.099226  0.386189  0.942023  1
  H  H24  1  0.958984  0.050684  0.338281  1
  H  H25  1  0.099226  0.113811  0.442023  1
  H  H26  1  0.041016  0.949316  0.661719  1
  H  H27  1  0.958984  0.449316  0.838281  1
  H  H28  1  0.117293  0.198569  0.342675  1
  H  H29  1  0.882707  0.698569  0.157325  1
  H  H30  1  0.882707  0.801431  0.657325  1
  H  H31  1  0.117293  0.301431  0.842675  1
  H  H32  1  0.797302  0.100919  0.743024  1
  H  H33  1  0.202698  0.600919  0.756976  1
  H  H34  1  0.202698  0.899081  0.256976  1
  H  H35  1  0.797302  0.399081  0.243024  1
  H  H36  1  0.581083  0.072199  0.779786  1
  H  H37  1  0.418917  0.572199  0.720214  1
  H  H38  1  0.418917  0.927801  0.220214  1
  H  H39  1  0.581083  0.427801  0.279786  1
  H  H40  1  0.615109  0.233906  0.727055  1
  H  H41  1  0.384891  0.733906  0.772945  1
  H  H42  1  0.384891  0.766094  0.272945  1
  H  H43  1  0.041016  0.550684  0.161719  1
  C  C44  1  0.016314  0.353282  0.875841  1
  C  C45  1  0.983686  0.853282  0.624159  1
  C  C46  1  0.983686  0.646718  0.124159  1
  C  C47  1  0.016314  0.146718  0.375841  1
  C  C48  1  0.689989  0.348294  0.273155  1
  C  C49  1  0.310011  0.848294  0.226845  1
  C  C50  1  0.310011  0.651706  0.726845  1
  C  C51  1  0.689989  0.151706  0.773155  1
  C  C52  1  0.632933  0.177800  0.434987  1
  C  C53  1  0.367067  0.677800  0.065013  1
  C  C54  1  0.367067  0.822200  0.565013  1
  C  C55  1  0.632933  0.322200  0.934987  1
  Cl  Cl56  1  0.152687  0.268979  0.637775  1
  Cl  Cl57  1  0.847313  0.768979  0.862225  1
  Cl  Cl58  1  0.847313  0.731021  0.362225  1
  Cl  Cl59  1  0.152687  0.231021  0.137775  1
  Cl  Cl60  1  0.722351  0.474634  0.620357  1
  Cl  Cl61  1  0.277649  0.974634  0.879643  1
  Cl  Cl62  1  0.277649  0.525366  0.379643  1
  Cl  Cl63  1  0.722351  0.025366  0.120357  1
  O  O64  1  0.090394  0.592822  0.549740  1
  O  O65  1  0.909606  0.407178  0.450260  1
  O  O66  1  0.090394  0.907178  0.049740  1
  O  O67  1  0.909606  0.092822  0.950260  1
