# generated using pymatgen
data_Na4Br2O
_symmetry_space_group_name_H-M   'P 1'
_cell_length_a   8.20524760
_cell_length_b   8.20524760
_cell_length_c   8.20524760
_cell_angle_alpha   147.71474030
_cell_angle_beta   147.71474030
_cell_angle_gamma   46.30664548
_symmetry_Int_Tables_number   1
_chemical_formula_structural   Na4Br2O
_chemical_formula_sum   'Na4 Br2 O1'
_cell_volume   157.05346614
_cell_formula_units_Z   1
loop_
 _symmetry_equiv_pos_site_id
 _symmetry_equiv_pos_as_xyz
  1  'x, y, z'
loop_
 _atom_site_type_symbol
 _atom_site_label
 _atom_site_symmetry_multiplicity
 _atom_site_fract_x
 _atom_site_fract_y
 _atom_site_fract_z
 _atom_site_occupancy
  Na  Na0  1  0.152045  0.152045  0.000000  1
  Na  Na1  1  0.500000  1.000000  0.500000  1
  Na  Na2  1  0.847955  0.847955  0.000000  1
  Na  Na3  1  0.000000  0.500000  0.500000  1
  Br  Br4  1  0.348572  0.348572  0.000000  1
  Br  Br5  1  0.651428  0.651428  0.000000  1
  O  O6  1  0.000000  0.000000  0.000000  1
