# generated using pymatgen
data_Hg4As2I3
_symmetry_space_group_name_H-M   'P 1'
_cell_length_a   13.39567026
_cell_length_b   13.39567026
_cell_length_c   13.39567026
_cell_angle_alpha   90.00000000
_cell_angle_beta   90.00000000
_cell_angle_gamma   90.00000000
_symmetry_Int_Tables_number   1
_chemical_formula_structural   Hg4As2I3
_chemical_formula_sum   'Hg32 As16 I24'
_cell_volume   2403.77240919
_cell_formula_units_Z   8
loop_
 _symmetry_equiv_pos_site_id
 _symmetry_equiv_pos_as_xyz
  1  'x, y, z'
loop_
 _atom_site_type_symbol
 _atom_site_label
 _atom_site_symmetry_multiplicity
 _atom_site_fract_x
 _atom_site_fract_y
 _atom_site_fract_z
 _atom_site_occupancy
  Hg  Hg0  1  0.225035  0.225035  0.225035  1
  Hg  Hg1  1  0.274965  0.774965  0.725035  1
  Hg  Hg2  1  0.725035  0.274965  0.774965  1
  Hg  Hg3  1  0.774965  0.725035  0.274965  1
  Hg  Hg4  1  0.774965  0.774965  0.774965  1
  Hg  Hg5  1  0.725035  0.225035  0.274965  1
  Hg  Hg6  1  0.274965  0.725035  0.225035  1
  Hg  Hg7  1  0.225035  0.274965  0.725035  1
  Hg  Hg8  1  0.039348  0.012624  0.262576  1
  Hg  Hg9  1  0.262576  0.039348  0.012624  1
  Hg  Hg10  1  0.012624  0.262576  0.039348  1
  Hg  Hg11  1  0.487376  0.737424  0.539348  1
  Hg  Hg12  1  0.762576  0.460652  0.987376  1
  Hg  Hg13  1  0.987376  0.762576  0.460652  1
  Hg  Hg14  1  0.237424  0.960652  0.512624  1
  Hg  Hg15  1  0.737424  0.539348  0.487376  1
  Hg  Hg16  1  0.512624  0.237424  0.960652  1
  Hg  Hg17  1  0.539348  0.487376  0.737424  1
  Hg  Hg18  1  0.960652  0.512624  0.237424  1
  Hg  Hg19  1  0.460652  0.987376  0.762576  1
  Hg  Hg20  1  0.960652  0.987376  0.737424  1
  Hg  Hg21  1  0.737424  0.960652  0.987376  1
  Hg  Hg22  1  0.987376  0.737424  0.960652  1
  Hg  Hg23  1  0.512624  0.262576  0.460652  1
  Hg  Hg24  1  0.237424  0.539348  0.012624  1
  Hg  Hg25  1  0.012624  0.237424  0.539348  1
  Hg  Hg26  1  0.762576  0.039348  0.487376  1
  Hg  Hg27  1  0.262576  0.460652  0.512624  1
  Hg  Hg28  1  0.487376  0.762576  0.039348  1
  Hg  Hg29  1  0.460652  0.512624  0.262576  1
  Hg  Hg30  1  0.039348  0.487376  0.762576  1
  Hg  Hg31  1  0.539348  0.012624  0.237424  1
  As  As32  1  0.113455  0.113455  0.113455  1
  As  As33  1  0.386545  0.886545  0.613455  1
  As  As34  1  0.613455  0.386545  0.886545  1
  As  As35  1  0.886545  0.613455  0.386545  1
  As  As36  1  0.886545  0.886545  0.886545  1
  As  As37  1  0.613455  0.113455  0.386545  1
  As  As38  1  0.386545  0.613455  0.113455  1
  As  As39  1  0.113455  0.386545  0.613455  1
  As  As40  1  0.446878  0.446878  0.446878  1
  As  As41  1  0.053122  0.553122  0.946878  1
  As  As42  1  0.946878  0.053122  0.553122  1
  As  As43  1  0.553122  0.946878  0.053122  1
  As  As44  1  0.553122  0.553122  0.553122  1
  As  As45  1  0.946878  0.446878  0.053122  1
  As  As46  1  0.053122  0.946878  0.446878  1
  As  As47  1  0.446878  0.053122  0.946878  1
  I  I48  1  0.186409  0.441748  0.259464  1
  I  I49  1  0.259464  0.186409  0.441748  1
  I  I50  1  0.441748  0.259464  0.186409  1
  I  I51  1  0.058252  0.740536  0.686409  1
  I  I52  1  0.759464  0.313591  0.558252  1
  I  I53  1  0.558252  0.759464  0.313591  1
  I  I54  1  0.240536  0.813591  0.941748  1
  I  I55  1  0.740536  0.686409  0.058252  1
  I  I56  1  0.941748  0.240536  0.813591  1
  I  I57  1  0.686409  0.058252  0.740536  1
  I  I58  1  0.813591  0.941748  0.240536  1
  I  I59  1  0.313591  0.558252  0.759464  1
  I  I60  1  0.813591  0.558252  0.740536  1
  I  I61  1  0.740536  0.813591  0.558252  1
  I  I62  1  0.558252  0.740536  0.813591  1
  I  I63  1  0.941748  0.259464  0.313591  1
  I  I64  1  0.240536  0.686409  0.441748  1
  I  I65  1  0.441748  0.240536  0.686409  1
  I  I66  1  0.759464  0.186409  0.058252  1
  I  I67  1  0.259464  0.313591  0.941748  1
  I  I68  1  0.058252  0.759464  0.186409  1
  I  I69  1  0.313591  0.941748  0.259464  1
  I  I70  1  0.186409  0.058252  0.759464  1
  I  I71  1  0.686409  0.441748  0.240536  1
