# generated using pymatgen
data_BaPbO3
_symmetry_space_group_name_H-M   'P 1'
_cell_length_a   6.15036688
_cell_length_b   6.15036688
_cell_length_c   6.13110806
_cell_angle_alpha   60.23373903
_cell_angle_beta   119.76626097
_cell_angle_gamma   90.24964367
_symmetry_Int_Tables_number   1
_chemical_formula_structural   BaPbO3
_chemical_formula_sum   'Ba2 Pb2 O6'
_cell_volume   165.49156185
_cell_formula_units_Z   2
loop_
 _symmetry_equiv_pos_site_id
 _symmetry_equiv_pos_as_xyz
  1  'x, y, z'
loop_
 _atom_site_type_symbol
 _atom_site_label
 _atom_site_symmetry_multiplicity
 _atom_site_fract_x
 _atom_site_fract_y
 _atom_site_fract_z
 _atom_site_occupancy
  Ba  Ba0  1  0.256494  0.743506  0.005417  1
  Ba  Ba1  1  0.743506  0.256494  0.994583  1
  Pb  Pb2  1  0.500000  1.000000  0.500000  1
  Pb  Pb3  1  0.000000  0.500000  0.500000  1
  O  O4  1  0.819570  0.180430  0.561030  1
  O  O5  1  0.180430  0.819570  0.438970  1
  O  O6  1  0.287570  0.287570  0.000000  1
  O  O7  1  0.712430  0.712430  0.000000  1
  O  O8  1  0.293127  0.293127  0.500000  1
  O  O9  1  0.706873  0.706873  0.500000  1
