# generated using pymatgen
data_In6WO12
_symmetry_space_group_name_H-M   'P 1'
_cell_length_a   6.34693686
_cell_length_b   6.34693686
_cell_length_c   6.34693686
_cell_angle_alpha   99.12455806
_cell_angle_beta   99.12455806
_cell_angle_gamma   99.12455806
_symmetry_Int_Tables_number   1
_chemical_formula_structural   In6WO12
_chemical_formula_sum   'In6 W1 O12'
_cell_volume   244.78099934
_cell_formula_units_Z   1
loop_
 _symmetry_equiv_pos_site_id
 _symmetry_equiv_pos_as_xyz
  1  'x, y, z'
loop_
 _atom_site_type_symbol
 _atom_site_label
 _atom_site_symmetry_multiplicity
 _atom_site_fract_x
 _atom_site_fract_y
 _atom_site_fract_z
 _atom_site_occupancy
  In  In0  1  0.676238  0.859788  0.395572  1
  In  In1  1  0.395572  0.676238  0.859788  1
  In  In2  1  0.859788  0.395572  0.676238  1
  In  In3  1  0.323762  0.140212  0.604428  1
  In  In4  1  0.604428  0.323762  0.140212  1
  In  In5  1  0.140212  0.604428  0.323762  1
  W  W6  1  0.000000  0.000000  0.000000  1
  O  O7  1  0.413974  0.595221  0.175963  1
  O  O8  1  0.175963  0.413974  0.595221  1
  O  O9  1  0.595221  0.175963  0.413974  1
  O  O10  1  0.586026  0.404779  0.824037  1
  O  O11  1  0.824037  0.586026  0.404779  1
  O  O12  1  0.404779  0.824037  0.586026  1
  O  O13  1  0.897140  0.041626  0.704191  1
  O  O14  1  0.958374  0.295809  0.102860  1
  O  O15  1  0.295809  0.102860  0.958374  1
  O  O16  1  0.102860  0.958374  0.295809  1
  O  O17  1  0.041626  0.704191  0.897140  1
  O  O18  1  0.704191  0.897140  0.041626  1
