# generated using pymatgen
data_Hg3Cl4O
_symmetry_space_group_name_H-M   'P 1'
_cell_length_a   9.53725543
_cell_length_b   9.53725543
_cell_length_c   9.53725543
_cell_angle_alpha   90.00000000
_cell_angle_beta   90.00000000
_cell_angle_gamma   90.00000000
_symmetry_Int_Tables_number   1
_chemical_formula_structural   Hg3Cl4O
_chemical_formula_sum   'Hg12 Cl16 O4'
_cell_volume   867.50151644
_cell_formula_units_Z   4
loop_
 _symmetry_equiv_pos_site_id
 _symmetry_equiv_pos_as_xyz
  1  'x, y, z'
loop_
 _atom_site_type_symbol
 _atom_site_label
 _atom_site_symmetry_multiplicity
 _atom_site_fract_x
 _atom_site_fract_y
 _atom_site_fract_z
 _atom_site_occupancy
  Hg  Hg0  1  0.269413  0.819107  0.017589  1
  Hg  Hg1  1  0.769413  0.680893  0.982411  1
  Hg  Hg2  1  0.730587  0.319107  0.482411  1
  Hg  Hg3  1  0.680893  0.982411  0.769413  1
  Hg  Hg4  1  0.482411  0.730587  0.319107  1
  Hg  Hg5  1  0.982411  0.769413  0.680893  1
  Hg  Hg6  1  0.819107  0.017589  0.269413  1
  Hg  Hg7  1  0.017589  0.269413  0.819107  1
  Hg  Hg8  1  0.319107  0.482411  0.730587  1
  Hg  Hg9  1  0.180893  0.517589  0.230587  1
  Hg  Hg10  1  0.517589  0.230587  0.180893  1
  Hg  Hg11  1  0.230587  0.180893  0.517589  1
  Cl  Cl12  1  0.194744  0.970333  0.839954  1
  Cl  Cl13  1  0.694744  0.529667  0.160046  1
  Cl  Cl14  1  0.805256  0.470333  0.660046  1
  Cl  Cl15  1  0.529667  0.160046  0.694744  1
  Cl  Cl16  1  0.660046  0.805256  0.470333  1
  Cl  Cl17  1  0.160046  0.694744  0.529667  1
  Cl  Cl18  1  0.970333  0.839954  0.194744  1
  Cl  Cl19  1  0.839954  0.194744  0.970333  1
  Cl  Cl20  1  0.570463  0.929537  0.070463  1
  Cl  Cl21  1  0.429537  0.429537  0.429537  1
  Cl  Cl22  1  0.070463  0.570463  0.929537  1
  Cl  Cl23  1  0.929537  0.070463  0.570463  1
  Cl  Cl24  1  0.305256  0.029667  0.339954  1
  Cl  Cl25  1  0.339954  0.305256  0.029667  1
  Cl  Cl26  1  0.029667  0.339954  0.305256  1
  Cl  Cl27  1  0.470333  0.660046  0.805256  1
  O  O28  1  0.821464  0.821464  0.821464  1
  O  O29  1  0.178536  0.321464  0.678536  1
  O  O30  1  0.321464  0.678536  0.178536  1
  O  O31  1  0.678536  0.178536  0.321464  1
