# generated using pymatgen
data_K2MgH8(SO6)2
_symmetry_space_group_name_H-M   'P 1'
_cell_length_a   10.01633189
_cell_length_b   9.62058372
_cell_length_c   11.85834129
_cell_angle_alpha   90.00000000
_cell_angle_beta   95.60590968
_cell_angle_gamma   90.00000000
_symmetry_Int_Tables_number   1
_chemical_formula_structural   K2MgH8(SO6)2
_chemical_formula_sum   'K8 Mg4 H32 S8 O48'
_cell_volume   1137.23968078
_cell_formula_units_Z   4
loop_
 _symmetry_equiv_pos_site_id
 _symmetry_equiv_pos_as_xyz
  1  'x, y, z'
loop_
 _atom_site_type_symbol
 _atom_site_label
 _atom_site_symmetry_multiplicity
 _atom_site_fract_x
 _atom_site_fract_y
 _atom_site_fract_z
 _atom_site_occupancy
  K  K0  1  0.740888  0.758207  0.333147  1
  K  K1  1  0.259112  0.258207  0.166853  1
  K  K2  1  0.259112  0.241793  0.666853  1
  K  K3  1  0.740888  0.741793  0.833147  1
  K  K4  1  0.760435  0.230936  0.334021  1
  K  K5  1  0.239565  0.730936  0.165979  1
  K  K6  1  0.239565  0.769064  0.665979  1
  K  K7  1  0.760435  0.269064  0.834021  1
  Mg  Mg8  1  0.000000  0.500000  0.500000  1
  Mg  Mg9  1  0.000000  0.000000  0.000000  1
  Mg  Mg10  1  0.500000  0.500000  0.000000  1
  Mg  Mg11  1  0.500000  0.000000  0.500000  1
  H  H12  1  0.273795  0.513849  0.554292  1
  H  H13  1  0.726205  0.013849  0.945708  1
  H  H14  1  0.726205  0.486151  0.445708  1
  H  H15  1  0.273795  0.986151  0.054292  1
  H  H16  1  0.264389  0.481008  0.424411  1
  H  H17  1  0.735611  0.981008  0.075589  1
  H  H18  1  0.735611  0.518992  0.575589  1
  H  H19  1  0.264389  0.018992  0.924411  1
  H  H20  1  0.046429  0.220594  0.446450  1
  H  H21  1  0.953571  0.720594  0.053550  1
  H  H22  1  0.953571  0.779406  0.553550  1
  H  H23  1  0.046429  0.279406  0.946450  1
  H  H24  1  0.966161  0.221353  0.558520  1
  H  H25  1  0.033839  0.721353  0.941480  1
  H  H26  1  0.033839  0.778647  0.441480  1
  H  H27  1  0.966161  0.278647  0.058520  1
  H  H28  1  0.271150  0.135096  0.410528  1
  H  H29  1  0.728850  0.635096  0.089472  1
  H  H30  1  0.728850  0.864904  0.589472  1
  H  H31  1  0.271150  0.364904  0.910528  1
  H  H32  1  0.610887  0.754368  0.579967  1
  H  H33  1  0.389113  0.254368  0.920033  1
  H  H34  1  0.727632  0.136441  0.580707  1
  H  H35  1  0.272368  0.636441  0.919293  1
  H  H36  1  0.272368  0.863559  0.419293  1
  H  H37  1  0.727632  0.363559  0.080707  1
  H  H38  1  0.603267  0.236450  0.579781  1
  H  H39  1  0.396733  0.736450  0.920219  1
  H  H40  1  0.396733  0.763550  0.420219  1
  H  H41  1  0.603267  0.263550  0.079781  1
  H  H42  1  0.389113  0.245632  0.420033  1
  H  H43  1  0.610887  0.745632  0.079967  1
  S  S44  1  0.478423  0.506835  0.290831  1
  S  S45  1  0.954186  0.494994  0.204342  1
  S  S46  1  0.954186  0.005006  0.704342  1
  S  S47  1  0.045814  0.505006  0.795658  1
  S  S48  1  0.478423  0.993165  0.790831  1
  S  S49  1  0.521577  0.493165  0.709169  1
  S  S50  1  0.045814  0.994994  0.295658  1
  S  S51  1  0.521577  0.006835  0.209169  1
  O  O52  1  0.452626  0.846453  0.822000  1
  O  O53  1  0.547374  0.346453  0.678000  1
  O  O54  1  0.547374  0.153547  0.178000  1
  O  O55  1  0.452626  0.653547  0.322000  1
  O  O56  1  0.941880  0.011078  0.828117  1
  O  O57  1  0.058120  0.511078  0.671883  1
  O  O58  1  0.058120  0.988922  0.171883  1
  O  O59  1  0.941880  0.488922  0.328117  1
  O  O60  1  0.904707  0.505739  0.820336  1
  O  O61  1  0.095293  0.005739  0.679664  1
  O  O62  1  0.095293  0.494261  0.179664  1
  O  O63  1  0.904707  0.994261  0.320336  1
  O  O64  1  0.561719  0.511644  0.833223  1
  O  O65  1  0.438281  0.011644  0.666777  1
  O  O66  1  0.438281  0.488356  0.166777  1
  O  O67  1  0.561719  0.988356  0.333223  1
  O  O68  1  0.623249  0.025329  0.817524  1
  O  O69  1  0.376751  0.525329  0.682476  1
  O  O70  1  0.393610  0.410426  0.353362  1
  O  O71  1  0.623249  0.474671  0.317524  1
  O  O72  1  0.640129  0.341250  0.036624  1
  O  O73  1  0.359871  0.841250  0.463376  1
  O  O74  1  0.359871  0.658750  0.963376  1
  O  O75  1  0.640129  0.158750  0.536624  1
  O  O76  1  0.359023  0.342050  0.953816  1
  O  O77  1  0.640977  0.842049  0.546184  1
  O  O78  1  0.606390  0.910426  0.146638  1
  O  O79  1  0.359023  0.157950  0.453816  1
  O  O80  1  0.012159  0.218926  0.005300  1
  O  O81  1  0.987841  0.718926  0.494700  1
  O  O82  1  0.987841  0.781074  0.994700  1
  O  O83  1  0.012159  0.281074  0.505300  1
  O  O84  1  0.208919  0.990212  0.985457  1
  O  O85  1  0.791081  0.490212  0.514543  1
  O  O86  1  0.791081  0.009788  0.014543  1
  O  O87  1  0.208919  0.509788  0.485457  1
  O  O88  1  0.606390  0.589574  0.646638  1
  O  O89  1  0.393610  0.089574  0.853362  1
  O  O90  1  0.114569  0.125309  0.341955  1
  O  O91  1  0.885431  0.625309  0.158045  1
  O  O92  1  0.885431  0.874691  0.658045  1
  O  O93  1  0.114569  0.374691  0.841955  1
  O  O94  1  0.882397  0.129433  0.650332  1
  O  O95  1  0.117603  0.629433  0.849668  1
  O  O96  1  0.117603  0.870567  0.349668  1
  O  O97  1  0.882397  0.370567  0.150332  1
  O  O98  1  0.640977  0.657950  0.046184  1
  O  O99  1  0.376751  0.974671  0.182476  1
