# generated using pymatgen
data_Sr3NiPbO6
_symmetry_space_group_name_H-M   'P 1'
_cell_length_a   6.83601826
_cell_length_b   6.83601826
_cell_length_c   6.83601826
_cell_angle_alpha   91.69519318
_cell_angle_beta   91.69519318
_cell_angle_gamma   91.69519318
_symmetry_Int_Tables_number   1
_chemical_formula_structural   Sr3NiPbO6
_chemical_formula_sum   'Sr6 Ni2 Pb2 O12'
_cell_volume   319.02706730
_cell_formula_units_Z   2
loop_
 _symmetry_equiv_pos_site_id
 _symmetry_equiv_pos_as_xyz
  1  'x, y, z'
loop_
 _atom_site_type_symbol
 _atom_site_label
 _atom_site_symmetry_multiplicity
 _atom_site_fract_x
 _atom_site_fract_y
 _atom_site_fract_z
 _atom_site_occupancy
  Sr  Sr0  1  0.750000  0.121325  0.378675  1
  Sr  Sr1  1  0.621325  0.250000  0.878675  1
  Sr  Sr2  1  0.878675  0.621325  0.250000  1
  Sr  Sr3  1  0.250000  0.878675  0.621325  1
  Sr  Sr4  1  0.378675  0.750000  0.121325  1
  Sr  Sr5  1  0.121325  0.378675  0.750000  1
  Ni  Ni6  1  0.500000  0.500000  0.500000  1
  Ni  Ni7  1  0.000000  0.000000  0.000000  1
  Pb  Pb8  1  0.750000  0.750000  0.750000  1
  Pb  Pb9  1  0.250000  0.250000  0.250000  1
  O  O10  1  0.458736  0.596098  0.793084  1
  O  O11  1  0.793084  0.458736  0.596098  1
  O  O12  1  0.596098  0.793084  0.458736  1
  O  O13  1  0.706916  0.903902  0.041264  1
  O  O14  1  0.041264  0.706916  0.903902  1
  O  O15  1  0.903902  0.041264  0.706916  1
  O  O16  1  0.541264  0.403902  0.206916  1
  O  O17  1  0.206916  0.541264  0.403902  1
  O  O18  1  0.403902  0.206916  0.541264  1
  O  O19  1  0.293084  0.096098  0.958736  1
  O  O20  1  0.096098  0.958736  0.293084  1
  O  O21  1  0.958736  0.293084  0.096098  1
