# generated using pymatgen
data_SiH
_symmetry_space_group_name_H-M   'P 1'
_cell_length_a   3.88918841
_cell_length_b   3.88918841
_cell_length_c   5.77584028
_cell_angle_alpha   90.00000000
_cell_angle_beta   90.00000000
_cell_angle_gamma   120.00000000
_symmetry_Int_Tables_number   1
_chemical_formula_structural   SiH
_chemical_formula_sum   'Si2 H2'
_cell_volume   75.65955324
_cell_formula_units_Z   2
loop_
 _symmetry_equiv_pos_site_id
 _symmetry_equiv_pos_as_xyz
  1  'x, y, z'
loop_
 _atom_site_type_symbol
 _atom_site_label
 _atom_site_symmetry_multiplicity
 _atom_site_fract_x
 _atom_site_fract_y
 _atom_site_fract_z
 _atom_site_occupancy
  Si  Si0  1  0.666667  0.333333  0.937717  1
  Si  Si1  1  0.333333  0.666667  0.062283  1
  H  H2  1  0.666667  0.333333  0.677793  1
  H  H3  1  0.333333  0.666667  0.322207  1
