# generated using pymatgen
data_SrP2(HO)4
_symmetry_space_group_name_H-M   'P 1'
_cell_length_a   8.58903949
_cell_length_b   8.58903949
_cell_length_c   6.00066187
_cell_angle_alpha   86.22822158
_cell_angle_beta   93.77177842
_cell_angle_gamma   139.07502719
_symmetry_Int_Tables_number   1
_chemical_formula_structural   SrP2(HO)4
_chemical_formula_sum   'Sr2 P4 H8 O8'
_cell_volume   289.26976894
_cell_formula_units_Z   2
loop_
 _symmetry_equiv_pos_site_id
 _symmetry_equiv_pos_as_xyz
  1  'x, y, z'
loop_
 _atom_site_type_symbol
 _atom_site_label
 _atom_site_symmetry_multiplicity
 _atom_site_fract_x
 _atom_site_fract_y
 _atom_site_fract_z
 _atom_site_occupancy
  Sr  Sr0  1  0.251624  0.251624  0.250000  1
  Sr  Sr1  1  0.748376  0.748376  0.750000  1
  P  P2  1  0.616950  0.888034  0.224592  1
  P  P3  1  0.888034  0.616950  0.275408  1
  P  P4  1  0.383050  0.111966  0.775408  1
  P  P5  1  0.111966  0.383050  0.724592  1
  H  H6  1  0.565320  0.180360  0.656341  1
  H  H7  1  0.434680  0.819640  0.343659  1
  H  H8  1  0.819640  0.434680  0.156341  1
  H  H9  1  0.180360  0.565320  0.843659  1
  H  H10  1  0.697748  0.076551  0.084736  1
  H  H11  1  0.076551  0.697748  0.415264  1
  H  H12  1  0.923449  0.302252  0.584736  1
  H  H13  1  0.302252  0.923449  0.915264  1
  O  O14  1  0.986536  0.817908  0.112293  1
  O  O15  1  0.817908  0.986536  0.387707  1
  O  O16  1  0.316885  0.491690  0.579939  1
  O  O17  1  0.508310  0.683115  0.079939  1
  O  O18  1  0.491690  0.316885  0.920061  1
  O  O19  1  0.683115  0.508310  0.420061  1
  O  O20  1  0.013464  0.182092  0.887707  1
  O  O21  1  0.182092  0.013464  0.612293  1
