# generated using pymatgen
data_K2TiS3
_symmetry_space_group_name_H-M   'P 1'
_cell_length_a   7.27657224
_cell_length_b   7.27657224
_cell_length_c   6.53845577
_cell_angle_alpha   88.56356206
_cell_angle_beta   91.43643794
_cell_angle_gamma   109.39443703
_symmetry_Int_Tables_number   1
_chemical_formula_structural   K2TiS3
_chemical_formula_sum   'K4 Ti2 S6'
_cell_volume   326.40212547
_cell_formula_units_Z   2
loop_
 _symmetry_equiv_pos_site_id
 _symmetry_equiv_pos_as_xyz
  1  'x, y, z'
loop_
 _atom_site_type_symbol
 _atom_site_label
 _atom_site_symmetry_multiplicity
 _atom_site_fract_x
 _atom_site_fract_y
 _atom_site_fract_z
 _atom_site_occupancy
  K  K0  1  0.505483  0.824290  0.263181  1
  K  K1  1  0.175710  0.494517  0.763181  1
  K  K2  1  0.824290  0.505483  0.236819  1
  K  K3  1  0.494517  0.175710  0.736819  1
  Ti  Ti4  1  0.084805  0.084805  0.250000  1
  Ti  Ti5  1  0.915195  0.915195  0.750000  1
  S  S6  1  0.651390  0.651390  0.750000  1
  S  S7  1  0.348610  0.348610  0.250000  1
  S  S8  1  0.856162  0.130211  0.999675  1
  S  S9  1  0.130211  0.856162  0.500325  1
  S  S10  1  0.869789  0.143838  0.499675  1
  S  S11  1  0.143838  0.869789  0.000325  1
