# generated using pymatgen
data_Pb9(Br5O2)2
_symmetry_space_group_name_H-M   'P 1'
_cell_length_a   12.56246597
_cell_length_b   12.56246597
_cell_length_c   8.64829632
_cell_angle_alpha   90.00000000
_cell_angle_beta   90.00000000
_cell_angle_gamma   90.00000000
_symmetry_Int_Tables_number   1
_chemical_formula_structural   Pb9(Br5O2)2
_chemical_formula_sum   'Pb18 Br20 O8'
_cell_volume   1364.83565109
_cell_formula_units_Z   2
loop_
 _symmetry_equiv_pos_site_id
 _symmetry_equiv_pos_as_xyz
  1  'x, y, z'
loop_
 _atom_site_type_symbol
 _atom_site_label
 _atom_site_symmetry_multiplicity
 _atom_site_fract_x
 _atom_site_fract_y
 _atom_site_fract_z
 _atom_site_occupancy
  Pb  Pb0  1  0.500000  0.000000  0.800022  1
  Pb  Pb1  1  0.000000  0.500000  0.199978  1
  Pb  Pb2  1  0.740045  0.575649  0.805598  1
  Pb  Pb3  1  0.075649  0.759955  0.805598  1
  Pb  Pb4  1  0.924351  0.240045  0.805598  1
  Pb  Pb5  1  0.259955  0.424351  0.805598  1
  Pb  Pb6  1  0.759955  0.924351  0.194402  1
  Pb  Pb7  1  0.424351  0.740045  0.194402  1
  Pb  Pb8  1  0.575649  0.259955  0.194402  1
  Pb  Pb9  1  0.240045  0.075649  0.194402  1
  Pb  Pb10  1  0.551479  0.361945  0.644040  1
  Pb  Pb11  1  0.861945  0.948521  0.644040  1
  Pb  Pb12  1  0.138055  0.051479  0.644040  1
  Pb  Pb13  1  0.448521  0.638055  0.644040  1
  Pb  Pb14  1  0.948521  0.138055  0.355960  1
  Pb  Pb15  1  0.638055  0.551479  0.355960  1
  Pb  Pb16  1  0.361945  0.448521  0.355960  1
  Pb  Pb17  1  0.051479  0.861945  0.355960  1
  Br  Br18  1  0.500000  0.000000  0.120252  1
  Br  Br19  1  0.000000  0.500000  0.879748  1
  Br  Br20  1  0.378921  0.187541  0.408487  1
  Br  Br21  1  0.687541  0.121079  0.408487  1
  Br  Br22  1  0.312459  0.878921  0.408487  1
  Br  Br23  1  0.621079  0.812459  0.408487  1
  Br  Br24  1  0.121079  0.312459  0.591513  1
  Br  Br25  1  0.812459  0.378921  0.591513  1
  Br  Br26  1  0.187541  0.621079  0.591513  1
  Br  Br27  1  0.878921  0.687541  0.591513  1
  Br  Br28  1  0.000000  0.000000  0.000000  1
  Br  Br29  1  0.500000  0.500000  0.000000  1
  Br  Br30  1  0.874797  0.707549  0.128719  1
  Br  Br31  1  0.207549  0.625203  0.128719  1
  Br  Br32  1  0.792451  0.374797  0.128719  1
  Br  Br33  1  0.125203  0.292451  0.128719  1
  Br  Br34  1  0.625203  0.792451  0.871281  1
  Br  Br35  1  0.292451  0.874797  0.871281  1
  Br  Br36  1  0.707549  0.125203  0.871281  1
  Br  Br37  1  0.374797  0.207549  0.871281  1
  O  O38  1  0.609919  0.543570  0.624450  1
  O  O39  1  0.043570  0.890081  0.624450  1
  O  O40  1  0.956430  0.109919  0.624450  1
  O  O41  1  0.390081  0.456430  0.624450  1
  O  O42  1  0.890081  0.956430  0.375550  1
  O  O43  1  0.456430  0.609919  0.375550  1
  O  O44  1  0.543570  0.390081  0.375550  1
  O  O45  1  0.109919  0.043570  0.375550  1
