# generated using pymatgen
data_Ta3SeI7
_symmetry_space_group_name_H-M   'P 1'
_cell_length_a   7.64371470
_cell_length_b   7.64371470
_cell_length_c   14.83594645
_cell_angle_alpha   90.00000000
_cell_angle_beta   90.00000000
_cell_angle_gamma   120.00000000
_symmetry_Int_Tables_number   1
_chemical_formula_structural   Ta3SeI7
_chemical_formula_sum   'Ta6 Se2 I14'
_cell_volume   750.67996708
_cell_formula_units_Z   2
loop_
 _symmetry_equiv_pos_site_id
 _symmetry_equiv_pos_as_xyz
  1  'x, y, z'
loop_
 _atom_site_type_symbol
 _atom_site_label
 _atom_site_symmetry_multiplicity
 _atom_site_fract_x
 _atom_site_fract_y
 _atom_site_fract_z
 _atom_site_occupancy
  Ta  Ta0  1  0.129751  0.870249  0.750155  1
  Ta  Ta1  1  0.259503  0.129751  0.250155  1
  Ta  Ta2  1  0.870249  0.740497  0.250155  1
  Ta  Ta3  1  0.129751  0.259503  0.750155  1
  Ta  Ta4  1  0.740497  0.870249  0.750155  1
  Ta  Ta5  1  0.870249  0.129751  0.250155  1
  Se  Se6  1  0.000000  0.000000  0.877601  1
  Se  Se7  1  0.000000  0.000000  0.377601  1
  I  I8  1  0.497935  0.995870  0.354401  1
  I  I9  1  0.502065  0.004130  0.854401  1
  I  I10  1  0.995870  0.497935  0.854401  1
  I  I11  1  0.497935  0.502065  0.354401  1
  I  I12  1  0.004130  0.502065  0.354401  1
  I  I13  1  0.502065  0.497935  0.854401  1
  I  I14  1  0.333333  0.666667  0.653950  1
  I  I15  1  0.666667  0.333333  0.153950  1
  I  I16  1  0.832196  0.167804  0.623761  1
  I  I17  1  0.664392  0.832196  0.123761  1
  I  I18  1  0.167804  0.335608  0.123761  1
  I  I19  1  0.832196  0.664392  0.623761  1
  I  I20  1  0.335608  0.167804  0.623761  1
  I  I21  1  0.167804  0.832196  0.123761  1
