# generated using pymatgen
data_TlPbI3
_symmetry_space_group_name_H-M   'P 1'
_cell_length_a   8.07142827
_cell_length_b   8.07142827
_cell_length_c   12.00853390
_cell_angle_alpha   90.00000000
_cell_angle_beta   90.00000000
_cell_angle_gamma   146.16351070
_symmetry_Int_Tables_number   1
_chemical_formula_structural   TlPbI3
_chemical_formula_sum   'Tl2 Pb2 I6'
_cell_volume   435.62147396
_cell_formula_units_Z   2
loop_
 _symmetry_equiv_pos_site_id
 _symmetry_equiv_pos_as_xyz
  1  'x, y, z'
loop_
 _atom_site_type_symbol
 _atom_site_label
 _atom_site_symmetry_multiplicity
 _atom_site_fract_x
 _atom_site_fract_y
 _atom_site_fract_z
 _atom_site_occupancy
  Tl  Tl0  1  0.749553  0.250447  0.750000  1
  Tl  Tl1  1  0.250447  0.749553  0.250000  1
  Pb  Pb2  1  0.000000  0.000000  0.000000  1
  Pb  Pb3  1  0.000000  0.000000  0.500000  1
  I  I4  1  0.918932  0.081068  0.250000  1
  I  I5  1  0.081068  0.918932  0.750000  1
  I  I6  1  0.359379  0.640621  0.557028  1
  I  I7  1  0.640621  0.359379  0.442972  1
  I  I8  1  0.359379  0.640621  0.942972  1
  I  I9  1  0.640621  0.359379  0.057028  1
