# generated using pymatgen
data_ZrSnCl6
_symmetry_space_group_name_H-M   'P 1'
_cell_length_a   11.97743939
_cell_length_b   6.68519602
_cell_length_c   18.83345160
_cell_angle_alpha   90.00000000
_cell_angle_beta   91.95033278
_cell_angle_gamma   90.00000000
_symmetry_Int_Tables_number   1
_chemical_formula_structural   ZrSnCl6
_chemical_formula_sum   'Zr6 Sn6 Cl36'
_cell_volume   1507.14969556
_cell_formula_units_Z   6
loop_
 _symmetry_equiv_pos_site_id
 _symmetry_equiv_pos_as_xyz
  1  'x, y, z'
loop_
 _atom_site_type_symbol
 _atom_site_label
 _atom_site_symmetry_multiplicity
 _atom_site_fract_x
 _atom_site_fract_y
 _atom_site_fract_z
 _atom_site_occupancy
  Zr  Zr0  1  0.506958  0.480946  0.997997  1
  Zr  Zr1  1  0.506958  0.519054  0.497997  1
  Zr  Zr2  1  0.669391  0.992960  0.836543  1
  Zr  Zr3  1  0.669391  0.007040  0.336543  1
  Zr  Zr4  1  0.995002  0.990146  0.500220  1
  Zr  Zr5  1  0.995002  0.009854  0.000220  1
  Sn  Sn6  1  0.322140  0.989308  0.670161  1
  Sn  Sn7  1  0.322140  0.010692  0.170161  1
  Sn  Sn8  1  0.843079  0.491680  0.160319  1
  Sn  Sn9  1  0.843079  0.508320  0.660319  1
  Sn  Sn10  1  0.166187  0.489956  0.824930  1
  Sn  Sn11  1  0.166187  0.510044  0.324930  1
  Cl  Cl12  1  0.168031  0.154635  0.747449  1
  Cl  Cl13  1  0.168031  0.845365  0.247449  1
  Cl  Cl14  1  0.680886  0.691726  0.765395  1
  Cl  Cl15  1  0.680886  0.308274  0.265395  1
  Cl  Cl16  1  0.983873  0.306897  0.927901  1
  Cl  Cl17  1  0.983873  0.693103  0.427901  1
  Cl  Cl18  1  0.362915  0.345913  0.558711  1
  Cl  Cl19  1  0.362915  0.654087  0.058711  1
  Cl  Cl20  1  0.847334  0.853774  0.582966  1
  Cl  Cl21  1  0.847334  0.146226  0.082966  1
  Cl  Cl22  1  0.827818  0.140946  0.424524  1
  Cl  Cl23  1  0.827818  0.859054  0.924524  1
  Cl  Cl24  1  0.321280  0.342865  0.242624  1
  Cl  Cl25  1  0.321280  0.657135  0.742624  1
  Cl  Cl26  1  0.812629  0.839977  0.271646  1
  Cl  Cl27  1  0.812629  0.160023  0.771646  1
  Cl  Cl28  1  0.144225  0.843521  0.578182  1
  Cl  Cl29  1  0.144225  0.156479  0.078182  1
  Cl  Cl30  1  0.662449  0.353607  0.563544  1
  Cl  Cl31  1  0.662449  0.646393  0.063544  1
  Cl  Cl32  1  0.510722  0.804632  0.575477  1
  Cl  Cl33  1  0.510722  0.195368  0.075477  1
  Cl  Cl34  1  0.991024  0.308488  0.574895  1
  Cl  Cl35  1  0.991024  0.691512  0.074895  1
  Cl  Cl36  1  0.130197  0.851042  0.926334  1
  Cl  Cl37  1  0.130197  0.148958  0.426334  1
  Cl  Cl38  1  0.659928  0.296378  0.921434  1
  Cl  Cl39  1  0.659928  0.703622  0.421434  1
  Cl  Cl40  1  0.007285  0.655584  0.742931  1
  Cl  Cl41  1  0.007285  0.344416  0.242931  1
  Cl  Cl42  1  0.516484  0.864531  0.265112  1
  Cl  Cl43  1  0.516484  0.135469  0.765112  1
  Cl  Cl44  1  0.372629  0.344914  0.910381  1
  Cl  Cl45  1  0.372629  0.655086  0.410381  1
  Cl  Cl46  1  0.529531  0.802036  0.912423  1
  Cl  Cl47  1  0.529531  0.197964  0.412423  1
