# generated using pymatgen
data_SbBr3
_symmetry_space_group_name_H-M   'P 1'
_cell_length_a   4.46307333
_cell_length_b   12.33696491
_cell_length_c   14.09944092
_cell_angle_alpha   90.00000000
_cell_angle_beta   90.00000000
_cell_angle_gamma   90.00000000
_symmetry_Int_Tables_number   1
_chemical_formula_structural   SbBr3
_chemical_formula_sum   'Sb4 Br12'
_cell_volume   776.32620141
_cell_formula_units_Z   4
loop_
 _symmetry_equiv_pos_site_id
 _symmetry_equiv_pos_as_xyz
  1  'x, y, z'
loop_
 _atom_site_type_symbol
 _atom_site_label
 _atom_site_symmetry_multiplicity
 _atom_site_fract_x
 _atom_site_fract_y
 _atom_site_fract_z
 _atom_site_occupancy
  Sb  Sb0  1  0.247503  0.541229  0.461348  1
  Sb  Sb1  1  0.747503  0.958771  0.538652  1
  Sb  Sb2  1  0.752497  0.041229  0.038652  1
  Sb  Sb3  1  0.252497  0.458771  0.961348  1
  Br  Br4  1  0.518366  0.386789  0.376869  1
  Br  Br5  1  0.018366  0.113211  0.623131  1
  Br  Br6  1  0.481634  0.886789  0.123131  1
  Br  Br7  1  0.981634  0.613211  0.876869  1
  Br  Br8  1  0.962222  0.474522  0.116837  1
  Br  Br9  1  0.462222  0.025478  0.883163  1
  Br  Br10  1  0.037778  0.974522  0.383163  1
  Br  Br11  1  0.537778  0.525478  0.616837  1
  Br  Br12  1  0.941005  0.307138  0.884415  1
  Br  Br13  1  0.441005  0.192862  0.115585  1
  Br  Br14  1  0.058995  0.807138  0.615585  1
  Br  Br15  1  0.558995  0.692862  0.384415  1
