# generated using pymatgen
data_Mn(GaS2)2
_symmetry_space_group_name_H-M   'P 1'
_cell_length_a   6.48127755
_cell_length_b   6.48127755
_cell_length_c   6.48127755
_cell_angle_alpha   130.25705755
_cell_angle_beta   130.25705755
_cell_angle_gamma   72.99614925
_symmetry_Int_Tables_number   1
_chemical_formula_structural   Mn(GaS2)2
_chemical_formula_sum   'Mn1 Ga2 S4'
_cell_volume   154.85923997
_cell_formula_units_Z   1
loop_
 _symmetry_equiv_pos_site_id
 _symmetry_equiv_pos_as_xyz
  1  'x, y, z'
loop_
 _atom_site_type_symbol
 _atom_site_label
 _atom_site_symmetry_multiplicity
 _atom_site_fract_x
 _atom_site_fract_y
 _atom_site_fract_z
 _atom_site_occupancy
  Mn  Mn0  1  0.500000  0.500000  0.000000  1
  Ga  Ga1  1  0.000000  0.000000  0.000000  1
  Ga  Ga2  1  0.250000  0.750000  0.500000  1
  S  S3  1  0.629597  0.623923  0.516019  1
  S  S4  1  0.107905  0.113579  0.483981  1
  S  S5  1  0.886421  0.370403  0.994326  1
  S  S6  1  0.376077  0.892095  0.005674  1
