# generated using pymatgen
data_Sb(IF3)2
_symmetry_space_group_name_H-M   'P 1'
_cell_length_a   6.20499895
_cell_length_b   8.26401613
_cell_length_c   8.34727218
_cell_angle_alpha   77.93623197
_cell_angle_beta   81.16379602
_cell_angle_gamma   82.54994100
_symmetry_Int_Tables_number   1
_chemical_formula_structural   Sb(IF3)2
_chemical_formula_sum   'Sb2 I4 F12'
_cell_volume   411.49910880
_cell_formula_units_Z   2
loop_
 _symmetry_equiv_pos_site_id
 _symmetry_equiv_pos_as_xyz
  1  'x, y, z'
loop_
 _atom_site_type_symbol
 _atom_site_label
 _atom_site_symmetry_multiplicity
 _atom_site_fract_x
 _atom_site_fract_y
 _atom_site_fract_z
 _atom_site_occupancy
  Sb  Sb0  1  0.562841  0.699400  0.685983  1
  Sb  Sb1  1  0.437159  0.300600  0.314017  1
  I  I2  1  0.106246  0.915497  0.232496  1
  I  I3  1  0.893754  0.084503  0.767504  1
  I  I4  1  0.899431  0.758999  0.068776  1
  I  I5  1  0.100569  0.241001  0.931224  1
  F  F6  1  0.732070  0.532331  0.580968  1
  F  F7  1  0.267930  0.467669  0.419032  1
  F  F8  1  0.430664  0.798433  0.491625  1
  F  F9  1  0.569336  0.201567  0.508375  1
  F  F10  1  0.411467  0.866805  0.803129  1
  F  F11  1  0.588533  0.133195  0.196871  1
  F  F12  1  0.201848  0.157231  0.387589  1
  F  F13  1  0.798152  0.842769  0.612411  1
  F  F14  1  0.669334  0.438863  0.229781  1
  F  F15  1  0.330666  0.561137  0.770219  1
  F  F16  1  0.291275  0.390909  0.118395  1
  F  F17  1  0.708725  0.609091  0.881605  1
