# generated using pymatgen
data_PH4I
_symmetry_space_group_name_H-M   'P 1'
_cell_length_a   6.41996331
_cell_length_b   6.41996331
_cell_length_c   4.66734552
_cell_angle_alpha   90.00000000
_cell_angle_beta   90.00000000
_cell_angle_gamma   90.00000000
_symmetry_Int_Tables_number   1
_chemical_formula_structural   PH4I
_chemical_formula_sum   'P2 H8 I2'
_cell_volume   192.36898111
_cell_formula_units_Z   2
loop_
 _symmetry_equiv_pos_site_id
 _symmetry_equiv_pos_as_xyz
  1  'x, y, z'
loop_
 _atom_site_type_symbol
 _atom_site_label
 _atom_site_symmetry_multiplicity
 _atom_site_fract_x
 _atom_site_fract_y
 _atom_site_fract_z
 _atom_site_occupancy
  P  P0  1  0.500000  0.500000  0.000000  1
  P  P1  1  0.000000  0.000000  0.000000  1
  H  H2  1  0.500000  0.679320  0.177055  1
  H  H3  1  0.179320  0.000000  0.177055  1
  H  H4  1  0.820680  0.000000  0.177055  1
  H  H5  1  0.500000  0.320680  0.177055  1
  H  H6  1  0.000000  0.179320  0.822945  1
  H  H7  1  0.000000  0.820680  0.822945  1
  H  H8  1  0.679320  0.500000  0.822945  1
  H  H9  1  0.320680  0.500000  0.822945  1
  I  I10  1  0.000000  0.500000  0.396449  1
  I  I11  1  0.500000  0.000000  0.603551  1
