# generated using pymatgen
data_Cr2CdSe4
_symmetry_space_group_name_H-M   'P 1'
_cell_length_a   7.69225066
_cell_length_b   7.69225066
_cell_length_c   7.69225066
_cell_angle_alpha   60.00000000
_cell_angle_beta   60.00000000
_cell_angle_gamma   60.00000000
_symmetry_Int_Tables_number   1
_chemical_formula_structural   Cr2CdSe4
_chemical_formula_sum   'Cr4 Cd2 Se8'
_cell_volume   321.84390196
_cell_formula_units_Z   2
loop_
 _symmetry_equiv_pos_site_id
 _symmetry_equiv_pos_as_xyz
  1  'x, y, z'
loop_
 _atom_site_type_symbol
 _atom_site_label
 _atom_site_symmetry_multiplicity
 _atom_site_fract_x
 _atom_site_fract_y
 _atom_site_fract_z
 _atom_site_occupancy
  Cr  Cr0  1  0.625000  0.125000  0.125000  1
  Cr  Cr1  1  0.125000  0.125000  0.625000  1
  Cr  Cr2  1  0.125000  0.625000  0.125000  1
  Cr  Cr3  1  0.125000  0.125000  0.125000  1
  Cd  Cd4  1  0.500000  0.500000  0.500000  1
  Cd  Cd5  1  0.750000  0.750000  0.750000  1
  Se  Se6  1  0.359299  0.359299  0.359299  1
  Se  Se7  1  0.890701  0.327898  0.890701  1
  Se  Se8  1  0.359299  0.922102  0.359299  1
  Se  Se9  1  0.890701  0.890701  0.890701  1
  Se  Se10  1  0.890701  0.890701  0.327898  1
  Se  Se11  1  0.327898  0.890701  0.890701  1
  Se  Se12  1  0.359299  0.359299  0.922102  1
  Se  Se13  1  0.922102  0.359299  0.359299  1
