# generated using pymatgen
data_SbSeCl9
_symmetry_space_group_name_H-M   'P 1'
_cell_length_a   9.73496594
_cell_length_b   11.65873402
_cell_length_c   13.54720972
_cell_angle_alpha   90.00000000
_cell_angle_beta   103.54660787
_cell_angle_gamma   90.00000000
_symmetry_Int_Tables_number   1
_chemical_formula_structural   SbSeCl9
_chemical_formula_sum   'Sb4 Se4 Cl36'
_cell_volume   1494.79705395
_cell_formula_units_Z   4
loop_
 _symmetry_equiv_pos_site_id
 _symmetry_equiv_pos_as_xyz
  1  'x, y, z'
loop_
 _atom_site_type_symbol
 _atom_site_label
 _atom_site_symmetry_multiplicity
 _atom_site_fract_x
 _atom_site_fract_y
 _atom_site_fract_z
 _atom_site_occupancy
  Sb  Sb0  1  0.978750  0.250000  0.621847  1
  Sb  Sb1  1  0.021250  0.750000  0.378153  1
  Sb  Sb2  1  0.334459  0.250000  0.171254  1
  Sb  Sb3  1  0.665541  0.750000  0.828746  1
  Se  Se4  1  0.635283  0.750000  0.321619  1
  Se  Se5  1  0.364717  0.250000  0.678381  1
  Se  Se6  1  0.947239  0.250000  0.119379  1
  Se  Se7  1  0.052761  0.750000  0.880621  1
  Cl  Cl8  1  0.524481  0.607326  0.374909  1
  Cl  Cl9  1  0.475519  0.107326  0.625091  1
  Cl  Cl10  1  0.839012  0.750000  0.994725  1
  Cl  Cl11  1  0.160988  0.250000  0.005275  1
  Cl  Cl12  1  0.819987  0.894000  0.776061  1
  Cl  Cl13  1  0.180013  0.394000  0.223939  1
  Cl  Cl14  1  0.180013  0.106000  0.223939  1
  Cl  Cl15  1  0.819987  0.606000  0.776061  1
  Cl  Cl16  1  0.514628  0.750000  0.663991  1
  Cl  Cl17  1  0.485372  0.250000  0.336009  1
  Cl  Cl18  1  0.538639  0.898458  0.888094  1
  Cl  Cl19  1  0.461361  0.398458  0.111906  1
  Cl  Cl20  1  0.461361  0.101542  0.111906  1
  Cl  Cl21  1  0.538639  0.601542  0.888094  1
  Cl  Cl22  1  0.475519  0.392674  0.625091  1
  Cl  Cl23  1  0.524481  0.892674  0.374909  1
  Cl  Cl24  1  0.864554  0.750000  0.498193  1
  Cl  Cl25  1  0.135446  0.250000  0.501807  1
  Cl  Cl26  1  0.854857  0.605578  0.282426  1
  Cl  Cl27  1  0.145143  0.105578  0.717574  1
  Cl  Cl28  1  0.145143  0.394422  0.717574  1
  Cl  Cl29  1  0.854857  0.894422  0.282426  1
  Cl  Cl30  1  0.145502  0.750000  0.247352  1
  Cl  Cl31  1  0.854498  0.250000  0.752648  1
  Cl  Cl32  1  0.159278  0.602189  0.471368  1
  Cl  Cl33  1  0.840722  0.102189  0.528632  1
  Cl  Cl34  1  0.840722  0.397811  0.528632  1
  Cl  Cl35  1  0.159278  0.897811  0.471368  1
  Cl  Cl36  1  0.481115  0.250000  0.838512  1
  Cl  Cl37  1  0.518885  0.750000  0.161488  1
  Cl  Cl38  1  0.160129  0.750000  0.755660  1
  Cl  Cl39  1  0.839871  0.250000  0.244340  1
  Cl  Cl40  1  0.167052  0.892702  0.969068  1
  Cl  Cl41  1  0.832948  0.392702  0.030932  1
  Cl  Cl42  1  0.832948  0.107298  0.030932  1
  Cl  Cl43  1  0.167052  0.607298  0.969068  1
