# generated using pymatgen
data_Na2BeO2
_symmetry_space_group_name_H-M   'P 1'
_cell_length_a   7.92981208
_cell_length_b   5.34715770
_cell_length_c   12.95320153
_cell_angle_alpha   90.00000000
_cell_angle_beta   117.84472906
_cell_angle_gamma   90.00000000
_symmetry_Int_Tables_number   1
_chemical_formula_structural   Na2BeO2
_chemical_formula_sum   'Na16 Be8 O16'
_cell_volume   485.64808498
_cell_formula_units_Z   8
loop_
 _symmetry_equiv_pos_site_id
 _symmetry_equiv_pos_as_xyz
  1  'x, y, z'
loop_
 _atom_site_type_symbol
 _atom_site_label
 _atom_site_symmetry_multiplicity
 _atom_site_fract_x
 _atom_site_fract_y
 _atom_site_fract_z
 _atom_site_occupancy
  Na  Na0  1  0.923833  0.442656  0.375238  1
  Na  Na1  1  0.076167  0.942656  0.124762  1
  Na  Na2  1  0.355015  0.166587  0.033502  1
  Na  Na3  1  0.644985  0.666587  0.466498  1
  Na  Na4  1  0.355015  0.333413  0.533502  1
  Na  Na5  1  0.644985  0.833413  0.966498  1
  Na  Na6  1  0.581232  0.384564  0.833598  1
  Na  Na7  1  0.418768  0.884564  0.666402  1
  Na  Na8  1  0.581232  0.115436  0.333598  1
  Na  Na9  1  0.418768  0.615436  0.166402  1
  Na  Na10  1  0.076167  0.557344  0.624762  1
  Na  Na11  1  0.923833  0.057344  0.875238  1
  Na  Na12  1  0.827210  0.939161  0.236068  1
  Na  Na13  1  0.172790  0.439161  0.263932  1
  Na  Na14  1  0.172790  0.060839  0.763932  1
  Na  Na15  1  0.827210  0.560839  0.736068  1
  Be  Be16  1  0.740046  0.378088  0.122507  1
  Be  Be17  1  0.259954  0.878088  0.377493  1
  Be  Be18  1  0.740046  0.121912  0.622507  1
  Be  Be19  1  0.259954  0.621912  0.877493  1
  Be  Be20  1  0.911158  0.455756  0.039049  1
  Be  Be21  1  0.088842  0.955756  0.460951  1
  Be  Be22  1  0.088842  0.544244  0.960951  1
  Be  Be23  1  0.911158  0.044244  0.539049  1
  O  O24  1  0.249681  0.771745  0.979450  1
  O  O25  1  0.750319  0.271745  0.520550  1
  O  O26  1  0.249681  0.728255  0.479450  1
  O  O27  1  0.750319  0.228255  0.020550  1
  O  O28  1  0.127589  0.111140  0.358816  1
  O  O29  1  0.872411  0.611140  0.141184  1
  O  O30  1  0.127589  0.388860  0.858816  1
  O  O31  1  0.872411  0.888860  0.641184  1
  O  O32  1  0.638361  0.302606  0.192912  1
  O  O33  1  0.361639  0.802606  0.307088  1
  O  O34  1  0.361639  0.697394  0.807088  1
  O  O35  1  0.638361  0.197394  0.692912  1
  O  O36  1  0.127160  0.132671  0.575177  1
  O  O37  1  0.872840  0.632671  0.924823  1
  O  O38  1  0.872840  0.867329  0.424823  1
  O  O39  1  0.127160  0.367329  0.075177  1
