# generated using pymatgen
data_KNa(BH4)2
_symmetry_space_group_name_H-M   'P 1'
_cell_length_a   7.47685904
_cell_length_b   7.47685904
_cell_length_c   7.47685904
_cell_angle_alpha   35.82128540
_cell_angle_beta   35.82128540
_cell_angle_gamma   35.82128540
_symmetry_Int_Tables_number   1
_chemical_formula_structural   KNa(BH4)2
_chemical_formula_sum   'K1 Na1 B2 H8'
_cell_volume   128.01562521
_cell_formula_units_Z   1
loop_
 _symmetry_equiv_pos_site_id
 _symmetry_equiv_pos_as_xyz
  1  'x, y, z'
loop_
 _atom_site_type_symbol
 _atom_site_label
 _atom_site_symmetry_multiplicity
 _atom_site_fract_x
 _atom_site_fract_y
 _atom_site_fract_z
 _atom_site_occupancy
  K  K0  1  0.500000  0.500000  0.500000  1
  Na  Na1  1  0.000000  0.000000  0.000000  1
  B  B2  1  0.261348  0.261348  0.261348  1
  B  B3  1  0.738652  0.738652  0.738652  1
  H  H4  1  0.319684  0.319684  0.319684  1
  H  H5  1  0.680316  0.680316  0.680316  1
  H  H6  1  0.096034  0.096034  0.531789  1
  H  H7  1  0.531789  0.096034  0.096034  1
  H  H8  1  0.096034  0.531789  0.096034  1
  H  H9  1  0.468211  0.903966  0.903966  1
  H  H10  1  0.903966  0.468211  0.903966  1
  H  H11  1  0.903966  0.903966  0.468211  1
