# generated using pymatgen
data_Rb2In2Sb3
_symmetry_space_group_name_H-M   'P 1'
_cell_length_a   15.84724641
_cell_length_b   7.75793746
_cell_length_c   17.70024500
_cell_angle_alpha   90.00000000
_cell_angle_beta   90.48163578
_cell_angle_gamma   90.00000000
_symmetry_Int_Tables_number   1
_chemical_formula_structural   Rb2In2Sb3
_chemical_formula_sum   'Rb16 In16 Sb24'
_cell_volume   2176.02569076
_cell_formula_units_Z   8
loop_
 _symmetry_equiv_pos_site_id
 _symmetry_equiv_pos_as_xyz
  1  'x, y, z'
loop_
 _atom_site_type_symbol
 _atom_site_label
 _atom_site_symmetry_multiplicity
 _atom_site_fract_x
 _atom_site_fract_y
 _atom_site_fract_z
 _atom_site_occupancy
  Rb  Rb0  1  0.857565  0.970723  0.007140  1
  Rb  Rb1  1  0.142435  0.470723  0.492860  1
  Rb  Rb2  1  0.142435  0.029277  0.992860  1
  Rb  Rb3  1  0.857565  0.529277  0.507140  1
  Rb  Rb4  1  0.346430  0.546483  0.978868  1
  Rb  Rb5  1  0.653570  0.046483  0.521132  1
  Rb  Rb6  1  0.653570  0.453517  0.021132  1
  Rb  Rb7  1  0.346430  0.953517  0.478868  1
  Rb  Rb8  1  0.077002  0.532258  0.888867  1
  Rb  Rb9  1  0.922998  0.032258  0.611133  1
  Rb  Rb10  1  0.922998  0.467742  0.111133  1
  Rb  Rb11  1  0.077002  0.967742  0.388867  1
  Rb  Rb12  1  0.557036  0.945355  0.102377  1
  Rb  Rb13  1  0.442964  0.445355  0.397623  1
  Rb  Rb14  1  0.442964  0.054645  0.897623  1
  Rb  Rb15  1  0.557036  0.554645  0.602377  1
  In  In16  1  0.315807  0.278586  0.169491  1
  In  In17  1  0.684193  0.778586  0.330509  1
  In  In18  1  0.684193  0.721414  0.830509  1
  In  In19  1  0.315807  0.221414  0.669491  1
  In  In20  1  0.907386  0.788343  0.270380  1
  In  In21  1  0.092614  0.288343  0.229620  1
  In  In22  1  0.092614  0.211657  0.729620  1
  In  In23  1  0.907386  0.711657  0.770380  1
  In  In24  1  0.181641  0.762801  0.177288  1
  In  In25  1  0.818359  0.262801  0.322712  1
  In  In26  1  0.818359  0.237199  0.822712  1
  In  In27  1  0.181641  0.737199  0.677288  1
  In  In28  1  0.406617  0.760133  0.240538  1
  In  In29  1  0.593383  0.260133  0.259462  1
  In  In30  1  0.593383  0.239867  0.759462  1
  In  In31  1  0.406617  0.739867  0.740538  1
  Sb  Sb32  1  0.973593  0.463065  0.327826  1
  Sb  Sb33  1  0.026407  0.963065  0.172174  1
  Sb  Sb34  1  0.026407  0.536935  0.672174  1
  Sb  Sb35  1  0.973593  0.036935  0.827826  1
  Sb  Sb36  1  0.163745  0.444902  0.095246  1
  Sb  Sb37  1  0.836255  0.944902  0.404754  1
  Sb  Sb38  1  0.836255  0.555098  0.904754  1
  Sb  Sb39  1  0.163745  0.055098  0.595246  1
  Sb  Sb40  1  0.329665  0.934751  0.110538  1
  Sb  Sb41  1  0.670335  0.434751  0.389462  1
  Sb  Sb42  1  0.670335  0.065249  0.889462  1
  Sb  Sb43  1  0.329665  0.565249  0.610538  1
  Sb  Sb44  1  0.251623  0.835416  0.824875  1
  Sb  Sb45  1  0.748377  0.335416  0.675125  1
  Sb  Sb46  1  0.748377  0.164584  0.175125  1
  Sb  Sb47  1  0.251623  0.664584  0.324875  1
  Sb  Sb48  1  0.476840  0.460539  0.162538  1
  Sb  Sb49  1  0.523160  0.960539  0.337462  1
  Sb  Sb50  1  0.523160  0.539461  0.837462  1
  Sb  Sb51  1  0.476840  0.039461  0.662538  1
  Sb  Sb52  1  0.247426  0.208159  0.820666  1
  Sb  Sb53  1  0.752574  0.708159  0.679334  1
  Sb  Sb54  1  0.752574  0.791841  0.179334  1
  Sb  Sb55  1  0.247426  0.291841  0.320666  1
