# generated using pymatgen
data_AsXeF7
_symmetry_space_group_name_H-M   'P 1'
_cell_length_a   6.51777699
_cell_length_b   6.45698221
_cell_length_c   16.61308658
_cell_angle_alpha   90.00000000
_cell_angle_beta   102.35646455
_cell_angle_gamma   90.00000000
_symmetry_Int_Tables_number   1
_chemical_formula_structural   AsXeF7
_chemical_formula_sum   'As4 Xe4 F28'
_cell_volume   682.96853849
_cell_formula_units_Z   4
loop_
 _symmetry_equiv_pos_site_id
 _symmetry_equiv_pos_as_xyz
  1  'x, y, z'
loop_
 _atom_site_type_symbol
 _atom_site_label
 _atom_site_symmetry_multiplicity
 _atom_site_fract_x
 _atom_site_fract_y
 _atom_site_fract_z
 _atom_site_occupancy
  As  As0  1  0.347508  0.224544  0.611109  1
  As  As1  1  0.652492  0.724544  0.888891  1
  As  As2  1  0.652492  0.775456  0.388891  1
  As  As3  1  0.347508  0.275456  0.111109  1
  Xe  Xe4  1  0.136626  0.281358  0.378532  1
  Xe  Xe5  1  0.863374  0.781358  0.121468  1
  Xe  Xe6  1  0.863374  0.718642  0.621468  1
  Xe  Xe7  1  0.136626  0.218642  0.878532  1
  F  F8  1  0.952154  0.372039  0.272092  1
  F  F9  1  0.047846  0.872039  0.227908  1
  F  F10  1  0.047846  0.627961  0.727908  1
  F  F11  1  0.952154  0.127961  0.772092  1
  F  F12  1  0.348413  0.173456  0.494226  1
  F  F13  1  0.651587  0.673456  0.005774  1
  F  F14  1  0.651587  0.826544  0.505774  1
  F  F15  1  0.348413  0.326544  0.994226  1
  F  F16  1  0.621466  0.277978  0.123591  1
  F  F17  1  0.378534  0.777978  0.376409  1
  F  F18  1  0.378534  0.722022  0.876409  1
  F  F19  1  0.621466  0.222022  0.623591  1
  F  F20  1  0.345695  0.545935  0.119565  1
  F  F21  1  0.654305  0.045935  0.380435  1
  F  F22  1  0.654305  0.454065  0.880435  1
  F  F23  1  0.345695  0.954065  0.619565  1
  F  F24  1  0.352632  0.233333  0.214799  1
  F  F25  1  0.647368  0.733333  0.285201  1
  F  F26  1  0.647368  0.766667  0.785201  1
  F  F27  1  0.352632  0.266667  0.714799  1
  F  F28  1  0.071118  0.277177  0.080941  1
  F  F29  1  0.928882  0.777177  0.419059  1
  F  F30  1  0.928882  0.722823  0.919059  1
  F  F31  1  0.071118  0.222823  0.580941  1
  F  F32  1  0.344101  0.010381  0.086355  1
  F  F33  1  0.655899  0.510381  0.413645  1
  F  F34  1  0.655899  0.989619  0.913645  1
  F  F35  1  0.344101  0.489619  0.586355  1
