# generated using pymatgen
data_Na4Sn3F10
_symmetry_space_group_name_H-M   'P 1'
_cell_length_a   11.10159281
_cell_length_b   11.10159281
_cell_length_c   5.55515482
_cell_angle_alpha   89.09758042
_cell_angle_beta   90.90241958
_cell_angle_gamma   67.55022134
_symmetry_Int_Tables_number   1
_chemical_formula_structural   Na4Sn3F10
_chemical_formula_sum   'Na8 Sn6 F20'
_cell_volume   632.50685501
_cell_formula_units_Z   2
loop_
 _symmetry_equiv_pos_site_id
 _symmetry_equiv_pos_as_xyz
  1  'x, y, z'
loop_
 _atom_site_type_symbol
 _atom_site_label
 _atom_site_symmetry_multiplicity
 _atom_site_fract_x
 _atom_site_fract_y
 _atom_site_fract_z
 _atom_site_occupancy
  Na  Na0  1  0.902232  0.555826  0.752605  1
  Na  Na1  1  0.555826  0.902232  0.747395  1
  Na  Na2  1  0.097768  0.444174  0.247395  1
  Na  Na3  1  0.444174  0.097768  0.252605  1
  Na  Na4  1  0.656905  0.656905  0.250000  1
  Na  Na5  1  0.343095  0.343095  0.750000  1
  Na  Na6  1  0.547243  0.547243  0.750000  1
  Na  Na7  1  0.452757  0.452757  0.250000  1
  Sn  Sn8  1  0.173253  0.663874  0.662993  1
  Sn  Sn9  1  0.663874  0.173253  0.837007  1
  Sn  Sn10  1  0.826747  0.336126  0.337007  1
  Sn  Sn11  1  0.336126  0.826747  0.162993  1
  Sn  Sn12  1  0.842194  0.842194  0.250000  1
  Sn  Sn13  1  0.157806  0.157806  0.750000  1
  F  F14  1  0.278764  0.203327  0.516491  1
  F  F15  1  0.203327  0.278764  0.983509  1
  F  F16  1  0.721236  0.796673  0.483509  1
  F  F17  1  0.796673  0.721236  0.016491  1
  F  F18  1  0.562707  0.097266  0.608906  1
  F  F19  1  0.097266  0.562707  0.891094  1
  F  F20  1  0.437293  0.902734  0.391094  1
  F  F21  1  0.902734  0.437293  0.108906  1
  F  F22  1  0.556606  0.346948  0.613572  1
  F  F23  1  0.346948  0.556606  0.886428  1
  F  F24  1  0.443394  0.653052  0.386428  1
  F  F25  1  0.653052  0.443394  0.113572  1
  F  F26  1  0.346440  0.009511  0.936914  1
  F  F27  1  0.009511  0.346440  0.563086  1
  F  F28  1  0.743247  0.504146  0.548243  1
  F  F29  1  0.504146  0.743247  0.951757  1
  F  F30  1  0.256753  0.495854  0.451757  1
  F  F31  1  0.495854  0.256753  0.048243  1
  F  F32  1  0.990489  0.653560  0.436914  1
  F  F33  1  0.653560  0.990489  0.063086  1
