# generated using pymatgen
data_SbClF8
_symmetry_space_group_name_H-M   'P 1'
_cell_length_a   5.43311567
_cell_length_b   5.77771804
_cell_length_c   10.63742087
_cell_angle_alpha   89.97358915
_cell_angle_beta   92.78325311
_cell_angle_gamma   92.96843300
_symmetry_Int_Tables_number   1
_chemical_formula_structural   SbClF8
_chemical_formula_sum   'Sb2 Cl2 F16'
_cell_volume   333.07726451
_cell_formula_units_Z   2
loop_
 _symmetry_equiv_pos_site_id
 _symmetry_equiv_pos_as_xyz
  1  'x, y, z'
loop_
 _atom_site_type_symbol
 _atom_site_label
 _atom_site_symmetry_multiplicity
 _atom_site_fract_x
 _atom_site_fract_y
 _atom_site_fract_z
 _atom_site_occupancy
  Sb  Sb0  1  0.000000  0.000000  0.000000  1
  Sb  Sb1  1  0.000000  0.000000  0.500000  1
  Cl  Cl2  1  0.594687  0.616882  0.753095  1
  Cl  Cl3  1  0.405313  0.383118  0.246905  1
  F  F4  1  0.727932  0.051058  0.100642  1
  F  F5  1  0.272068  0.948942  0.899358  1
  F  F6  1  0.700029  0.971365  0.400037  1
  F  F7  1  0.299971  0.028635  0.599963  1
  F  F8  1  0.419463  0.480023  0.849603  1
  F  F9  1  0.580537  0.519977  0.150397  1
  F  F10  1  0.433351  0.536644  0.627898  1
  F  F11  1  0.566649  0.463356  0.372102  1
  F  F12  1  0.823313  0.721979  0.925296  1
  F  F13  1  0.176687  0.278021  0.074704  1
  F  F14  1  0.859837  0.799195  0.631681  1
  F  F15  1  0.140163  0.200805  0.368319  1
  F  F16  1  0.863712  0.188800  0.870663  1
  F  F17  1  0.136288  0.811200  0.129337  1
  F  F18  1  0.888660  0.266807  0.579904  1
  F  F19  1  0.111340  0.733193  0.420096  1
