# generated using pymatgen
data_Te2O3F2
_symmetry_space_group_name_H-M   'P 1'
_cell_length_a   5.34431103
_cell_length_b   6.31248619
_cell_length_c   7.12691869
_cell_angle_alpha   99.45612018
_cell_angle_beta   108.96533889
_cell_angle_gamma   91.95031360
_symmetry_Int_Tables_number   1
_chemical_formula_structural   Te2O3F2
_chemical_formula_sum   'Te4 O6 F4'
_cell_volume   223.30422896
_cell_formula_units_Z   2
loop_
 _symmetry_equiv_pos_site_id
 _symmetry_equiv_pos_as_xyz
  1  'x, y, z'
loop_
 _atom_site_type_symbol
 _atom_site_label
 _atom_site_symmetry_multiplicity
 _atom_site_fract_x
 _atom_site_fract_y
 _atom_site_fract_z
 _atom_site_occupancy
  Te  Te0  1  0.597822  0.903027  0.203479  1
  Te  Te1  1  0.402178  0.096973  0.796521  1
  Te  Te2  1  0.876450  0.515795  0.763777  1
  Te  Te3  1  0.123550  0.484205  0.236223  1
  O  O4  1  0.884206  0.653428  0.065368  1
  O  O5  1  0.115794  0.346572  0.934632  1
  O  O6  1  0.459741  0.635662  0.281401  1
  O  O7  1  0.540259  0.364338  0.718599  1
  O  O8  1  0.646661  0.177906  0.065806  1
  O  O9  1  0.353339  0.822094  0.934194  1
  F  F10  1  0.667016  0.938571  0.708968  1
  F  F11  1  0.332984  0.061429  0.291032  1
  F  F12  1  0.081914  0.705961  0.461935  1
  F  F13  1  0.918086  0.294039  0.538065  1
