# generated using pymatgen
data_VP2O7
_symmetry_space_group_name_H-M   'P 1'
_cell_length_a   4.87133515
_cell_length_b   8.01617657
_cell_length_c   6.99101360
_cell_angle_alpha   90.00000000
_cell_angle_beta   106.07367092
_cell_angle_gamma   90.00000000
_symmetry_Int_Tables_number   1
_chemical_formula_structural   VP2O7
_chemical_formula_sum   'V2 P4 O14'
_cell_volume   262.32311262
_cell_formula_units_Z   2
loop_
 _symmetry_equiv_pos_site_id
 _symmetry_equiv_pos_as_xyz
  1  'x, y, z'
loop_
 _atom_site_type_symbol
 _atom_site_label
 _atom_site_symmetry_multiplicity
 _atom_site_fract_x
 _atom_site_fract_y
 _atom_site_fract_z
 _atom_site_occupancy
  V  V0  1  0.786287  0.001845  0.272749  1
  V  V1  1  0.213713  0.501845  0.727251  1
  P  P2  1  0.234910  0.233270  0.103561  1
  P  P3  1  0.391979  0.818906  0.508676  1
  P  P4  1  0.765090  0.733270  0.896439  1
  P  P5  1  0.608021  0.318906  0.491324  1
  O  O6  1  0.585749  0.828325  0.368311  1
  O  O7  1  0.857235  0.834991  0.086016  1
  O  O8  1  0.425833  0.083725  0.091783  1
  O  O9  1  0.410893  0.362232  0.270781  1
  O  O10  1  0.970666  0.176968  0.166959  1
  O  O11  1  0.589107  0.862232  0.729219  1
  O  O12  1  0.156099  0.949120  0.462131  1
  O  O13  1  0.414251  0.328325  0.631689  1
  O  O14  1  0.029334  0.676968  0.833041  1
  O  O15  1  0.278028  0.641919  0.514732  1
  O  O16  1  0.142765  0.334991  0.913984  1
  O  O17  1  0.721972  0.141919  0.485268  1
  O  O18  1  0.574167  0.583725  0.908217  1
  O  O19  1  0.843901  0.449120  0.537869  1
