# generated using pymatgen
data_Cd2As3I
_symmetry_space_group_name_H-M   'P 1'
_cell_length_a   6.51451328
_cell_length_b   6.51451328
_cell_length_c   8.16463232
_cell_angle_alpha   82.99134022
_cell_angle_beta   97.00865978
_cell_angle_gamma   82.66225739
_symmetry_Int_Tables_number   1
_chemical_formula_structural   Cd2As3I
_chemical_formula_sum   'Cd4 As6 I2'
_cell_volume   337.74347341
_cell_formula_units_Z   2
loop_
 _symmetry_equiv_pos_site_id
 _symmetry_equiv_pos_as_xyz
  1  'x, y, z'
loop_
 _atom_site_type_symbol
 _atom_site_label
 _atom_site_symmetry_multiplicity
 _atom_site_fract_x
 _atom_site_fract_y
 _atom_site_fract_z
 _atom_site_occupancy
  Cd  Cd0  1  0.111629  0.598400  0.214297  1
  Cd  Cd1  1  0.598400  0.111629  0.285703  1
  Cd  Cd2  1  0.401600  0.888371  0.714297  1
  Cd  Cd3  1  0.888371  0.401600  0.785703  1
  As  As4  1  0.671840  0.423529  0.473614  1
  As  As5  1  0.576471  0.328160  0.973614  1
  As  As6  1  0.290928  0.290928  0.750000  1
  As  As7  1  0.709072  0.709072  0.250000  1
  As  As8  1  0.328160  0.576471  0.526386  1
  As  As9  1  0.423529  0.671840  0.026386  1
  I  I10  1  0.872768  0.872768  0.750000  1
  I  I11  1  0.127232  0.127232  0.250000  1
