# generated using pymatgen
data_Rb2NiH8(CO5)2
_symmetry_space_group_name_H-M   'P 1'
_cell_length_a   7.34264392
_cell_length_b   6.59400336
_cell_length_c   12.36415933
_cell_angle_alpha   90.00000000
_cell_angle_beta   112.69086593
_cell_angle_gamma   90.00000000
_symmetry_Int_Tables_number   1
_chemical_formula_structural   Rb2NiH8(CO5)2
_chemical_formula_sum   'Rb4 Ni2 H16 C4 O20'
_cell_volume   552.30564993
_cell_formula_units_Z   2
loop_
 _symmetry_equiv_pos_site_id
 _symmetry_equiv_pos_as_xyz
  1  'x, y, z'
loop_
 _atom_site_type_symbol
 _atom_site_label
 _atom_site_symmetry_multiplicity
 _atom_site_fract_x
 _atom_site_fract_y
 _atom_site_fract_z
 _atom_site_occupancy
  Rb  Rb0  1  0.265887  0.676503  0.821457  1
  Rb  Rb1  1  0.734113  0.176503  0.678543  1
  Rb  Rb2  1  0.734113  0.323497  0.178543  1
  Rb  Rb3  1  0.265887  0.823497  0.321457  1
  Ni  Ni4  1  0.000000  0.500000  0.500000  1
  Ni  Ni5  1  0.000000  0.000000  0.000000  1
  H  H6  1  0.183356  0.217732  0.483479  1
  H  H7  1  0.816644  0.717732  0.016521  1
  H  H8  1  0.816644  0.782268  0.516521  1
  H  H9  1  0.183356  0.282268  0.983479  1
  H  H10  1  0.849156  0.842599  0.139304  1
  H  H11  1  0.150844  0.342599  0.360696  1
  H  H12  1  0.150844  0.157401  0.860696  1
  H  H13  1  0.849156  0.657401  0.639304  1
  H  H14  1  0.495397  0.674956  0.627339  1
  H  H15  1  0.347828  0.637124  0.095121  1
  H  H16  1  0.504603  0.325044  0.372661  1
  H  H17  1  0.495397  0.825044  0.127339  1
  H  H18  1  0.347828  0.862876  0.595121  1
  H  H19  1  0.652172  0.362876  0.904879  1
  H  H20  1  0.652172  0.137124  0.404879  1
  H  H21  1  0.504603  0.174956  0.872661  1
  C  C22  1  0.781576  0.686364  0.827867  1
  C  C23  1  0.218424  0.186364  0.672133  1
  C  C24  1  0.781576  0.813636  0.327867  1
  C  C25  1  0.218424  0.313636  0.172133  1
  O  O26  1  0.364079  0.778359  0.072710  1
  O  O27  1  0.635921  0.278359  0.427290  1
  O  O28  1  0.635921  0.221641  0.927290  1
  O  O29  1  0.364079  0.721641  0.572710  1
  O  O30  1  0.916404  0.795128  0.086387  1
  O  O31  1  0.083596  0.295128  0.413613  1
  O  O32  1  0.910312  0.666536  0.357883  1
  O  O33  1  0.089688  0.166536  0.142117  1
  O  O34  1  0.089688  0.333464  0.642117  1
  O  O35  1  0.910312  0.833464  0.857883  1
  O  O36  1  0.737285  0.896676  0.226187  1
  O  O37  1  0.262715  0.396676  0.273813  1
  O  O38  1  0.262715  0.103324  0.773813  1
  O  O39  1  0.083596  0.204872  0.913613  1
  O  O40  1  0.697851  0.874503  0.397051  1
  O  O41  1  0.302149  0.374503  0.102949  1
  O  O42  1  0.302149  0.125497  0.602949  1
  O  O43  1  0.697851  0.625497  0.897051  1
  O  O44  1  0.916404  0.704872  0.586387  1
  O  O45  1  0.737285  0.603324  0.726187  1
