# generated using pymatgen
data_NbXeF11
_symmetry_space_group_name_H-M   'P 1'
_cell_length_a   5.58541109
_cell_length_b   8.88638305
_cell_length_c   17.49919370
_cell_angle_alpha   90.00000000
_cell_angle_beta   90.00000000
_cell_angle_gamma   90.00000000
_symmetry_Int_Tables_number   1
_chemical_formula_structural   NbXeF11
_chemical_formula_sum   'Nb4 Xe4 F44'
_cell_volume   868.55677268
_cell_formula_units_Z   4
loop_
 _symmetry_equiv_pos_site_id
 _symmetry_equiv_pos_as_xyz
  1  'x, y, z'
loop_
 _atom_site_type_symbol
 _atom_site_label
 _atom_site_symmetry_multiplicity
 _atom_site_fract_x
 _atom_site_fract_y
 _atom_site_fract_z
 _atom_site_occupancy
  Nb  Nb0  1  0.715210  0.750000  0.044617  1
  Nb  Nb1  1  0.215210  0.250000  0.455383  1
  Nb  Nb2  1  0.284790  0.250000  0.955383  1
  Nb  Nb3  1  0.784790  0.750000  0.544617  1
  Xe  Xe4  1  0.204839  0.750000  0.851287  1
  Xe  Xe5  1  0.704839  0.250000  0.648713  1
  Xe  Xe6  1  0.795161  0.250000  0.148713  1
  Xe  Xe7  1  0.295161  0.750000  0.351287  1
  F  F8  1  0.138337  0.750000  0.740920  1
  F  F9  1  0.638337  0.250000  0.759080  1
  F  F10  1  0.861663  0.250000  0.259080  1
  F  F11  1  0.361663  0.750000  0.240920  1
  F  F12  1  0.566120  0.407646  0.182756  1
  F  F13  1  0.066120  0.592354  0.317244  1
  F  F14  1  0.433880  0.907646  0.817244  1
  F  F15  1  0.933880  0.092354  0.682756  1
  F  F16  1  0.765654  0.535012  0.537538  1
  F  F17  1  0.265654  0.464988  0.962462  1
  F  F18  1  0.234346  0.035012  0.462462  1
  F  F19  1  0.734346  0.964988  0.037538  1
  F  F20  1  0.234346  0.464988  0.462462  1
  F  F21  1  0.734346  0.535012  0.037538  1
  F  F22  1  0.765654  0.964988  0.537538  1
  F  F23  1  0.265654  0.035012  0.962462  1
  F  F24  1  0.488706  0.750000  0.476764  1
  F  F25  1  0.988706  0.250000  0.023236  1
  F  F26  1  0.511294  0.250000  0.523236  1
  F  F27  1  0.011294  0.750000  0.976764  1
  F  F28  1  0.086399  0.750000  0.592751  1
  F  F29  1  0.586399  0.250000  0.907249  1
  F  F30  1  0.913601  0.250000  0.407249  1
  F  F31  1  0.413601  0.750000  0.092751  1
  F  F32  1  0.613921  0.750000  0.637420  1
  F  F33  1  0.113921  0.250000  0.862580  1
  F  F34  1  0.386079  0.250000  0.362580  1
  F  F35  1  0.886079  0.750000  0.137420  1
  F  F36  1  0.972181  0.750000  0.444248  1
  F  F37  1  0.472181  0.250000  0.055752  1
  F  F38  1  0.027819  0.250000  0.555752  1
  F  F39  1  0.527819  0.750000  0.944248  1
  F  F40  1  0.546295  0.908232  0.346634  1
  F  F41  1  0.046295  0.091768  0.153366  1
  F  F42  1  0.453705  0.408232  0.653366  1
  F  F43  1  0.953705  0.591768  0.846634  1
  F  F44  1  0.453705  0.091768  0.653366  1
  F  F45  1  0.953705  0.908232  0.846634  1
  F  F46  1  0.546295  0.591768  0.346634  1
  F  F47  1  0.046295  0.408232  0.153366  1
  F  F48  1  0.066120  0.907646  0.317244  1
  F  F49  1  0.566120  0.092354  0.182756  1
  F  F50  1  0.933880  0.407646  0.682756  1
  F  F51  1  0.433880  0.592354  0.817244  1
