# generated using pymatgen
data_Li5TlO4
_symmetry_space_group_name_H-M   'P 1'
_cell_length_a   13.42135656
_cell_length_b   13.42135656
_cell_length_c   4.79053768
_cell_angle_alpha   90.00000000
_cell_angle_beta   90.00000000
_cell_angle_gamma   90.00000000
_symmetry_Int_Tables_number   1
_chemical_formula_structural   Li5TlO4
_chemical_formula_sum   'Li40 Tl8 O32'
_cell_volume   862.93302286
_cell_formula_units_Z   8
loop_
 _symmetry_equiv_pos_site_id
 _symmetry_equiv_pos_as_xyz
  1  'x, y, z'
loop_
 _atom_site_type_symbol
 _atom_site_label
 _atom_site_symmetry_multiplicity
 _atom_site_fract_x
 _atom_site_fract_y
 _atom_site_fract_z
 _atom_site_occupancy
  Li  Li0  1  0.870545  0.129455  0.500000  1
  Li  Li1  1  0.629455  0.629455  0.000000  1
  Li  Li2  1  0.370545  0.370545  0.000000  1
  Li  Li3  1  0.129455  0.870545  0.500000  1
  Li  Li4  1  0.629455  0.370545  0.000000  1
  Li  Li5  1  0.870545  0.870545  0.500000  1
  Li  Li6  1  0.129455  0.129455  0.500000  1
  Li  Li7  1  0.370545  0.629455  0.000000  1
  Li  Li8  1  0.891465  0.360047  0.563456  1
  Li  Li9  1  0.108535  0.639953  0.563456  1
  Li  Li10  1  0.139953  0.391465  0.063456  1
  Li  Li11  1  0.860047  0.608535  0.063456  1
  Li  Li12  1  0.360047  0.891465  0.436544  1
  Li  Li13  1  0.391465  0.139953  0.936544  1
  Li  Li14  1  0.608535  0.860047  0.936544  1
  Li  Li15  1  0.639953  0.108535  0.436544  1
  Li  Li16  1  0.608535  0.139953  0.936544  1
  Li  Li17  1  0.391465  0.860047  0.936544  1
  Li  Li18  1  0.360047  0.108535  0.436544  1
  Li  Li19  1  0.761536  0.238464  0.000000  1
  Li  Li20  1  0.139953  0.608535  0.063456  1
  Li  Li21  1  0.108535  0.360047  0.563456  1
  Li  Li22  1  0.891465  0.639953  0.563456  1
  Li  Li23  1  0.860047  0.391465  0.063456  1
  Li  Li24  1  0.500000  0.500000  0.500000  1
  Li  Li25  1  0.000000  0.000000  0.000000  1
  Li  Li26  1  0.500000  0.500000  0.000000  1
  Li  Li27  1  0.000000  0.000000  0.500000  1
  Li  Li28  1  0.500000  0.000000  0.905970  1
  Li  Li29  1  0.500000  0.000000  0.405970  1
  Li  Li30  1  0.000000  0.500000  0.594030  1
  Li  Li31  1  0.000000  0.500000  0.094030  1
  Li  Li32  1  0.261536  0.738464  0.500000  1
  Li  Li33  1  0.238464  0.238464  0.000000  1
  Li  Li34  1  0.761536  0.761536  0.000000  1
  Li  Li35  1  0.738464  0.261536  0.500000  1
  Li  Li36  1  0.238464  0.761536  0.000000  1
  Li  Li37  1  0.261536  0.261536  0.500000  1
  Li  Li38  1  0.738464  0.738464  0.500000  1
  Li  Li39  1  0.639953  0.891465  0.436544  1
  Tl  Tl40  1  0.227537  0.000000  0.963148  1
  Tl  Tl41  1  0.772463  0.000000  0.963148  1
  Tl  Tl42  1  0.500000  0.727537  0.463148  1
  Tl  Tl43  1  0.500000  0.272463  0.463148  1
  Tl  Tl44  1  0.000000  0.227537  0.036852  1
  Tl  Tl45  1  0.727537  0.500000  0.536852  1
  Tl  Tl46  1  0.272463  0.500000  0.536852  1
  Tl  Tl47  1  0.000000  0.772463  0.036852  1
  O  O48  1  0.260046  0.864590  0.721889  1
  O  O49  1  0.739954  0.135410  0.721889  1
  O  O50  1  0.635410  0.760046  0.221889  1
  O  O51  1  0.364590  0.239954  0.221889  1
  O  O52  1  0.864590  0.260046  0.278111  1
  O  O53  1  0.760046  0.635410  0.778111  1
  O  O54  1  0.239954  0.364590  0.778111  1
  O  O55  1  0.135410  0.739954  0.278111  1
  O  O56  1  0.239954  0.635410  0.778111  1
  O  O57  1  0.760046  0.364590  0.778111  1
  O  O58  1  0.864590  0.739954  0.278111  1
  O  O59  1  0.135410  0.260046  0.278111  1
  O  O60  1  0.635410  0.239954  0.221889  1
  O  O61  1  0.739954  0.864590  0.721889  1
  O  O62  1  0.260046  0.135410  0.721889  1
  O  O63  1  0.364590  0.760046  0.221889  1
  O  O64  1  0.114528  0.000000  0.272953  1
  O  O65  1  0.885472  0.000000  0.272953  1
  O  O66  1  0.500000  0.614528  0.772953  1
  O  O67  1  0.500000  0.385472  0.772953  1
  O  O68  1  0.000000  0.383938  0.837218  1
  O  O69  1  0.614528  0.500000  0.227047  1
  O  O70  1  0.385472  0.500000  0.227047  1
  O  O71  1  0.000000  0.885472  0.727047  1
  O  O72  1  0.616062  0.000000  0.162782  1
  O  O73  1  0.383938  0.000000  0.162782  1
  O  O74  1  0.500000  0.116062  0.662782  1
  O  O75  1  0.500000  0.883938  0.662782  1
  O  O76  1  0.000000  0.616062  0.837218  1
  O  O77  1  0.116062  0.500000  0.337218  1
  O  O78  1  0.883938  0.500000  0.337218  1
  O  O79  1  0.000000  0.114528  0.727047  1
