# generated using pymatgen
data_Nb3TeI7
_symmetry_space_group_name_H-M   'P 1'
_cell_length_a   7.73354450
_cell_length_b   7.73354450
_cell_length_c   14.88342114
_cell_angle_alpha   90.00000000
_cell_angle_beta   90.00000000
_cell_angle_gamma   120.00000000
_symmetry_Int_Tables_number   1
_chemical_formula_structural   Nb3TeI7
_chemical_formula_sum   'Nb6 Te2 I14'
_cell_volume   770.88674844
_cell_formula_units_Z   2
loop_
 _symmetry_equiv_pos_site_id
 _symmetry_equiv_pos_as_xyz
  1  'x, y, z'
loop_
 _atom_site_type_symbol
 _atom_site_label
 _atom_site_symmetry_multiplicity
 _atom_site_fract_x
 _atom_site_fract_y
 _atom_site_fract_z
 _atom_site_occupancy
  Nb  Nb0  1  0.867623  0.132377  0.249295  1
  Nb  Nb1  1  0.735245  0.867623  0.749295  1
  Nb  Nb2  1  0.132377  0.264755  0.749295  1
  Nb  Nb3  1  0.867623  0.735245  0.249295  1
  Nb  Nb4  1  0.264755  0.132377  0.249295  1
  Nb  Nb5  1  0.132377  0.867623  0.749295  1
  Te  Te6  1  0.000000  0.000000  0.109215  1
  Te  Te7  1  0.000000  0.000000  0.609215  1
  I  I8  1  0.666667  0.333333  0.347471  1
  I  I9  1  0.333333  0.666667  0.847471  1
  I  I10  1  0.167137  0.832863  0.374300  1
  I  I11  1  0.334274  0.167137  0.874300  1
  I  I12  1  0.832863  0.665726  0.874300  1
  I  I13  1  0.167137  0.334274  0.374300  1
  I  I14  1  0.665726  0.832863  0.374300  1
  I  I15  1  0.832863  0.167137  0.874300  1
  I  I16  1  0.498799  0.501201  0.145909  1
  I  I17  1  0.997598  0.498799  0.645909  1
  I  I18  1  0.501201  0.002402  0.645909  1
  I  I19  1  0.498799  0.997598  0.145909  1
  I  I20  1  0.002402  0.501201  0.145909  1
  I  I21  1  0.501201  0.498799  0.645909  1
