# generated using pymatgen
data_Na3H(SO4)2
_symmetry_space_group_name_H-M   'P 1'
_cell_length_a   8.76019215
_cell_length_b   9.78555898
_cell_length_c   9.24518608
_cell_angle_alpha   90.00000000
_cell_angle_beta   108.54570536
_cell_angle_gamma   90.00000000
_symmetry_Int_Tables_number   1
_chemical_formula_structural   Na3H(SO4)2
_chemical_formula_sum   'Na12 H4 S8 O32'
_cell_volume   751.37274949
_cell_formula_units_Z   4
loop_
 _symmetry_equiv_pos_site_id
 _symmetry_equiv_pos_as_xyz
  1  'x, y, z'
loop_
 _atom_site_type_symbol
 _atom_site_label
 _atom_site_symmetry_multiplicity
 _atom_site_fract_x
 _atom_site_fract_y
 _atom_site_fract_z
 _atom_site_occupancy
  Na  Na0  1  0.000000  0.500000  0.500000  1
  Na  Na1  1  0.000000  0.000000  0.000000  1
  Na  Na2  1  0.500000  0.000000  0.500000  1
  Na  Na3  1  0.500000  0.500000  0.000000  1
  Na  Na4  1  0.113277  0.156031  0.371664  1
  Na  Na5  1  0.886723  0.656031  0.128336  1
  Na  Na6  1  0.886723  0.843969  0.628336  1
  Na  Na7  1  0.113277  0.343969  0.871664  1
  Na  Na8  1  0.240572  0.495675  0.275027  1
  Na  Na9  1  0.759428  0.995675  0.224973  1
  Na  Na10  1  0.759428  0.504325  0.724973  1
  Na  Na11  1  0.240572  0.004325  0.775027  1
  H  H12  1  0.604632  0.263548  0.617198  1
  H  H13  1  0.395368  0.763548  0.882802  1
  H  H14  1  0.395368  0.736452  0.382802  1
  H  H15  1  0.604632  0.236452  0.117198  1
  S  S16  1  0.865213  0.180065  0.595451  1
  S  S17  1  0.134787  0.680065  0.904549  1
  S  S18  1  0.134787  0.819935  0.404549  1
  S  S19  1  0.865213  0.319935  0.095451  1
  S  S20  1  0.360850  0.308368  0.642008  1
  S  S21  1  0.639150  0.808368  0.857992  1
  S  S22  1  0.639150  0.691632  0.357992  1
  S  S23  1  0.360850  0.191632  0.142008  1
  O  O24  1  0.963845  0.093613  0.723821  1
  O  O25  1  0.036155  0.593613  0.776179  1
  O  O26  1  0.036155  0.906387  0.276179  1
  O  O27  1  0.963845  0.406387  0.223821  1
  O  O28  1  0.689621  0.163727  0.583241  1
  O  O29  1  0.310379  0.663727  0.916759  1
  O  O30  1  0.310379  0.836273  0.416759  1
  O  O31  1  0.689621  0.336273  0.083241  1
  O  O32  1  0.884976  0.134491  0.450272  1
  O  O33  1  0.115024  0.634491  0.049728  1
  O  O34  1  0.115024  0.865509  0.549728  1
  O  O35  1  0.884976  0.365509  0.950272  1
  O  O36  1  0.909944  0.326469  0.626503  1
  O  O37  1  0.090056  0.826469  0.873497  1
  O  O38  1  0.090056  0.673531  0.373497  1
  O  O39  1  0.909944  0.173531  0.126503  1
  O  O40  1  0.533788  0.151793  0.144482  1
  O  O41  1  0.466212  0.651793  0.355518  1
  O  O42  1  0.466212  0.848207  0.855518  1
  O  O43  1  0.533788  0.348207  0.644482  1
  O  O44  1  0.245842  0.124707  0.007736  1
  O  O45  1  0.754158  0.624707  0.492264  1
  O  O46  1  0.754158  0.875293  0.992264  1
  O  O47  1  0.245842  0.375293  0.507736  1
  O  O48  1  0.346112  0.342520  0.126182  1
  O  O49  1  0.653888  0.842520  0.373818  1
  O  O50  1  0.653888  0.657480  0.873818  1
  O  O51  1  0.346112  0.157480  0.626182  1
  O  O52  1  0.342679  0.142394  0.285285  1
  O  O53  1  0.657321  0.642394  0.214715  1
  O  O54  1  0.657321  0.857606  0.714715  1
  O  O55  1  0.342679  0.357606  0.785285  1
