# generated using pymatgen
data_AsCl3O
_symmetry_space_group_name_H-M   'P 1'
_cell_length_a   8.51237172
_cell_length_b   6.70106324
_cell_length_c   10.92701741
_cell_angle_alpha   90.00000000
_cell_angle_beta   111.80928029
_cell_angle_gamma   90.00000000
_symmetry_Int_Tables_number   1
_chemical_formula_structural   AsCl3O
_chemical_formula_sum   'As4 Cl12 O4'
_cell_volume   578.68612364
_cell_formula_units_Z   4
loop_
 _symmetry_equiv_pos_site_id
 _symmetry_equiv_pos_as_xyz
  1  'x, y, z'
loop_
 _atom_site_type_symbol
 _atom_site_label
 _atom_site_symmetry_multiplicity
 _atom_site_fract_x
 _atom_site_fract_y
 _atom_site_fract_z
 _atom_site_occupancy
  As  As0  1  0.654866  0.554820  0.990989  1
  As  As1  1  0.345134  0.054820  0.509011  1
  As  As2  1  0.345134  0.445180  0.009011  1
  As  As3  1  0.654866  0.945180  0.490989  1
  Cl  Cl4  1  0.658729  0.035521  0.302590  1
  Cl  Cl5  1  0.341271  0.535521  0.197410  1
  Cl  Cl6  1  0.341271  0.964479  0.697410  1
  Cl  Cl7  1  0.658729  0.464479  0.802590  1
  Cl  Cl8  1  0.864438  0.068977  0.654500  1
  Cl  Cl9  1  0.135562  0.568977  0.845500  1
  Cl  Cl10  1  0.135562  0.931023  0.345500  1
  Cl  Cl11  1  0.864438  0.431023  0.154500  1
  Cl  Cl12  1  0.781767  0.654733  0.495027  1
  Cl  Cl13  1  0.218233  0.154733  0.004973  1
  Cl  Cl14  1  0.218233  0.345267  0.504973  1
  Cl  Cl15  1  0.781767  0.845267  0.995027  1
  O  O16  1  0.478917  0.676998  0.006795  1
  O  O17  1  0.521083  0.176998  0.493205  1
  O  O18  1  0.521083  0.323002  0.993205  1
  O  O19  1  0.478917  0.823002  0.506795  1
