# generated using pymatgen
data_NdH5(SeO4)2
_symmetry_space_group_name_H-M   'P 1'
_cell_length_a   6.85870471
_cell_length_b   7.18769104
_cell_length_c   16.43042636
_cell_angle_alpha   90.00000000
_cell_angle_beta   90.00000000
_cell_angle_gamma   90.00000000
_symmetry_Int_Tables_number   1
_chemical_formula_structural   NdH5(SeO4)2
_chemical_formula_sum   'Nd4 H20 Se8 O32'
_cell_volume   809.99127271
_cell_formula_units_Z   4
loop_
 _symmetry_equiv_pos_site_id
 _symmetry_equiv_pos_as_xyz
  1  'x, y, z'
loop_
 _atom_site_type_symbol
 _atom_site_label
 _atom_site_symmetry_multiplicity
 _atom_site_fract_x
 _atom_site_fract_y
 _atom_site_fract_z
 _atom_site_occupancy
  Nd  Nd0  1  0.372387  0.619105  0.785332  1
  Nd  Nd1  1  0.872387  0.880895  0.214668  1
  Nd  Nd2  1  0.627613  0.119105  0.714668  1
  Nd  Nd3  1  0.127613  0.380895  0.285332  1
  H  H4  1  0.058463  0.243457  0.604619  1
  H  H5  1  0.558463  0.256543  0.395381  1
  H  H6  1  0.941537  0.743457  0.895381  1
  H  H7  1  0.441537  0.756543  0.104619  1
  H  H8  1  0.176866  0.416693  0.575098  1
  H  H9  1  0.676866  0.083307  0.424902  1
  H  H10  1  0.823134  0.916693  0.924902  1
  H  H11  1  0.323134  0.583307  0.075098  1
  H  H12  1  0.400966  0.771195  0.963060  1
  H  H13  1  0.900966  0.728805  0.036940  1
  H  H14  1  0.599034  0.271195  0.536940  1
  H  H15  1  0.099034  0.228805  0.463060  1
  H  H16  1  0.482024  0.929684  0.900958  1
  H  H17  1  0.982024  0.570316  0.099042  1
  H  H18  1  0.517976  0.429684  0.599042  1
  H  H19  1  0.017976  0.070316  0.400958  1
  H  H20  1  0.702482  0.175912  0.047189  1
  H  H21  1  0.202482  0.324088  0.952811  1
  H  H22  1  0.297518  0.675912  0.452811  1
  H  H23  1  0.797518  0.824088  0.547189  1
  Se  Se24  1  0.631955  0.318641  0.924296  1
  Se  Se25  1  0.131955  0.181359  0.075704  1
  Se  Se26  1  0.368045  0.818641  0.575704  1
  Se  Se27  1  0.868045  0.681359  0.424296  1
  Se  Se28  1  0.841240  0.621010  0.728700  1
  Se  Se29  1  0.341240  0.878990  0.271300  1
  Se  Se30  1  0.158760  0.121010  0.771300  1
  Se  Se31  1  0.658760  0.378990  0.228700  1
  O  O32  1  0.091636  0.316724  0.555834  1
  O  O33  1  0.591636  0.183276  0.444166  1
  O  O34  1  0.908364  0.816724  0.944166  1
  O  O35  1  0.408364  0.683276  0.055834  1
  O  O36  1  0.399041  0.817245  0.905215  1
  O  O37  1  0.899041  0.682755  0.094785  1
  O  O38  1  0.600959  0.317245  0.594785  1
  O  O39  1  0.100959  0.182755  0.405215  1
  O  O40  1  0.575065  0.215672  0.021362  1
  O  O41  1  0.075065  0.284328  0.978638  1
  O  O42  1  0.424935  0.715672  0.478638  1
  O  O43  1  0.924935  0.784328  0.521362  1
  O  O44  1  0.639880  0.117822  0.866495  1
  O  O45  1  0.139880  0.382178  0.133505  1
  O  O46  1  0.360120  0.617822  0.633505  1
  O  O47  1  0.860120  0.882178  0.366495  1
  O  O48  1  0.404516  0.406347  0.905349  1
  O  O49  1  0.904516  0.093653  0.094651  1
  O  O50  1  0.595484  0.906347  0.594651  1
  O  O51  1  0.095484  0.593653  0.405349  1
  O  O52  1  0.687588  0.443307  0.762808  1
  O  O53  1  0.187588  0.056693  0.237192  1
  O  O54  1  0.312412  0.943307  0.737192  1
  O  O55  1  0.812412  0.556693  0.262808  1
  O  O56  1  0.023701  0.622979  0.800202  1
  O  O57  1  0.523701  0.877021  0.199798  1
  O  O58  1  0.976299  0.122979  0.699798  1
  O  O59  1  0.476299  0.377021  0.300202  1
  O  O60  1  0.689705  0.797470  0.762758  1
  O  O61  1  0.189705  0.702530  0.237242  1
  O  O62  1  0.310295  0.297470  0.737242  1
  O  O63  1  0.810295  0.202530  0.262758  1
