# generated using pymatgen
data_KMgCl3
_symmetry_space_group_name_H-M   'P 1'
_cell_length_a   7.02985031
_cell_length_b   7.07532193
_cell_length_c   10.03169430
_cell_angle_alpha   90.00000000
_cell_angle_beta   90.00000000
_cell_angle_gamma   90.00000000
_symmetry_Int_Tables_number   1
_chemical_formula_structural   KMgCl3
_chemical_formula_sum   'K4 Mg4 Cl12'
_cell_volume   498.96096611
_cell_formula_units_Z   4
loop_
 _symmetry_equiv_pos_site_id
 _symmetry_equiv_pos_as_xyz
  1  'x, y, z'
loop_
 _atom_site_type_symbol
 _atom_site_label
 _atom_site_symmetry_multiplicity
 _atom_site_fract_x
 _atom_site_fract_y
 _atom_site_fract_z
 _atom_site_occupancy
  K  K0  1  0.006702  0.966836  0.750000  1
  K  K1  1  0.506702  0.533164  0.250000  1
  K  K2  1  0.493298  0.466836  0.750000  1
  K  K3  1  0.993298  0.033164  0.250000  1
  Mg  Mg4  1  0.500000  0.000000  0.500000  1
  Mg  Mg5  1  0.000000  0.500000  0.500000  1
  Mg  Mg6  1  0.000000  0.500000  0.000000  1
  Mg  Mg7  1  0.500000  0.000000  0.000000  1
  Cl  Cl8  1  0.287207  0.713283  0.974256  1
  Cl  Cl9  1  0.787207  0.786717  0.025744  1
  Cl  Cl10  1  0.212793  0.213283  0.525744  1
  Cl  Cl11  1  0.712793  0.286717  0.474256  1
  Cl  Cl12  1  0.050852  0.493272  0.250000  1
  Cl  Cl13  1  0.550852  0.006728  0.750000  1
  Cl  Cl14  1  0.449148  0.993272  0.250000  1
  Cl  Cl15  1  0.949148  0.506728  0.750000  1
  Cl  Cl16  1  0.712793  0.286717  0.025744  1
  Cl  Cl17  1  0.212793  0.213283  0.974256  1
  Cl  Cl18  1  0.787207  0.786717  0.474256  1
  Cl  Cl19  1  0.287207  0.713283  0.525744  1
