# generated using pymatgen
data_GaTeI7
_symmetry_space_group_name_H-M   'P 1'
_cell_length_a   7.70189548
_cell_length_b   7.43582171
_cell_length_c   16.97928684
_cell_angle_alpha   90.00000000
_cell_angle_beta   104.78467847
_cell_angle_gamma   90.00000000
_symmetry_Int_Tables_number   1
_chemical_formula_structural   GaTeI7
_chemical_formula_sum   'Ga2 Te2 I14'
_cell_volume   940.20780008
_cell_formula_units_Z   2
loop_
 _symmetry_equiv_pos_site_id
 _symmetry_equiv_pos_as_xyz
  1  'x, y, z'
loop_
 _atom_site_type_symbol
 _atom_site_label
 _atom_site_symmetry_multiplicity
 _atom_site_fract_x
 _atom_site_fract_y
 _atom_site_fract_z
 _atom_site_occupancy
  Ga  Ga0  1  0.287449  0.496017  0.807228  1
  Ga  Ga1  1  0.287449  0.503983  0.307228  1
  Te  Te2  1  0.003164  0.097755  0.654487  1
  Te  Te3  1  0.003164  0.902245  0.154487  1
  I  I4  1  0.312477  0.840456  0.815425  1
  I  I5  1  0.312477  0.159544  0.315425  1
  I  I6  1  0.513437  0.352951  0.931650  1
  I  I7  1  0.513437  0.647049  0.431650  1
  I  I8  1  0.355411  0.373991  0.673832  1
  I  I9  1  0.355411  0.626009  0.173832  1
  I  I10  1  0.969268  0.374803  0.807103  1
  I  I11  1  0.969268  0.625197  0.307103  1
  I  I12  1  0.784067  0.333717  0.543969  1
  I  I13  1  0.784067  0.666283  0.043969  1
  I  I14  1  0.727011  0.886268  0.681005  1
  I  I15  1  0.727011  0.113732  0.181005  1
  I  I16  1  0.114017  0.889046  0.541251  1
  I  I17  1  0.114017  0.110954  0.041251  1
