# generated using pymatgen
data_Rb3BS3
_symmetry_space_group_name_H-M   'P 1'
_cell_length_a   10.53230069
_cell_length_b   6.46961821
_cell_length_c   13.24064812
_cell_angle_alpha   90.00000000
_cell_angle_beta   104.52650047
_cell_angle_gamma   90.00000000
_symmetry_Int_Tables_number   1
_chemical_formula_structural   Rb3BS3
_chemical_formula_sum   'Rb12 B4 S12'
_cell_volume   873.37496556
_cell_formula_units_Z   4
loop_
 _symmetry_equiv_pos_site_id
 _symmetry_equiv_pos_as_xyz
  1  'x, y, z'
loop_
 _atom_site_type_symbol
 _atom_site_label
 _atom_site_symmetry_multiplicity
 _atom_site_fract_x
 _atom_site_fract_y
 _atom_site_fract_z
 _atom_site_occupancy
  Rb  Rb0  1  0.252056  0.643087  0.491992  1
  Rb  Rb1  1  0.747944  0.143087  0.008008  1
  Rb  Rb2  1  0.747944  0.356913  0.508008  1
  Rb  Rb3  1  0.252056  0.856913  0.991992  1
  Rb  Rb4  1  0.027706  0.286097  0.858874  1
  Rb  Rb5  1  0.972294  0.786097  0.641126  1
  Rb  Rb6  1  0.972294  0.713903  0.141126  1
  Rb  Rb7  1  0.027706  0.213903  0.358874  1
  Rb  Rb8  1  0.405122  0.437621  0.804244  1
  Rb  Rb9  1  0.594878  0.937621  0.695756  1
  Rb  Rb10  1  0.594878  0.562379  0.195756  1
  Rb  Rb11  1  0.405122  0.062379  0.304244  1
  B  B12  1  0.234139  0.117033  0.627735  1
  B  B13  1  0.765861  0.617033  0.872265  1
  B  B14  1  0.765861  0.882967  0.372265  1
  B  B15  1  0.234139  0.382967  0.127735  1
  S  S16  1  0.285685  0.924352  0.732725  1
  S  S17  1  0.714315  0.424352  0.767275  1
  S  S18  1  0.714315  0.075648  0.267275  1
  S  S19  1  0.285685  0.575648  0.232725  1
  S  S20  1  0.091095  0.284521  0.622174  1
  S  S21  1  0.908905  0.784521  0.877826  1
  S  S22  1  0.908905  0.715479  0.377826  1
  S  S23  1  0.091095  0.215479  0.122174  1
  S  S24  1  0.330256  0.353049  0.030435  1
  S  S25  1  0.669744  0.853049  0.469565  1
  S  S26  1  0.669744  0.646951  0.969565  1
  S  S27  1  0.330256  0.146951  0.530435  1
