# generated using pymatgen
data_Ba(NO2)2
_symmetry_space_group_name_H-M   'P 1'
_cell_length_a   6.89855058
_cell_length_b   7.83048719
_cell_length_c   8.46659344
_cell_angle_alpha   90.00000000
_cell_angle_beta   90.00000000
_cell_angle_gamma   90.00000000
_symmetry_Int_Tables_number   1
_chemical_formula_structural   Ba(NO2)2
_chemical_formula_sum   'Ba4 N8 O16'
_cell_volume   457.35701218
_cell_formula_units_Z   4
loop_
 _symmetry_equiv_pos_site_id
 _symmetry_equiv_pos_as_xyz
  1  'x, y, z'
loop_
 _atom_site_type_symbol
 _atom_site_label
 _atom_site_symmetry_multiplicity
 _atom_site_fract_x
 _atom_site_fract_y
 _atom_site_fract_z
 _atom_site_occupancy
  Ba  Ba0  1  0.392556  0.540324  0.039092  1
  Ba  Ba1  1  0.892556  0.959676  0.960908  1
  Ba  Ba2  1  0.607444  0.040324  0.460908  1
  Ba  Ba3  1  0.107444  0.459676  0.539092  1
  N  N4  1  0.493117  0.722513  0.726091  1
  N  N5  1  0.993117  0.777487  0.273909  1
  N  N6  1  0.506883  0.222513  0.773909  1
  N  N7  1  0.006883  0.277487  0.226091  1
  N  N8  1  0.894720  0.533797  0.865817  1
  N  N9  1  0.394720  0.966203  0.134183  1
  N  N10  1  0.105280  0.033797  0.634183  1
  N  N11  1  0.605280  0.466203  0.365817  1
  O  O12  1  0.371502  0.333956  0.767583  1
  O  O13  1  0.871502  0.166044  0.232417  1
  O  O14  1  0.628498  0.833956  0.732417  1
  O  O15  1  0.128498  0.666044  0.267583  1
  O  O16  1  0.050640  0.621265  0.840800  1
  O  O17  1  0.550640  0.878735  0.159200  1
  O  O18  1  0.949360  0.121265  0.659200  1
  O  O19  1  0.449360  0.378735  0.340800  1
  O  O20  1  0.709305  0.408550  0.475541  1
  O  O21  1  0.209305  0.091450  0.524459  1
  O  O22  1  0.290695  0.908550  0.024459  1
  O  O23  1  0.790695  0.591450  0.975541  1
  O  O24  1  0.407173  0.714324  0.594507  1
  O  O25  1  0.907173  0.785676  0.405493  1
  O  O26  1  0.592827  0.214324  0.905493  1
  O  O27  1  0.092827  0.285676  0.094507  1
