# generated using pymatgen
data_CaB8H4O15
_symmetry_space_group_name_H-M   'P 1'
_cell_length_a   7.59770862
_cell_length_b   8.40780373
_cell_length_c   9.83220042
_cell_angle_alpha   90.00000000
_cell_angle_beta   108.01644688
_cell_angle_gamma   90.00000000
_symmetry_Int_Tables_number   1
_chemical_formula_structural   CaB8H4O15
_chemical_formula_sum   'Ca2 B16 H8 O30'
_cell_volume   597.28515543
_cell_formula_units_Z   2
loop_
 _symmetry_equiv_pos_site_id
 _symmetry_equiv_pos_as_xyz
  1  'x, y, z'
loop_
 _atom_site_type_symbol
 _atom_site_label
 _atom_site_symmetry_multiplicity
 _atom_site_fract_x
 _atom_site_fract_y
 _atom_site_fract_z
 _atom_site_occupancy
  Ca  Ca0  1  0.107234  0.099955  0.280590  1
  Ca  Ca1  1  0.892766  0.599955  0.719410  1
  B  B2  1  0.587558  0.127645  0.522771  1
  B  B3  1  0.125908  0.724114  0.281638  1
  B  B4  1  0.033984  0.764026  0.018692  1
  B  B5  1  0.966016  0.264026  0.981308  1
  B  B6  1  0.874092  0.224114  0.718362  1
  B  B7  1  0.412442  0.627645  0.477229  1
  B  B8  1  0.615901  0.520986  0.150643  1
  B  B9  1  0.384099  0.020986  0.849357  1
  B  B10  1  0.403813  0.614752  0.729402  1
  B  B11  1  0.596187  0.114752  0.270598  1
  B  B12  1  0.915903  0.513856  0.096205  1
  B  B13  1  0.084097  0.013856  0.903795  1
  B  B14  1  0.910339  0.516308  0.357353  1
  B  B15  1  0.089661  0.016308  0.642647  1
  B  B16  1  0.014975  0.774213  0.487432  1
  B  B17  1  0.985025  0.274213  0.512568  1
  H  H18  1  0.625797  0.070950  0.822943  1
  H  H19  1  0.374203  0.570950  0.177057  1
  H  H20  1  0.671547  0.072084  0.093759  1
  H  H21  1  0.328453  0.572084  0.906241  1
  H  H22  1  0.366793  0.082701  0.103539  1
  H  H23  1  0.633207  0.582701  0.896461  1
  H  H24  1  0.368472  0.055246  0.575069  1
  H  H25  1  0.631528  0.555246  0.424931  1
  O  O26  1  0.014198  0.087551  0.755666  1
  O  O27  1  0.080150  0.833313  0.381510  1
  O  O28  1  0.275701  0.586190  0.801153  1
  O  O29  1  0.109560  0.820799  0.154947  1
  O  O30  1  0.014354  0.851832  0.897815  1
  O  O31  1  0.985646  0.351832  0.102185  1
  O  O32  1  0.919850  0.333313  0.618490  1
  O  O33  1  0.724299  0.086190  0.198847  1
  O  O34  1  0.687148  0.156186  0.662845  1
  O  O35  1  0.312852  0.656186  0.337155  1
  O  O36  1  0.004154  0.860961  0.602284  1
  O  O37  1  0.995846  0.360961  0.397716  1
  O  O38  1  0.706114  0.503503  0.293785  1
  O  O39  1  0.293886  0.003503  0.706215  1
  O  O40  1  0.710712  0.516221  0.052664  1
  O  O41  1  0.289288  0.016221  0.947336  1
  O  O42  1  0.668559  0.142510  0.415444  1
  O  O43  1  0.331441  0.642510  0.584556  1
  O  O44  1  0.594646  0.579933  0.512489  1
  O  O45  1  0.405354  0.079933  0.487511  1
  O  O46  1  0.427112  0.545875  0.099432  1
  O  O47  1  0.572888  0.045875  0.900568  1
  O  O48  1  0.592410  0.617977  0.792968  1
  O  O49  1  0.407590  0.117977  0.207032  1
  O  O50  1  0.056052  0.122768  0.520428  1
  O  O51  1  0.943948  0.622768  0.479572  1
  O  O52  1  0.027560  0.109506  0.006775  1
  O  O53  1  0.972440  0.609506  0.993225  1
  O  O54  1  0.890440  0.320799  0.845053  1
  O  O55  1  0.985802  0.587551  0.244334  1
