# generated using pymatgen
data_KHSeO3
_symmetry_space_group_name_H-M   'P 1'
_cell_length_a   5.20416070
_cell_length_b   5.85244955
_cell_length_c   6.82114040
_cell_angle_alpha   109.06023378
_cell_angle_beta   107.93427095
_cell_angle_gamma   91.28789911
_symmetry_Int_Tables_number   1
_chemical_formula_structural   KHSeO3
_chemical_formula_sum   'K2 H2 Se2 O6'
_cell_volume   185.06425451
_cell_formula_units_Z   2
loop_
 _symmetry_equiv_pos_site_id
 _symmetry_equiv_pos_as_xyz
  1  'x, y, z'
loop_
 _atom_site_type_symbol
 _atom_site_label
 _atom_site_symmetry_multiplicity
 _atom_site_fract_x
 _atom_site_fract_y
 _atom_site_fract_z
 _atom_site_occupancy
  K  K0  1  0.362873  0.643222  0.225888  1
  K  K1  1  0.637127  0.356778  0.774112  1
  H  H2  1  0.258010  0.100957  0.047408  1
  H  H3  1  0.741990  0.899043  0.952592  1
  Se  Se4  1  0.948581  0.178479  0.321956  1
  Se  Se5  1  0.051419  0.821521  0.678044  1
  O  O6  1  0.237893  0.107364  0.896758  1
  O  O7  1  0.762107  0.892636  0.103242  1
  O  O8  1  0.848815  0.398549  0.216722  1
  O  O9  1  0.151185  0.601451  0.783278  1
  O  O10  1  0.272949  0.152611  0.314040  1
  O  O11  1  0.727051  0.847389  0.685960  1
