# generated using pymatgen
data_K2Sb4O11
_symmetry_space_group_name_H-M   'P 1'
_cell_length_a   10.61070400
_cell_length_b   10.61070400
_cell_length_c   7.29153118
_cell_angle_alpha   85.19342088
_cell_angle_beta   94.80657912
_cell_angle_gamma   137.62132879
_symmetry_Int_Tables_number   1
_chemical_formula_structural   K2Sb4O11
_chemical_formula_sum   'K4 Sb8 O22'
_cell_volume   551.09167902
_cell_formula_units_Z   2
loop_
 _symmetry_equiv_pos_site_id
 _symmetry_equiv_pos_as_xyz
  1  'x, y, z'
loop_
 _atom_site_type_symbol
 _atom_site_label
 _atom_site_symmetry_multiplicity
 _atom_site_fract_x
 _atom_site_fract_y
 _atom_site_fract_z
 _atom_site_occupancy
  K  K0  1  0.760164  0.239836  0.996998  1
  K  K1  1  0.239836  0.760164  0.003002  1
  K  K2  1  0.989245  0.010755  0.738900  1
  K  K3  1  0.010755  0.989245  0.261100  1
  Sb  Sb4  1  0.428237  0.571763  0.903028  1
  Sb  Sb5  1  0.571763  0.428237  0.096972  1
  Sb  Sb6  1  0.424108  0.575892  0.383661  1
  Sb  Sb7  1  0.575892  0.424108  0.616339  1
  Sb  Sb8  1  0.583116  0.932189  0.565020  1
  Sb  Sb9  1  0.932189  0.583116  0.434980  1
  Sb  Sb10  1  0.416884  0.067811  0.434980  1
  Sb  Sb11  1  0.067811  0.416884  0.565020  1
  O  O12  1  0.172476  0.431535  0.813240  1
  O  O13  1  0.431535  0.172476  0.186760  1
  O  O14  1  0.827524  0.568465  0.186760  1
  O  O15  1  0.568465  0.827524  0.813240  1
  O  O16  1  0.025420  0.553250  0.667860  1
  O  O17  1  0.553250  0.025420  0.332140  1
  O  O18  1  0.974580  0.446750  0.332140  1
  O  O19  1  0.446750  0.974580  0.667860  1
  O  O20  1  0.844344  0.668100  0.568657  1
  O  O21  1  0.668100  0.844344  0.431343  1
  O  O22  1  0.155656  0.331900  0.431343  1
  O  O23  1  0.331900  0.155656  0.568657  1
  O  O24  1  0.672552  0.672552  0.000000  1
  O  O25  1  0.327448  0.327448  0.000000  1
  O  O26  1  0.839818  0.160182  0.649350  1
  O  O27  1  0.160182  0.839818  0.350650  1
  O  O28  1  0.618612  0.381388  0.867187  1
  O  O29  1  0.381388  0.618612  0.132813  1
  O  O30  1  0.666878  0.333122  0.509962  1
  O  O31  1  0.333122  0.666878  0.490038  1
  O  O32  1  0.476582  0.523418  0.655018  1
  O  O33  1  0.523418  0.476582  0.344982  1
