# generated using pymatgen
data_Tb(AlCl4)3
_symmetry_space_group_name_H-M   'P 1'
_cell_length_a   10.84032475
_cell_length_b   10.84032475
_cell_length_c   16.04380664
_cell_angle_alpha   90.00000000
_cell_angle_beta   90.00000000
_cell_angle_gamma   120.00000000
_symmetry_Int_Tables_number   1
_chemical_formula_structural   Tb(AlCl4)3
_chemical_formula_sum   'Tb3 Al9 Cl36'
_cell_volume   1632.76106835
_cell_formula_units_Z   3
loop_
 _symmetry_equiv_pos_site_id
 _symmetry_equiv_pos_as_xyz
  1  'x, y, z'
loop_
 _atom_site_type_symbol
 _atom_site_label
 _atom_site_symmetry_multiplicity
 _atom_site_fract_x
 _atom_site_fract_y
 _atom_site_fract_z
 _atom_site_occupancy
  Tb  Tb0  1  0.657432  0.828716  0.000000  1
  Tb  Tb1  1  0.171284  0.342568  0.666667  1
  Tb  Tb2  1  0.171284  0.828716  0.333333  1
  Al  Al3  1  0.398538  0.601462  0.833333  1
  Al  Al4  1  0.795095  0.096685  0.603472  1
  Al  Al5  1  0.903315  0.698410  0.936806  1
  Al  Al6  1  0.301590  0.204905  0.270139  1
  Al  Al7  1  0.398538  0.797076  0.166667  1
  Al  Al8  1  0.202924  0.601462  0.500000  1
  Al  Al9  1  0.795095  0.698410  0.396528  1
  Al  Al10  1  0.301590  0.096685  0.729861  1
  Al  Al11  1  0.903315  0.204905  0.063194  1
  Cl  Cl12  1  0.675251  0.174953  0.544400  1
  Cl  Cl13  1  0.499703  0.324749  0.211067  1
  Cl  Cl14  1  0.825047  0.500297  0.877733  1
  Cl  Cl15  1  0.457777  0.924334  0.279257  1
  Cl  Cl16  1  0.075666  0.533442  0.612591  1
  Cl  Cl17  1  0.466558  0.542223  0.945924  1
  Cl  Cl18  1  0.075666  0.542223  0.387409  1
  Cl  Cl19  1  0.466558  0.924334  0.054076  1
  Cl  Cl20  1  0.457777  0.533442  0.720743  1
  Cl  Cl21  1  0.892410  0.678771  0.278305  1
  Cl  Cl22  1  0.321229  0.213639  0.611638  1
  Cl  Cl23  1  0.786361  0.107590  0.944972  1
  Cl  Cl24  1  0.321229  0.107590  0.388362  1
  Cl  Cl25  1  0.786361  0.678771  0.055028  1
  Cl  Cl26  1  0.892410  0.213639  0.721695  1
  Cl  Cl27  1  0.170658  0.996297  0.205151  1
  Cl  Cl28  1  0.003703  0.174361  0.538485  1
  Cl  Cl29  1  0.825639  0.829342  0.871818  1
  Cl  Cl30  1  0.003703  0.829342  0.461515  1
  Cl  Cl31  1  0.825639  0.996297  0.128182  1
  Cl  Cl32  1  0.170658  0.174361  0.794849  1
  Cl  Cl33  1  0.327555  0.829108  0.482123  1
  Cl  Cl34  1  0.170892  0.498447  0.815456  1
  Cl  Cl35  1  0.501553  0.672445  0.148790  1
  Cl  Cl36  1  0.170892  0.672445  0.184544  1
  Cl  Cl37  1  0.501553  0.829108  0.851210  1
  Cl  Cl38  1  0.327555  0.498447  0.517877  1
  Cl  Cl39  1  0.696689  0.821209  0.375963  1
  Cl  Cl40  1  0.178791  0.875480  0.709296  1
  Cl  Cl41  1  0.124520  0.303311  0.042630  1
  Cl  Cl42  1  0.178791  0.303311  0.290704  1
  Cl  Cl43  1  0.124520  0.821209  0.957370  1
  Cl  Cl44  1  0.696689  0.875480  0.624037  1
  Cl  Cl45  1  0.675251  0.500297  0.455600  1
  Cl  Cl46  1  0.499703  0.174953  0.788933  1
  Cl  Cl47  1  0.825047  0.324749  0.122267  1
