# generated using pymatgen
data_NaSbF4
_symmetry_space_group_name_H-M   'P 1'
_cell_length_a   8.16203666
_cell_length_b   5.70780842
_cell_length_c   8.63544452
_cell_angle_alpha   90.00000000
_cell_angle_beta   90.57707322
_cell_angle_gamma   90.00000000
_symmetry_Int_Tables_number   1
_chemical_formula_structural   NaSbF4
_chemical_formula_sum   'Na4 Sb4 F16'
_cell_volume   402.28199879
_cell_formula_units_Z   4
loop_
 _symmetry_equiv_pos_site_id
 _symmetry_equiv_pos_as_xyz
  1  'x, y, z'
loop_
 _atom_site_type_symbol
 _atom_site_label
 _atom_site_symmetry_multiplicity
 _atom_site_fract_x
 _atom_site_fract_y
 _atom_site_fract_z
 _atom_site_occupancy
  Na  Na0  1  0.855603  0.790143  0.165262  1
  Na  Na1  1  0.144397  0.290143  0.334738  1
  Na  Na2  1  0.855603  0.709857  0.665262  1
  Na  Na3  1  0.144397  0.209857  0.834738  1
  Sb  Sb4  1  0.670214  0.289956  0.350179  1
  Sb  Sb5  1  0.329786  0.789956  0.149821  1
  Sb  Sb6  1  0.329786  0.710044  0.649821  1
  Sb  Sb7  1  0.670214  0.210044  0.850179  1
  F  F8  1  0.818595  0.572758  0.412756  1
  F  F9  1  0.112715  0.624133  0.174074  1
  F  F10  1  0.401246  0.004449  0.795091  1
  F  F11  1  0.818595  0.927242  0.912756  1
  F  F12  1  0.112715  0.875867  0.674073  1
  F  F13  1  0.598754  0.995551  0.204909  1
  F  F14  1  0.181405  0.427242  0.587244  1
  F  F15  1  0.708522  0.435270  0.142454  1
  F  F16  1  0.708522  0.064730  0.642454  1
  F  F17  1  0.598754  0.504449  0.704909  1
  F  F18  1  0.887285  0.124133  0.325926  1
  F  F19  1  0.291478  0.935270  0.357546  1
  F  F20  1  0.401246  0.495551  0.295091  1
  F  F21  1  0.181405  0.072758  0.087244  1
  F  F22  1  0.887285  0.375867  0.825926  1
  F  F23  1  0.291478  0.564730  0.857546  1
