# generated using pymatgen
data_P4SeO7
_symmetry_space_group_name_H-M   'P 1'
_cell_length_a   7.20951636
_cell_length_b   7.44262693
_cell_length_c   8.69346043
_cell_angle_alpha   93.86533589
_cell_angle_beta   103.88702679
_cell_angle_gamma   95.23449008
_symmetry_Int_Tables_number   1
_chemical_formula_structural   P4SeO7
_chemical_formula_sum   'P8 Se2 O14'
_cell_volume   449.01996320
_cell_formula_units_Z   2
loop_
 _symmetry_equiv_pos_site_id
 _symmetry_equiv_pos_as_xyz
  1  'x, y, z'
loop_
 _atom_site_type_symbol
 _atom_site_label
 _atom_site_symmetry_multiplicity
 _atom_site_fract_x
 _atom_site_fract_y
 _atom_site_fract_z
 _atom_site_occupancy
  P  P0  1  0.392599  0.730811  0.232296  1
  P  P1  1  0.607401  0.269189  0.767704  1
  P  P2  1  0.707254  0.017378  0.356313  1
  P  P3  1  0.292746  0.982622  0.643687  1
  P  P4  1  0.739082  0.756635  0.109070  1
  P  P5  1  0.260918  0.243365  0.890930  1
  P  P6  1  0.768166  0.648757  0.432026  1
  P  P7  1  0.231834  0.351243  0.567974  1
  Se  Se8  1  0.843351  0.722552  0.911656  1
  Se  Se9  1  0.156649  0.277448  0.088344  1
  O  O10  1  0.777843  0.964892  0.196950  1
  O  O11  1  0.222157  0.035108  0.803050  1
  O  O12  1  0.482777  0.947201  0.306274  1
  O  O13  1  0.517223  0.052799  0.693726  1
  O  O14  1  0.508978  0.713580  0.085104  1
  O  O15  1  0.491022  0.286420  0.914896  1
  O  O16  1  0.755472  0.208095  0.417262  1
  O  O17  1  0.244528  0.791905  0.582738  1
  O  O18  1  0.799695  0.876699  0.475980  1
  O  O19  1  0.200305  0.123301  0.524020  1
  O  O20  1  0.171851  0.358162  0.744056  1
  O  O21  1  0.828149  0.641838  0.255944  1
  O  O22  1  0.468883  0.378471  0.633854  1
  O  O23  1  0.531117  0.621529  0.366146  1
