# generated using pymatgen
data_P3Ru
_symmetry_space_group_name_H-M   'P 1'
_cell_length_a   5.92414972
_cell_length_b   5.97685980
_cell_length_c   8.14607554
_cell_angle_alpha   68.67570281
_cell_angle_beta   70.24705612
_cell_angle_gamma   72.60187283
_symmetry_Int_Tables_number   1
_chemical_formula_structural   P3Ru
_chemical_formula_sum   'P12 Ru4'
_cell_volume   247.72338351
_cell_formula_units_Z   4
loop_
 _symmetry_equiv_pos_site_id
 _symmetry_equiv_pos_as_xyz
  1  'x, y, z'
loop_
 _atom_site_type_symbol
 _atom_site_label
 _atom_site_symmetry_multiplicity
 _atom_site_fract_x
 _atom_site_fract_y
 _atom_site_fract_z
 _atom_site_occupancy
  P  P0  1  0.829555  0.082309  0.318714  1
  P  P1  1  0.170445  0.917691  0.681286  1
  P  P2  1  0.193008  0.528609  0.447757  1
  P  P3  1  0.806992  0.471391  0.552243  1
  P  P4  1  0.339808  0.217432  0.657638  1
  P  P5  1  0.660192  0.782568  0.342362  1
  P  P6  1  0.678083  0.663663  0.765571  1
  P  P7  1  0.321917  0.336337  0.234429  1
  P  P8  1  0.682080  0.052780  0.941054  1
  P  P9  1  0.317920  0.947220  0.058946  1
  P  P10  1  0.152360  0.317087  0.914728  1
  P  P11  1  0.847640  0.682913  0.085272  1
  Ru  Ru12  1  0.276888  0.633939  0.955976  1
  Ru  Ru13  1  0.723112  0.366061  0.044024  1
  Ru  Ru14  1  0.227644  0.930546  0.371962  1
  Ru  Ru15  1  0.772356  0.069454  0.628038  1
