# generated using pymatgen
data_BeH8(ClO2)2
_symmetry_space_group_name_H-M   'P 1'
_cell_length_a   6.66342449
_cell_length_b   13.12322438
_cell_length_c   7.93286791
_cell_angle_alpha   90.00000000
_cell_angle_beta   104.00928497
_cell_angle_gamma   90.00000000
_symmetry_Int_Tables_number   1
_chemical_formula_structural   BeH8(ClO2)2
_chemical_formula_sum   'Be4 H32 Cl8 O16'
_cell_volume   673.06161415
_cell_formula_units_Z   4
loop_
 _symmetry_equiv_pos_site_id
 _symmetry_equiv_pos_as_xyz
  1  'x, y, z'
loop_
 _atom_site_type_symbol
 _atom_site_label
 _atom_site_symmetry_multiplicity
 _atom_site_fract_x
 _atom_site_fract_y
 _atom_site_fract_z
 _atom_site_occupancy
  Be  Be0  1  0.686286  0.907655  0.263602  1
  Be  Be1  1  0.313714  0.407655  0.236398  1
  Be  Be2  1  0.313714  0.092345  0.736398  1
  Be  Be3  1  0.686286  0.592345  0.763602  1
  H  H4  1  0.975634  0.687053  0.763280  1
  H  H5  1  0.024366  0.187053  0.736720  1
  H  H6  1  0.024366  0.312947  0.236720  1
  H  H7  1  0.975634  0.812947  0.263280  1
  H  H8  1  0.861119  0.648627  0.567473  1
  H  H9  1  0.138881  0.148627  0.932527  1
  H  H10  1  0.138881  0.351373  0.432527  1
  H  H11  1  0.861119  0.851373  0.067473  1
  H  H12  1  0.387554  0.657638  0.577836  1
  H  H13  1  0.612446  0.157638  0.922164  1
  H  H14  1  0.612446  0.342362  0.422164  1
  H  H15  1  0.387554  0.842362  0.077836  1
  H  H16  1  0.359788  0.539774  0.631978  1
  H  H17  1  0.640212  0.039774  0.868022  1
  H  H18  1  0.760942  0.420410  0.862017  1
  H  H19  1  0.640212  0.460226  0.368022  1
  H  H20  1  0.723883  0.616891  0.066482  1
  H  H21  1  0.276117  0.116891  0.433518  1
  H  H22  1  0.276117  0.383109  0.933518  1
  H  H23  1  0.723883  0.883109  0.566482  1
  H  H24  1  0.511281  0.662924  0.949732  1
  H  H25  1  0.488719  0.162924  0.550268  1
  H  H26  1  0.488719  0.337076  0.050268  1
  H  H27  1  0.511281  0.837076  0.449732  1
  H  H28  1  0.911389  0.461565  0.744253  1
  H  H29  1  0.088611  0.961565  0.755747  1
  H  H30  1  0.088611  0.538435  0.255747  1
  H  H31  1  0.911389  0.038435  0.244253  1
  H  H32  1  0.760942  0.079590  0.362017  1
  H  H33  1  0.239058  0.579590  0.137983  1
  H  H34  1  0.239058  0.920410  0.637983  1
  H  H35  1  0.359788  0.960226  0.131978  1
  Cl  Cl36  1  0.174255  0.075352  0.178464  1
  Cl  Cl37  1  0.825745  0.575352  0.321536  1
  Cl  Cl38  1  0.825745  0.924648  0.821536  1
  Cl  Cl39  1  0.174255  0.424648  0.678464  1
  Cl  Cl40  1  0.236017  0.707056  0.981439  1
  Cl  Cl41  1  0.763983  0.207056  0.518561  1
  Cl  Cl42  1  0.763983  0.292944  0.018561  1
  Cl  Cl43  1  0.236017  0.792944  0.481439  1
  O  O44  1  0.786503  0.021405  0.288771  1
  O  O45  1  0.213497  0.521405  0.211229  1
  O  O46  1  0.213497  0.978595  0.711229  1
  O  O47  1  0.786503  0.478595  0.788771  1
  O  O48  1  0.841925  0.665525  0.685030  1
  O  O49  1  0.158075  0.165525  0.814970  1
  O  O50  1  0.158075  0.334475  0.314970  1
  O  O51  1  0.841925  0.834475  0.185030  1
  O  O52  1  0.463085  0.593391  0.620984  1
  O  O53  1  0.536915  0.093391  0.879016  1
  O  O54  1  0.536915  0.406609  0.379016  1
  O  O55  1  0.463085  0.906609  0.120984  1
  O  O56  1  0.651556  0.636550  0.945232  1
  O  O57  1  0.348444  0.136550  0.554768  1
  O  O58  1  0.348444  0.363450  0.054768  1
  O  O59  1  0.651556  0.863450  0.445232  1
