# generated using pymatgen
data_CaVNiP2O9
_symmetry_space_group_name_H-M   'P 1'
_cell_length_a   6.47149491
_cell_length_b   7.49245242
_cell_length_c   14.26355575
_cell_angle_alpha   90.00000000
_cell_angle_beta   90.00000000
_cell_angle_gamma   90.00000000
_symmetry_Int_Tables_number   1
_chemical_formula_structural   CaVNiP2O9
_chemical_formula_sum   'Ca4 V4 Ni4 P8 O36'
_cell_volume   691.60227235
_cell_formula_units_Z   4
loop_
 _symmetry_equiv_pos_site_id
 _symmetry_equiv_pos_as_xyz
  1  'x, y, z'
loop_
 _atom_site_type_symbol
 _atom_site_label
 _atom_site_symmetry_multiplicity
 _atom_site_fract_x
 _atom_site_fract_y
 _atom_site_fract_z
 _atom_site_occupancy
  Ca  Ca0  1  0.750000  0.880292  0.779812  1
  Ca  Ca1  1  0.750000  0.619708  0.279812  1
  Ca  Ca2  1  0.250000  0.119708  0.220188  1
  Ca  Ca3  1  0.250000  0.380292  0.720188  1
  V  V4  1  0.750000  0.345797  0.882431  1
  V  V5  1  0.250000  0.654203  0.117569  1
  V  V6  1  0.250000  0.845797  0.617569  1
  V  V7  1  0.750000  0.154203  0.382431  1
  Ni  Ni8  1  0.500000  0.000000  0.000000  1
  Ni  Ni9  1  0.500000  0.500000  0.500000  1
  Ni  Ni10  1  0.000000  0.500000  0.500000  1
  Ni  Ni11  1  0.000000  0.000000  0.000000  1
  P  P12  1  0.250000  0.351315  0.937691  1
  P  P13  1  0.750000  0.648685  0.062309  1
  P  P14  1  0.750000  0.851315  0.562309  1
  P  P15  1  0.250000  0.148685  0.437691  1
  P  P16  1  0.750000  0.385749  0.691814  1
  P  P17  1  0.250000  0.614251  0.308186  1
  P  P18  1  0.250000  0.885749  0.808186  1
  P  P19  1  0.750000  0.114251  0.191814  1
  O  O20  1  0.051915  0.606911  0.367891  1
  O  O21  1  0.551915  0.393089  0.632109  1
  O  O22  1  0.948085  0.106911  0.132109  1
  O  O23  1  0.448085  0.893089  0.867891  1
  O  O24  1  0.948085  0.393089  0.632109  1
  O  O25  1  0.448085  0.606911  0.367891  1
  O  O26  1  0.051915  0.893089  0.867891  1
  O  O27  1  0.551915  0.106911  0.132109  1
  O  O28  1  0.250000  0.334425  0.484182  1
  O  O29  1  0.750000  0.665575  0.515818  1
  O  O30  1  0.750000  0.834425  0.015818  1
  O  O31  1  0.250000  0.165575  0.984182  1
  O  O32  1  0.750000  0.143214  0.939237  1
  O  O33  1  0.250000  0.856786  0.060763  1
  O  O34  1  0.250000  0.643214  0.560763  1
  O  O35  1  0.750000  0.356786  0.439237  1
  O  O36  1  0.750000  0.213158  0.754506  1
  O  O37  1  0.250000  0.786842  0.245494  1
  O  O38  1  0.250000  0.713158  0.745494  1
  O  O39  1  0.750000  0.286842  0.254506  1
  O  O40  1  0.437905  0.130865  0.370008  1
  O  O41  1  0.937905  0.869135  0.629992  1
  O  O42  1  0.562095  0.630865  0.129992  1
  O  O43  1  0.062095  0.369135  0.870008  1
  O  O44  1  0.562095  0.869135  0.629992  1
  O  O45  1  0.062095  0.130865  0.370008  1
  O  O46  1  0.437905  0.369135  0.870008  1
  O  O47  1  0.937905  0.630865  0.129992  1
  O  O48  1  0.750000  0.965353  0.269963  1
  O  O49  1  0.250000  0.034647  0.730037  1
  O  O50  1  0.250000  0.465353  0.230037  1
  O  O51  1  0.750000  0.534647  0.769963  1
  O  O52  1  0.750000  0.992512  0.485866  1
  O  O53  1  0.250000  0.007488  0.514134  1
  O  O54  1  0.250000  0.492512  0.014134  1
  O  O55  1  0.750000  0.507488  0.985866  1
