# generated using pymatgen
data_Ba3(TaS4)2
_symmetry_space_group_name_H-M   'P 1'
_cell_length_a   12.15593033
_cell_length_b   6.93931196
_cell_length_c   12.74885555
_cell_angle_alpha   90.00000000
_cell_angle_beta   109.19259087
_cell_angle_gamma   90.00000000
_symmetry_Int_Tables_number   1
_chemical_formula_structural   Ba3(TaS4)2
_chemical_formula_sum   'Ba9 Ta6 S24'
_cell_volume   1015.64159618
_cell_formula_units_Z   3
loop_
 _symmetry_equiv_pos_site_id
 _symmetry_equiv_pos_as_xyz
  1  'x, y, z'
loop_
 _atom_site_type_symbol
 _atom_site_label
 _atom_site_symmetry_multiplicity
 _atom_site_fract_x
 _atom_site_fract_y
 _atom_site_fract_z
 _atom_site_occupancy
  Ba  Ba0  1  0.500000  0.000000  0.000000  1
  Ba  Ba1  1  0.953025  0.000000  0.308900  1
  Ba  Ba2  1  0.046975  0.000000  0.691100  1
  Ba  Ba3  1  0.722028  0.500000  0.656456  1
  Ba  Ba4  1  0.277972  0.500000  0.343544  1
  Ba  Ba5  1  0.594784  0.000000  0.364606  1
  Ba  Ba6  1  0.183449  0.500000  0.964178  1
  Ba  Ba7  1  0.816551  0.500000  0.035822  1
  Ba  Ba8  1  0.405216  0.000000  0.635394  1
  Ta  Ta9  1  0.000000  0.000000  0.000000  1
  Ta  Ta10  1  0.000000  0.500000  0.500000  1
  Ta  Ta11  1  0.730211  0.000000  0.827544  1
  Ta  Ta12  1  0.269789  0.000000  0.172456  1
  Ta  Ta13  1  0.734070  0.500000  0.324312  1
  Ta  Ta14  1  0.265930  0.500000  0.675688  1
  S  S15  1  0.687259  0.751742  0.199067  1
  S  S16  1  0.312741  0.751742  0.800933  1
  S  S17  1  0.312741  0.248258  0.800933  1
  S  S18  1  0.687259  0.248258  0.199067  1
  S  S19  1  0.616864  0.744459  0.847263  1
  S  S20  1  0.383136  0.744459  0.152737  1
  S  S21  1  0.383136  0.255541  0.152737  1
  S  S22  1  0.616864  0.255541  0.847263  1
  S  S23  1  0.848002  0.744604  0.484118  1
  S  S24  1  0.151998  0.744604  0.515882  1
  S  S25  1  0.151998  0.255396  0.515882  1
  S  S26  1  0.848002  0.255396  0.484118  1
  S  S27  1  0.907734  0.759395  0.854773  1
  S  S28  1  0.092266  0.759395  0.145227  1
  S  S29  1  0.092266  0.240605  0.145227  1
  S  S30  1  0.942819  0.500000  0.299427  1
  S  S31  1  0.057181  0.500000  0.700573  1
  S  S32  1  0.675401  0.000000  0.632384  1
  S  S33  1  0.324599  0.000000  0.367616  1
  S  S34  1  0.579544  0.500000  0.396029  1
  S  S35  1  0.420456  0.500000  0.603971  1
  S  S36  1  0.822428  0.000000  0.046096  1
  S  S37  1  0.177572  0.000000  0.953904  1
  S  S38  1  0.907734  0.240605  0.854773  1
