# generated using pymatgen
data_B2H3
_symmetry_space_group_name_H-M   'P 1'
_cell_length_a   10.68163807
_cell_length_b   10.70078767
_cell_length_c   13.91547989
_cell_angle_alpha   90.00000000
_cell_angle_beta   90.00000000
_cell_angle_gamma   90.00000000
_symmetry_Int_Tables_number   1
_chemical_formula_structural   B2H3
_chemical_formula_sum   'B64 H96'
_cell_volume   1590.56636075
_cell_formula_units_Z   32
loop_
 _symmetry_equiv_pos_site_id
 _symmetry_equiv_pos_as_xyz
  1  'x, y, z'
loop_
 _atom_site_type_symbol
 _atom_site_label
 _atom_site_symmetry_multiplicity
 _atom_site_fract_x
 _atom_site_fract_y
 _atom_site_fract_z
 _atom_site_occupancy
  B  B0  1  0.655749  0.053084  0.093487  1
  B  B1  1  0.844251  0.553084  0.906513  1
  B  B2  1  0.155749  0.946916  0.406513  1
  B  B3  1  0.344251  0.446916  0.593487  1
  B  B4  1  0.344251  0.946916  0.906513  1
  B  B5  1  0.155749  0.446916  0.093487  1
  B  B6  1  0.844251  0.053084  0.593487  1
  B  B7  1  0.655749  0.553084  0.406513  1
  B  B8  1  0.810528  0.017817  0.068135  1
  B  B9  1  0.689472  0.517817  0.931865  1
  B  B10  1  0.310528  0.982183  0.431865  1
  B  B11  1  0.189472  0.482183  0.568135  1
  B  B12  1  0.189472  0.982183  0.931865  1
  B  B13  1  0.310528  0.482183  0.068135  1
  B  B14  1  0.689472  0.017817  0.568135  1
  B  B15  1  0.810528  0.517817  0.431865  1
  B  B16  1  0.845927  0.870661  0.122498  1
  B  B17  1  0.654073  0.370661  0.877502  1
  B  B18  1  0.345927  0.129339  0.377502  1
  B  B19  1  0.154073  0.629339  0.622498  1
  B  B20  1  0.154073  0.129339  0.877502  1
  B  B21  1  0.345927  0.629339  0.122498  1
  B  B22  1  0.654073  0.870661  0.622498  1
  B  B23  1  0.845927  0.370661  0.377502  1
  B  B24  1  0.819481  0.849594  0.250793  1
  B  B25  1  0.680519  0.349594  0.749207  1
  B  B26  1  0.319481  0.150406  0.249207  1
  B  B27  1  0.180519  0.650406  0.750793  1
  B  B28  1  0.180519  0.150406  0.749207  1
  B  B29  1  0.319481  0.650406  0.250793  1
  B  B30  1  0.680519  0.849594  0.750793  1
  B  B31  1  0.819481  0.349594  0.249207  1
  B  B32  1  0.672152  0.883732  0.275382  1
  B  B33  1  0.827848  0.383732  0.724618  1
  B  B34  1  0.172152  0.116268  0.224618  1
  B  B35  1  0.327848  0.616268  0.775382  1
  B  B36  1  0.327848  0.116268  0.724618  1
  B  B37  1  0.172152  0.616268  0.275382  1
  B  B38  1  0.827848  0.883732  0.775382  1
  B  B39  1  0.672152  0.383732  0.224618  1
  B  B40  1  0.593502  0.928704  0.164629  1
  B  B41  1  0.906498  0.428704  0.835371  1
  B  B42  1  0.093502  0.071296  0.335371  1
  B  B43  1  0.406498  0.571296  0.664629  1
  B  B44  1  0.406498  0.071296  0.835371  1
  B  B45  1  0.093502  0.571296  0.164629  1
  B  B46  1  0.906498  0.928704  0.664629  1
  B  B47  1  0.593502  0.428704  0.335371  1
  B  B48  1  0.697903  0.902448  0.063995  1
  B  B49  1  0.802097  0.402448  0.936005  1
  B  B50  1  0.197903  0.097552  0.436005  1
  B  B51  1  0.302097  0.597552  0.563995  1
  B  B52  1  0.302097  0.097552  0.936005  1
  B  B53  1  0.197903  0.597552  0.063995  1
  B  B54  1  0.802097  0.902448  0.563995  1
  B  B55  1  0.697903  0.402448  0.436005  1
  B  B56  1  0.705915  0.805852  0.171205  1
  B  B57  1  0.794085  0.305852  0.828795  1
  B  B58  1  0.205915  0.194148  0.328795  1
  B  B59  1  0.294085  0.694148  0.671205  1
  B  B60  1  0.294085  0.194148  0.828795  1
  B  B61  1  0.205915  0.694148  0.171205  1
  B  B62  1  0.794085  0.805852  0.671205  1
  B  B63  1  0.705915  0.305852  0.328795  1
  H  H64  1  0.761682  0.111710  0.120376  1
  H  H65  1  0.738318  0.611710  0.879624  1
  H  H66  1  0.261682  0.888290  0.379624  1
  H  H67  1  0.238318  0.388290  0.620376  1
  H  H68  1  0.238318  0.888290  0.879624  1
  H  H69  1  0.261682  0.388290  0.120376  1
  H  H70  1  0.738318  0.111710  0.620376  1
  H  H71  1  0.761682  0.611710  0.379624  1
  H  H72  1  0.774235  0.953943  0.291390  1
  H  H73  1  0.725765  0.453943  0.708610  1
  H  H74  1  0.274235  0.046057  0.208610  1
  H  H75  1  0.225765  0.546057  0.791390  1
  H  H76  1  0.225765  0.046057  0.708610  1
  H  H77  1  0.274235  0.546057  0.291390  1
  H  H78  1  0.725765  0.953943  0.791390  1
  H  H79  1  0.774235  0.453943  0.208610  1
  H  H80  1  0.882929  0.982415  0.147885  1
  H  H81  1  0.617071  0.482415  0.852115  1
  H  H82  1  0.382929  0.017585  0.352115  1
  H  H83  1  0.117071  0.517585  0.647885  1
  H  H84  1  0.117071  0.017585  0.852115  1
  H  H85  1  0.382929  0.517585  0.147885  1
  H  H86  1  0.617071  0.982415  0.647885  1
  H  H87  1  0.882929  0.482415  0.352115  1
  H  H88  1  0.622772  0.042133  0.191075  1
  H  H89  1  0.877228  0.542133  0.808925  1
  H  H90  1  0.122772  0.957867  0.308925  1
  H  H91  1  0.377228  0.457867  0.691075  1
  H  H92  1  0.377228  0.957867  0.808925  1
  H  H93  1  0.122772  0.457867  0.191075  1
  H  H94  1  0.877228  0.042133  0.691075  1
  H  H95  1  0.622772  0.542133  0.308925  1
  H  H96  1  0.593419  0.129482  0.053996  1
  H  H97  1  0.906581  0.629482  0.946004  1
  H  H98  1  0.093419  0.870518  0.446004  1
  H  H99  1  0.406581  0.370518  0.553996  1
  H  H100  1  0.406581  0.870518  0.946004  1
  H  H101  1  0.093419  0.370518  0.053996  1
  H  H102  1  0.906581  0.129482  0.553996  1
  H  H103  1  0.613654  0.875500  0.347949  1
  H  H104  1  0.593419  0.629482  0.446004  1
  H  H105  1  0.626451  0.565850  0.991901  1
  H  H106  1  0.373549  0.934150  0.491901  1
  H  H107  1  0.126451  0.434150  0.508099  1
  H  H108  1  0.126451  0.934150  0.991901  1
  H  H109  1  0.373549  0.434150  0.008099  1
  H  H110  1  0.626451  0.065850  0.508099  1
  H  H111  1  0.873549  0.565850  0.491901  1
  H  H112  1  0.929176  0.814469  0.085313  1
  H  H113  1  0.570824  0.314469  0.914687  1
  H  H114  1  0.429176  0.185531  0.414687  1
  H  H115  1  0.070824  0.685531  0.585313  1
  H  H116  1  0.070824  0.185531  0.914687  1
  H  H117  1  0.429176  0.685531  0.085313  1
  H  H118  1  0.570824  0.814469  0.585313  1
  H  H119  1  0.929176  0.314469  0.414687  1
  H  H120  1  0.901077  0.808461  0.299758  1
  H  H121  1  0.598923  0.308461  0.700242  1
  H  H122  1  0.401077  0.191539  0.200242  1
  H  H123  1  0.098923  0.691539  0.799758  1
  H  H124  1  0.098923  0.191539  0.700242  1
  H  H125  1  0.401077  0.691539  0.299758  1
  H  H126  1  0.598923  0.808461  0.799758  1
  H  H127  1  0.901077  0.308461  0.200242  1
  H  H128  1  0.677556  0.199034  0.342374  1
  H  H129  1  0.822444  0.699034  0.657626  1
  H  H130  1  0.177556  0.800966  0.157626  1
  H  H131  1  0.322444  0.300966  0.842374  1
  H  H132  1  0.322444  0.800966  0.657626  1
  H  H133  1  0.177556  0.300966  0.342374  1
  H  H134  1  0.822444  0.199034  0.842374  1
  H  H135  1  0.677556  0.699034  0.157626  1
  H  H136  1  0.665978  0.354337  0.509223  1
  H  H137  1  0.834022  0.854337  0.490777  1
  H  H138  1  0.165978  0.645663  0.990777  1
  H  H139  1  0.334022  0.145663  0.009223  1
  H  H140  1  0.334022  0.645663  0.490777  1
  H  H141  1  0.165978  0.145663  0.509223  1
  H  H142  1  0.834022  0.354337  0.009223  1
  H  H143  1  0.665978  0.854337  0.990777  1
  H  H144  1  0.482686  0.416629  0.340451  1
  H  H145  1  0.017314  0.916629  0.659549  1
  H  H146  1  0.982686  0.583371  0.159549  1
  H  H147  1  0.517314  0.083371  0.840451  1
  H  H148  1  0.517314  0.583371  0.659549  1
  H  H149  1  0.982686  0.083371  0.340451  1
  H  H150  1  0.017314  0.416629  0.840451  1
  H  H151  1  0.482686  0.916629  0.159549  1
  H  H152  1  0.613654  0.375500  0.152051  1
  H  H153  1  0.886346  0.875500  0.847949  1
  H  H154  1  0.113654  0.624500  0.347949  1
  H  H155  1  0.386346  0.124500  0.652051  1
  H  H156  1  0.386346  0.624500  0.847949  1
  H  H157  1  0.113654  0.124500  0.152051  1
  H  H158  1  0.886346  0.375500  0.652051  1
  H  H159  1  0.873549  0.065850  0.008099  1
