# generated using pymatgen
data_Hg2AsCl2
_symmetry_space_group_name_H-M   'P 1'
_cell_length_a   8.31728200
_cell_length_b   8.31728200
_cell_length_c   9.21522403
_cell_angle_alpha   82.13721176
_cell_angle_beta   97.86278824
_cell_angle_gamma   118.54852376
_symmetry_Int_Tables_number   1
_chemical_formula_structural   Hg2AsCl2
_chemical_formula_sum   'Hg8 As4 Cl8'
_cell_volume   552.83696925
_cell_formula_units_Z   4
loop_
 _symmetry_equiv_pos_site_id
 _symmetry_equiv_pos_as_xyz
  1  'x, y, z'
loop_
 _atom_site_type_symbol
 _atom_site_label
 _atom_site_symmetry_multiplicity
 _atom_site_fract_x
 _atom_site_fract_y
 _atom_site_fract_z
 _atom_site_occupancy
  Hg  Hg0  1  0.267472  0.224436  0.757503  1
  Hg  Hg1  1  0.224436  0.267472  0.242497  1
  Hg  Hg2  1  0.732528  0.775564  0.242497  1
  Hg  Hg3  1  0.775564  0.732528  0.757503  1
  Hg  Hg4  1  0.723589  0.276411  0.046592  1
  Hg  Hg5  1  0.276411  0.723589  0.953408  1
  Hg  Hg6  1  0.217287  0.782713  0.490249  1
  Hg  Hg7  1  0.782713  0.217287  0.509751  1
  As  As8  1  0.959893  0.040107  0.608905  1
  As  As9  1  0.040107  0.959893  0.391095  1
  As  As10  1  0.554320  0.445680  0.909479  1
  As  As11  1  0.445680  0.554320  0.090521  1
  Cl  Cl12  1  0.447707  0.991681  0.738807  1
  Cl  Cl13  1  0.991681  0.447707  0.261193  1
  Cl  Cl14  1  0.552293  0.008319  0.261193  1
  Cl  Cl15  1  0.008319  0.552293  0.738807  1
  Cl  Cl16  1  0.111033  0.888967  0.009527  1
  Cl  Cl17  1  0.888967  0.111033  0.990473  1
  Cl  Cl18  1  0.610716  0.389284  0.480100  1
  Cl  Cl19  1  0.389284  0.610716  0.519900  1
