# generated using pymatgen
data_Na2CO3
_symmetry_space_group_name_H-M   'P 1'
_cell_length_a   5.27320229
_cell_length_b   5.27320229
_cell_length_c   6.40156620
_cell_angle_alpha   90.00000000
_cell_angle_beta   90.00000000
_cell_angle_gamma   120.00000000
_symmetry_Int_Tables_number   1
_chemical_formula_structural   Na2CO3
_chemical_formula_sum   'Na4 C2 O6'
_cell_volume   154.15788292
_cell_formula_units_Z   2
loop_
 _symmetry_equiv_pos_site_id
 _symmetry_equiv_pos_as_xyz
  1  'x, y, z'
loop_
 _atom_site_type_symbol
 _atom_site_label
 _atom_site_symmetry_multiplicity
 _atom_site_fract_x
 _atom_site_fract_y
 _atom_site_fract_z
 _atom_site_occupancy
  Na  Na0  1  0.333333  0.666667  0.250000  1
  Na  Na1  1  0.666667  0.333333  0.750000  1
  Na  Na2  1  0.000000  0.000000  0.500000  1
  Na  Na3  1  0.000000  0.000000  0.000000  1
  C  C4  1  0.666667  0.333333  0.250000  1
  C  C5  1  0.333333  0.666667  0.750000  1
  O  O6  1  0.809016  0.618032  0.250000  1
  O  O7  1  0.190984  0.381968  0.750000  1
  O  O8  1  0.190984  0.809016  0.750000  1
  O  O9  1  0.381968  0.190984  0.250000  1
  O  O10  1  0.809016  0.190984  0.250000  1
  O  O11  1  0.618032  0.809016  0.750000  1
