# generated using pymatgen
data_LuPO4
_symmetry_space_group_name_H-M   'P 1'
_cell_length_a   5.67663731
_cell_length_b   5.67663731
_cell_length_c   5.67663731
_cell_angle_alpha   106.00628967
_cell_angle_beta   106.00628967
_cell_angle_gamma   116.64839939
_symmetry_Int_Tables_number   1
_chemical_formula_structural   LuPO4
_chemical_formula_sum   'Lu2 P2 O8'
_cell_volume   139.13883511
_cell_formula_units_Z   2
loop_
 _symmetry_equiv_pos_site_id
 _symmetry_equiv_pos_as_xyz
  1  'x, y, z'
loop_
 _atom_site_type_symbol
 _atom_site_label
 _atom_site_symmetry_multiplicity
 _atom_site_fract_x
 _atom_site_fract_y
 _atom_site_fract_z
 _atom_site_occupancy
  Lu  Lu0  1  1.000000  1.000000  0.000000  1
  Lu  Lu1  1  0.250000  0.750000  0.500000  1
  P  P2  1  0.750000  0.250000  0.500000  1
  P  P3  1  0.500000  0.500000  0.000000  1
  O  O4  1  0.840605  0.663915  0.176691  1
  O  O5  1  0.913915  0.237224  0.323309  1
  O  O6  1  0.913915  0.590605  0.676691  1
  O  O7  1  0.487224  0.663915  0.823309  1
  O  O8  1  0.336085  0.512776  0.176691  1
  O  O9  1  0.409395  0.086085  0.323309  1
  O  O10  1  0.762776  0.086085  0.676691  1
  O  O11  1  0.336085  0.159395  0.823309  1
