# generated using pymatgen
data_Te2Br
_symmetry_space_group_name_H-M   'P 1'
_cell_length_a   4.04909052
_cell_length_b   13.39410023
_cell_length_c   16.70241293
_cell_angle_alpha   90.00000000
_cell_angle_beta   90.00000000
_cell_angle_gamma   90.00000000
_symmetry_Int_Tables_number   1
_chemical_formula_structural   Te2Br
_chemical_formula_sum   'Te16 Br8'
_cell_volume   905.83739789
_cell_formula_units_Z   8
loop_
 _symmetry_equiv_pos_site_id
 _symmetry_equiv_pos_as_xyz
  1  'x, y, z'
loop_
 _atom_site_type_symbol
 _atom_site_label
 _atom_site_symmetry_multiplicity
 _atom_site_fract_x
 _atom_site_fract_y
 _atom_site_fract_z
 _atom_site_occupancy
  Te  Te0  1  0.750000  0.052791  0.724957  1
  Te  Te1  1  0.250000  0.947209  0.275043  1
  Te  Te2  1  0.250000  0.552791  0.775043  1
  Te  Te3  1  0.750000  0.447209  0.224957  1
  Te  Te4  1  0.250000  0.197706  0.689329  1
  Te  Te5  1  0.750000  0.802294  0.310671  1
  Te  Te6  1  0.750000  0.697706  0.810671  1
  Te  Te7  1  0.250000  0.302294  0.189329  1
  Te  Te8  1  0.750000  0.418632  0.403244  1
  Te  Te9  1  0.250000  0.581368  0.596756  1
  Te  Te10  1  0.250000  0.918632  0.096756  1
  Te  Te11  1  0.750000  0.081368  0.903244  1
  Te  Te12  1  0.250000  0.266285  0.418157  1
  Te  Te13  1  0.750000  0.733715  0.581843  1
  Te  Te14  1  0.750000  0.766285  0.081843  1
  Te  Te15  1  0.250000  0.233715  0.918157  1
  Br  Br16  1  0.750000  0.144100  0.156270  1
  Br  Br17  1  0.250000  0.855900  0.843730  1
  Br  Br18  1  0.250000  0.644100  0.343730  1
  Br  Br19  1  0.750000  0.355900  0.656270  1
  Br  Br20  1  0.750000  0.111471  0.439185  1
  Br  Br21  1  0.250000  0.888529  0.560815  1
  Br  Br22  1  0.250000  0.611471  0.060815  1
  Br  Br23  1  0.750000  0.388529  0.939185  1
