# generated using pymatgen
data_Li2VPCO7
_symmetry_space_group_name_H-M   'P 1'
_cell_length_a   5.02001335
_cell_length_b   6.40459385
_cell_length_c   8.61637108
_cell_angle_alpha   90.00000000
_cell_angle_beta   93.65431830
_cell_angle_gamma   90.00000000
_symmetry_Int_Tables_number   1
_chemical_formula_structural   Li2VPCO7
_chemical_formula_sum   'Li4 V2 P2 C2 O14'
_cell_volume   276.46294748
_cell_formula_units_Z   2
loop_
 _symmetry_equiv_pos_site_id
 _symmetry_equiv_pos_as_xyz
  1  'x, y, z'
loop_
 _atom_site_type_symbol
 _atom_site_label
 _atom_site_symmetry_multiplicity
 _atom_site_fract_x
 _atom_site_fract_y
 _atom_site_fract_z
 _atom_site_occupancy
  Li  Li0  1  0.271234  0.002700  0.217113  1
  Li  Li1  1  0.728766  0.997300  0.782887  1
  Li  Li2  1  0.728766  0.502700  0.782887  1
  Li  Li3  1  0.271234  0.497300  0.217113  1
  V  V4  1  0.295987  0.750000  0.655912  1
  V  V5  1  0.704013  0.250000  0.344088  1
  P  P6  1  0.219480  0.250000  0.582437  1
  P  P7  1  0.780520  0.750000  0.417563  1
  C  C8  1  0.233999  0.750000  0.940330  1
  C  C9  1  0.766001  0.250000  0.059670  1
  O  O10  1  0.673429  0.942376  0.324510  1
  O  O11  1  0.470281  0.750000  0.883660  1
  O  O12  1  0.967225  0.250000  0.168959  1
  O  O13  1  0.032775  0.750000  0.831041  1
  O  O14  1  0.673429  0.557624  0.324510  1
  O  O15  1  0.670199  0.750000  0.582904  1
  O  O16  1  0.529719  0.250000  0.116340  1
  O  O17  1  0.326571  0.442376  0.675490  1
  O  O18  1  0.326571  0.057624  0.675490  1
  O  O19  1  0.910950  0.250000  0.564131  1
  O  O20  1  0.196533  0.750000  0.083715  1
  O  O21  1  0.803467  0.250000  0.916285  1
  O  O22  1  0.089050  0.750000  0.435869  1
  O  O23  1  0.329801  0.250000  0.417096  1
