# generated using pymatgen
data_LiMgH3
_symmetry_space_group_name_H-M   'P 1'
_cell_length_a   5.28100409
_cell_length_b   5.28100409
_cell_length_c   5.28100409
_cell_angle_alpha   55.99936267
_cell_angle_beta   55.99936267
_cell_angle_gamma   55.99936267
_symmetry_Int_Tables_number   1
_chemical_formula_structural   LiMgH3
_chemical_formula_sum   'Li2 Mg2 H6'
_cell_volume   94.49164767
_cell_formula_units_Z   2
loop_
 _symmetry_equiv_pos_site_id
 _symmetry_equiv_pos_as_xyz
  1  'x, y, z'
loop_
 _atom_site_type_symbol
 _atom_site_label
 _atom_site_symmetry_multiplicity
 _atom_site_fract_x
 _atom_site_fract_y
 _atom_site_fract_z
 _atom_site_occupancy
  Li  Li0  1  0.711063  0.711063  0.711063  1
  Li  Li1  1  0.211063  0.211063  0.211063  1
  Mg  Mg2  1  0.000814  0.000814  0.000814  1
  Mg  Mg3  1  0.500814  0.500814  0.500814  1
  H  H4  1  0.299451  0.610400  0.898473  1
  H  H5  1  0.610400  0.898473  0.299451  1
  H  H6  1  0.898473  0.299451  0.610400  1
  H  H7  1  0.799451  0.398473  0.110400  1
  H  H8  1  0.110400  0.799451  0.398473  1
  H  H9  1  0.398473  0.110400  0.799451  1
