# generated using pymatgen
data_Be(PO3)2
_symmetry_space_group_name_H-M   'P 1'
_cell_length_a   4.96265599
_cell_length_b   13.08094377
_cell_length_c   7.31195029
_cell_angle_alpha   90.00000000
_cell_angle_beta   112.72778489
_cell_angle_gamma   90.00000000
_symmetry_Int_Tables_number   1
_chemical_formula_structural   Be(PO3)2
_chemical_formula_sum   'Be4 P8 O24'
_cell_volume   437.80692645
_cell_formula_units_Z   4
loop_
 _symmetry_equiv_pos_site_id
 _symmetry_equiv_pos_as_xyz
  1  'x, y, z'
loop_
 _atom_site_type_symbol
 _atom_site_label
 _atom_site_symmetry_multiplicity
 _atom_site_fract_x
 _atom_site_fract_y
 _atom_site_fract_z
 _atom_site_occupancy
  Be  Be0  1  0.647200  0.932741  0.766436  1
  Be  Be1  1  0.352800  0.432741  0.733564  1
  Be  Be2  1  0.352800  0.067259  0.233564  1
  Be  Be3  1  0.647200  0.567259  0.266436  1
  P  P4  1  0.025452  0.869609  0.171197  1
  P  P5  1  0.046583  0.650846  0.084658  1
  P  P6  1  0.953417  0.150846  0.415342  1
  P  P7  1  0.953417  0.349154  0.915342  1
  P  P8  1  0.046583  0.849154  0.584658  1
  P  P9  1  0.025452  0.630391  0.671197  1
  P  P10  1  0.974548  0.130391  0.828803  1
  P  P11  1  0.974548  0.369609  0.328803  1
  O  O12  1  0.821537  0.235981  0.851692  1
  O  O13  1  0.789865  0.635950  0.140505  1
  O  O14  1  0.210135  0.135950  0.359495  1
  O  O15  1  0.210135  0.364050  0.859495  1
  O  O16  1  0.789865  0.864050  0.640505  1
  O  O17  1  0.293920  0.576565  0.163233  1
  O  O18  1  0.706080  0.076565  0.336767  1
  O  O19  1  0.706080  0.423435  0.836767  1
  O  O20  1  0.178463  0.735981  0.648308  1
  O  O21  1  0.080751  0.154981  0.652591  1
  O  O22  1  0.821537  0.264019  0.351692  1
  O  O23  1  0.178463  0.764019  0.148308  1
  O  O24  1  0.919249  0.845019  0.347409  1
  O  O25  1  0.080751  0.345019  0.152591  1
  O  O26  1  0.752684  0.612524  0.491361  1
  O  O27  1  0.919249  0.654981  0.847409  1
  O  O28  1  0.262843  0.947782  0.231532  1
  O  O29  1  0.247316  0.112524  0.008639  1
  O  O30  1  0.247316  0.387476  0.508639  1
  O  O31  1  0.752684  0.887476  0.991361  1
  O  O32  1  0.262843  0.552218  0.731532  1
  O  O33  1  0.737157  0.052218  0.768468  1
  O  O34  1  0.737157  0.447782  0.268468  1
  O  O35  1  0.293920  0.923435  0.663233  1
