# generated using pymatgen
data_Ni3AgP3(HO6)2
_symmetry_space_group_name_H-M   'P 1'
_cell_length_a   8.53805705
_cell_length_b   8.53805705
_cell_length_c   6.51379399
_cell_angle_alpha   73.55731818
_cell_angle_beta   106.44268182
_cell_angle_gamma   88.84877707
_symmetry_Int_Tables_number   1
_chemical_formula_structural   Ni3AgP3(HO6)2
_chemical_formula_sum   'Ni6 Ag2 P6 H4 O24'
_cell_volume   434.20063045
_cell_formula_units_Z   2
loop_
 _symmetry_equiv_pos_site_id
 _symmetry_equiv_pos_as_xyz
  1  'x, y, z'
loop_
 _atom_site_type_symbol
 _atom_site_label
 _atom_site_symmetry_multiplicity
 _atom_site_fract_x
 _atom_site_fract_y
 _atom_site_fract_z
 _atom_site_occupancy
  Ni  Ni0  1  0.874865  0.450120  0.622647  1
  Ni  Ni1  1  0.224745  0.224745  0.250000  1
  Ni  Ni2  1  0.125135  0.549880  0.377353  1
  Ni  Ni3  1  0.549880  0.125135  0.122647  1
  Ni  Ni4  1  0.775255  0.775255  0.750000  1
  Ni  Ni5  1  0.450120  0.874865  0.877353  1
  Ag  Ag6  1  0.460474  0.460474  0.750000  1
  Ag  Ag7  1  0.539526  0.539526  0.250000  1
  P  P8  1  0.165069  0.608878  0.886946  1
  P  P9  1  0.608878  0.165069  0.613054  1
  P  P10  1  0.834931  0.391122  0.113054  1
  P  P11  1  0.391122  0.834931  0.386946  1
  P  P12  1  0.181280  0.181280  0.750000  1
  P  P13  1  0.818720  0.818720  0.250000  1
  H  H14  1  0.107565  0.877784  0.808143  1
  H  H15  1  0.877784  0.107565  0.691857  1
  H  H16  1  0.892435  0.122216  0.191857  1
  H  H17  1  0.122216  0.892435  0.308143  1
  O  O18  1  0.536620  0.100243  0.808563  1
  O  O19  1  0.769048  0.044355  0.657040  1
  O  O20  1  0.955645  0.230952  0.157040  1
  O  O21  1  0.230952  0.955645  0.342960  1
  O  O22  1  0.662574  0.337507  0.604660  1
  O  O23  1  0.337507  0.662574  0.895340  1
  O  O24  1  0.337426  0.662493  0.395340  1
  O  O25  1  0.662493  0.337426  0.104660  1
  O  O26  1  0.100243  0.536620  0.691437  1
  O  O27  1  0.044355  0.769048  0.842960  1
  O  O28  1  0.786358  0.002411  0.233199  1
  O  O29  1  0.002411  0.786358  0.266801  1
  O  O30  1  0.213642  0.997589  0.766801  1
  O  O31  1  0.997589  0.213642  0.733199  1
  O  O32  1  0.709258  0.779291  0.036590  1
  O  O33  1  0.779291  0.709258  0.463410  1
  O  O34  1  0.290742  0.220709  0.963410  1
  O  O35  1  0.899757  0.463380  0.308563  1
  O  O36  1  0.484596  0.169070  0.386418  1
  O  O37  1  0.169070  0.484596  0.113582  1
  O  O38  1  0.515404  0.830930  0.613582  1
  O  O39  1  0.830930  0.515404  0.886418  1
  O  O40  1  0.463380  0.899757  0.191437  1
  O  O41  1  0.220709  0.290742  0.536590  1
