# generated using pymatgen
data_Si2H6O
_symmetry_space_group_name_H-M   'P 1'
_cell_length_a   4.90720365
_cell_length_b   7.95532730
_cell_length_c   13.61078668
_cell_angle_alpha   90.00000000
_cell_angle_beta   90.00000000
_cell_angle_gamma   90.00000000
_symmetry_Int_Tables_number   1
_chemical_formula_structural   Si2H6O
_chemical_formula_sum   'Si8 H24 O4'
_cell_volume   531.34348667
_cell_formula_units_Z   4
loop_
 _symmetry_equiv_pos_site_id
 _symmetry_equiv_pos_as_xyz
  1  'x, y, z'
loop_
 _atom_site_type_symbol
 _atom_site_label
 _atom_site_symmetry_multiplicity
 _atom_site_fract_x
 _atom_site_fract_y
 _atom_site_fract_z
 _atom_site_occupancy
  Si  Si0  1  0.727718  0.490877  0.047664  1
  Si  Si1  1  0.227718  0.009123  0.952336  1
  Si  Si2  1  0.272282  0.990877  0.452336  1
  Si  Si3  1  0.772282  0.509123  0.547664  1
  Si  Si4  1  0.962027  0.282205  0.223486  1
  Si  Si5  1  0.462027  0.217795  0.776514  1
  Si  Si6  1  0.037973  0.782205  0.276514  1
  Si  Si7  1  0.537973  0.717795  0.723486  1
  H  H8  1  0.541999  0.353264  0.013882  1
  H  H9  1  0.041999  0.146736  0.986118  1
  H  H10  1  0.458001  0.853264  0.486118  1
  H  H11  1  0.958001  0.646736  0.513882  1
  H  H12  1  0.570254  0.649844  0.059019  1
  H  H13  1  0.070254  0.850156  0.940981  1
  H  H14  1  0.429746  0.149844  0.440981  1
  H  H15  1  0.929746  0.350156  0.559019  1
  H  H16  1  0.948483  0.514346  0.973839  1
  H  H17  1  0.448483  0.985654  0.026161  1
  H  H18  1  0.051517  0.014346  0.526161  1
  H  H19  1  0.551517  0.485654  0.473839  1
  H  H20  1  0.256184  0.248758  0.204753  1
  H  H21  1  0.756184  0.251242  0.795247  1
  H  H22  1  0.743816  0.748758  0.295247  1
  H  H23  1  0.243816  0.751242  0.704753  1
  H  H24  1  0.920105  0.328784  0.328437  1
  H  H25  1  0.420105  0.171216  0.671563  1
  H  H26  1  0.079895  0.828784  0.171563  1
  H  H27  1  0.579895  0.671216  0.828437  1
  H  H28  1  0.796971  0.130753  0.198099  1
  H  H29  1  0.296971  0.369247  0.801901  1
  H  H30  1  0.203029  0.630753  0.301901  1
  H  H31  1  0.703029  0.869247  0.698099  1
  O  O32  1  0.861336  0.443707  0.155633  1
  O  O33  1  0.361336  0.056293  0.844367  1
  O  O34  1  0.138664  0.943707  0.344367  1
  O  O35  1  0.638664  0.556293  0.655633  1
