# generated using pymatgen
data_Co2PH2CO7
_symmetry_space_group_name_H-M   'P 1'
_cell_length_a   7.97836437
_cell_length_b   4.83200459
_cell_length_c   15.54520559
_cell_angle_alpha   90.00000000
_cell_angle_beta   114.64584297
_cell_angle_gamma   90.00000000
_symmetry_Int_Tables_number   1
_chemical_formula_structural   Co2PH2CO7
_chemical_formula_sum   'Co8 P4 H8 C4 O28'
_cell_volume   544.69713476
_cell_formula_units_Z   4
loop_
 _symmetry_equiv_pos_site_id
 _symmetry_equiv_pos_as_xyz
  1  'x, y, z'
loop_
 _atom_site_type_symbol
 _atom_site_label
 _atom_site_symmetry_multiplicity
 _atom_site_fract_x
 _atom_site_fract_y
 _atom_site_fract_z
 _atom_site_occupancy
  Co  Co0  1  0.940963  0.969639  0.639555  1
  Co  Co1  1  0.940963  0.530361  0.139555  1
  Co  Co2  1  0.059037  0.030361  0.360445  1
  Co  Co3  1  0.059037  0.469639  0.860445  1
  Co  Co4  1  0.609206  0.039046  0.195322  1
  Co  Co5  1  0.390794  0.539046  0.304678  1
  Co  Co6  1  0.390794  0.960954  0.804678  1
  Co  Co7  1  0.609206  0.460954  0.695322  1
  P  P8  1  0.804517  0.479776  0.307034  1
  P  P9  1  0.195483  0.979776  0.192966  1
  P  P10  1  0.195483  0.520224  0.692966  1
  P  P11  1  0.804517  0.020224  0.807034  1
  H  H12  1  0.131496  0.754241  0.521694  1
  H  H13  1  0.868504  0.254241  0.978306  1
  H  H14  1  0.868504  0.245759  0.478306  1
  H  H15  1  0.131496  0.745759  0.021694  1
  H  H16  1  0.281945  0.991993  0.531438  1
  H  H17  1  0.718055  0.491993  0.968562  1
  H  H18  1  0.281945  0.508007  0.031438  1
  H  H19  1  0.718055  0.008007  0.468562  1
  C  C20  1  0.568449  0.880366  0.007884  1
  C  C21  1  0.431551  0.380366  0.492116  1
  C  C22  1  0.431551  0.119634  0.992116  1
  C  C23  1  0.568449  0.619634  0.507884  1
  O  O24  1  0.951431  0.364667  0.401009  1
  O  O25  1  0.189349  0.199844  0.696077  1
  O  O26  1  0.189349  0.300156  0.196077  1
  O  O27  1  0.810651  0.800156  0.303923  1
  O  O28  1  0.951431  0.135333  0.901009  1
  O  O29  1  0.048569  0.635333  0.598991  1
  O  O30  1  0.048569  0.864667  0.098991  1
  O  O31  1  0.810651  0.699844  0.803923  1
  O  O32  1  0.846592  0.161201  0.726454  1
  O  O33  1  0.153408  0.661201  0.773546  1
  O  O34  1  0.153408  0.838799  0.273546  1
  O  O35  1  0.846592  0.338799  0.226454  1
  O  O36  1  0.607587  0.129306  0.786403  1
  O  O37  1  0.392413  0.629306  0.713597  1
  O  O38  1  0.570204  0.767776  0.934750  1
  O  O39  1  0.607587  0.370694  0.286403  1
  O  O40  1  0.197237  0.648250  0.987881  1
  O  O41  1  0.802763  0.148250  0.512119  1
  O  O42  1  0.802763  0.351750  0.012119  1
  O  O43  1  0.197237  0.851750  0.487881  1
  O  O44  1  0.668210  0.687071  0.593371  1
  O  O45  1  0.331790  0.187071  0.906629  1
  O  O46  1  0.331790  0.312929  0.406629  1
  O  O47  1  0.668210  0.812929  0.093371  1
  O  O48  1  0.570204  0.732224  0.434750  1
  O  O49  1  0.429796  0.232224  0.065250  1
  O  O50  1  0.429796  0.267776  0.565250  1
  O  O51  1  0.392413  0.870694  0.213597  1
