# generated using pymatgen
data_KPb
_symmetry_space_group_name_H-M   'P 1'
_cell_length_a   12.71630246
_cell_length_b   12.71630246
_cell_length_c   12.71630246
_cell_angle_alpha   125.07238180
_cell_angle_beta   125.07238180
_cell_angle_gamma   81.41817856
_symmetry_Int_Tables_number   1
_chemical_formula_structural   KPb
_chemical_formula_sum   'K16 Pb16'
_cell_volume   1326.12934851
_cell_formula_units_Z   16
loop_
 _symmetry_equiv_pos_site_id
 _symmetry_equiv_pos_as_xyz
  1  'x, y, z'
loop_
 _atom_site_type_symbol
 _atom_site_label
 _atom_site_symmetry_multiplicity
 _atom_site_fract_x
 _atom_site_fract_y
 _atom_site_fract_z
 _atom_site_occupancy
  K  K0  1  0.125000  0.744063  0.119063  1
  K  K1  1  0.494063  0.875000  0.119063  1
  K  K2  1  0.755937  0.375000  0.880937  1
  K  K3  1  0.625000  0.005937  0.880937  1
  K  K4  1  0.625000  0.505937  0.380937  1
  K  K5  1  0.255937  0.375000  0.380937  1
  K  K6  1  0.994063  0.875000  0.619063  1
  K  K7  1  0.125000  0.244063  0.619063  1
  K  K8  1  0.122182  0.622182  0.744365  1
  K  K9  1  0.372182  0.127818  1.000000  1
  K  K10  1  0.127818  0.372182  1.000000  1
  K  K11  1  0.877818  0.377818  0.255635  1
  K  K12  1  0.627818  0.627818  0.755635  1
  K  K13  1  0.377818  0.122182  0.500000  1
  K  K14  1  0.622182  0.877818  0.500000  1
  K  K15  1  0.872182  0.872182  0.244365  1
  Pb  Pb16  1  0.571635  0.252842  0.441951  1
  Pb  Pb17  1  0.370316  0.689109  0.441951  1
  Pb  Pb18  1  0.247158  0.928365  0.558049  1
  Pb  Pb19  1  0.678365  0.620316  0.181207  1
  Pb  Pb20  1  0.439109  0.497158  0.818793  1
  Pb  Pb21  1  0.002842  0.060891  0.181207  1
  Pb  Pb22  1  0.879684  0.821635  0.818793  1
  Pb  Pb23  1  0.810891  0.129684  0.558049  1
  Pb  Pb24  1  0.178365  0.997158  0.058049  1
  Pb  Pb25  1  0.379684  0.560891  0.058049  1
  Pb  Pb26  1  0.502842  0.321635  0.941951  1
  Pb  Pb27  1  0.071635  0.629684  0.318793  1
  Pb  Pb28  1  0.310891  0.752842  0.681207  1
  Pb  Pb29  1  0.747158  0.189109  0.318793  1
  Pb  Pb30  1  0.870316  0.428365  0.681207  1
  Pb  Pb31  1  0.939109  0.120316  0.941951  1
