# generated using pymatgen
data_Ga3Bi5Cl12
_symmetry_space_group_name_H-M   'P 1'
_cell_length_a   12.44358768
_cell_length_b   12.44358768
_cell_length_c   12.44358768
_cell_angle_alpha   58.12840509
_cell_angle_beta   58.12840509
_cell_angle_gamma   58.12840509
_symmetry_Int_Tables_number   1
_chemical_formula_structural   Ga3Bi5Cl12
_chemical_formula_sum   'Ga6 Bi10 Cl24'
_cell_volume   1304.00143393
_cell_formula_units_Z   2
loop_
 _symmetry_equiv_pos_site_id
 _symmetry_equiv_pos_as_xyz
  1  'x, y, z'
loop_
 _atom_site_type_symbol
 _atom_site_label
 _atom_site_symmetry_multiplicity
 _atom_site_fract_x
 _atom_site_fract_y
 _atom_site_fract_z
 _atom_site_occupancy
  Ga  Ga0  1  0.250000  0.770988  0.729012  1
  Ga  Ga1  1  0.770988  0.729012  0.250000  1
  Ga  Ga2  1  0.729012  0.250000  0.770988  1
  Ga  Ga3  1  0.750000  0.229012  0.270988  1
  Ga  Ga4  1  0.229012  0.270988  0.750000  1
  Ga  Ga5  1  0.270988  0.750000  0.229012  1
  Bi  Bi6  1  0.172079  0.172079  0.172079  1
  Bi  Bi7  1  0.327921  0.327921  0.327921  1
  Bi  Bi8  1  0.827921  0.827921  0.827921  1
  Bi  Bi9  1  0.672079  0.672079  0.672079  1
  Bi  Bi10  1  0.250000  0.406932  0.093068  1
  Bi  Bi11  1  0.406932  0.093068  0.250000  1
  Bi  Bi12  1  0.093068  0.250000  0.406932  1
  Bi  Bi13  1  0.750000  0.593068  0.906932  1
  Bi  Bi14  1  0.593068  0.906932  0.750000  1
  Bi  Bi15  1  0.906932  0.750000  0.593068  1
  Cl  Cl16  1  0.426332  0.807365  0.544748  1
  Cl  Cl17  1  0.807365  0.544748  0.426332  1
  Cl  Cl18  1  0.544748  0.426332  0.807365  1
  Cl  Cl19  1  0.073668  0.955252  0.692635  1
  Cl  Cl20  1  0.955252  0.692635  0.073668  1
  Cl  Cl21  1  0.692635  0.073668  0.955252  1
  Cl  Cl22  1  0.573668  0.192635  0.455252  1
  Cl  Cl23  1  0.192635  0.455252  0.573668  1
  Cl  Cl24  1  0.455252  0.573668  0.192635  1
  Cl  Cl25  1  0.926332  0.044748  0.307365  1
  Cl  Cl26  1  0.044748  0.307365  0.926332  1
  Cl  Cl27  1  0.307365  0.926332  0.044748  1
  Cl  Cl28  1  0.198096  0.604186  0.774660  1
  Cl  Cl29  1  0.604186  0.774660  0.198096  1
  Cl  Cl30  1  0.774660  0.198096  0.604186  1
  Cl  Cl31  1  0.301904  0.725340  0.895814  1
  Cl  Cl32  1  0.104186  0.698096  0.274660  1
  Cl  Cl33  1  0.274660  0.104186  0.698096  1
  Cl  Cl34  1  0.698096  0.274660  0.104186  1
  Cl  Cl35  1  0.225340  0.801904  0.395814  1
  Cl  Cl36  1  0.395814  0.225340  0.801904  1
  Cl  Cl37  1  0.801904  0.395814  0.225340  1
  Cl  Cl38  1  0.895814  0.301904  0.725340  1
  Cl  Cl39  1  0.725340  0.895814  0.301904  1
