# generated using pymatgen
data_BrNO3
_symmetry_space_group_name_H-M   'P 1'
_cell_length_a   4.31504918
_cell_length_b   7.28894839
_cell_length_c   11.58025181
_cell_angle_alpha   90.00000000
_cell_angle_beta   90.00000000
_cell_angle_gamma   90.00000000
_symmetry_Int_Tables_number   1
_chemical_formula_structural   BrNO3
_chemical_formula_sum   'Br4 N4 O12'
_cell_volume   364.22405753
_cell_formula_units_Z   4
loop_
 _symmetry_equiv_pos_site_id
 _symmetry_equiv_pos_as_xyz
  1  'x, y, z'
loop_
 _atom_site_type_symbol
 _atom_site_label
 _atom_site_symmetry_multiplicity
 _atom_site_fract_x
 _atom_site_fract_y
 _atom_site_fract_z
 _atom_site_occupancy
  Br  Br0  1  0.248865  0.984752  0.781269  1
  Br  Br1  1  0.748865  0.515248  0.218731  1
  Br  Br2  1  0.751135  0.484752  0.718731  1
  Br  Br3  1  0.251135  0.015248  0.281269  1
  N  N4  1  0.185921  0.988250  0.535912  1
  N  N5  1  0.685921  0.511750  0.464088  1
  N  N6  1  0.814079  0.488250  0.964088  1
  N  N7  1  0.314079  0.011750  0.035912  1
  O  O8  1  0.105850  0.900574  0.040018  1
  O  O9  1  0.605850  0.599426  0.959982  1
  O  O10  1  0.894150  0.400574  0.459982  1
  O  O11  1  0.394150  0.099426  0.540018  1
  O  O12  1  0.438594  0.091564  0.128947  1
  O  O13  1  0.938594  0.408436  0.871053  1
  O  O14  1  0.561406  0.591564  0.371053  1
  O  O15  1  0.061406  0.908436  0.628947  1
  O  O16  1  0.448235  0.071389  0.943657  1
  O  O17  1  0.948235  0.428611  0.056343  1
  O  O18  1  0.551765  0.571389  0.556343  1
  O  O19  1  0.051765  0.928611  0.443657  1
