# generated using pymatgen
data_LiBeN
_symmetry_space_group_name_H-M   'P 1'
_cell_length_a   4.55030833
_cell_length_b   4.76593546
_cell_length_c   5.80067048
_cell_angle_alpha   90.00000000
_cell_angle_beta   124.88978869
_cell_angle_gamma   90.00000000
_symmetry_Int_Tables_number   1
_chemical_formula_structural   LiBeN
_chemical_formula_sum   'Li4 Be4 N4'
_cell_volume   103.18473298
_cell_formula_units_Z   4
loop_
 _symmetry_equiv_pos_site_id
 _symmetry_equiv_pos_as_xyz
  1  'x, y, z'
loop_
 _atom_site_type_symbol
 _atom_site_label
 _atom_site_symmetry_multiplicity
 _atom_site_fract_x
 _atom_site_fract_y
 _atom_site_fract_z
 _atom_site_occupancy
  Li  Li0  1  0.675194  0.456771  0.909768  1
  Li  Li1  1  0.324806  0.956771  0.590232  1
  Li  Li2  1  0.324806  0.543229  0.090232  1
  Li  Li3  1  0.675194  0.043229  0.409768  1
  Be  Be4  1  0.920265  0.608461  0.607663  1
  Be  Be5  1  0.079735  0.108461  0.892337  1
  Be  Be6  1  0.079735  0.391539  0.392337  1
  Be  Be7  1  0.920265  0.891539  0.107663  1
  N  N8  1  0.850781  0.805169  0.800812  1
  N  N9  1  0.149219  0.305169  0.699188  1
  N  N10  1  0.149219  0.194831  0.199188  1
  N  N11  1  0.850781  0.694831  0.300812  1
