# generated using pymatgen
data_InSn2Br5
_symmetry_space_group_name_H-M   'P 1'
_cell_length_a   9.51720739
_cell_length_b   9.51720739
_cell_length_c   9.51720739
_cell_angle_alpha   127.36173907
_cell_angle_beta   127.36173907
_cell_angle_gamma   77.66129145
_symmetry_Int_Tables_number   1
_chemical_formula_structural   InSn2Br5
_chemical_formula_sum   'In2 Sn4 Br10'
_cell_volume   528.03307909
_cell_formula_units_Z   2
loop_
 _symmetry_equiv_pos_site_id
 _symmetry_equiv_pos_as_xyz
  1  'x, y, z'
loop_
 _atom_site_type_symbol
 _atom_site_label
 _atom_site_symmetry_multiplicity
 _atom_site_fract_x
 _atom_site_fract_y
 _atom_site_fract_z
 _atom_site_occupancy
  In  In0  1  0.250000  0.250000  0.000000  1
  In  In1  1  0.750000  0.750000  0.000000  1
  Sn  Sn2  1  0.175383  0.324617  0.500000  1
  Sn  Sn3  1  0.675383  0.175383  0.850766  1
  Sn  Sn4  1  0.824617  0.675383  0.500000  1
  Sn  Sn5  1  0.324617  0.824617  0.149234  1
  Br  Br6  1  0.703429  0.203429  0.177387  1
  Br  Br7  1  0.973958  0.473958  0.177387  1
  Br  Br8  1  0.296571  0.796571  0.822613  1
  Br  Br9  1  0.796571  0.973958  0.500000  1
  Br  Br10  1  0.473958  0.296571  0.500000  1
  Br  Br11  1  0.203429  0.026042  0.500000  1
  Br  Br12  1  0.000000  0.000000  0.000000  1
  Br  Br13  1  0.500000  0.500000  0.000000  1
  Br  Br14  1  0.026042  0.526042  0.822613  1
  Br  Br15  1  0.526042  0.703429  0.500000  1
