# generated using pymatgen
data_Zr3N4
_symmetry_space_group_name_H-M   'P 1'
_cell_length_a   3.30168681
_cell_length_b   9.90464898
_cell_length_c   10.90065386
_cell_angle_alpha   90.00000000
_cell_angle_beta   90.00000000
_cell_angle_gamma   90.00000000
_symmetry_Int_Tables_number   1
_chemical_formula_structural   Zr3N4
_chemical_formula_sum   'Zr12 N16'
_cell_volume   356.47371552
_cell_formula_units_Z   4
loop_
 _symmetry_equiv_pos_site_id
 _symmetry_equiv_pos_as_xyz
  1  'x, y, z'
loop_
 _atom_site_type_symbol
 _atom_site_label
 _atom_site_symmetry_multiplicity
 _atom_site_fract_x
 _atom_site_fract_y
 _atom_site_fract_z
 _atom_site_occupancy
  Zr  Zr0  1  0.250000  0.729462  0.853143  1
  Zr  Zr1  1  0.750000  0.270538  0.146857  1
  Zr  Zr2  1  0.250000  0.229462  0.646857  1
  Zr  Zr3  1  0.750000  0.770538  0.353143  1
  Zr  Zr4  1  0.250000  0.607143  0.593430  1
  Zr  Zr5  1  0.750000  0.392857  0.406570  1
  Zr  Zr6  1  0.250000  0.107143  0.906570  1
  Zr  Zr7  1  0.750000  0.892857  0.093430  1
  Zr  Zr8  1  0.250000  0.569676  0.124608  1
  Zr  Zr9  1  0.750000  0.430324  0.875392  1
  Zr  Zr10  1  0.250000  0.069676  0.375392  1
  Zr  Zr11  1  0.750000  0.930324  0.624608  1
  N  N12  1  0.250000  0.397153  0.528703  1
  N  N13  1  0.750000  0.602847  0.471297  1
  N  N14  1  0.250000  0.897153  0.971297  1
  N  N15  1  0.750000  0.102847  0.028703  1
  N  N16  1  0.250000  0.006270  0.725462  1
  N  N17  1  0.750000  0.993730  0.274538  1
  N  N18  1  0.250000  0.506270  0.774538  1
  N  N19  1  0.750000  0.493730  0.225462  1
  N  N20  1  0.250000  0.856853  0.482001  1
  N  N21  1  0.750000  0.143147  0.517999  1
  N  N22  1  0.250000  0.356853  0.017999  1
  N  N23  1  0.750000  0.643147  0.982001  1
  N  N24  1  0.750000  0.736940  0.714641  1
  N  N25  1  0.250000  0.263060  0.285359  1
  N  N26  1  0.750000  0.236940  0.785359  1
  N  N27  1  0.250000  0.763060  0.214641  1
