# generated using pymatgen
data_SrCaPb
_symmetry_space_group_name_H-M   'P 1'
_cell_length_a   5.23426627
_cell_length_b   8.53212830
_cell_length_c   9.79099585
_cell_angle_alpha   90.00000000
_cell_angle_beta   90.00000000
_cell_angle_gamma   90.00000000
_symmetry_Int_Tables_number   1
_chemical_formula_structural   SrCaPb
_chemical_formula_sum   'Sr4 Ca4 Pb4'
_cell_volume   437.26030723
_cell_formula_units_Z   4
loop_
 _symmetry_equiv_pos_site_id
 _symmetry_equiv_pos_as_xyz
  1  'x, y, z'
loop_
 _atom_site_type_symbol
 _atom_site_label
 _atom_site_symmetry_multiplicity
 _atom_site_fract_x
 _atom_site_fract_y
 _atom_site_fract_z
 _atom_site_occupancy
  Sr  Sr0  1  0.750000  0.978273  0.681123  1
  Sr  Sr1  1  0.250000  0.021727  0.318877  1
  Sr  Sr2  1  0.750000  0.478273  0.818877  1
  Sr  Sr3  1  0.250000  0.521727  0.181123  1
  Ca  Ca4  1  0.750000  0.851170  0.069194  1
  Ca  Ca5  1  0.250000  0.148830  0.930806  1
  Ca  Ca6  1  0.750000  0.351170  0.430806  1
  Ca  Ca7  1  0.250000  0.648830  0.569194  1
  Pb  Pb8  1  0.750000  0.737403  0.388813  1
  Pb  Pb9  1  0.250000  0.262597  0.611187  1
  Pb  Pb10  1  0.750000  0.237403  0.111187  1
  Pb  Pb11  1  0.250000  0.762597  0.888813  1
