# generated using pymatgen
data_Ca2Ge7O16
_symmetry_space_group_name_H-M   'P 1'
_cell_length_a   11.50709987
_cell_length_b   11.50709987
_cell_length_c   4.71214765
_cell_angle_alpha   90.00000000
_cell_angle_beta   90.00000000
_cell_angle_gamma   90.00000000
_symmetry_Int_Tables_number   1
_chemical_formula_structural   Ca2Ge7O16
_chemical_formula_sum   'Ca4 Ge14 O32'
_cell_volume   623.95124387
_cell_formula_units_Z   2
loop_
 _symmetry_equiv_pos_site_id
 _symmetry_equiv_pos_as_xyz
  1  'x, y, z'
loop_
 _atom_site_type_symbol
 _atom_site_label
 _atom_site_symmetry_multiplicity
 _atom_site_fract_x
 _atom_site_fract_y
 _atom_site_fract_z
 _atom_site_occupancy
  Ca  Ca0  1  0.835239  0.335239  0.500000  1
  Ca  Ca1  1  0.164761  0.664761  0.500000  1
  Ca  Ca2  1  0.335239  0.164761  0.500000  1
  Ca  Ca3  1  0.664761  0.835239  0.500000  1
  Ge  Ge4  1  0.566357  0.312458  0.990884  1
  Ge  Ge5  1  0.433643  0.687542  0.990884  1
  Ge  Ge6  1  0.066357  0.187542  0.990884  1
  Ge  Ge7  1  0.933643  0.812458  0.990884  1
  Ge  Ge8  1  0.812458  0.066357  0.009116  1
  Ge  Ge9  1  0.187542  0.933643  0.009116  1
  Ge  Ge10  1  0.312458  0.433643  0.009116  1
  Ge  Ge11  1  0.687542  0.566357  0.009116  1
  Ge  Ge12  1  0.633727  0.133727  0.500000  1
  Ge  Ge13  1  0.366273  0.866273  0.500000  1
  Ge  Ge14  1  0.133727  0.366273  0.500000  1
  Ge  Ge15  1  0.866273  0.633727  0.500000  1
  Ge  Ge16  1  0.500000  0.000000  0.000000  1
  Ge  Ge17  1  0.000000  0.500000  0.000000  1
  O  O18  1  0.640273  0.431845  0.163216  1
  O  O19  1  0.359727  0.568155  0.163216  1
  O  O20  1  0.140273  0.068155  0.163216  1
  O  O21  1  0.859727  0.931845  0.163216  1
  O  O22  1  0.931845  0.140273  0.836784  1
  O  O23  1  0.068155  0.859727  0.836784  1
  O  O24  1  0.431845  0.359727  0.836784  1
  O  O25  1  0.568155  0.640273  0.836784  1
  O  O26  1  0.527467  0.219676  0.277059  1
  O  O27  1  0.472533  0.780324  0.277059  1
  O  O28  1  0.027467  0.280324  0.277059  1
  O  O29  1  0.972533  0.719676  0.277059  1
  O  O30  1  0.500240  0.117138  0.753369  1
  O  O31  1  0.499760  0.882862  0.753369  1
  O  O32  1  0.000240  0.382862  0.753369  1
  O  O33  1  0.999760  0.617138  0.753369  1
  O  O34  1  0.670233  0.266235  0.731980  1
  O  O35  1  0.329767  0.733765  0.731980  1
  O  O36  1  0.882862  0.500240  0.246631  1
  O  O37  1  0.117138  0.499760  0.246631  1
  O  O38  1  0.382862  0.999760  0.246631  1
  O  O39  1  0.617138  0.000240  0.246631  1
  O  O40  1  0.780324  0.527467  0.722941  1
  O  O41  1  0.219676  0.472533  0.722941  1
  O  O42  1  0.280324  0.972533  0.722941  1
  O  O43  1  0.719676  0.027467  0.722941  1
  O  O44  1  0.733765  0.670233  0.268020  1
  O  O45  1  0.266235  0.329767  0.268020  1
  O  O46  1  0.233765  0.829767  0.268020  1
  O  O47  1  0.766235  0.170233  0.268020  1
  O  O48  1  0.829767  0.766235  0.731980  1
  O  O49  1  0.170233  0.233765  0.731980  1
