# generated using pymatgen
data_TiP2O7
_symmetry_space_group_name_H-M   'P 1'
_cell_length_a   4.91680005
_cell_length_b   8.13222458
_cell_length_c   7.03485572
_cell_angle_alpha   90.00000000
_cell_angle_beta   105.78908267
_cell_angle_gamma   90.00000000
_symmetry_Int_Tables_number   1
_chemical_formula_structural   TiP2O7
_chemical_formula_sum   'Ti2 P4 O14'
_cell_volume   270.67240861
_cell_formula_units_Z   2
loop_
 _symmetry_equiv_pos_site_id
 _symmetry_equiv_pos_as_xyz
  1  'x, y, z'
loop_
 _atom_site_type_symbol
 _atom_site_label
 _atom_site_symmetry_multiplicity
 _atom_site_fract_x
 _atom_site_fract_y
 _atom_site_fract_z
 _atom_site_occupancy
  Ti  Ti0  1  0.209905  0.549006  0.727772  1
  Ti  Ti1  1  0.790095  0.049006  0.272228  1
  P  P2  1  0.389581  0.867906  0.509983  1
  P  P3  1  0.245631  0.284710  0.106675  1
  P  P4  1  0.754369  0.784710  0.893325  1
  P  P5  1  0.610419  0.367906  0.490017  1
  O  O6  1  0.012548  0.725565  0.832813  1
  O  O7  1  0.161109  0.388983  0.919338  1
  O  O8  1  0.149658  0.993051  0.460538  1
  O  O9  1  0.279545  0.693322  0.522748  1
  O  O10  1  0.421296  0.378490  0.629691  1
  O  O11  1  0.555919  0.641937  0.905857  1
  O  O12  1  0.581046  0.913078  0.728878  1
  O  O13  1  0.418954  0.413078  0.271122  1
  O  O14  1  0.444081  0.141937  0.094143  1
  O  O15  1  0.578704  0.878490  0.370309  1
  O  O16  1  0.720455  0.193322  0.477252  1
  O  O17  1  0.850342  0.493051  0.539462  1
  O  O18  1  0.838891  0.888983  0.080662  1
  O  O19  1  0.987452  0.225565  0.167187  1
