# generated using pymatgen
data_CaInBr3
_symmetry_space_group_name_H-M   'P 1'
_cell_length_a   7.50928465
_cell_length_b   7.50928465
_cell_length_c   10.96129213
_cell_angle_alpha   90.00000000
_cell_angle_beta   90.00000000
_cell_angle_gamma   146.71066423
_symmetry_Int_Tables_number   1
_chemical_formula_structural   CaInBr3
_chemical_formula_sum   'Ca2 In2 Br6'
_cell_volume   339.25495467
_cell_formula_units_Z   2
loop_
 _symmetry_equiv_pos_site_id
 _symmetry_equiv_pos_as_xyz
  1  'x, y, z'
loop_
 _atom_site_type_symbol
 _atom_site_label
 _atom_site_symmetry_multiplicity
 _atom_site_fract_x
 _atom_site_fract_y
 _atom_site_fract_z
 _atom_site_occupancy
  Ca  Ca0  1  0.500000  0.500000  0.500000  1
  Ca  Ca1  1  0.500000  0.500000  1.000000  1
  In  In2  1  0.763656  0.236344  0.250000  1
  In  In3  1  0.236344  0.763656  0.750000  1
  Br  Br4  1  0.569363  0.430637  0.750000  1
  Br  Br5  1  0.430637  0.569363  0.250000  1
  Br  Br6  1  0.133229  0.866771  0.452900  1
  Br  Br7  1  0.866771  0.133229  0.547100  1
  Br  Br8  1  0.866771  0.133229  0.952900  1
  Br  Br9  1  0.133229  0.866771  0.047100  1
