# generated using pymatgen
data_Sr(Ag3O2)2
_symmetry_space_group_name_H-M   'P 1'
_cell_length_a   6.61201815
_cell_length_b   9.09086231
_cell_length_c   12.61627707
_cell_angle_alpha   90.00000000
_cell_angle_beta   90.00000000
_cell_angle_gamma   90.00000000
_symmetry_Int_Tables_number   1
_chemical_formula_structural   Sr(Ag3O2)2
_chemical_formula_sum   'Sr4 Ag24 O16'
_cell_volume   758.35112460
_cell_formula_units_Z   4
loop_
 _symmetry_equiv_pos_site_id
 _symmetry_equiv_pos_as_xyz
  1  'x, y, z'
loop_
 _atom_site_type_symbol
 _atom_site_label
 _atom_site_symmetry_multiplicity
 _atom_site_fract_x
 _atom_site_fract_y
 _atom_site_fract_z
 _atom_site_occupancy
  Sr  Sr0  1  0.250000  0.880534  0.500000  1
  Sr  Sr1  1  0.250000  0.619466  0.000000  1
  Sr  Sr2  1  0.750000  0.119466  0.500000  1
  Sr  Sr3  1  0.750000  0.380534  0.000000  1
  Ag  Ag4  1  0.422583  0.539494  0.739185  1
  Ag  Ag5  1  0.922583  0.460506  0.739185  1
  Ag  Ag6  1  0.922583  0.039494  0.760815  1
  Ag  Ag7  1  0.577417  0.460506  0.260815  1
  Ag  Ag8  1  0.409653  0.750000  0.250000  1
  Ag  Ag9  1  0.090347  0.750000  0.750000  1
  Ag  Ag10  1  0.590347  0.250000  0.750000  1
  Ag  Ag11  1  0.909653  0.250000  0.250000  1
  Ag  Ag12  1  0.422583  0.960506  0.760815  1
  Ag  Ag13  1  0.077417  0.539494  0.260815  1
  Ag  Ag14  1  0.077417  0.960506  0.239185  1
  Ag  Ag15  1  0.291410  0.235940  0.377972  1
  Ag  Ag16  1  0.291410  0.264060  0.122028  1
  Ag  Ag17  1  0.208590  0.235940  0.622028  1
  Ag  Ag18  1  0.208590  0.264060  0.877972  1
  Ag  Ag19  1  0.708590  0.764060  0.622028  1
  Ag  Ag20  1  0.708590  0.735940  0.877972  1
  Ag  Ag21  1  0.791410  0.764060  0.377972  1
  Ag  Ag22  1  0.791410  0.735940  0.122028  1
  Ag  Ag23  1  0.500000  0.500000  0.500000  1
  Ag  Ag24  1  0.500000  0.000000  0.000000  1
  Ag  Ag25  1  0.000000  0.500000  0.500000  1
  Ag  Ag26  1  0.000000  0.000000  0.000000  1
  Ag  Ag27  1  0.577417  0.039494  0.239185  1
  O  O28  1  0.590438  0.326633  0.397029  1
  O  O29  1  0.545713  0.583102  0.119097  1
  O  O30  1  0.545713  0.916898  0.380903  1
  O  O31  1  0.954287  0.583102  0.880903  1
  O  O32  1  0.590438  0.173367  0.102971  1
  O  O33  1  0.909562  0.326633  0.602971  1
  O  O34  1  0.909562  0.173367  0.897029  1
  O  O35  1  0.409562  0.673367  0.602971  1
  O  O36  1  0.409562  0.826633  0.897029  1
  O  O37  1  0.954287  0.916898  0.619097  1
  O  O38  1  0.090438  0.673367  0.397029  1
  O  O39  1  0.045713  0.083102  0.380903  1
  O  O40  1  0.045713  0.416898  0.119097  1
  O  O41  1  0.454287  0.083102  0.619097  1
  O  O42  1  0.454287  0.416898  0.880903  1
  O  O43  1  0.090438  0.826633  0.102971  1
