# generated using pymatgen
data_PCl3
_symmetry_space_group_name_H-M   'P 1'
_cell_length_a   6.52315213
_cell_length_b   8.98753332
_cell_length_c   10.07448520
_cell_angle_alpha   90.00000000
_cell_angle_beta   90.00000000
_cell_angle_gamma   90.00000000
_symmetry_Int_Tables_number   1
_chemical_formula_structural   PCl3
_chemical_formula_sum   'P4 Cl12'
_cell_volume   590.63731853
_cell_formula_units_Z   4
loop_
 _symmetry_equiv_pos_site_id
 _symmetry_equiv_pos_as_xyz
  1  'x, y, z'
loop_
 _atom_site_type_symbol
 _atom_site_label
 _atom_site_symmetry_multiplicity
 _atom_site_fract_x
 _atom_site_fract_y
 _atom_site_fract_z
 _atom_site_occupancy
  P  P0  1  0.923728  0.972501  0.750000  1
  P  P1  1  0.423728  0.527499  0.250000  1
  P  P2  1  0.576272  0.472501  0.750000  1
  P  P3  1  0.076272  0.027499  0.250000  1
  Cl  Cl4  1  0.744751  0.902858  0.907885  1
  Cl  Cl5  1  0.244751  0.597142  0.092115  1
  Cl  Cl6  1  0.755249  0.402858  0.592115  1
  Cl  Cl7  1  0.255249  0.097142  0.407885  1
  Cl  Cl8  1  0.851338  0.190076  0.250000  1
  Cl  Cl9  1  0.351338  0.309924  0.750000  1
  Cl  Cl10  1  0.648662  0.690076  0.250000  1
  Cl  Cl11  1  0.148662  0.809924  0.750000  1
  Cl  Cl12  1  0.744751  0.902858  0.592115  1
  Cl  Cl13  1  0.244751  0.597142  0.407885  1
  Cl  Cl14  1  0.755249  0.402858  0.907885  1
  Cl  Cl15  1  0.255249  0.097142  0.092115  1
