# generated using pymatgen
data_SrClF
_symmetry_space_group_name_H-M   'P 1'
_cell_length_a   4.18117579
_cell_length_b   4.18117579
_cell_length_c   7.01969010
_cell_angle_alpha   90.00000000
_cell_angle_beta   90.00000000
_cell_angle_gamma   90.00000000
_symmetry_Int_Tables_number   1
_chemical_formula_structural   SrClF
_chemical_formula_sum   'Sr2 Cl2 F2'
_cell_volume   122.71984378
_cell_formula_units_Z   2
loop_
 _symmetry_equiv_pos_site_id
 _symmetry_equiv_pos_as_xyz
  1  'x, y, z'
loop_
 _atom_site_type_symbol
 _atom_site_label
 _atom_site_symmetry_multiplicity
 _atom_site_fract_x
 _atom_site_fract_y
 _atom_site_fract_z
 _atom_site_occupancy
  Sr  Sr0  1  0.000000  0.500000  0.798826  1
  Sr  Sr1  1  0.500000  0.000000  0.201174  1
  Cl  Cl2  1  0.500000  0.000000  0.643007  1
  Cl  Cl3  1  0.000000  0.500000  0.356993  1
  F  F4  1  0.500000  0.500000  0.000000  1
  F  F5  1  0.000000  0.000000  0.000000  1
