# generated using pymatgen
data_KTlCl4
_symmetry_space_group_name_H-M   'P 1'
_cell_length_a   9.36670280
_cell_length_b   9.36670280
_cell_length_c   9.36670280
_cell_angle_alpha   135.50444926
_cell_angle_beta   135.50444926
_cell_angle_gamma   64.74740198
_symmetry_Int_Tables_number   1
_chemical_formula_structural   KTlCl4
_chemical_formula_sum   'K2 Tl2 Cl8'
_cell_volume   397.96797125
_cell_formula_units_Z   2
loop_
 _symmetry_equiv_pos_site_id
 _symmetry_equiv_pos_as_xyz
  1  'x, y, z'
loop_
 _atom_site_type_symbol
 _atom_site_label
 _atom_site_symmetry_multiplicity
 _atom_site_fract_x
 _atom_site_fract_y
 _atom_site_fract_z
 _atom_site_occupancy
  K  K0  1  0.750000  0.250000  0.500000  1
  K  K1  1  0.000000  0.000000  0.000000  1
  Tl  Tl2  1  0.500000  0.500000  0.000000  1
  Tl  Tl3  1  0.250000  0.750000  0.500000  1
  Cl  Cl4  1  0.168397  0.254031  0.591486  1
  Cl  Cl5  1  0.326910  0.418397  0.414366  1
  Cl  Cl6  1  0.581603  0.995969  0.908514  1
  Cl  Cl7  1  0.745969  0.337456  0.914366  1
  Cl  Cl8  1  0.004031  0.912544  0.585634  1
  Cl  Cl9  1  0.087456  0.673090  0.091486  1
  Cl  Cl10  1  0.423090  0.831603  0.085634  1
  Cl  Cl11  1  0.662544  0.576910  0.408514  1
