# generated using pymatgen
data_ZnSiPbO4
_symmetry_space_group_name_H-M   'P 1'
_cell_length_a   5.14558700
_cell_length_b   8.36671300
_cell_length_c   19.30335200
_cell_angle_alpha   90.00000000
_cell_angle_beta   90.00000000
_cell_angle_gamma   90.00000000
_symmetry_Int_Tables_number   1
_chemical_formula_structural   ZnSiPbO4
_chemical_formula_sum   'Zn8 Si8 Pb8 O32'
_cell_volume   831.04114729
_cell_formula_units_Z   8
loop_
 _symmetry_equiv_pos_site_id
 _symmetry_equiv_pos_as_xyz
  1  'x, y, z'
loop_
 _atom_site_type_symbol
 _atom_site_label
 _atom_site_symmetry_multiplicity
 _atom_site_fract_x
 _atom_site_fract_y
 _atom_site_fract_z
 _atom_site_occupancy
  Zn  Zn0  1  0.721125  0.000327  0.442281  1
  Zn  Zn1  1  0.221125  0.999673  0.557719  1
  Zn  Zn2  1  0.221125  0.499673  0.942281  1
  Zn  Zn3  1  0.721125  0.500327  0.057719  1
  Zn  Zn4  1  0.719928  0.319787  0.344478  1
  Zn  Zn5  1  0.219928  0.680213  0.655522  1
  Zn  Zn6  1  0.219928  0.180213  0.844478  1
  Zn  Zn7  1  0.719928  0.819787  0.155522  1
  Si  Si8  1  0.210694  0.229616  0.427456  1
  Si  Si9  1  0.710694  0.770384  0.572544  1
  Si  Si10  1  0.710694  0.270384  0.927456  1
  Si  Si11  1  0.210694  0.729616  0.072544  1
  Si  Si12  1  0.726155  0.701326  0.322242  1
  Si  Si13  1  0.226155  0.298674  0.677758  1
  Si  Si14  1  0.226155  0.798674  0.822242  1
  Si  Si15  1  0.726155  0.201326  0.177758  1
  Pb  Pb16  1  0.286593  0.647277  0.440501  1
  Pb  Pb17  1  0.786593  0.352723  0.559499  1
  Pb  Pb18  1  0.786593  0.852723  0.940501  1
  Pb  Pb19  1  0.286593  0.147277  0.059499  1
  Pb  Pb20  1  0.253314  0.541081  0.231762  1
  Pb  Pb21  1  0.753314  0.458919  0.768238  1
  Pb  Pb22  1  0.753314  0.958919  0.731762  1
  Pb  Pb23  1  0.253314  0.041081  0.268238  1
  O  O24  1  0.528053  0.201624  0.419855  1
  O  O25  1  0.028053  0.798376  0.580145  1
  O  O26  1  0.028053  0.298376  0.919855  1
  O  O27  1  0.528053  0.701624  0.080145  1
  O  O28  1  0.147910  0.388803  0.473887  1
  O  O29  1  0.647910  0.611197  0.526113  1
  O  O30  1  0.647910  0.111197  0.973887  1
  O  O31  1  0.147910  0.888803  0.026113  1
  O  O32  1  0.081782  0.069923  0.465485  1
  O  O33  1  0.581782  0.930077  0.534515  1
  O  O34  1  0.581782  0.430077  0.965485  1
  O  O35  1  0.081782  0.569923  0.034515  1
  O  O36  1  0.083864  0.245844  0.349014  1
  O  O37  1  0.583864  0.754156  0.650986  1
  O  O38  1  0.583864  0.254156  0.849014  1
  O  O39  1  0.083864  0.745844  0.150986  1
  O  O40  1  0.040485  0.676060  0.319305  1
  O  O41  1  0.540485  0.323940  0.680695  1
  O  O42  1  0.540485  0.823940  0.819305  1
  O  O43  1  0.040485  0.176060  0.180695  1
  O  O44  1  0.577962  0.537381  0.353169  1
  O  O45  1  0.077962  0.462619  0.646831  1
  O  O46  1  0.077962  0.962619  0.853169  1
  O  O47  1  0.577962  0.037381  0.146831  1
  O  O48  1  0.598677  0.222800  0.256400  1
  O  O49  1  0.098677  0.777200  0.743600  1
  O  O50  1  0.098677  0.277200  0.756400  1
  O  O51  1  0.598677  0.722800  0.243600  1
  O  O52  1  0.634459  0.349420  0.128721  1
  O  O53  1  0.134459  0.650580  0.871279  1
  O  O54  1  0.134459  0.150580  0.628721  1
  O  O55  1  0.634459  0.849420  0.371279  1
