# generated using pymatgen
data_TeAuCl7
_symmetry_space_group_name_H-M   'P 1'
_cell_length_a   7.97620054
_cell_length_b   8.37405232
_cell_length_c   9.53004042
_cell_angle_alpha   101.29099542
_cell_angle_beta   95.17387887
_cell_angle_gamma   90.30667866
_symmetry_Int_Tables_number   1
_chemical_formula_structural   TeAuCl7
_chemical_formula_sum   'Te2 Au2 Cl14'
_cell_volume   621.50530316
_cell_formula_units_Z   2
loop_
 _symmetry_equiv_pos_site_id
 _symmetry_equiv_pos_as_xyz
  1  'x, y, z'
loop_
 _atom_site_type_symbol
 _atom_site_label
 _atom_site_symmetry_multiplicity
 _atom_site_fract_x
 _atom_site_fract_y
 _atom_site_fract_z
 _atom_site_occupancy
  Te  Te0  1  0.301284  0.227539  0.767087  1
  Te  Te1  1  0.698716  0.772461  0.232913  1
  Au  Au2  1  0.073633  0.800713  0.560111  1
  Au  Au3  1  0.926367  0.199287  0.439889  1
  Cl  Cl4  1  0.558296  0.140464  0.865177  1
  Cl  Cl5  1  0.441704  0.859536  0.134823  1
  Cl  Cl6  1  0.643852  0.145398  0.453352  1
  Cl  Cl7  1  0.356148  0.854602  0.546648  1
  Cl  Cl8  1  0.960097  0.326619  0.680608  1
  Cl  Cl9  1  0.039903  0.673381  0.319392  1
  Cl  Cl10  1  0.211063  0.244268  0.425809  1
  Cl  Cl11  1  0.788937  0.755732  0.574191  1
  Cl  Cl12  1  0.892418  0.069268  0.200363  1
  Cl  Cl13  1  0.107582  0.930732  0.799637  1
  Cl  Cl14  1  0.203026  0.318793  0.993367  1
  Cl  Cl15  1  0.796974  0.681207  0.006633  1
  Cl  Cl16  1  0.588355  0.514851  0.244034  1
  Cl  Cl17  1  0.411645  0.485149  0.755966  1
