# generated using pymatgen
data_BaSi7N10
_symmetry_space_group_name_H-M   'P 1'
_cell_length_a   6.92471980
_cell_length_b   6.77019000
_cell_length_c   9.69746340
_cell_angle_alpha   90.00000000
_cell_angle_beta   106.17471369
_cell_angle_gamma   90.00000000
_symmetry_Int_Tables_number   1
_chemical_formula_structural   BaSi7N10
_chemical_formula_sum   'Ba2 Si14 N20'
_cell_volume   436.63739005
_cell_formula_units_Z   2
loop_
 _symmetry_equiv_pos_site_id
 _symmetry_equiv_pos_as_xyz
  1  'x, y, z'
loop_
 _atom_site_type_symbol
 _atom_site_label
 _atom_site_symmetry_multiplicity
 _atom_site_fract_x
 _atom_site_fract_y
 _atom_site_fract_z
 _atom_site_occupancy
  Ba  Ba0  1  0.289397  0.594047  0.212225  1
  Ba  Ba1  1  0.289397  0.405953  0.712225  1
  Si  Si2  1  0.995153  0.865485  0.531705  1
  Si  Si3  1  0.995153  0.134515  0.031705  1
  Si  Si4  1  0.812407  0.871339  0.226554  1
  Si  Si5  1  0.812407  0.128661  0.726554  1
  Si  Si6  1  0.625090  0.118617  0.422865  1
  Si  Si7  1  0.625090  0.881383  0.922865  1
  Si  Si8  1  0.438016  0.106535  0.111829  1
  Si  Si9  1  0.438016  0.893465  0.611829  1
  Si  Si10  1  0.177972  0.124115  0.346588  1
  Si  Si11  1  0.177972  0.875885  0.846588  1
  Si  Si12  1  0.868981  0.472905  0.367423  1
  Si  Si13  1  0.868981  0.527095  0.867423  1
  Si  Si14  1  0.685860  0.472321  0.055642  1
  Si  Si15  1  0.685860  0.527679  0.555642  1
  N  N16  1  0.032451  0.915662  0.362878  1
  N  N17  1  0.032451  0.084338  0.862878  1
  N  N18  1  0.216581  0.888891  0.670593  1
  N  N19  1  0.216581  0.111109  0.170593  1
  N  N20  1  0.407353  0.922804  0.976001  1
  N  N21  1  0.407353  0.077196  0.476001  1
  N  N22  1  0.614023  0.000080  0.262829  1
  N  N23  1  0.614023  0.999920  0.762829  1
  N  N24  1  0.826517  0.036747  0.562912  1
  N  N25  1  0.826517  0.963253  0.062912  1
  N  N26  1  0.775198  0.617075  0.211517  1
  N  N27  1  0.775198  0.382925  0.711517  1
  N  N28  1  0.073978  0.341419  0.369489  1
  N  N29  1  0.073978  0.658581  0.869489  1
  N  N30  1  0.487171  0.333034  0.057247  1
  N  N31  1  0.487171  0.666966  0.557247  1
  N  N32  1  0.897091  0.367564  0.014941  1
  N  N33  1  0.897091  0.632436  0.514941  1
  N  N34  1  0.651202  0.630696  0.905003  1
  N  N35  1  0.651202  0.369304  0.405003  1
