# generated using pymatgen
data_KBrO4
_symmetry_space_group_name_H-M   'P 1'
_cell_length_a   6.07594305
_cell_length_b   7.70010561
_cell_length_c   9.17788365
_cell_angle_alpha   90.00000000
_cell_angle_beta   90.00000000
_cell_angle_gamma   90.00000000
_symmetry_Int_Tables_number   1
_chemical_formula_structural   KBrO4
_chemical_formula_sum   'K4 Br4 O16'
_cell_volume   429.39098677
_cell_formula_units_Z   4
loop_
 _symmetry_equiv_pos_site_id
 _symmetry_equiv_pos_as_xyz
  1  'x, y, z'
loop_
 _atom_site_type_symbol
 _atom_site_label
 _atom_site_symmetry_multiplicity
 _atom_site_fract_x
 _atom_site_fract_y
 _atom_site_fract_z
 _atom_site_occupancy
  K  K0  1  0.250000  0.662711  0.677580  1
  K  K1  1  0.750000  0.337289  0.322420  1
  K  K2  1  0.750000  0.162711  0.822420  1
  K  K3  1  0.250000  0.837289  0.177580  1
  Br  Br4  1  0.250000  0.184057  0.570108  1
  Br  Br5  1  0.750000  0.815943  0.429892  1
  Br  Br6  1  0.750000  0.684057  0.929892  1
  Br  Br7  1  0.250000  0.315943  0.070108  1
  O  O8  1  0.529057  0.809455  0.919406  1
  O  O9  1  0.029057  0.190545  0.080594  1
  O  O10  1  0.470943  0.309455  0.580594  1
  O  O11  1  0.970943  0.690545  0.419406  1
  O  O12  1  0.470943  0.190545  0.080594  1
  O  O13  1  0.970943  0.809455  0.919406  1
  O  O14  1  0.529057  0.690545  0.419406  1
  O  O15  1  0.029057  0.309455  0.580594  1
  O  O16  1  0.250000  0.047045  0.708267  1
  O  O17  1  0.750000  0.952955  0.291733  1
  O  O18  1  0.750000  0.547045  0.791733  1
  O  O19  1  0.250000  0.452955  0.208267  1
  O  O20  1  0.250000  0.079149  0.414145  1
  O  O21  1  0.750000  0.920851  0.585855  1
  O  O22  1  0.750000  0.579149  0.085855  1
  O  O23  1  0.250000  0.420851  0.914145  1
