# generated using pymatgen
data_BaCoBP2HO9
_symmetry_space_group_name_H-M   'P 1'
_cell_length_a   5.37517443
_cell_length_b   8.11957615
_cell_length_c   8.37743585
_cell_angle_alpha   88.53978608
_cell_angle_beta   79.38264600
_cell_angle_gamma   87.05340751
_symmetry_Int_Tables_number   1
_chemical_formula_structural   BaCoBP2HO9
_chemical_formula_sum   'Ba2 Co2 B2 P4 H2 O18'
_cell_volume   358.84342686
_cell_formula_units_Z   2
loop_
 _symmetry_equiv_pos_site_id
 _symmetry_equiv_pos_as_xyz
  1  'x, y, z'
loop_
 _atom_site_type_symbol
 _atom_site_label
 _atom_site_symmetry_multiplicity
 _atom_site_fract_x
 _atom_site_fract_y
 _atom_site_fract_z
 _atom_site_occupancy
  Ba  Ba0  1  0.277181  0.689889  0.884743  1
  Ba  Ba1  1  0.722819  0.310111  0.115257  1
  Co  Co2  1  0.273399  0.199880  0.802518  1
  Co  Co3  1  0.726601  0.800120  0.197482  1
  B  B4  1  0.887166  0.744264  0.547777  1
  B  B5  1  0.112834  0.255736  0.452223  1
  P  P6  1  0.774950  0.941034  0.817422  1
  P  P7  1  0.225050  0.058966  0.182578  1
  P  P8  1  0.199264  0.568589  0.301504  1
  P  P9  1  0.800736  0.431411  0.698496  1
  H  H10  1  0.730138  0.946501  0.453377  1
  H  H11  1  0.269862  0.053499  0.546623  1
  O  O12  1  0.446875  0.620187  0.194131  1
  O  O13  1  0.041106  0.136405  0.339588  1
  O  O14  1  0.754155  0.796856  0.945226  1
  O  O15  1  0.245845  0.203144  0.054774  1
  O  O16  1  0.271401  0.172787  0.557675  1
  O  O17  1  0.728599  0.827213  0.442325  1
  O  O18  1  0.958894  0.863595  0.660412  1
  O  O19  1  0.553125  0.379813  0.805869  1
  O  O20  1  0.019202  0.428058  0.794532  1
  O  O21  1  0.980798  0.571942  0.205468  1
  O  O22  1  0.131399  0.674510  0.457953  1
  O  O23  1  0.510280  0.983452  0.777650  1
  O  O24  1  0.266387  0.387277  0.359385  1
  O  O25  1  0.733613  0.612723  0.640615  1
  O  O26  1  0.089011  0.912458  0.136925  1
  O  O27  1  0.910989  0.087542  0.863075  1
  O  O28  1  0.489720  0.016548  0.222350  1
  O  O29  1  0.868601  0.325490  0.542047  1
