# generated using pymatgen
data_Ba2PdF6
_symmetry_space_group_name_H-M   'P 1'
_cell_length_a   9.22084280
_cell_length_b   9.22084280
_cell_length_c   6.29644216
_cell_angle_alpha   90.00000000
_cell_angle_beta   90.00000000
_cell_angle_gamma   140.03990710
_symmetry_Int_Tables_number   1
_chemical_formula_structural   Ba2PdF6
_chemical_formula_sum   'Ba4 Pd2 F12'
_cell_volume   343.82955245
_cell_formula_units_Z   2
loop_
 _symmetry_equiv_pos_site_id
 _symmetry_equiv_pos_as_xyz
  1  'x, y, z'
loop_
 _atom_site_type_symbol
 _atom_site_label
 _atom_site_symmetry_multiplicity
 _atom_site_fract_x
 _atom_site_fract_y
 _atom_site_fract_z
 _atom_site_occupancy
  Ba  Ba0  1  0.339461  0.660539  0.500000  1
  Ba  Ba1  1  0.160539  0.839461  1.000000  1
  Ba  Ba2  1  0.660539  0.339461  0.500000  1
  Ba  Ba3  1  0.839461  0.160539  0.000000  1
  Pd  Pd4  1  0.000000  0.000000  0.500000  1
  Pd  Pd5  1  0.500000  0.500000  1.000000  1
  F  F6  1  0.425697  0.259981  0.842250  1
  F  F7  1  0.074303  0.240019  0.342250  1
  F  F8  1  0.759981  0.925697  0.657750  1
  F  F9  1  0.740019  0.574303  0.157750  1
  F  F10  1  0.574303  0.740019  0.157750  1
  F  F11  1  0.925697  0.759981  0.657750  1
  F  F12  1  0.493106  0.993106  0.750000  1
  F  F13  1  0.006894  0.506894  0.250000  1
  F  F14  1  0.506894  0.006894  0.250000  1
  F  F15  1  0.993106  0.493106  0.750000  1
  F  F16  1  0.259981  0.425697  0.842250  1
  F  F17  1  0.240019  0.074303  0.342250  1
