# generated using pymatgen
data_S8O
_symmetry_space_group_name_H-M   'P 1'
_cell_length_a   8.53297493
_cell_length_b   8.72448133
_cell_length_c   14.21235310
_cell_angle_alpha   90.00000000
_cell_angle_beta   90.00000000
_cell_angle_gamma   90.00000000
_symmetry_Int_Tables_number   1
_chemical_formula_structural   S8O
_chemical_formula_sum   'S32 O4'
_cell_volume   1058.04971879
_cell_formula_units_Z   4
loop_
 _symmetry_equiv_pos_site_id
 _symmetry_equiv_pos_as_xyz
  1  'x, y, z'
loop_
 _atom_site_type_symbol
 _atom_site_label
 _atom_site_symmetry_multiplicity
 _atom_site_fract_x
 _atom_site_fract_y
 _atom_site_fract_z
 _atom_site_occupancy
  S  S0  1  0.532585  0.492050  0.361930  1
  S  S1  1  0.467415  0.992050  0.638070  1
  S  S2  1  0.467415  0.492050  0.861930  1
  S  S3  1  0.532585  0.992050  0.138070  1
  S  S4  1  0.490326  0.355050  0.471964  1
  S  S5  1  0.509674  0.855050  0.528036  1
  S  S6  1  0.509674  0.355050  0.971964  1
  S  S7  1  0.490326  0.855050  0.028036  1
  S  S8  1  0.640045  0.411532  0.583379  1
  S  S9  1  0.359955  0.911532  0.416621  1
  S  S10  1  0.359955  0.411532  0.083379  1
  S  S11  1  0.640045  0.911532  0.916621  1
  S  S12  1  0.821001  0.256089  0.585126  1
  S  S13  1  0.178999  0.756089  0.414874  1
  S  S14  1  0.178999  0.256089  0.085126  1
  S  S15  1  0.821001  0.756089  0.914874  1
  S  S16  1  0.014420  0.353478  0.523702  1
  S  S17  1  0.985580  0.853478  0.476298  1
  S  S18  1  0.985580  0.353478  0.023702  1
  S  S19  1  0.014420  0.853478  0.976298  1
  S  S20  1  0.026757  0.283898  0.382863  1
  S  S21  1  0.973243  0.783898  0.617137  1
  S  S22  1  0.973243  0.283898  0.882863  1
  S  S23  1  0.026757  0.783898  0.117137  1
  S  S24  1  0.931999  0.445421  0.300669  1
  S  S25  1  0.068001  0.945421  0.699331  1
  S  S26  1  0.068001  0.445421  0.800669  1
  S  S27  1  0.931999  0.945421  0.199331  1
  S  S28  1  0.691161  0.850428  0.230514  1
  S  S29  1  0.308839  0.350428  0.769486  1
  S  S30  1  0.308839  0.850428  0.730514  1
  S  S31  1  0.691161  0.350428  0.269486  1
  O  O32  1  0.689548  0.693253  0.190608  1
  O  O33  1  0.310452  0.193253  0.809392  1
  O  O34  1  0.310452  0.693253  0.690608  1
  O  O35  1  0.689548  0.193253  0.309392  1
