# generated using pymatgen
data_TbCl3
_symmetry_space_group_name_H-M   'P 1'
_cell_length_a   6.88718208
_cell_length_b   6.88718208
_cell_length_c   8.57883458
_cell_angle_alpha   90.00000000
_cell_angle_beta   90.00000000
_cell_angle_gamma   147.77419320
_symmetry_Int_Tables_number   1
_chemical_formula_structural   TbCl3
_chemical_formula_sum   'Tb2 Cl6'
_cell_volume   216.99427747
_cell_formula_units_Z   2
loop_
 _symmetry_equiv_pos_site_id
 _symmetry_equiv_pos_as_xyz
  1  'x, y, z'
loop_
 _atom_site_type_symbol
 _atom_site_label
 _atom_site_symmetry_multiplicity
 _atom_site_fract_x
 _atom_site_fract_y
 _atom_site_fract_z
 _atom_site_occupancy
  Tb  Tb0  1  0.740643  0.259357  0.250000  1
  Tb  Tb1  1  0.259357  0.740643  0.750000  1
  Cl  Cl2  1  0.341719  0.658281  0.068422  1
  Cl  Cl3  1  0.658281  0.341719  0.931578  1
  Cl  Cl4  1  0.900405  0.099595  0.750000  1
  Cl  Cl5  1  0.099595  0.900405  0.250000  1
  Cl  Cl6  1  0.341719  0.658281  0.431578  1
  Cl  Cl7  1  0.658281  0.341719  0.568422  1
