# generated using pymatgen
data_Rb2MgH8(CO5)2
_symmetry_space_group_name_H-M   'P 1'
_cell_length_a   7.16279049
_cell_length_b   6.52221020
_cell_length_c   12.35283750
_cell_angle_alpha   90.00000000
_cell_angle_beta   115.04503720
_cell_angle_gamma   90.00000000
_symmetry_Int_Tables_number   1
_chemical_formula_structural   Rb2MgH8(CO5)2
_chemical_formula_sum   'Rb4 Mg2 H16 C4 O20'
_cell_volume   522.82955500
_cell_formula_units_Z   2
loop_
 _symmetry_equiv_pos_site_id
 _symmetry_equiv_pos_as_xyz
  1  'x, y, z'
loop_
 _atom_site_type_symbol
 _atom_site_label
 _atom_site_symmetry_multiplicity
 _atom_site_fract_x
 _atom_site_fract_y
 _atom_site_fract_z
 _atom_site_occupancy
  Rb  Rb0  1  0.247716  0.647965  0.824138  1
  Rb  Rb1  1  0.752284  0.147965  0.675862  1
  Rb  Rb2  1  0.752284  0.352035  0.175862  1
  Rb  Rb3  1  0.247716  0.852035  0.324138  1
  Mg  Mg4  1  0.000000  0.000000  0.000000  1
  Mg  Mg5  1  0.000000  0.500000  0.500000  1
  H  H6  1  0.293185  0.679729  0.085522  1
  H  H7  1  0.706815  0.179729  0.414478  1
  H  H8  1  0.706815  0.320271  0.914478  1
  H  H9  1  0.293185  0.820271  0.585522  1
  H  H10  1  0.426193  0.884688  0.122125  1
  H  H11  1  0.573807  0.384688  0.377875  1
  H  H12  1  0.799930  0.655128  0.634943  1
  H  H13  1  0.200070  0.155128  0.865057  1
  H  H14  1  0.200070  0.344872  0.365057  1
  H  H15  1  0.426193  0.615312  0.622125  1
  H  H16  1  0.800678  0.706413  0.022490  1
  H  H17  1  0.199322  0.206413  0.477510  1
  H  H18  1  0.199322  0.293587  0.977510  1
  H  H19  1  0.800678  0.793587  0.522490  1
  H  H20  1  0.573807  0.115312  0.877875  1
  H  H21  1  0.799930  0.844872  0.134943  1
  C  C22  1  0.753199  0.651139  0.825153  1
  C  C23  1  0.753199  0.848861  0.325153  1
  C  C24  1  0.246801  0.348861  0.174847  1
  C  C25  1  0.246801  0.151139  0.674847  1
  O  O26  1  0.713850  0.168431  0.930423  1
  O  O27  1  0.691869  0.574278  0.902623  1
  O  O28  1  0.885337  0.699398  0.591606  1
  O  O29  1  0.114663  0.199398  0.908394  1
  O  O30  1  0.114663  0.300602  0.408394  1
  O  O31  1  0.885337  0.800602  0.091606  1
  O  O32  1  0.286150  0.668431  0.569577  1
  O  O33  1  0.308131  0.074278  0.597377  1
  O  O34  1  0.713850  0.331569  0.430423  1
  O  O35  1  0.286150  0.831569  0.069577  1
  O  O36  1  0.882459  0.802350  0.854570  1
  O  O37  1  0.117541  0.302350  0.645430  1
  O  O38  1  0.117541  0.197650  0.145430  1
  O  O39  1  0.882459  0.697650  0.354570  1
  O  O40  1  0.316649  0.073999  0.782062  1
  O  O41  1  0.316649  0.426001  0.282062  1
  O  O42  1  0.691869  0.925722  0.402623  1
  O  O43  1  0.683351  0.573999  0.717938  1
  O  O44  1  0.308131  0.425722  0.097377  1
  O  O45  1  0.683351  0.926001  0.217938  1
