# generated using pymatgen
data_Te2PdCl10
_symmetry_space_group_name_H-M   'P 1'
_cell_length_a   14.36795496
_cell_length_b   7.78147875
_cell_length_c   21.47394525
_cell_angle_alpha   90.00000000
_cell_angle_beta   131.80895321
_cell_angle_gamma   90.00000000
_symmetry_Int_Tables_number   1
_chemical_formula_structural   Te2PdCl10
_chemical_formula_sum   'Te8 Pd4 Cl40'
_cell_volume   1789.54207654
_cell_formula_units_Z   4
loop_
 _symmetry_equiv_pos_site_id
 _symmetry_equiv_pos_as_xyz
  1  'x, y, z'
loop_
 _atom_site_type_symbol
 _atom_site_label
 _atom_site_symmetry_multiplicity
 _atom_site_fract_x
 _atom_site_fract_y
 _atom_site_fract_z
 _atom_site_occupancy
  Te  Te0  1  0.288190  0.431387  0.546089  1
  Te  Te1  1  0.711810  0.931387  0.953911  1
  Te  Te2  1  0.711810  0.568613  0.453911  1
  Te  Te3  1  0.288190  0.068613  0.046089  1
  Te  Te4  1  0.846010  0.901705  0.786654  1
  Te  Te5  1  0.153990  0.401705  0.713346  1
  Te  Te6  1  0.153990  0.098295  0.213346  1
  Te  Te7  1  0.846010  0.598295  0.286654  1
  Pd  Pd8  1  0.034566  0.766591  0.019297  1
  Pd  Pd9  1  0.965434  0.266591  0.480703  1
  Pd  Pd10  1  0.965434  0.233409  0.980703  1
  Pd  Pd11  1  0.034566  0.733409  0.519297  1
  Cl  Cl12  1  0.674222  0.436234  0.170642  1
  Cl  Cl13  1  0.325778  0.936234  0.329358  1
  Cl  Cl14  1  0.325778  0.563766  0.829358  1
  Cl  Cl15  1  0.674222  0.063766  0.670642  1
  Cl  Cl16  1  0.758379  0.865180  0.217099  1
  Cl  Cl17  1  0.241621  0.365180  0.282901  1
  Cl  Cl18  1  0.241621  0.134820  0.782901  1
  Cl  Cl19  1  0.758379  0.634820  0.717099  1
  Cl  Cl20  1  0.959905  0.567573  0.245158  1
  Cl  Cl21  1  0.040095  0.067573  0.254842  1
  Cl  Cl22  1  0.040095  0.432427  0.754842  1
  Cl  Cl23  1  0.959905  0.932427  0.745158  1
  Cl  Cl24  1  0.009382  0.797038  0.114860  1
  Cl  Cl25  1  0.990618  0.297038  0.385140  1
  Cl  Cl26  1  0.990618  0.202962  0.885140  1
  Cl  Cl27  1  0.009382  0.702962  0.614860  1
  Cl  Cl28  1  0.060890  0.731763  0.924417  1
  Cl  Cl29  1  0.939110  0.231763  0.575583  1
  Cl  Cl30  1  0.939110  0.268237  0.075583  1
  Cl  Cl31  1  0.060890  0.768237  0.424417  1
  Cl  Cl32  1  0.246155  0.822782  0.123532  1
  Cl  Cl33  1  0.753845  0.322782  0.376468  1
  Cl  Cl34  1  0.753845  0.177218  0.876468  1
  Cl  Cl35  1  0.246155  0.677218  0.623532  1
  Cl  Cl36  1  0.822865  0.704954  0.914220  1
  Cl  Cl37  1  0.177135  0.204954  0.585780  1
  Cl  Cl38  1  0.177135  0.295046  0.085780  1
  Cl  Cl39  1  0.822865  0.795046  0.414220  1
  Cl  Cl40  1  0.385769  0.866280  0.022664  1
  Cl  Cl41  1  0.614231  0.366280  0.477336  1
  Cl  Cl42  1  0.614231  0.133720  0.977336  1
  Cl  Cl43  1  0.385769  0.633720  0.522664  1
  Cl  Cl44  1  0.328579  0.304566  0.996932  1
  Cl  Cl45  1  0.671421  0.804566  0.503068  1
  Cl  Cl46  1  0.671421  0.695434  0.003068  1
  Cl  Cl47  1  0.328579  0.195434  0.496932  1
  Cl  Cl48  1  0.469954  0.117295  0.185129  1
  Cl  Cl49  1  0.530046  0.617295  0.314871  1
  Cl  Cl50  1  0.530046  0.882705  0.814871  1
  Cl  Cl51  1  0.469954  0.382705  0.685129  1
