# generated using pymatgen
data_Cs2Pd(IBr2)2
_symmetry_space_group_name_H-M   'P 1'
_cell_length_a   7.54933027
_cell_length_b   7.54933027
_cell_length_c   8.92546294
_cell_angle_alpha   55.65624116
_cell_angle_beta   124.34375884
_cell_angle_gamma   111.80136810
_symmetry_Int_Tables_number   1
_chemical_formula_structural   Cs2Pd(IBr2)2
_chemical_formula_sum   'Cs2 Pd1 I2 Br4'
_cell_volume   345.72905545
_cell_formula_units_Z   1
loop_
 _symmetry_equiv_pos_site_id
 _symmetry_equiv_pos_as_xyz
  1  'x, y, z'
loop_
 _atom_site_type_symbol
 _atom_site_label
 _atom_site_symmetry_multiplicity
 _atom_site_fract_x
 _atom_site_fract_y
 _atom_site_fract_z
 _atom_site_occupancy
  Cs  Cs0  1  0.245769  0.754231  0.724113  1
  Cs  Cs1  1  0.754231  0.245769  0.275887  1
  Pd  Pd2  1  0.000000  0.000000  0.000000  1
  I  I3  1  0.656913  0.343087  0.650839  1
  I  I4  1  0.343087  0.656913  0.349161  1
  Br  Br5  1  0.808490  0.777080  0.818536  1
  Br  Br6  1  0.191510  0.222920  0.181464  1
  Br  Br7  1  0.222920  0.191510  0.818536  1
  Br  Br8  1  0.777080  0.808490  0.181464  1
