# generated using pymatgen
data_SiPbO3
_symmetry_space_group_name_H-M   'P 1'
_cell_length_a   11.40387557
_cell_length_b   7.15311200
_cell_length_c   13.25526159
_cell_angle_alpha   90.00000000
_cell_angle_beta   119.59443949
_cell_angle_gamma   90.00000000
_symmetry_Int_Tables_number   1
_chemical_formula_structural   SiPbO3
_chemical_formula_sum   'Si12 Pb12 O36'
_cell_volume   940.21417059
_cell_formula_units_Z   12
loop_
 _symmetry_equiv_pos_site_id
 _symmetry_equiv_pos_as_xyz
  1  'x, y, z'
loop_
 _atom_site_type_symbol
 _atom_site_label
 _atom_site_symmetry_multiplicity
 _atom_site_fract_x
 _atom_site_fract_y
 _atom_site_fract_z
 _atom_site_occupancy
  Si  Si0  1  0.750806  0.817515  0.536470  1
  Si  Si1  1  0.249194  0.817515  0.963530  1
  Si  Si2  1  0.249194  0.182485  0.463530  1
  Si  Si3  1  0.750806  0.182485  0.036470  1
  Si  Si4  1  0.137038  0.593531  0.106972  1
  Si  Si5  1  0.862962  0.593531  0.393028  1
  Si  Si6  1  0.862962  0.406469  0.893028  1
  Si  Si7  1  0.137038  0.406469  0.606972  1
  Si  Si8  1  0.464995  0.872659  0.345982  1
  Si  Si9  1  0.535005  0.872659  0.154018  1
  Si  Si10  1  0.535005  0.127341  0.654018  1
  Si  Si11  1  0.464995  0.127341  0.845982  1
  Pb  Pb12  1  0.199069  0.694979  0.397555  1
  Pb  Pb13  1  0.800931  0.694979  0.102445  1
  Pb  Pb14  1  0.800931  0.305021  0.602445  1
  Pb  Pb15  1  0.199069  0.305021  0.897555  1
  Pb  Pb16  1  0.566624  0.615762  0.654699  1
  Pb  Pb17  1  0.433376  0.615762  0.845301  1
  Pb  Pb18  1  0.433376  0.384238  0.345301  1
  Pb  Pb19  1  0.566624  0.384238  0.154699  1
  Pb  Pb20  1  0.868607  0.940147  0.821944  1
  Pb  Pb21  1  0.131393  0.940147  0.678056  1
  Pb  Pb22  1  0.131393  0.059853  0.178056  1
  Pb  Pb23  1  0.868607  0.059853  0.321944  1
  O  O24  1  0.858229  0.953362  0.641219  1
  O  O25  1  0.141771  0.953362  0.858781  1
  O  O26  1  0.141771  0.046638  0.358781  1
  O  O27  1  0.858229  0.046638  0.141219  1
  O  O28  1  0.717263  0.629235  0.586563  1
  O  O29  1  0.282737  0.629235  0.913437  1
  O  O30  1  0.282737  0.370765  0.413437  1
  O  O31  1  0.717263  0.370765  0.086563  1
  O  O32  1  0.755873  0.574760  0.832961  1
  O  O33  1  0.244127  0.574760  0.667039  1
  O  O34  1  0.244127  0.425240  0.167039  1
  O  O35  1  0.755873  0.425240  0.332961  1
  O  O36  1  0.098930  0.713933  0.193253  1
  O  O37  1  0.901070  0.713933  0.306747  1
  O  O38  1  0.613426  0.941898  0.454680  1
  O  O39  1  0.901070  0.286067  0.806747  1
  O  O40  1  0.365670  0.052065  0.290693  1
  O  O41  1  0.634330  0.052065  0.209307  1
  O  O42  1  0.634330  0.947935  0.709307  1
  O  O43  1  0.365670  0.947935  0.790693  1
  O  O44  1  0.401380  0.709748  0.391254  1
  O  O45  1  0.598620  0.709748  0.108746  1
  O  O46  1  0.598620  0.290252  0.608746  1
  O  O47  1  0.401380  0.290252  0.891254  1
  O  O48  1  0.000000  0.500000  0.500000  1
  O  O49  1  0.000000  0.500000  0.000000  1
  O  O50  1  0.500000  0.226159  0.750000  1
  O  O51  1  0.500000  0.773841  0.250000  1
  O  O52  1  0.182379  0.239357  0.545451  1
  O  O53  1  0.817621  0.239357  0.954549  1
  O  O54  1  0.817621  0.760643  0.454549  1
  O  O55  1  0.182379  0.760643  0.045451  1
  O  O56  1  0.613426  0.058102  0.954680  1
  O  O57  1  0.386574  0.058102  0.545320  1
  O  O58  1  0.386574  0.941898  0.045320  1
  O  O59  1  0.098930  0.286067  0.693253  1
