# generated using pymatgen
data_Si2H6S
_symmetry_space_group_name_H-M   'P 1'
_cell_length_a   8.48019000
_cell_length_b   9.21882600
_cell_length_c   15.49374600
_cell_angle_alpha   90.00000000
_cell_angle_beta   90.00000000
_cell_angle_gamma   90.00000000
_symmetry_Int_Tables_number   1
_chemical_formula_structural   Si2H6S
_chemical_formula_sum   'Si16 H48 S8'
_cell_volume   1211.26071745
_cell_formula_units_Z   8
loop_
 _symmetry_equiv_pos_site_id
 _symmetry_equiv_pos_as_xyz
  1  'x, y, z'
loop_
 _atom_site_type_symbol
 _atom_site_label
 _atom_site_symmetry_multiplicity
 _atom_site_fract_x
 _atom_site_fract_y
 _atom_site_fract_z
 _atom_site_occupancy
  Si  Si0  1  0.742350  0.894421  0.035946  1
  Si  Si1  1  0.242350  0.105579  0.464054  1
  Si  Si2  1  0.757650  0.394421  0.464054  1
  Si  Si3  1  0.257650  0.605579  0.035946  1
  Si  Si4  1  0.257650  0.105579  0.964054  1
  Si  Si5  1  0.757650  0.894421  0.535946  1
  Si  Si6  1  0.242350  0.605579  0.535946  1
  Si  Si7  1  0.742350  0.394421  0.964054  1
  Si  Si8  1  0.902427  0.016981  0.215754  1
  Si  Si9  1  0.402427  0.983019  0.284246  1
  Si  Si10  1  0.597573  0.516981  0.284246  1
  Si  Si11  1  0.097573  0.483019  0.215754  1
  Si  Si12  1  0.097573  0.983019  0.784246  1
  Si  Si13  1  0.597573  0.016981  0.715754  1
  Si  Si14  1  0.402427  0.483019  0.715754  1
  Si  Si15  1  0.902427  0.516981  0.784246  1
  H  H16  1  0.906243  0.881064  0.002114  1
  H  H17  1  0.406243  0.118936  0.497886  1
  H  H18  1  0.593757  0.381064  0.497886  1
  H  H19  1  0.093757  0.618936  0.002114  1
  H  H20  1  0.093757  0.118936  0.997886  1
  H  H21  1  0.593757  0.881064  0.502114  1
  H  H22  1  0.406243  0.618936  0.502114  1
  H  H23  1  0.906243  0.381064  0.997886  1
  H  H24  1  0.697513  0.757839  0.081317  1
  H  H25  1  0.197513  0.242161  0.418683  1
  H  H26  1  0.802487  0.257839  0.418683  1
  H  H27  1  0.302487  0.742161  0.081317  1
  H  H28  1  0.302487  0.242161  0.918683  1
  H  H29  1  0.802487  0.757839  0.581317  1
  H  H30  1  0.197513  0.742161  0.581317  1
  H  H31  1  0.697513  0.257839  0.918683  1
  H  H32  1  0.629172  0.926080  0.965006  1
  H  H33  1  0.129172  0.073920  0.534994  1
  H  H34  1  0.870828  0.426080  0.534994  1
  H  H35  1  0.370828  0.573920  0.965006  1
  H  H36  1  0.370828  0.073920  0.034994  1
  H  H37  1  0.870828  0.926080  0.465006  1
  H  H38  1  0.129172  0.573920  0.465006  1
  H  H39  1  0.629172  0.426080  0.034994  1
  H  H40  1  0.062138  0.020460  0.175466  1
  H  H41  1  0.562138  0.979540  0.324534  1
  H  H42  1  0.437862  0.520460  0.324534  1
  H  H43  1  0.937862  0.479540  0.175466  1
  H  H44  1  0.937862  0.979540  0.824534  1
  H  H45  1  0.437862  0.020460  0.675466  1
  H  H46  1  0.562138  0.479540  0.675466  1
  H  H47  1  0.062138  0.520460  0.824534  1
  H  H48  1  0.869653  0.869003  0.250064  1
  H  H49  1  0.369653  0.130997  0.249936  1
  H  H50  1  0.630347  0.369003  0.249936  1
  H  H51  1  0.130347  0.630997  0.250064  1
  H  H52  1  0.130347  0.130997  0.749936  1
  H  H53  1  0.630347  0.869003  0.750064  1
  H  H54  1  0.369653  0.630997  0.750064  1
  H  H55  1  0.869653  0.369003  0.749936  1
  H  H56  1  0.890478  0.128317  0.284992  1
  H  H57  1  0.390478  0.871683  0.215008  1
  H  H58  1  0.609522  0.628317  0.215008  1
  H  H59  1  0.109522  0.371683  0.284992  1
  H  H60  1  0.109522  0.871683  0.715008  1
  H  H61  1  0.609522  0.128317  0.784992  1
  H  H62  1  0.390478  0.371683  0.784992  1
  H  H63  1  0.890478  0.628317  0.715008  1
  S  S64  1  0.724378  0.076898  0.122699  1
  S  S65  1  0.224378  0.923102  0.377301  1
  S  S66  1  0.775622  0.576898  0.377301  1
  S  S67  1  0.275622  0.423102  0.122699  1
  S  S68  1  0.275622  0.923102  0.877301  1
  S  S69  1  0.775622  0.076898  0.622699  1
  S  S70  1  0.224378  0.423102  0.622699  1
  S  S71  1  0.724378  0.576898  0.877301  1
