# generated using pymatgen
data_As2(SO4)3
_symmetry_space_group_name_H-M   'P 1'
_cell_length_a   9.59521909
_cell_length_b   5.47216796
_cell_length_c   19.85222938
_cell_angle_alpha   90.00000000
_cell_angle_beta   92.31032893
_cell_angle_gamma   90.00000000
_symmetry_Int_Tables_number   1
_chemical_formula_structural   As2(SO4)3
_chemical_formula_sum   'As8 S12 O48'
_cell_volume   1041.52676890
_cell_formula_units_Z   4
loop_
 _symmetry_equiv_pos_site_id
 _symmetry_equiv_pos_as_xyz
  1  'x, y, z'
loop_
 _atom_site_type_symbol
 _atom_site_label
 _atom_site_symmetry_multiplicity
 _atom_site_fract_x
 _atom_site_fract_y
 _atom_site_fract_z
 _atom_site_occupancy
  As  As0  1  0.626536  0.729736  0.370464  1
  As  As1  1  0.373464  0.229736  0.129536  1
  As  As2  1  0.373464  0.270264  0.629536  1
  As  As3  1  0.626536  0.770264  0.870464  1
  As  As4  1  0.877677  0.692319  0.128113  1
  As  As5  1  0.122323  0.192319  0.371887  1
  As  As6  1  0.122323  0.307681  0.871887  1
  As  As7  1  0.877677  0.807681  0.628113  1
  S  S8  1  0.585818  0.854214  0.152543  1
  S  S9  1  0.414182  0.354214  0.347457  1
  S  S10  1  0.414182  0.145786  0.847457  1
  S  S11  1  0.585818  0.645786  0.652543  1
  S  S12  1  0.146106  0.910195  0.184016  1
  S  S13  1  0.853894  0.410195  0.315984  1
  S  S14  1  0.853894  0.089805  0.815984  1
  S  S15  1  0.146106  0.589805  0.684016  1
  S  S16  1  0.801196  0.569242  0.985742  1
  S  S17  1  0.198804  0.069242  0.514258  1
  S  S18  1  0.198804  0.430758  0.014258  1
  S  S19  1  0.801196  0.930758  0.485742  1
  O  O20  1  0.530084  0.915025  0.216709  1
  O  O21  1  0.469916  0.415025  0.283291  1
  O  O22  1  0.469916  0.084975  0.783291  1
  O  O23  1  0.530084  0.584975  0.716709  1
  O  O24  1  0.572544  0.607319  0.126839  1
  O  O25  1  0.427456  0.107319  0.373161  1
  O  O26  1  0.427456  0.392681  0.873161  1
  O  O27  1  0.572544  0.892681  0.626839  1
  O  O28  1  0.518924  0.037356  0.098516  1
  O  O29  1  0.481076  0.537356  0.401484  1
  O  O30  1  0.481076  0.962644  0.901484  1
  O  O31  1  0.518924  0.462644  0.598516  1
  O  O32  1  0.742690  0.928458  0.151352  1
  O  O33  1  0.257310  0.428458  0.348648  1
  O  O34  1  0.257310  0.071542  0.848648  1
  O  O35  1  0.742690  0.571542  0.651352  1
  O  O36  1  0.158461  0.110167  0.231265  1
  O  O37  1  0.156747  0.662919  0.207332  1
  O  O38  1  0.843253  0.337081  0.792668  1
  O  O39  1  0.156747  0.837081  0.707332  1
  O  O40  1  0.859298  0.727001  0.535805  1
  O  O41  1  0.140702  0.227001  0.964195  1
  O  O42  1  0.140702  0.272999  0.464195  1
  O  O43  1  0.859298  0.772999  0.035805  1
  O  O44  1  0.657657  0.811099  0.461372  1
  O  O45  1  0.342343  0.311099  0.038628  1
  O  O46  1  0.342343  0.188901  0.538628  1
  O  O47  1  0.657657  0.688901  0.961372  1
  O  O48  1  0.774434  0.149329  0.522741  1
  O  O49  1  0.225566  0.649329  0.977259  1
  O  O50  1  0.225566  0.850671  0.477259  1
  O  O51  1  0.774434  0.350671  0.022741  1
  O  O52  1  0.889361  0.936742  0.428360  1
  O  O53  1  0.110639  0.436742  0.071640  1
  O  O54  1  0.110639  0.063258  0.571640  1
  O  O55  1  0.889361  0.563258  0.928360  1
  O  O56  1  0.003481  0.553573  0.641731  1
  O  O57  1  0.996519  0.053573  0.858269  1
  O  O58  1  0.996519  0.446427  0.358269  1
  O  O59  1  0.003481  0.946427  0.141731  1
  O  O60  1  0.253579  0.549077  0.627189  1
  O  O61  1  0.746421  0.049077  0.872811  1
  O  O62  1  0.746421  0.450923  0.372811  1
  O  O63  1  0.253579  0.950923  0.127189  1
  O  O64  1  0.158461  0.389833  0.731265  1
  O  O65  1  0.841539  0.889833  0.768735  1
  O  O66  1  0.841539  0.610167  0.268735  1
  O  O67  1  0.843253  0.162919  0.292668  1
