# generated using pymatgen
data_V2WO6
_symmetry_space_group_name_H-M   'P 1'
_cell_length_a   4.69122644
_cell_length_b   4.69122644
_cell_length_c   9.21137095
_cell_angle_alpha   90.00000000
_cell_angle_beta   90.00000000
_cell_angle_gamma   90.00000000
_symmetry_Int_Tables_number   1
_chemical_formula_structural   V2WO6
_chemical_formula_sum   'V4 W2 O12'
_cell_volume   202.72021809
_cell_formula_units_Z   2
loop_
 _symmetry_equiv_pos_site_id
 _symmetry_equiv_pos_as_xyz
  1  'x, y, z'
loop_
 _atom_site_type_symbol
 _atom_site_label
 _atom_site_symmetry_multiplicity
 _atom_site_fract_x
 _atom_site_fract_y
 _atom_site_fract_z
 _atom_site_occupancy
  V  V0  1  0.500000  0.500000  0.666189  1
  V  V1  1  0.000000  0.000000  0.166189  1
  V  V2  1  0.000000  0.000000  0.833811  1
  V  V3  1  0.500000  0.500000  0.333811  1
  W  W4  1  0.000000  0.000000  0.500000  1
  W  W5  1  0.500000  0.500000  0.000000  1
  O  O6  1  0.196069  0.196069  0.658863  1
  O  O7  1  0.803931  0.803931  0.658863  1
  O  O8  1  0.196069  0.196069  0.341137  1
  O  O9  1  0.696069  0.303931  0.158863  1
  O  O10  1  0.303931  0.696069  0.158863  1
  O  O11  1  0.303931  0.696069  0.841137  1
  O  O12  1  0.794278  0.794278  0.000000  1
  O  O13  1  0.705722  0.294278  0.500000  1
  O  O14  1  0.294278  0.705722  0.500000  1
  O  O15  1  0.696069  0.303931  0.841137  1
  O  O16  1  0.803931  0.803931  0.341137  1
  O  O17  1  0.205722  0.205722  0.000000  1
