# generated using pymatgen
data_CuW3Cl7
_symmetry_space_group_name_H-M   'P 1'
_cell_length_a   13.13928767
_cell_length_b   13.13928767
_cell_length_c   13.13928767
_cell_angle_alpha   90.00000000
_cell_angle_beta   90.00000000
_cell_angle_gamma   90.00000000
_symmetry_Int_Tables_number   1
_chemical_formula_structural   CuW3Cl7
_chemical_formula_sum   'Cu8 W24 Cl56'
_cell_volume   2268.37819216
_cell_formula_units_Z   8
loop_
 _symmetry_equiv_pos_site_id
 _symmetry_equiv_pos_as_xyz
  1  'x, y, z'
loop_
 _atom_site_type_symbol
 _atom_site_label
 _atom_site_symmetry_multiplicity
 _atom_site_fract_x
 _atom_site_fract_y
 _atom_site_fract_z
 _atom_site_occupancy
  Cu  Cu0  1  0.188243  0.188243  0.188243  1
  Cu  Cu1  1  0.811757  0.811757  0.188243  1
  Cu  Cu2  1  0.188243  0.811757  0.811757  1
  Cu  Cu3  1  0.811757  0.188243  0.811757  1
  Cu  Cu4  1  0.311757  0.311757  0.311757  1
  Cu  Cu5  1  0.688243  0.688243  0.311757  1
  Cu  Cu6  1  0.311757  0.688243  0.688243  1
  Cu  Cu7  1  0.688243  0.311757  0.688243  1
  W  W8  1  0.885982  0.725047  0.781119  1
  W  W9  1  0.781119  0.885982  0.725047  1
  W  W10  1  0.725047  0.781119  0.885982  1
  W  W11  1  0.274953  0.218881  0.885982  1
  W  W12  1  0.781119  0.114018  0.274953  1
  W  W13  1  0.274953  0.781119  0.114018  1
  W  W14  1  0.218881  0.114018  0.725047  1
  W  W15  1  0.218881  0.885982  0.274953  1
  W  W16  1  0.725047  0.218881  0.114018  1
  W  W17  1  0.885982  0.274953  0.218881  1
  W  W18  1  0.114018  0.725047  0.218881  1
  W  W19  1  0.114018  0.274953  0.781119  1
  W  W20  1  0.614018  0.774953  0.718881  1
  W  W21  1  0.718881  0.614018  0.774953  1
  W  W22  1  0.774953  0.718881  0.614018  1
  W  W23  1  0.225047  0.281119  0.614018  1
  W  W24  1  0.718881  0.385982  0.225047  1
  W  W25  1  0.225047  0.718881  0.385982  1
  W  W26  1  0.281119  0.385982  0.774953  1
  W  W27  1  0.281119  0.614018  0.225047  1
  W  W28  1  0.774953  0.281119  0.385982  1
  W  W29  1  0.614018  0.225047  0.281119  1
  W  W30  1  0.385982  0.774953  0.281119  1
  W  W31  1  0.385982  0.225047  0.718881  1
  Cl  Cl32  1  0.885739  0.885739  0.885739  1
  Cl  Cl33  1  0.114261  0.114261  0.885739  1
  Cl  Cl34  1  0.885739  0.114261  0.114261  1
  Cl  Cl35  1  0.114261  0.885739  0.114261  1
  Cl  Cl36  1  0.614261  0.614261  0.614261  1
  Cl  Cl37  1  0.385739  0.385739  0.614261  1
  Cl  Cl38  1  0.614261  0.385739  0.385739  1
  Cl  Cl39  1  0.385739  0.614261  0.385739  1
  Cl  Cl40  1  0.932670  0.825030  0.625323  1
  Cl  Cl41  1  0.625323  0.932670  0.825030  1
  Cl  Cl42  1  0.825030  0.625323  0.932670  1
  Cl  Cl43  1  0.174970  0.374677  0.932670  1
  Cl  Cl44  1  0.625323  0.067330  0.174970  1
  Cl  Cl45  1  0.174970  0.625323  0.067330  1
  Cl  Cl46  1  0.374677  0.067330  0.825030  1
  Cl  Cl47  1  0.374677  0.932670  0.174970  1
  Cl  Cl48  1  0.825030  0.374677  0.067330  1
  Cl  Cl49  1  0.932670  0.174970  0.374677  1
  Cl  Cl50  1  0.067330  0.825030  0.374677  1
  Cl  Cl51  1  0.067330  0.174970  0.625323  1
  Cl  Cl52  1  0.567330  0.674970  0.874677  1
  Cl  Cl53  1  0.874677  0.567330  0.674970  1
  Cl  Cl54  1  0.674970  0.874677  0.567330  1
  Cl  Cl55  1  0.325030  0.125323  0.567330  1
  Cl  Cl56  1  0.874677  0.432670  0.325030  1
  Cl  Cl57  1  0.325030  0.874677  0.432670  1
  Cl  Cl58  1  0.125323  0.432670  0.674970  1
  Cl  Cl59  1  0.125323  0.567330  0.325030  1
  Cl  Cl60  1  0.674970  0.125323  0.432670  1
  Cl  Cl61  1  0.567330  0.325030  0.125323  1
  Cl  Cl62  1  0.432670  0.674970  0.125323  1
  Cl  Cl63  1  0.432670  0.325030  0.874677  1
  Cl  Cl64  1  0.066113  0.691265  0.827875  1
  Cl  Cl65  1  0.827875  0.066113  0.691265  1
  Cl  Cl66  1  0.691265  0.827875  0.066113  1
  Cl  Cl67  1  0.308735  0.172125  0.066113  1
  Cl  Cl68  1  0.827875  0.933887  0.308735  1
  Cl  Cl69  1  0.308735  0.827875  0.933887  1
  Cl  Cl70  1  0.172125  0.933887  0.691265  1
  Cl  Cl71  1  0.172125  0.066113  0.308735  1
  Cl  Cl72  1  0.691265  0.172125  0.933887  1
  Cl  Cl73  1  0.066113  0.308735  0.172125  1
  Cl  Cl74  1  0.933887  0.691265  0.172125  1
  Cl  Cl75  1  0.933887  0.308735  0.827875  1
  Cl  Cl76  1  0.433887  0.808735  0.672125  1
  Cl  Cl77  1  0.672125  0.433887  0.808735  1
  Cl  Cl78  1  0.808735  0.672125  0.433887  1
  Cl  Cl79  1  0.191265  0.327875  0.433887  1
  Cl  Cl80  1  0.672125  0.566113  0.191265  1
  Cl  Cl81  1  0.191265  0.672125  0.566113  1
  Cl  Cl82  1  0.327875  0.566113  0.808735  1
  Cl  Cl83  1  0.327875  0.433887  0.191265  1
  Cl  Cl84  1  0.808735  0.327875  0.566113  1
  Cl  Cl85  1  0.433887  0.191265  0.327875  1
  Cl  Cl86  1  0.566113  0.808735  0.327875  1
  Cl  Cl87  1  0.566113  0.191265  0.672125  1
