# generated using pymatgen
data_LiSn2(PO4)3
_symmetry_space_group_name_H-M   'P 1'
_cell_length_a   8.61477199
_cell_length_b   8.80473234
_cell_length_c   14.92948016
_cell_angle_alpha   90.00000000
_cell_angle_beta   124.46664333
_cell_angle_gamma   90.00000000
_symmetry_Int_Tables_number   1
_chemical_formula_structural   LiSn2(PO4)3
_chemical_formula_sum   'Li4 Sn8 P12 O48'
_cell_volume   933.62400573
_cell_formula_units_Z   4
loop_
 _symmetry_equiv_pos_site_id
 _symmetry_equiv_pos_as_xyz
  1  'x, y, z'
loop_
 _atom_site_type_symbol
 _atom_site_label
 _atom_site_symmetry_multiplicity
 _atom_site_fract_x
 _atom_site_fract_y
 _atom_site_fract_z
 _atom_site_occupancy
  Li  Li0  1  0.228689  0.096032  0.303248  1
  Li  Li1  1  0.771311  0.596032  0.196752  1
  Li  Li2  1  0.228689  0.403968  0.803248  1
  Li  Li3  1  0.771311  0.903968  0.696752  1
  Sn  Sn4  1  0.150019  0.532441  0.394157  1
  Sn  Sn5  1  0.642443  0.469676  0.884437  1
  Sn  Sn6  1  0.849981  0.032441  0.105843  1
  Sn  Sn7  1  0.357557  0.969676  0.615563  1
  Sn  Sn8  1  0.642443  0.030324  0.384437  1
  Sn  Sn9  1  0.150019  0.967559  0.894157  1
  Sn  Sn10  1  0.357557  0.530324  0.115563  1
  Sn  Sn11  1  0.849981  0.467559  0.605843  1
  P  P12  1  0.465537  0.247406  0.504613  1
  P  P13  1  0.744804  0.112187  0.852311  1
  P  P14  1  0.037947  0.386088  0.150882  1
  P  P15  1  0.962053  0.886088  0.349118  1
  P  P16  1  0.255196  0.612187  0.647689  1
  P  P17  1  0.534463  0.747406  0.995387  1
  P  P18  1  0.465537  0.252594  0.004613  1
  P  P19  1  0.744804  0.387813  0.352311  1
  P  P20  1  0.037947  0.113912  0.650882  1
  P  P21  1  0.962053  0.613912  0.849118  1
  P  P22  1  0.255196  0.887813  0.147689  1
  P  P23  1  0.534463  0.752594  0.495387  1
  O  O24  1  0.518063  0.874204  0.565724  1
  O  O25  1  0.763437  0.578285  0.819243  1
  O  O26  1  0.048273  0.889623  0.112587  1
  O  O27  1  0.341862  0.687543  0.405529  1
  O  O28  1  0.328641  0.364280  0.417932  1
  O  O29  1  0.631228  0.005040  0.751803  1
  O  O30  1  0.041405  0.212476  0.175028  1
  O  O31  1  0.885264  0.416387  0.031567  1
  O  O32  1  0.661606  0.273443  0.818096  1
  O  O33  1  0.369322  0.175153  0.554998  1
  O  O34  1  0.726440  0.053325  0.943147  1
  O  O35  1  0.999049  0.483177  0.223848  1
  O  O36  1  0.000951  0.983177  0.276152  1
  O  O37  1  0.273560  0.553325  0.556853  1
  O  O38  1  0.630678  0.675153  0.945002  1
  O  O39  1  0.338394  0.773443  0.681904  1
  O  O40  1  0.114736  0.916387  0.468433  1
  O  O41  1  0.958595  0.712476  0.324972  1
  O  O42  1  0.368772  0.505040  0.748197  1
  O  O43  1  0.671359  0.864280  0.082068  1
  O  O44  1  0.658138  0.187543  0.094471  1
  O  O45  1  0.951727  0.389623  0.387413  1
  O  O46  1  0.236563  0.078285  0.680757  1
  O  O47  1  0.481937  0.374204  0.934276  1
  O  O48  1  0.518063  0.625796  0.065724  1
  O  O49  1  0.763437  0.921715  0.319243  1
  O  O50  1  0.048273  0.610377  0.612587  1
  O  O51  1  0.341862  0.812457  0.905529  1
  O  O52  1  0.328641  0.135720  0.917932  1
  O  O53  1  0.631228  0.494960  0.251803  1
  O  O54  1  0.041405  0.287524  0.675028  1
  O  O55  1  0.885264  0.083613  0.531567  1
  O  O56  1  0.661606  0.226557  0.318096  1
  O  O57  1  0.369322  0.324847  0.054998  1
  O  O58  1  0.726440  0.446675  0.443147  1
  O  O59  1  0.999049  0.016823  0.723848  1
  O  O60  1  0.000951  0.516823  0.776152  1
  O  O61  1  0.273560  0.946675  0.056853  1
  O  O62  1  0.630678  0.824847  0.445002  1
  O  O63  1  0.338394  0.726557  0.181904  1
  O  O64  1  0.114736  0.583613  0.968433  1
  O  O65  1  0.958595  0.787524  0.824972  1
  O  O66  1  0.368772  0.994960  0.248197  1
  O  O67  1  0.671359  0.635720  0.582068  1
  O  O68  1  0.658138  0.312457  0.594471  1
  O  O69  1  0.951727  0.110377  0.887413  1
  O  O70  1  0.236563  0.421715  0.180757  1
  O  O71  1  0.481937  0.125796  0.434276  1
