# generated using pymatgen
data_SbSI
_symmetry_space_group_name_H-M   'P 1'
_cell_length_a   4.11074164
_cell_length_b   9.01978266
_cell_length_c   10.78672958
_cell_angle_alpha   90.00000000
_cell_angle_beta   90.00000000
_cell_angle_gamma   90.00000000
_symmetry_Int_Tables_number   1
_chemical_formula_structural   SbSI
_chemical_formula_sum   'Sb4 S4 I4'
_cell_volume   399.95031799
_cell_formula_units_Z   4
loop_
 _symmetry_equiv_pos_site_id
 _symmetry_equiv_pos_as_xyz
  1  'x, y, z'
loop_
 _atom_site_type_symbol
 _atom_site_label
 _atom_site_symmetry_multiplicity
 _atom_site_fract_x
 _atom_site_fract_y
 _atom_site_fract_z
 _atom_site_occupancy
  Sb  Sb0  1  0.750000  0.101919  0.124621  1
  Sb  Sb1  1  0.750000  0.601919  0.375379  1
  Sb  Sb2  1  0.250000  0.898081  0.875379  1
  Sb  Sb3  1  0.250000  0.398081  0.624621  1
  S  S4  1  0.750000  0.346596  0.464359  1
  S  S5  1  0.250000  0.653404  0.535641  1
  S  S6  1  0.250000  0.153404  0.964359  1
  S  S7  1  0.750000  0.846596  0.035641  1
  I  I8  1  0.750000  0.524479  0.816054  1
  I  I9  1  0.250000  0.475521  0.183946  1
  I  I10  1  0.750000  0.024479  0.683946  1
  I  I11  1  0.250000  0.975521  0.316054  1
