# generated using pymatgen
data_SBr2O
_symmetry_space_group_name_H-M   'P 1'
_cell_length_a   4.51625374
_cell_length_b   12.28549082
_cell_length_c   19.38082339
_cell_angle_alpha   90.00000000
_cell_angle_beta   90.00000000
_cell_angle_gamma   90.00000000
_symmetry_Int_Tables_number   1
_chemical_formula_structural   SBr2O
_chemical_formula_sum   'S8 Br16 O8'
_cell_volume   1075.33323837
_cell_formula_units_Z   8
loop_
 _symmetry_equiv_pos_site_id
 _symmetry_equiv_pos_as_xyz
  1  'x, y, z'
loop_
 _atom_site_type_symbol
 _atom_site_label
 _atom_site_symmetry_multiplicity
 _atom_site_fract_x
 _atom_site_fract_y
 _atom_site_fract_z
 _atom_site_occupancy
  S  S0  1  0.636093  0.236992  0.186400  1
  S  S1  1  0.128188  0.482552  0.516241  1
  S  S2  1  0.128188  0.017448  0.016241  1
  S  S3  1  0.871812  0.982552  0.516241  1
  S  S4  1  0.363907  0.763008  0.686400  1
  S  S5  1  0.363907  0.736992  0.186400  1
  S  S6  1  0.636093  0.263008  0.686400  1
  S  S7  1  0.871812  0.517448  0.016241  1
  Br  Br8  1  0.853611  0.404963  0.205132  1
  Br  Br9  1  0.146389  0.595037  0.705132  1
  Br  Br10  1  0.146389  0.904963  0.205132  1
  Br  Br11  1  0.853611  0.095037  0.705132  1
  Br  Br12  1  0.512586  0.194977  0.297512  1
  Br  Br13  1  0.487414  0.805023  0.797512  1
  Br  Br14  1  0.487414  0.694977  0.297512  1
  Br  Br15  1  0.512586  0.305023  0.797512  1
  Br  Br16  1  0.000818  0.942963  0.404949  1
  Br  Br17  1  0.999182  0.057037  0.904949  1
  Br  Br18  1  0.999182  0.442963  0.404949  1
  Br  Br19  1  0.000818  0.557037  0.904949  1
  Br  Br20  1  0.649207  0.149858  0.498719  1
  Br  Br21  1  0.350793  0.850142  0.998719  1
  Br  Br22  1  0.350793  0.649858  0.498719  1
  Br  Br23  1  0.649207  0.350142  0.998719  1
  O  O24  1  0.867165  0.338057  0.664421  1
  O  O25  1  0.132835  0.661943  0.164421  1
  O  O26  1  0.132835  0.838057  0.664421  1
  O  O27  1  0.867165  0.161943  0.164421  1
  O  O28  1  0.357388  0.093881  0.037426  1
  O  O29  1  0.357388  0.406119  0.537426  1
  O  O30  1  0.642612  0.593881  0.037426  1
  O  O31  1  0.642612  0.906119  0.537426  1
