# generated using pymatgen
data_H5IO6
_symmetry_space_group_name_H-M   'P 1'
_cell_length_a   5.01494194
_cell_length_b   18.56454117
_cell_length_c   6.09658896
_cell_angle_alpha   90.00000000
_cell_angle_beta   122.70296026
_cell_angle_gamma   90.00000000
_symmetry_Int_Tables_number   1
_chemical_formula_structural   H5IO6
_chemical_formula_sum   'H20 I4 O24'
_cell_volume   477.61980109
_cell_formula_units_Z   4
loop_
 _symmetry_equiv_pos_site_id
 _symmetry_equiv_pos_as_xyz
  1  'x, y, z'
loop_
 _atom_site_type_symbol
 _atom_site_label
 _atom_site_symmetry_multiplicity
 _atom_site_fract_x
 _atom_site_fract_y
 _atom_site_fract_z
 _atom_site_occupancy
  H  H0  1  0.165285  0.940704  0.171249  1
  H  H1  1  0.834715  0.440704  0.328751  1
  H  H2  1  0.834715  0.059296  0.828751  1
  H  H3  1  0.165285  0.559296  0.671249  1
  H  H4  1  0.541488  0.811348  0.451990  1
  H  H5  1  0.458512  0.311348  0.048010  1
  H  H6  1  0.458512  0.188652  0.548010  1
  H  H7  1  0.541488  0.688652  0.951990  1
  H  H8  1  0.407870  0.868505  0.876294  1
  H  H9  1  0.592130  0.368505  0.623706  1
  H  H10  1  0.592130  0.131495  0.123706  1
  H  H11  1  0.407870  0.631495  0.376294  1
  H  H12  1  0.669092  0.000621  0.343034  1
  H  H13  1  0.330908  0.500621  0.156966  1
  H  H14  1  0.330908  0.999379  0.656966  1
  H  H15  1  0.669092  0.499379  0.843034  1
  H  H16  1  0.006773  0.762344  0.217951  1
  H  H17  1  0.993227  0.262344  0.282049  1
  H  H18  1  0.993227  0.237656  0.782049  1
  H  H19  1  0.006773  0.737656  0.717951  1
  I  I20  1  0.869280  0.879025  0.329819  1
  I  I21  1  0.869280  0.620975  0.829819  1
  I  I22  1  0.130720  0.120975  0.670181  1
  I  I23  1  0.130720  0.379025  0.170181  1
  O  O24  1  0.776266  0.682491  0.037808  1
  O  O25  1  0.573549  0.950145  0.306968  1
  O  O26  1  0.223734  0.182491  0.462192  1
  O  O27  1  0.223734  0.317509  0.962192  1
  O  O28  1  0.067200  0.063851  0.900541  1
  O  O29  1  0.426451  0.450145  0.193032  1
  O  O30  1  0.426451  0.049855  0.693032  1
  O  O31  1  0.573549  0.549855  0.806968  1
  O  O32  1  0.212908  0.916600  0.624555  1
  O  O33  1  0.787092  0.416600  0.875445  1
  O  O34  1  0.787092  0.083400  0.375445  1
  O  O35  1  0.212908  0.583400  0.124555  1
  O  O36  1  0.932800  0.936149  0.099459  1
  O  O37  1  0.067200  0.436149  0.400541  1
  O  O38  1  0.518656  0.666054  0.533010  1
  O  O39  1  0.932800  0.563851  0.599459  1
  O  O40  1  0.139319  0.801941  0.339802  1
  O  O41  1  0.860681  0.301941  0.160198  1
  O  O42  1  0.860681  0.198059  0.660198  1
  O  O43  1  0.139319  0.698059  0.839802  1
  O  O44  1  0.518656  0.833946  0.033010  1
  O  O45  1  0.481344  0.333946  0.466990  1
  O  O46  1  0.481344  0.166054  0.966990  1
  O  O47  1  0.776266  0.817509  0.537808  1
