# generated using pymatgen
data_Na5Al3H14
_symmetry_space_group_name_H-M   'P 1'
_cell_length_a   6.76132385
_cell_length_b   6.76132385
_cell_length_c   10.31234784
_cell_angle_alpha   90.00000000
_cell_angle_beta   90.00000000
_cell_angle_gamma   90.00000000
_symmetry_Int_Tables_number   1
_chemical_formula_structural   Na5Al3H14
_chemical_formula_sum   'Na10 Al6 H28'
_cell_volume   471.43413979
_cell_formula_units_Z   2
loop_
 _symmetry_equiv_pos_site_id
 _symmetry_equiv_pos_as_xyz
  1  'x, y, z'
loop_
 _atom_site_type_symbol
 _atom_site_label
 _atom_site_symmetry_multiplicity
 _atom_site_fract_x
 _atom_site_fract_y
 _atom_site_fract_z
 _atom_site_occupancy
  Na  Na0  1  0.000000  0.000000  0.500000  1
  Na  Na1  1  0.500000  0.500000  0.000000  1
  Na  Na2  1  0.285042  0.785042  0.250000  1
  Na  Na3  1  0.214958  0.285042  0.250000  1
  Na  Na4  1  0.785042  0.714958  0.250000  1
  Na  Na5  1  0.714958  0.214958  0.250000  1
  Na  Na6  1  0.285042  0.785042  0.750000  1
  Na  Na7  1  0.214958  0.285042  0.750000  1
  Na  Na8  1  0.785042  0.714958  0.750000  1
  Na  Na9  1  0.714958  0.214958  0.750000  1
  Al  Al10  1  0.000000  0.000000  0.000000  1
  Al  Al11  1  0.500000  0.500000  0.500000  1
  Al  Al12  1  0.000000  0.500000  0.000000  1
  Al  Al13  1  0.500000  0.000000  0.000000  1
  Al  Al14  1  0.500000  0.000000  0.500000  1
  Al  Al15  1  0.000000  0.500000  0.500000  1
  H  H16  1  0.542010  0.820633  0.117732  1
  H  H17  1  0.457990  0.179367  0.117732  1
  H  H18  1  0.320633  0.042010  0.382268  1
  H  H19  1  0.820633  0.457990  0.117732  1
  H  H20  1  0.179367  0.542010  0.117732  1
  H  H21  1  0.957990  0.320633  0.382268  1
  H  H22  1  0.042010  0.679367  0.382268  1
  H  H23  1  0.679367  0.957990  0.382268  1
  H  H24  1  0.457990  0.179367  0.882268  1
  H  H25  1  0.542010  0.820633  0.882268  1
  H  H26  1  0.679367  0.957990  0.617732  1
  H  H27  1  0.179367  0.542010  0.882268  1
  H  H28  1  0.820633  0.457990  0.882268  1
  H  H29  1  0.042010  0.679367  0.617732  1
  H  H30  1  0.957990  0.320633  0.617732  1
  H  H31  1  0.320633  0.042010  0.617732  1
  H  H32  1  0.000000  0.000000  0.169810  1
  H  H33  1  0.500000  0.500000  0.330190  1
  H  H34  1  0.000000  0.000000  0.830190  1
  H  H35  1  0.500000  0.500000  0.669810  1
  H  H36  1  0.752265  0.073034  0.000000  1
  H  H37  1  0.926966  0.752265  0.000000  1
  H  H38  1  0.073034  0.247735  0.000000  1
  H  H39  1  0.252265  0.426966  0.500000  1
  H  H40  1  0.747735  0.573034  0.500000  1
  H  H41  1  0.247735  0.926966  0.000000  1
  H  H42  1  0.573034  0.252265  0.500000  1
  H  H43  1  0.426966  0.747735  0.500000  1
