# generated using pymatgen
data_Sb5IO7
_symmetry_space_group_name_H-M   'P 1'
_cell_length_a   6.94738572
_cell_length_b   6.94738572
_cell_length_c   12.97691854
_cell_angle_alpha   90.00000000
_cell_angle_beta   90.00000000
_cell_angle_gamma   120.00000000
_symmetry_Int_Tables_number   1
_chemical_formula_structural   Sb5IO7
_chemical_formula_sum   'Sb10 I2 O14'
_cell_volume   542.43166408
_cell_formula_units_Z   2
loop_
 _symmetry_equiv_pos_site_id
 _symmetry_equiv_pos_as_xyz
  1  'x, y, z'
loop_
 _atom_site_type_symbol
 _atom_site_label
 _atom_site_symmetry_multiplicity
 _atom_site_fract_x
 _atom_site_fract_y
 _atom_site_fract_z
 _atom_site_occupancy
  Sb  Sb0  1  0.666667  0.333333  0.946361  1
  Sb  Sb1  1  0.666667  0.333333  0.553639  1
  Sb  Sb2  1  0.333333  0.666667  0.053639  1
  Sb  Sb3  1  0.333333  0.666667  0.446361  1
  Sb  Sb4  1  0.639719  0.679046  0.750000  1
  Sb  Sb5  1  0.320954  0.960673  0.750000  1
  Sb  Sb6  1  0.039327  0.360281  0.750000  1
  Sb  Sb7  1  0.360281  0.039327  0.250000  1
  Sb  Sb8  1  0.960673  0.320954  0.250000  1
  Sb  Sb9  1  0.679046  0.639719  0.250000  1
  I  I10  1  0.000000  0.000000  0.500000  1
  I  I11  1  0.000000  0.000000  0.000000  1
  O  O12  1  0.550252  0.057425  0.640185  1
  O  O13  1  0.942575  0.492827  0.640185  1
  O  O14  1  0.507173  0.449748  0.640185  1
  O  O15  1  0.449748  0.507173  0.359815  1
  O  O16  1  0.507173  0.449748  0.859815  1
  O  O17  1  0.550252  0.057425  0.859815  1
  O  O18  1  0.942575  0.492827  0.859815  1
  O  O19  1  0.057425  0.550252  0.140185  1
  O  O20  1  0.492827  0.942575  0.140185  1
  O  O21  1  0.492827  0.942575  0.359815  1
  O  O22  1  0.057425  0.550252  0.359815  1
  O  O23  1  0.449748  0.507173  0.140185  1
  O  O24  1  0.666667  0.333333  0.250000  1
  O  O25  1  0.333333  0.666667  0.750000  1
