# generated using pymatgen
data_K2Zr2O5
_symmetry_space_group_name_H-M   'P 1'
_cell_length_a   5.93262396
_cell_length_b   8.88578585
_cell_length_c   10.91006503
_cell_angle_alpha   90.00000000
_cell_angle_beta   90.00000000
_cell_angle_gamma   90.00000000
_symmetry_Int_Tables_number   1
_chemical_formula_structural   K2Zr2O5
_chemical_formula_sum   'K8 Zr8 O20'
_cell_volume   575.13527219
_cell_formula_units_Z   4
loop_
 _symmetry_equiv_pos_site_id
 _symmetry_equiv_pos_as_xyz
  1  'x, y, z'
loop_
 _atom_site_type_symbol
 _atom_site_label
 _atom_site_symmetry_multiplicity
 _atom_site_fract_x
 _atom_site_fract_y
 _atom_site_fract_z
 _atom_site_occupancy
  K  K0  1  0.063572  0.421661  0.166059  1
  K  K1  1  0.063572  0.078339  0.333941  1
  K  K2  1  0.436428  0.421661  0.833941  1
  K  K3  1  0.436428  0.078339  0.666059  1
  K  K4  1  0.936428  0.578339  0.833941  1
  K  K5  1  0.936428  0.921661  0.666059  1
  K  K6  1  0.563572  0.578339  0.166059  1
  K  K7  1  0.563572  0.921661  0.333941  1
  Zr  Zr8  1  0.531612  0.340791  0.423382  1
  Zr  Zr9  1  0.531612  0.159209  0.076618  1
  Zr  Zr10  1  0.968388  0.340791  0.576618  1
  Zr  Zr11  1  0.968388  0.159209  0.923382  1
  Zr  Zr12  1  0.468388  0.659209  0.576618  1
  Zr  Zr13  1  0.468388  0.840791  0.923382  1
  Zr  Zr14  1  0.031612  0.659209  0.423382  1
  Zr  Zr15  1  0.031612  0.840791  0.076618  1
  O  O16  1  0.491680  0.250000  0.250000  1
  O  O17  1  0.008320  0.250000  0.750000  1
  O  O18  1  0.508320  0.750000  0.750000  1
  O  O19  1  0.991680  0.750000  0.250000  1
  O  O20  1  0.250000  0.822695  0.500000  1
  O  O21  1  0.250000  0.677305  0.000000  1
  O  O22  1  0.750000  0.177305  0.500000  1
  O  O23  1  0.750000  0.322695  0.000000  1
  O  O24  1  0.250000  0.245000  0.500000  1
  O  O25  1  0.250000  0.255000  0.000000  1
  O  O26  1  0.750000  0.755000  0.500000  1
  O  O27  1  0.750000  0.745000  0.000000  1
  O  O28  1  0.373452  0.949579  0.106976  1
  O  O29  1  0.373452  0.550421  0.393024  1
  O  O30  1  0.126548  0.949579  0.893024  1
  O  O31  1  0.126548  0.550421  0.606976  1
  O  O32  1  0.873452  0.449579  0.393024  1
  O  O33  1  0.873452  0.050421  0.106976  1
  O  O34  1  0.626548  0.449579  0.606976  1
  O  O35  1  0.626548  0.050421  0.893024  1
