# generated using pymatgen
data_P2Pb3O8
_symmetry_space_group_name_H-M   'P 1'
_cell_length_a   7.56020909
_cell_length_b   7.56020909
_cell_length_c   7.56020909
_cell_angle_alpha   43.18359934
_cell_angle_beta   43.18359934
_cell_angle_gamma   43.18359934
_symmetry_Int_Tables_number   1
_chemical_formula_structural   P2Pb3O8
_chemical_formula_sum   'P2 Pb3 O8'
_cell_volume   183.49614564
_cell_formula_units_Z   1
loop_
 _symmetry_equiv_pos_site_id
 _symmetry_equiv_pos_as_xyz
  1  'x, y, z'
loop_
 _atom_site_type_symbol
 _atom_site_label
 _atom_site_symmetry_multiplicity
 _atom_site_fract_x
 _atom_site_fract_y
 _atom_site_fract_z
 _atom_site_occupancy
  P  P0  1  0.403337  0.403337  0.403337  1
  P  P1  1  0.596663  0.596663  0.596663  1
  Pb  Pb2  1  0.213368  0.213368  0.213368  1
  Pb  Pb3  1  0.786632  0.786632  0.786632  1
  Pb  Pb4  1  0.000000  0.000000  0.000000  1
  O  O5  1  0.276258  0.734520  0.276258  1
  O  O6  1  0.734520  0.276258  0.276258  1
  O  O7  1  0.276258  0.276258  0.734520  1
  O  O8  1  0.723742  0.723742  0.265480  1
  O  O9  1  0.723742  0.265480  0.723742  1
  O  O10  1  0.672107  0.672107  0.672107  1
  O  O11  1  0.327893  0.327893  0.327893  1
  O  O12  1  0.265480  0.723742  0.723742  1
