# generated using pymatgen
data_Y5C2I9
_symmetry_space_group_name_H-M   'P 1'
_cell_length_a   10.93215675
_cell_length_b   17.48356170
_cell_length_c   14.30690926
_cell_angle_alpha   90.00000000
_cell_angle_beta   121.58868496
_cell_angle_gamma   90.00000000
_symmetry_Int_Tables_number   1
_chemical_formula_structural   Y5C2I9
_chemical_formula_sum   'Y20 C8 I36'
_cell_volume   2329.34982838
_cell_formula_units_Z   4
loop_
 _symmetry_equiv_pos_site_id
 _symmetry_equiv_pos_as_xyz
  1  'x, y, z'
loop_
 _atom_site_type_symbol
 _atom_site_label
 _atom_site_symmetry_multiplicity
 _atom_site_fract_x
 _atom_site_fract_y
 _atom_site_fract_z
 _atom_site_occupancy
  Y  Y0  1  0.012408  0.446828  0.752554  1
  Y  Y1  1  0.338120  0.557892  0.800872  1
  Y  Y2  1  0.338120  0.942108  0.300872  1
  Y  Y3  1  0.661880  0.442108  0.199128  1
  Y  Y4  1  0.987592  0.553172  0.247446  1
  Y  Y5  1  0.151293  0.460866  0.533528  1
  Y  Y6  1  0.661880  0.057892  0.699128  1
  Y  Y7  1  0.987592  0.946828  0.747446  1
  Y  Y8  1  0.198408  0.679198  0.553859  1
  Y  Y9  1  0.801592  0.179198  0.946141  1
  Y  Y10  1  0.801592  0.320802  0.446141  1
  Y  Y11  1  0.198408  0.820802  0.053859  1
  Y  Y12  1  0.848707  0.960866  0.966472  1
  Y  Y13  1  0.848707  0.539134  0.466472  1
  Y  Y14  1  0.151293  0.039134  0.033528  1
  Y  Y15  1  0.983875  0.344429  0.283567  1
  Y  Y16  1  0.016125  0.844429  0.216433  1
  Y  Y17  1  0.016125  0.655571  0.716433  1
  Y  Y18  1  0.012408  0.053172  0.252554  1
  Y  Y19  1  0.983875  0.155571  0.783567  1
  C  C20  1  0.930466  0.469262  0.337653  1
  C  C21  1  0.122287  0.584319  0.616687  1
  C  C22  1  0.122287  0.915681  0.116687  1
  C  C23  1  0.877713  0.415681  0.383313  1
  C  C24  1  0.930466  0.030738  0.837653  1
  C  C25  1  0.069534  0.530738  0.662347  1
  C  C26  1  0.069534  0.969262  0.162347  1
  C  C27  1  0.877713  0.084319  0.883313  1
  I  I28  1  0.315841  0.058285  0.456927  1
  I  I29  1  0.495796  0.818934  0.249581  1
  I  I30  1  0.495796  0.681066  0.749581  1
  I  I31  1  0.504204  0.181066  0.750419  1
  I  I32  1  0.094313  0.302632  0.667849  1
  I  I33  1  0.905687  0.802632  0.832151  1
  I  I34  1  0.905687  0.697368  0.332151  1
  I  I35  1  0.094313  0.197368  0.167849  1
  I  I36  1  0.906478  0.192331  0.358164  1
  I  I37  1  0.093522  0.692331  0.141836  1
  I  I38  1  0.093522  0.807669  0.641836  1
  I  I39  1  0.906478  0.307669  0.858164  1
  I  I40  1  0.281293  0.173412  0.966833  1
  I  I41  1  0.718707  0.673412  0.533167  1
  I  I42  1  0.718707  0.826588  0.033167  1
  I  I43  1  0.281293  0.326588  0.466833  1
  I  I44  1  0.536149  0.937434  0.765794  1
  I  I45  1  0.463851  0.437434  0.734206  1
  I  I46  1  0.463851  0.062566  0.234206  1
  I  I47  1  0.536149  0.562566  0.265794  1
  I  I48  1  0.504204  0.318934  0.250419  1
  I  I49  1  0.909902  0.565478  0.845002  1
  I  I50  1  0.909902  0.934522  0.345002  1
  I  I51  1  0.090098  0.434522  0.154998  1
  I  I52  1  0.700798  0.183164  0.560823  1
  I  I53  1  0.299202  0.683164  0.939177  1
  I  I54  1  0.299202  0.816836  0.439177  1
  I  I55  1  0.700798  0.316836  0.060823  1
  I  I56  1  0.684159  0.558285  0.043073  1
  I  I57  1  0.684159  0.941715  0.543073  1
  I  I58  1  0.315841  0.441715  0.956927  1
  I  I59  1  0.700652  0.066756  0.056716  1
  I  I60  1  0.299348  0.566756  0.443284  1
  I  I61  1  0.299348  0.933244  0.943284  1
  I  I62  1  0.700652  0.433244  0.556716  1
  I  I63  1  0.090098  0.065478  0.654998  1
