# generated using pymatgen
data_Na8Ti5O14
_symmetry_space_group_name_H-M   'P 1'
_cell_length_a   8.44930928
_cell_length_b   8.64022246
_cell_length_c   10.64797123
_cell_angle_alpha   104.18489021
_cell_angle_beta   102.21046840
_cell_angle_gamma   112.52699405
_symmetry_Int_Tables_number   1
_chemical_formula_structural   Na8Ti5O14
_chemical_formula_sum   'Na16 Ti10 O28'
_cell_volume   654.41180641
_cell_formula_units_Z   2
loop_
 _symmetry_equiv_pos_site_id
 _symmetry_equiv_pos_as_xyz
  1  'x, y, z'
loop_
 _atom_site_type_symbol
 _atom_site_label
 _atom_site_symmetry_multiplicity
 _atom_site_fract_x
 _atom_site_fract_y
 _atom_site_fract_z
 _atom_site_occupancy
  Na  Na0  1  0.500000  0.500000  0.500000  1
  Na  Na1  1  0.000000  0.000000  0.000000  1
  Na  Na2  1  0.817401  0.333945  0.823852  1
  Na  Na3  1  0.182599  0.666055  0.176148  1
  Na  Na4  1  0.709911  0.418331  0.295529  1
  Na  Na5  1  0.290089  0.581669  0.704471  1
  Na  Na6  1  0.565056  0.127620  0.434946  1
  Na  Na7  1  0.434944  0.872380  0.565054  1
  Na  Na8  1  0.888378  0.522921  0.616989  1
  Na  Na9  1  0.111622  0.477079  0.383011  1
  Na  Na10  1  0.692484  0.623230  0.830891  1
  Na  Na11  1  0.307516  0.376770  0.169109  1
  Na  Na12  1  0.625078  0.987946  0.890395  1
  Na  Na13  1  0.374922  0.012054  0.109605  1
  Na  Na14  1  0.552463  0.323535  0.986064  1
  Na  Na15  1  0.447537  0.676465  0.013936  1
  Ti  Ti16  1  0.853808  0.723767  0.151105  1
  Ti  Ti17  1  0.146192  0.276233  0.848895  1
  Ti  Ti18  1  0.784596  0.072855  0.210111  1
  Ti  Ti19  1  0.215404  0.927145  0.789889  1
  Ti  Ti20  1  0.622502  0.774822  0.345332  1
  Ti  Ti21  1  0.377498  0.225178  0.654668  1
  Ti  Ti22  1  0.965503  0.176532  0.530577  1
  Ti  Ti23  1  0.034497  0.823468  0.469423  1
  Ti  Ti24  1  0.812370  0.887685  0.673513  1
  Ti  Ti25  1  0.187630  0.112315  0.326487  1
  O  O26  1  0.595601  0.353554  0.643120  1
  O  O27  1  0.404399  0.646446  0.356880  1
  O  O28  1  0.819673  0.550438  0.005359  1
  O  O29  1  0.180327  0.449562  0.994641  1
  O  O30  1  0.753454  0.860478  0.064397  1
  O  O31  1  0.246546  0.139522  0.935603  1
  O  O32  1  0.679459  0.171133  0.116630  1
  O  O33  1  0.320541  0.828867  0.883370  1
  O  O34  1  0.625279  0.603278  0.191108  1
  O  O35  1  0.374721  0.396722  0.808892  1
  O  O36  1  0.562820  0.909309  0.242665  1
  O  O37  1  0.437180  0.090691  0.757335  1
  O  O38  1  0.981240  0.653703  0.303104  1
  O  O39  1  0.018760  0.346297  0.696896  1
  O  O40  1  0.918298  0.952346  0.355944  1
  O  O41  1  0.081702  0.047654  0.644056  1
  O  O42  1  0.853137  0.257955  0.408735  1
  O  O43  1  0.146863  0.742045  0.591265  1
  O  O44  1  0.786860  0.707005  0.484237  1
  O  O45  1  0.213140  0.292995  0.515763  1
  O  O46  1  0.728687  0.989718  0.529864  1
  O  O47  1  0.271313  0.010282  0.470136  1
  O  O48  1  0.595446  0.759625  0.688777  1
  O  O49  1  0.404554  0.240375  0.311223  1
  O  O50  1  0.957311  0.801358  0.772208  1
  O  O51  1  0.042689  0.198642  0.227792  1
  O  O52  1  0.105860  0.897816  0.175393  1
  O  O53  1  0.894140  0.102184  0.824607  1
