# generated using pymatgen
data_LiSn(PO3)3
_symmetry_space_group_name_H-M   'P 1'
_cell_length_a   6.62331549
_cell_length_b   6.62331549
_cell_length_c   10.01616721
_cell_angle_alpha   90.00000000
_cell_angle_beta   90.00000000
_cell_angle_gamma   120.00000000
_symmetry_Int_Tables_number   1
_chemical_formula_structural   LiSn(PO3)3
_chemical_formula_sum   'Li2 Sn2 P6 O18'
_cell_volume   380.52490147
_cell_formula_units_Z   2
loop_
 _symmetry_equiv_pos_site_id
 _symmetry_equiv_pos_as_xyz
  1  'x, y, z'
loop_
 _atom_site_type_symbol
 _atom_site_label
 _atom_site_symmetry_multiplicity
 _atom_site_fract_x
 _atom_site_fract_y
 _atom_site_fract_z
 _atom_site_occupancy
  Li  Li0  1  0.000000  0.000000  0.000000  1
  Li  Li1  1  0.000000  0.000000  0.500000  1
  Sn  Sn2  1  0.666667  0.333333  0.000000  1
  Sn  Sn3  1  0.666667  0.333333  0.500000  1
  P  P4  1  0.605590  0.914647  0.750000  1
  P  P5  1  0.605590  0.690942  0.250000  1
  P  P6  1  0.085353  0.394410  0.250000  1
  P  P7  1  0.309058  0.394410  0.750000  1
  P  P8  1  0.085353  0.690942  0.750000  1
  P  P9  1  0.309058  0.914647  0.250000  1
  O  O10  1  0.352823  0.457329  0.250000  1
  O  O11  1  0.542671  0.647177  0.750000  1
  O  O12  1  0.352823  0.895494  0.750000  1
  O  O13  1  0.542671  0.895494  0.250000  1
  O  O14  1  0.724237  0.027099  0.620495  1
  O  O15  1  0.724237  0.027099  0.879505  1
  O  O16  1  0.104506  0.647177  0.250000  1
  O  O17  1  0.972901  0.275763  0.379505  1
  O  O18  1  0.972901  0.275763  0.120495  1
  O  O19  1  0.724237  0.697138  0.120495  1
  O  O20  1  0.724237  0.697138  0.379505  1
  O  O21  1  0.104506  0.457329  0.750000  1
  O  O22  1  0.972901  0.697138  0.879505  1
  O  O23  1  0.972901  0.697138  0.620495  1
  O  O24  1  0.302862  0.275763  0.620495  1
  O  O25  1  0.302862  0.275763  0.879505  1
  O  O26  1  0.302862  0.027099  0.379505  1
  O  O27  1  0.302862  0.027099  0.120495  1
