# generated using pymatgen
data_K4Be3O5
_symmetry_space_group_name_H-M   'P 1'
_cell_length_a   6.37735092
_cell_length_b   6.37735092
_cell_length_c   10.90765049
_cell_angle_alpha   67.19463534
_cell_angle_beta   112.80536466
_cell_angle_gamma   110.47847212
_symmetry_Int_Tables_number   1
_chemical_formula_structural   K4Be3O5
_chemical_formula_sum   'K8 Be6 O10'
_cell_volume   366.42427235
_cell_formula_units_Z   2
loop_
 _symmetry_equiv_pos_site_id
 _symmetry_equiv_pos_as_xyz
  1  'x, y, z'
loop_
 _atom_site_type_symbol
 _atom_site_label
 _atom_site_symmetry_multiplicity
 _atom_site_fract_x
 _atom_site_fract_y
 _atom_site_fract_z
 _atom_site_occupancy
  K  K0  1  0.777221  0.442584  0.595014  1
  K  K1  1  0.442584  0.777221  0.904986  1
  K  K2  1  0.222779  0.557416  0.404986  1
  K  K3  1  0.557416  0.222779  0.095014  1
  K  K4  1  0.911136  0.252962  0.924382  1
  K  K5  1  0.252962  0.911136  0.575618  1
  K  K6  1  0.088864  0.747038  0.075618  1
  K  K7  1  0.747038  0.088864  0.424382  1
  Be  Be8  1  0.310721  0.310721  0.750000  1
  Be  Be9  1  0.689279  0.689279  0.250000  1
  Be  Be10  1  0.268681  0.268681  0.250000  1
  Be  Be11  1  0.731319  0.731319  0.750000  1
  Be  Be12  1  0.979677  0.979677  0.250000  1
  Be  Be13  1  0.020323  0.020323  0.750000  1
  O  O14  1  0.478561  0.478561  0.250000  1
  O  O15  1  0.521439  0.521439  0.750000  1
  O  O16  1  0.772882  0.872804  0.122719  1
  O  O17  1  0.872804  0.772882  0.377281  1
  O  O18  1  0.227118  0.127196  0.877281  1
  O  O19  1  0.127196  0.227118  0.622719  1
  O  O20  1  0.011995  0.265905  0.230604  1
  O  O21  1  0.265905  0.011995  0.269396  1
  O  O22  1  0.988005  0.734095  0.769396  1
  O  O23  1  0.734095  0.988005  0.730604  1
