# generated using pymatgen
data_PrLuO3
_symmetry_space_group_name_H-M   'P 1'
_cell_length_a   5.77056193
_cell_length_b   6.01032990
_cell_length_c   8.35974854
_cell_angle_alpha   90.00000000
_cell_angle_beta   90.00000000
_cell_angle_gamma   90.00000000
_symmetry_Int_Tables_number   1
_chemical_formula_structural   PrLuO3
_chemical_formula_sum   'Pr4 Lu4 O12'
_cell_volume   289.94099901
_cell_formula_units_Z   4
loop_
 _symmetry_equiv_pos_site_id
 _symmetry_equiv_pos_as_xyz
  1  'x, y, z'
loop_
 _atom_site_type_symbol
 _atom_site_label
 _atom_site_symmetry_multiplicity
 _atom_site_fract_x
 _atom_site_fract_y
 _atom_site_fract_z
 _atom_site_occupancy
  Pr  Pr0  1  0.984337  0.053889  0.250000  1
  Pr  Pr1  1  0.484337  0.446111  0.750000  1
  Pr  Pr2  1  0.515663  0.553889  0.250000  1
  Pr  Pr3  1  0.015663  0.946111  0.750000  1
  Lu  Lu4  1  0.000000  0.500000  0.000000  1
  Lu  Lu5  1  0.500000  0.000000  0.000000  1
  Lu  Lu6  1  0.500000  0.000000  0.500000  1
  Lu  Lu7  1  0.000000  0.500000  0.500000  1
  O  O8  1  0.691948  0.305827  0.435253  1
  O  O9  1  0.191948  0.194173  0.564747  1
  O  O10  1  0.808052  0.805827  0.064747  1
  O  O11  1  0.308052  0.694173  0.935253  1
  O  O12  1  0.308052  0.694173  0.564747  1
  O  O13  1  0.808052  0.805827  0.435253  1
  O  O14  1  0.191948  0.194173  0.935253  1
  O  O15  1  0.691948  0.305827  0.064747  1
  O  O16  1  0.123079  0.445888  0.250000  1
  O  O17  1  0.623079  0.054112  0.750000  1
  O  O18  1  0.376921  0.945888  0.250000  1
  O  O19  1  0.876921  0.554112  0.750000  1
