# generated using pymatgen
data_XeIF7
_symmetry_space_group_name_H-M   'P 1'
_cell_length_a   7.90856177
_cell_length_b   7.90856177
_cell_length_c   7.90856177
_cell_angle_alpha   120.48139372
_cell_angle_beta   120.48139372
_cell_angle_gamma   89.16820451
_symmetry_Int_Tables_number   1
_chemical_formula_structural   XeIF7
_chemical_formula_sum   'Xe2 I2 F14'
_cell_volume   347.18129871
_cell_formula_units_Z   2
loop_
 _symmetry_equiv_pos_site_id
 _symmetry_equiv_pos_as_xyz
  1  'x, y, z'
loop_
 _atom_site_type_symbol
 _atom_site_label
 _atom_site_symmetry_multiplicity
 _atom_site_fract_x
 _atom_site_fract_y
 _atom_site_fract_z
 _atom_site_occupancy
  Xe  Xe0  1  1.000000  0.500000  0.500000  1
  Xe  Xe1  1  0.500000  1.000000  0.500000  1
  I  I2  1  0.713408  0.713408  0.000000  1
  I  I3  1  0.286592  0.286592  0.000000  1
  F  F4  1  0.593725  0.750954  0.344679  1
  F  F5  1  0.750954  0.406275  0.157229  1
  F  F6  1  0.249046  0.593725  0.842771  1
  F  F7  1  0.406275  0.249046  0.655321  1
  F  F8  1  0.120473  0.120473  0.000000  1
  F  F9  1  0.879527  0.879527  0.000000  1
  F  F10  1  0.494732  0.319789  0.294599  1
  F  F11  1  0.319789  0.025190  0.825057  1
  F  F12  1  0.200133  0.494732  0.174943  1
  F  F13  1  0.025190  0.200133  0.705401  1
  F  F14  1  0.505268  0.680211  0.705401  1
  F  F15  1  0.680211  0.974810  0.174943  1
  F  F16  1  0.799867  0.505268  0.825057  1
  F  F17  1  0.974810  0.799867  0.294599  1
