# generated using pymatgen
data_Re4Cl8O9
_symmetry_space_group_name_H-M   'P 1'
_cell_length_a   6.43301026
_cell_length_b   6.58095026
_cell_length_c   13.01484103
_cell_angle_alpha   78.34676195
_cell_angle_beta   88.49857887
_cell_angle_gamma   83.75776775
_symmetry_Int_Tables_number   1
_chemical_formula_structural   Re4Cl8O9
_chemical_formula_sum   'Re4 Cl8 O9'
_cell_volume   536.42600042
_cell_formula_units_Z   1
loop_
 _symmetry_equiv_pos_site_id
 _symmetry_equiv_pos_as_xyz
  1  'x, y, z'
loop_
 _atom_site_type_symbol
 _atom_site_label
 _atom_site_symmetry_multiplicity
 _atom_site_fract_x
 _atom_site_fract_y
 _atom_site_fract_z
 _atom_site_occupancy
  Re  Re0  1  0.649334  0.895189  0.393678  1
  Re  Re1  1  0.350666  0.104811  0.606322  1
  Re  Re2  1  0.363803  0.323077  0.152599  1
  Re  Re3  1  0.636197  0.676923  0.847401  1
  Cl  Cl4  1  0.231284  0.111695  0.064491  1
  Cl  Cl5  1  0.159488  0.821469  0.633445  1
  Cl  Cl6  1  0.840512  0.178531  0.366555  1
  Cl  Cl7  1  0.639847  0.259543  0.640161  1
  Cl  Cl8  1  0.754046  0.863095  0.225418  1
  Cl  Cl9  1  0.245954  0.136905  0.774582  1
  Cl  Cl10  1  0.768716  0.888305  0.935509  1
  Cl  Cl11  1  0.360153  0.740457  0.359839  1
  O  O12  1  0.500000  0.000000  0.500000  1
  O  O13  1  0.198580  0.549425  0.143528  1
  O  O14  1  0.801420  0.450575  0.856472  1
  O  O15  1  0.604612  0.384645  0.102405  1
  O  O16  1  0.608436  0.797089  0.715858  1
  O  O17  1  0.808696  0.698443  0.463878  1
  O  O18  1  0.191304  0.301557  0.536122  1
  O  O19  1  0.395388  0.615355  0.897595  1
  O  O20  1  0.391564  0.202911  0.284142  1
