# generated using pymatgen
data_K2NiH12(SO7)2
_symmetry_space_group_name_H-M   'P 1'
_cell_length_a   6.20036223
_cell_length_b   12.30355302
_cell_length_c   9.02423165
_cell_angle_alpha   90.00000000
_cell_angle_beta   104.63223684
_cell_angle_gamma   90.00000000
_symmetry_Int_Tables_number   1
_chemical_formula_structural   K2NiH12(SO7)2
_chemical_formula_sum   'K4 Ni2 H24 S4 O28'
_cell_volume   666.09929991
_cell_formula_units_Z   2
loop_
 _symmetry_equiv_pos_site_id
 _symmetry_equiv_pos_as_xyz
  1  'x, y, z'
loop_
 _atom_site_type_symbol
 _atom_site_label
 _atom_site_symmetry_multiplicity
 _atom_site_fract_x
 _atom_site_fract_y
 _atom_site_fract_z
 _atom_site_occupancy
  K  K0  1  0.655361  0.344679  0.864005  1
  K  K1  1  0.344639  0.655321  0.135995  1
  K  K2  1  0.344639  0.844679  0.635995  1
  K  K3  1  0.655361  0.155321  0.364005  1
  Ni  Ni4  1  0.000000  0.000000  0.000000  1
  Ni  Ni5  1  0.000000  0.500000  0.500000  1
  H  H6  1  0.927051  0.599592  0.229954  1
  H  H7  1  0.000818  0.311299  0.639793  1
  H  H8  1  0.680127  0.087802  0.783070  1
  H  H9  1  0.999182  0.811299  0.860207  1
  H  H10  1  0.927051  0.900408  0.729954  1
  H  H11  1  0.319873  0.912198  0.216930  1
  H  H12  1  0.000818  0.188701  0.139793  1
  H  H13  1  0.072949  0.400408  0.770046  1
  H  H14  1  0.339188  0.441583  0.399530  1
  H  H15  1  0.911865  0.375513  0.249957  1
  H  H16  1  0.328171  0.355120  0.527670  1
  H  H17  1  0.671829  0.644880  0.472330  1
  H  H18  1  0.328171  0.144880  0.027670  1
  H  H19  1  0.072949  0.099592  0.270046  1
  H  H20  1  0.680127  0.412198  0.283070  1
  H  H21  1  0.660812  0.941583  0.100470  1
  H  H22  1  0.319873  0.587802  0.716930  1
  H  H23  1  0.999182  0.688701  0.360207  1
  H  H24  1  0.660812  0.558417  0.600470  1
  H  H25  1  0.088135  0.624487  0.750043  1
  H  H26  1  0.088135  0.875513  0.250043  1
  H  H27  1  0.911865  0.124487  0.749957  1
  H  H28  1  0.339188  0.058417  0.899530  1
  H  H29  1  0.671829  0.855120  0.972330  1
  S  S30  1  0.274065  0.364031  0.088921  1
  S  S31  1  0.725935  0.864031  0.411079  1
  S  S32  1  0.725935  0.635969  0.911079  1
  S  S33  1  0.274065  0.135969  0.588921  1
  O  O34  1  0.300107  0.433114  0.498976  1
  O  O35  1  0.422057  0.232191  0.589724  1
  O  O36  1  0.165241  0.888129  0.167733  1
  O  O37  1  0.965907  0.113913  0.168631  1
  O  O38  1  0.699893  0.933114  0.001024  1
  O  O39  1  0.052658  0.326818  0.109374  1
  O  O40  1  0.699893  0.566886  0.501024  1
  O  O41  1  0.034093  0.886087  0.831369  1
  O  O42  1  0.834759  0.111871  0.832267  1
  O  O43  1  0.834759  0.388129  0.332267  1
  O  O44  1  0.385131  0.062508  0.718092  1
  O  O45  1  0.243960  0.424551  0.942588  1
  O  O46  1  0.385131  0.437492  0.218092  1
  O  O47  1  0.300107  0.066886  0.998976  1
  O  O48  1  0.165241  0.611871  0.667733  1
  O  O49  1  0.965907  0.386087  0.668631  1
  O  O50  1  0.243960  0.075449  0.442588  1
  O  O51  1  0.614869  0.562508  0.781908  1
  O  O52  1  0.577943  0.732191  0.910276  1
  O  O53  1  0.947342  0.826818  0.390626  1
  O  O54  1  0.052658  0.173182  0.609374  1
  O  O55  1  0.756040  0.924551  0.557412  1
  O  O56  1  0.614869  0.937492  0.281908  1
  O  O57  1  0.947342  0.673182  0.890626  1
  O  O58  1  0.422057  0.267809  0.089724  1
  O  O59  1  0.577943  0.767809  0.410276  1
  O  O60  1  0.756040  0.575449  0.057412  1
  O  O61  1  0.034093  0.613913  0.331369  1
