# generated using pymatgen
data_Ba(InTe2)2
_symmetry_space_group_name_H-M   'P 1'
_cell_length_a   7.15422120
_cell_length_b   7.15422120
_cell_length_c   12.42511821
_cell_angle_alpha   90.00000000
_cell_angle_beta   90.00000000
_cell_angle_gamma   119.11921451
_symmetry_Int_Tables_number   1
_chemical_formula_structural   Ba(InTe2)2
_chemical_formula_sum   'Ba2 In4 Te8'
_cell_volume   555.57461614
_cell_formula_units_Z   2
loop_
 _symmetry_equiv_pos_site_id
 _symmetry_equiv_pos_as_xyz
  1  'x, y, z'
loop_
 _atom_site_type_symbol
 _atom_site_label
 _atom_site_symmetry_multiplicity
 _atom_site_fract_x
 _atom_site_fract_y
 _atom_site_fract_z
 _atom_site_occupancy
  Ba  Ba0  1  0.000000  0.000000  0.750000  1
  Ba  Ba1  1  0.000000  0.000000  0.250000  1
  In  In2  1  0.262197  0.740350  0.500000  1
  In  In3  1  0.737803  0.259650  0.500000  1
  In  In4  1  0.259650  0.737803  0.000000  1
  In  In5  1  0.740350  0.262197  0.000000  1
  Te  Te6  1  0.500000  0.000000  0.677482  1
  Te  Te7  1  0.000000  0.500000  0.822518  1
  Te  Te8  1  0.304425  0.158838  0.000000  1
  Te  Te9  1  0.695575  0.841162  0.000000  1
  Te  Te10  1  0.158838  0.304425  0.500000  1
  Te  Te11  1  0.841162  0.695575  0.500000  1
  Te  Te12  1  0.500000  0.000000  0.322518  1
  Te  Te13  1  0.000000  0.500000  0.177482  1
