# generated using pymatgen
data_LiInSe2
_symmetry_space_group_name_H-M   'P 1'
_cell_length_a   7.34403223
_cell_length_b   7.34403223
_cell_length_c   7.34403223
_cell_angle_alpha   131.44727065
_cell_angle_beta   131.44727065
_cell_angle_gamma   71.10341632
_symmetry_Int_Tables_number   1
_chemical_formula_structural   LiInSe2
_chemical_formula_sum   'Li2 In2 Se4'
_cell_volume   217.89431663
_cell_formula_units_Z   2
loop_
 _symmetry_equiv_pos_site_id
 _symmetry_equiv_pos_as_xyz
  1  'x, y, z'
loop_
 _atom_site_type_symbol
 _atom_site_label
 _atom_site_symmetry_multiplicity
 _atom_site_fract_x
 _atom_site_fract_y
 _atom_site_fract_z
 _atom_site_occupancy
  Li  Li0  1  0.250000  0.750000  0.500000  1
  Li  Li1  1  0.500000  0.500000  0.000000  1
  In  In2  1  0.000000  1.000000  0.000000  1
  In  In3  1  0.750000  0.250000  0.500000  1
  Se  Se4  1  0.617707  0.625000  0.492707  1
  Se  Se5  1  0.375000  0.867707  0.992707  1
  Se  Se6  1  0.132293  0.125000  0.507293  1
  Se  Se7  1  0.875000  0.382293  0.007293  1
