# generated using pymatgen
data_AsO2
_symmetry_space_group_name_H-M   'P 1'
_cell_length_a   5.32533629
_cell_length_b   7.52727564
_cell_length_c   8.96144117
_cell_angle_alpha   90.00000000
_cell_angle_beta   90.00000000
_cell_angle_gamma   90.00000000
_symmetry_Int_Tables_number   1
_chemical_formula_structural   AsO2
_chemical_formula_sum   'As8 O16'
_cell_volume   359.22182590
_cell_formula_units_Z   8
loop_
 _symmetry_equiv_pos_site_id
 _symmetry_equiv_pos_as_xyz
  1  'x, y, z'
loop_
 _atom_site_type_symbol
 _atom_site_label
 _atom_site_symmetry_multiplicity
 _atom_site_fract_x
 _atom_site_fract_y
 _atom_site_fract_z
 _atom_site_occupancy
  As  As0  1  0.250000  0.696677  0.761720  1
  As  As1  1  0.750000  0.303323  0.238280  1
  As  As2  1  0.750000  0.196677  0.738280  1
  As  As3  1  0.250000  0.803323  0.261720  1
  As  As4  1  0.250000  0.329543  0.578564  1
  As  As5  1  0.750000  0.670457  0.421436  1
  As  As6  1  0.750000  0.829543  0.921436  1
  As  As7  1  0.250000  0.170457  0.078564  1
  O  O8  1  0.250000  0.434233  0.415465  1
  O  O9  1  0.750000  0.565767  0.584535  1
  O  O10  1  0.750000  0.934233  0.084535  1
  O  O11  1  0.250000  0.065767  0.915465  1
  O  O12  1  0.250000  0.450454  0.747057  1
  O  O13  1  0.750000  0.549546  0.252943  1
  O  O14  1  0.750000  0.950454  0.752943  1
  O  O15  1  0.250000  0.049546  0.247057  1
  O  O16  1  0.995467  0.317259  0.094400  1
  O  O17  1  0.495467  0.682741  0.905600  1
  O  O18  1  0.004533  0.817259  0.405600  1
  O  O19  1  0.504533  0.182741  0.594400  1
  O  O20  1  0.004533  0.682741  0.905600  1
  O  O21  1  0.504533  0.317259  0.094400  1
  O  O22  1  0.995467  0.182741  0.594400  1
  O  O23  1  0.495467  0.817259  0.405600  1
