# generated using pymatgen
data_TcCl4
_symmetry_space_group_name_H-M   'P 1'
_cell_length_a   6.15182454
_cell_length_b   13.21356595
_cell_length_c   15.44137941
_cell_angle_alpha   90.00000000
_cell_angle_beta   90.00000000
_cell_angle_gamma   90.00000000
_symmetry_Int_Tables_number   1
_chemical_formula_structural   TcCl4
_chemical_formula_sum   'Tc8 Cl32'
_cell_volume   1255.19173521
_cell_formula_units_Z   8
loop_
 _symmetry_equiv_pos_site_id
 _symmetry_equiv_pos_as_xyz
  1  'x, y, z'
loop_
 _atom_site_type_symbol
 _atom_site_label
 _atom_site_symmetry_multiplicity
 _atom_site_fract_x
 _atom_site_fract_y
 _atom_site_fract_z
 _atom_site_occupancy
  Tc  Tc0  1  0.896786  0.628097  0.315783  1
  Tc  Tc1  1  0.396786  0.871903  0.684217  1
  Tc  Tc2  1  0.103214  0.128097  0.184217  1
  Tc  Tc3  1  0.603214  0.371903  0.815783  1
  Tc  Tc4  1  0.103214  0.371903  0.684217  1
  Tc  Tc5  1  0.603214  0.128097  0.315783  1
  Tc  Tc6  1  0.896786  0.871903  0.815783  1
  Tc  Tc7  1  0.396786  0.628097  0.184217  1
  Cl  Cl8  1  0.756778  0.520234  0.414650  1
  Cl  Cl9  1  0.256778  0.979766  0.585350  1
  Cl  Cl10  1  0.243222  0.020234  0.085350  1
  Cl  Cl11  1  0.743222  0.479766  0.914650  1
  Cl  Cl12  1  0.243222  0.479766  0.585350  1
  Cl  Cl13  1  0.743222  0.020234  0.414650  1
  Cl  Cl14  1  0.756778  0.979766  0.914650  1
  Cl  Cl15  1  0.256778  0.520234  0.085350  1
  Cl  Cl16  1  0.572701  0.728665  0.302661  1
  Cl  Cl17  1  0.072701  0.771335  0.697339  1
  Cl  Cl18  1  0.427299  0.228665  0.197339  1
  Cl  Cl19  1  0.927299  0.271335  0.802661  1
  Cl  Cl20  1  0.427299  0.271335  0.697339  1
  Cl  Cl21  1  0.927299  0.228665  0.302661  1
  Cl  Cl22  1  0.572701  0.771335  0.802661  1
  Cl  Cl23  1  0.072701  0.728665  0.197339  1
  Cl  Cl24  1  0.221348  0.527699  0.303062  1
  Cl  Cl25  1  0.721348  0.972301  0.696938  1
  Cl  Cl26  1  0.778652  0.027699  0.196938  1
  Cl  Cl27  1  0.278652  0.472301  0.803062  1
  Cl  Cl28  1  0.778652  0.472301  0.696938  1
  Cl  Cl29  1  0.278652  0.027699  0.303062  1
  Cl  Cl30  1  0.221348  0.972301  0.803062  1
  Cl  Cl31  1  0.721348  0.527699  0.196938  1
  Cl  Cl32  1  0.535479  0.735874  0.085029  1
  Cl  Cl33  1  0.035479  0.764126  0.914971  1
  Cl  Cl34  1  0.464521  0.235874  0.414971  1
  Cl  Cl35  1  0.964521  0.264126  0.585029  1
  Cl  Cl36  1  0.464521  0.264126  0.914971  1
  Cl  Cl37  1  0.964521  0.235874  0.085029  1
  Cl  Cl38  1  0.535479  0.764126  0.585029  1
  Cl  Cl39  1  0.035479  0.735874  0.414971  1
