# generated using pymatgen
data_Ba3In2O6
_symmetry_space_group_name_H-M   'P 1'
_cell_length_a   11.39620641
_cell_length_b   11.39620641
_cell_length_c   11.39620641
_cell_angle_alpha   158.46756703
_cell_angle_beta   158.46756703
_cell_angle_gamma   30.63623657
_symmetry_Int_Tables_number   1
_chemical_formula_structural   Ba3In2O6
_chemical_formula_sum   'Ba3 In2 O6'
_cell_volume   199.24841558
_cell_formula_units_Z   1
loop_
 _symmetry_equiv_pos_site_id
 _symmetry_equiv_pos_as_xyz
  1  'x, y, z'
loop_
 _atom_site_type_symbol
 _atom_site_label
 _atom_site_symmetry_multiplicity
 _atom_site_fract_x
 _atom_site_fract_y
 _atom_site_fract_z
 _atom_site_occupancy
  Ba  Ba0  1  0.683021  0.683021  0.000000  1
  Ba  Ba1  1  0.316979  0.316979  0.000000  1
  Ba  Ba2  1  0.500000  0.500000  0.000000  1
  In  In3  1  0.897163  0.897163  0.000000  1
  In  In4  1  0.102837  0.102837  0.000000  1
  O  O5  1  0.801377  0.801377  0.000000  1
  O  O6  1  0.198623  0.198623  0.000000  1
  O  O7  1  0.416087  0.916087  0.500000  1
  O  O8  1  0.916087  0.416087  0.500000  1
  O  O9  1  0.583913  0.083913  0.500000  1
  O  O10  1  0.083913  0.583913  0.500000  1
