# generated using pymatgen
data_SiH4
_symmetry_space_group_name_H-M   'P 1'
_cell_length_a   7.64902724
_cell_length_b   5.05962516
_cell_length_c   7.69349100
_cell_angle_alpha   90.00000000
_cell_angle_beta   103.67910443
_cell_angle_gamma   90.00000000
_symmetry_Int_Tables_number   1
_chemical_formula_structural   SiH4
_chemical_formula_sum   'Si4 H16'
_cell_volume   289.30193861
_cell_formula_units_Z   4
loop_
 _symmetry_equiv_pos_site_id
 _symmetry_equiv_pos_as_xyz
  1  'x, y, z'
loop_
 _atom_site_type_symbol
 _atom_site_label
 _atom_site_symmetry_multiplicity
 _atom_site_fract_x
 _atom_site_fract_y
 _atom_site_fract_z
 _atom_site_occupancy
  Si  Si0  1  0.248915  0.074208  0.864231  1
  Si  Si1  1  0.751085  0.574208  0.635769  1
  Si  Si2  1  0.751085  0.925792  0.135769  1
  Si  Si3  1  0.248915  0.425792  0.364231  1
  H  H4  1  0.205341  0.937784  0.020747  1
  H  H5  1  0.794659  0.437784  0.479253  1
  H  H6  1  0.794659  0.062216  0.979253  1
  H  H7  1  0.205341  0.562216  0.520747  1
  H  H8  1  0.087857  0.427783  0.210906  1
  H  H9  1  0.912143  0.927783  0.289094  1
  H  H10  1  0.912143  0.572217  0.789094  1
  H  H11  1  0.087857  0.072217  0.710906  1
  H  H12  1  0.303112  0.147072  0.413708  1
  H  H13  1  0.696888  0.647072  0.086292  1
  H  H14  1  0.696888  0.852928  0.586292  1
  H  H15  1  0.303112  0.352928  0.913708  1
  H  H16  1  0.400391  0.566081  0.311804  1
  H  H17  1  0.599609  0.066081  0.188196  1
  H  H18  1  0.599609  0.433919  0.688196  1
  H  H19  1  0.400391  0.933919  0.811804  1
