# generated using pymatgen
data_AlHO2
_symmetry_space_group_name_H-M   'P 1'
_cell_length_a   2.86154568
_cell_length_b   4.26347775
_cell_length_c   4.76997397
_cell_angle_alpha   90.00000000
_cell_angle_beta   90.00000000
_cell_angle_gamma   90.00000000
_symmetry_Int_Tables_number   1
_chemical_formula_structural   AlHO2
_chemical_formula_sum   'Al2 H2 O4'
_cell_volume   58.19433276
_cell_formula_units_Z   2
loop_
 _symmetry_equiv_pos_site_id
 _symmetry_equiv_pos_as_xyz
  1  'x, y, z'
loop_
 _atom_site_type_symbol
 _atom_site_label
 _atom_site_symmetry_multiplicity
 _atom_site_fract_x
 _atom_site_fract_y
 _atom_site_fract_z
 _atom_site_occupancy
  Al  Al0  1  0.500000  0.776337  0.491119  1
  Al  Al1  1  0.000000  0.223663  0.991119  1
  H  H2  1  0.500000  0.694506  0.976960  1
  H  H3  1  0.000000  0.305494  0.476960  1
  O  O4  1  0.000000  0.002521  0.648778  1
  O  O5  1  0.500000  0.997479  0.148778  1
  O  O6  1  0.000000  0.500936  0.348553  1
  O  O7  1  0.500000  0.499064  0.848553  1
