# generated using pymatgen
data_PCl3O
_symmetry_space_group_name_H-M   'P 1'
_cell_length_a   6.07125292
_cell_length_b   9.81334385
_cell_length_c   9.90284307
_cell_angle_alpha   90.00000000
_cell_angle_beta   90.00000000
_cell_angle_gamma   90.00000000
_symmetry_Int_Tables_number   1
_chemical_formula_structural   PCl3O
_chemical_formula_sum   'P4 Cl12 O4'
_cell_volume   590.00438389
_cell_formula_units_Z   4
loop_
 _symmetry_equiv_pos_site_id
 _symmetry_equiv_pos_as_xyz
  1  'x, y, z'
loop_
 _atom_site_type_symbol
 _atom_site_label
 _atom_site_symmetry_multiplicity
 _atom_site_fract_x
 _atom_site_fract_y
 _atom_site_fract_z
 _atom_site_occupancy
  P  P0  1  0.873287  0.757628  0.818936  1
  P  P1  1  0.126713  0.257628  0.181064  1
  P  P2  1  0.626713  0.757628  0.318936  1
  P  P3  1  0.373287  0.257628  0.681064  1
  Cl  Cl4  1  0.176467  0.417654  0.643730  1
  Cl  Cl5  1  0.823533  0.917654  0.356270  1
  Cl  Cl6  1  0.323533  0.417654  0.143730  1
  Cl  Cl7  1  0.676467  0.917654  0.856270  1
  Cl  Cl8  1  0.081756  0.753619  0.976184  1
  Cl  Cl9  1  0.918244  0.253619  0.023816  1
  Cl  Cl10  1  0.418244  0.753619  0.476184  1
  Cl  Cl11  1  0.581756  0.253619  0.523816  1
  Cl  Cl12  1  0.679449  0.594190  0.846609  1
  Cl  Cl13  1  0.320551  0.094190  0.153391  1
  Cl  Cl14  1  0.820551  0.594190  0.346609  1
  Cl  Cl15  1  0.179449  0.094190  0.653391  1
  O  O16  1  0.982217  0.762109  0.686180  1
  O  O17  1  0.017783  0.262109  0.313820  1
  O  O18  1  0.517783  0.762109  0.186180  1
  O  O19  1  0.482217  0.262109  0.813820  1
