# generated using pymatgen
data_K6Sn2Se7
_symmetry_space_group_name_H-M   'P 1'
_cell_length_a   17.35977230
_cell_length_b   12.57401377
_cell_length_c   20.07002517
_cell_angle_alpha   90.00000000
_cell_angle_beta   102.71805084
_cell_angle_gamma   90.00000000
_symmetry_Int_Tables_number   1
_chemical_formula_structural   K6Sn2Se7
_chemical_formula_sum   'K48 Sn16 Se56'
_cell_volume   4273.44056844
_cell_formula_units_Z   8
loop_
 _symmetry_equiv_pos_site_id
 _symmetry_equiv_pos_as_xyz
  1  'x, y, z'
loop_
 _atom_site_type_symbol
 _atom_site_label
 _atom_site_symmetry_multiplicity
 _atom_site_fract_x
 _atom_site_fract_y
 _atom_site_fract_z
 _atom_site_occupancy
  K  K0  1  0.649717  0.950225  0.314729  1
  K  K1  1  0.350283  0.450225  0.185271  1
  K  K2  1  0.350283  0.049775  0.685271  1
  K  K3  1  0.649717  0.549775  0.814729  1
  K  K4  1  0.123805  0.885177  0.054068  1
  K  K5  1  0.876195  0.385177  0.445932  1
  K  K6  1  0.876195  0.114823  0.945932  1
  K  K7  1  0.123805  0.614823  0.554068  1
  K  K8  1  0.744888  0.162482  0.740846  1
  K  K9  1  0.255112  0.662482  0.759154  1
  K  K10  1  0.255112  0.837518  0.259154  1
  K  K11  1  0.744888  0.337518  0.240846  1
  K  K12  1  0.806851  0.673544  0.477040  1
  K  K13  1  0.193149  0.173544  0.022960  1
  K  K14  1  0.193149  0.326456  0.522960  1
  K  K15  1  0.806851  0.826456  0.977040  1
  K  K16  1  0.624780  0.921458  0.830358  1
  K  K17  1  0.375220  0.421458  0.669642  1
  K  K18  1  0.375220  0.078542  0.169642  1
  K  K19  1  0.624780  0.578542  0.330358  1
  K  K20  1  0.639706  0.939652  0.578577  1
  K  K21  1  0.360294  0.439652  0.921423  1
  K  K22  1  0.360294  0.060348  0.421423  1
  K  K23  1  0.639706  0.560348  0.078577  1
  K  K24  1  0.990097  0.779735  0.870509  1
  K  K25  1  0.009903  0.279735  0.629491  1
  K  K26  1  0.009903  0.220265  0.129491  1
  K  K27  1  0.990097  0.720265  0.370509  1
  K  K28  1  0.219369  0.950044  0.848007  1
  K  K29  1  0.780631  0.450044  0.651993  1
  K  K30  1  0.780631  0.049956  0.151993  1
  K  K31  1  0.219369  0.549956  0.348007  1
  K  K32  1  0.545631  0.230989  0.304673  1
  K  K33  1  0.454369  0.730989  0.195327  1
  K  K34  1  0.454369  0.769011  0.695327  1
  K  K35  1  0.545631  0.269011  0.804673  1
  K  K36  1  0.969763  0.002780  0.733249  1
  K  K37  1  0.030237  0.502780  0.766751  1
  K  K38  1  0.030237  0.997220  0.266751  1
  K  K39  1  0.969763  0.497220  0.233249  1
  K  K40  1  0.863697  0.027831  0.467414  1
  K  K41  1  0.136303  0.527831  0.032586  1
  K  K42  1  0.136303  0.972169  0.532586  1
  K  K43  1  0.863697  0.472169  0.967414  1
  K  K44  1  0.566361  0.608963  0.553280  1
  K  K45  1  0.433639  0.108963  0.946720  1
  K  K46  1  0.433639  0.391037  0.446720  1
  K  K47  1  0.566361  0.891037  0.053280  1
  Sn  Sn48  1  0.785177  0.764351  0.743417  1
  Sn  Sn49  1  0.214823  0.264351  0.756583  1
  Sn  Sn50  1  0.214823  0.235649  0.256583  1
  Sn  Sn51  1  0.785177  0.735649  0.243417  1
  Sn  Sn52  1  0.964052  0.727002  0.627554  1
  Sn  Sn53  1  0.035948  0.227002  0.872446  1
  Sn  Sn54  1  0.035948  0.272998  0.372446  1
  Sn  Sn55  1  0.964052  0.772998  0.127554  1
  Sn  Sn56  1  0.482758  0.784331  0.393334  1
  Sn  Sn57  1  0.517242  0.284331  0.106666  1
  Sn  Sn58  1  0.517242  0.215669  0.606666  1
  Sn  Sn59  1  0.482758  0.715669  0.893334  1
  Sn  Sn60  1  0.301897  0.742687  0.508930  1
  Sn  Sn61  1  0.698103  0.242687  0.991070  1
  Sn  Sn62  1  0.698103  0.257313  0.491070  1
  Sn  Sn63  1  0.301897  0.757313  0.008930  1
  Se  Se64  1  0.982052  0.817792  0.518763  1
  Se  Se65  1  0.017948  0.317792  0.981237  1
  Se  Se66  1  0.017948  0.182208  0.481237  1
  Se  Se67  1  0.982052  0.682208  0.018763  1
  Se  Se68  1  0.831349  0.824298  0.632192  1
  Se  Se69  1  0.168651  0.324298  0.867808  1
  Se  Se70  1  0.168651  0.175702  0.367808  1
  Se  Se71  1  0.831349  0.675702  0.132192  1
  Se  Se72  1  0.631434  0.782748  0.441454  1
  Se  Se73  1  0.368566  0.282748  0.058546  1
  Se  Se74  1  0.368566  0.217252  0.558546  1
  Se  Se75  1  0.631434  0.717252  0.941454  1
  Se  Se76  1  0.439926  0.831880  0.508898  1
  Se  Se77  1  0.560074  0.331880  0.991102  1
  Se  Se78  1  0.560074  0.168120  0.491102  1
  Se  Se79  1  0.439926  0.668120  0.008898  1
  Se  Se80  1  0.068047  0.759838  0.734724  1
  Se  Se81  1  0.931953  0.259838  0.765276  1
  Se  Se82  1  0.931953  0.240162  0.265276  1
  Se  Se83  1  0.068047  0.740162  0.234724  1
  Se  Se84  1  0.818233  0.926679  0.820900  1
  Se  Se85  1  0.181767  0.426679  0.679100  1
  Se  Se86  1  0.181767  0.073321  0.179100  1
  Se  Se87  1  0.818233  0.573321  0.320900  1
  Se  Se88  1  0.846887  0.595286  0.799027  1
  Se  Se89  1  0.153113  0.095286  0.700973  1
  Se  Se90  1  0.153113  0.404714  0.200973  1
  Se  Se91  1  0.846887  0.904714  0.299027  1
  Se  Se92  1  0.444865  0.934549  0.307978  1
  Se  Se93  1  0.555135  0.434549  0.192022  1
  Se  Se94  1  0.555135  0.065451  0.692022  1
  Se  Se95  1  0.444865  0.565451  0.807978  1
  Se  Se96  1  0.939557  0.531503  0.596818  1
  Se  Se97  1  0.060443  0.031503  0.903182  1
  Se  Se98  1  0.060443  0.468497  0.403182  1
  Se  Se99  1  0.939557  0.968497  0.096818  1
  Se  Se100  1  0.637651  0.741040  0.697424  1
  Se  Se101  1  0.362349  0.241040  0.802576  1
  Se  Se102  1  0.362349  0.258960  0.302576  1
  Se  Se103  1  0.637651  0.758960  0.197424  1
  Se  Se104  1  0.428104  0.608975  0.340254  1
  Se  Se105  1  0.571896  0.108975  0.159746  1
  Se  Se106  1  0.571896  0.391025  0.659746  1
  Se  Se107  1  0.428104  0.891025  0.840254  1
  Se  Se108  1  0.729152  0.189210  0.380022  1
  Se  Se109  1  0.270848  0.689210  0.119978  1
  Se  Se110  1  0.270848  0.810790  0.619978  1
  Se  Se111  1  0.729152  0.310790  0.880022  1
  Se  Se112  1  0.681875  0.457984  0.482390  1
  Se  Se113  1  0.318125  0.957984  0.017610  1
  Se  Se114  1  0.318125  0.542016  0.517610  1
  Se  Se115  1  0.681875  0.042016  0.982390  1
  Se  Se116  1  0.802908  0.194480  0.592228  1
  Se  Se117  1  0.197092  0.694480  0.907772  1
  Se  Se118  1  0.197092  0.805520  0.407772  1
  Se  Se119  1  0.802908  0.305520  0.092228  1
