# generated using pymatgen
data_Ca2IN
_symmetry_space_group_name_H-M   'P 1'
_cell_length_a   3.81794245
_cell_length_b   3.81794245
_cell_length_c   14.65963656
_cell_angle_alpha   90.00000000
_cell_angle_beta   90.00000000
_cell_angle_gamma   120.00000000
_symmetry_Int_Tables_number   1
_chemical_formula_structural   Ca2IN
_chemical_formula_sum   'Ca4 I2 N2'
_cell_volume   185.06001378
_cell_formula_units_Z   2
loop_
 _symmetry_equiv_pos_site_id
 _symmetry_equiv_pos_as_xyz
  1  'x, y, z'
loop_
 _atom_site_type_symbol
 _atom_site_label
 _atom_site_symmetry_multiplicity
 _atom_site_fract_x
 _atom_site_fract_y
 _atom_site_fract_z
 _atom_site_occupancy
  Ca  Ca0  1  0.333333  0.666667  0.082083  1
  Ca  Ca1  1  0.333333  0.666667  0.417917  1
  Ca  Ca2  1  0.666667  0.333333  0.582083  1
  Ca  Ca3  1  0.666667  0.333333  0.917917  1
  I  I4  1  0.333333  0.666667  0.750000  1
  I  I5  1  0.666667  0.333333  0.250000  1
  N  N6  1  0.000000  0.000000  0.000000  1
  N  N7  1  0.000000  0.000000  0.500000  1
