# generated using pymatgen
data_Bi4Br2O5
_symmetry_space_group_name_H-M   'P 1'
_cell_length_a   11.10364370
_cell_length_b   5.74144597
_cell_length_c   14.80672762
_cell_angle_alpha   90.00000000
_cell_angle_beta   98.52866298
_cell_angle_gamma   90.00000000
_symmetry_Int_Tables_number   1
_chemical_formula_structural   Bi4Br2O5
_chemical_formula_sum   'Bi16 Br8 O20'
_cell_volume   933.50493726
_cell_formula_units_Z   4
loop_
 _symmetry_equiv_pos_site_id
 _symmetry_equiv_pos_as_xyz
  1  'x, y, z'
loop_
 _atom_site_type_symbol
 _atom_site_label
 _atom_site_symmetry_multiplicity
 _atom_site_fract_x
 _atom_site_fract_y
 _atom_site_fract_z
 _atom_site_occupancy
  Bi  Bi0  1  0.789036  0.272122  0.848377  1
  Bi  Bi1  1  0.210964  0.772122  0.151623  1
  Bi  Bi2  1  0.647847  0.772285  0.697524  1
  Bi  Bi3  1  0.352153  0.272285  0.302476  1
  Bi  Bi4  1  0.733464  0.211918  0.118272  1
  Bi  Bi5  1  0.266536  0.711918  0.881728  1
  Bi  Bi6  1  0.596522  0.660075  0.958614  1
  Bi  Bi7  1  0.403478  0.160075  0.041386  1
  Bi  Bi8  1  0.436186  0.180939  0.781015  1
  Bi  Bi9  1  0.563814  0.680939  0.218985  1
  Bi  Bi10  1  0.273103  0.747083  0.627217  1
  Bi  Bi11  1  0.726897  0.247083  0.372783  1
  Bi  Bi12  1  0.077793  0.259607  0.457413  1
  Bi  Bi13  1  0.922207  0.759607  0.542587  1
  Bi  Bi14  1  0.905240  0.755291  0.293686  1
  Bi  Bi15  1  0.094760  0.255291  0.706314  1
  Br  Br16  1  0.786172  0.266268  0.620472  1
  Br  Br17  1  0.213828  0.766268  0.379528  1
  Br  Br18  1  0.624313  0.790428  0.449509  1
  Br  Br19  1  0.375687  0.290428  0.550491  1
  Br  Br20  1  0.948089  0.765774  0.772091  1
  Br  Br21  1  0.875346  0.789251  0.062253  1
  Br  Br22  1  0.124654  0.289251  0.937747  1
  Br  Br23  1  0.051911  0.265774  0.227909  1
  O  O24  1  0.704903  0.314977  0.967444  1
  O  O25  1  0.295097  0.814977  0.032556  1
  O  O26  1  0.653200  0.017506  0.807370  1
  O  O27  1  0.346800  0.517506  0.192630  1
  O  O28  1  0.647468  0.518542  0.803304  1
  O  O29  1  0.352532  0.018542  0.196696  1
  O  O30  1  0.459191  0.828178  0.702803  1
  O  O31  1  0.540809  0.328178  0.297197  1
  O  O32  1  0.423917  0.972692  0.904591  1
  O  O33  1  0.576083  0.472692  0.095409  1
  O  O34  1  0.423899  0.471107  0.912254  1
  O  O35  1  0.576101  0.971107  0.087746  1
  O  O36  1  0.921883  0.002082  0.420618  1
  O  O37  1  0.078117  0.502082  0.579382  1
  O  O38  1  0.918981  0.517060  0.420035  1
  O  O39  1  0.081019  0.017060  0.579965  1
  O  O40  1  0.255402  0.492383  0.736416  1
  O  O41  1  0.751596  0.502332  0.258374  1
  O  O42  1  0.248404  0.002332  0.741626  1
  O  O43  1  0.744598  0.992383  0.263584  1
