# generated using pymatgen
data_H8S5N2
_symmetry_space_group_name_H-M   'P 1'
_cell_length_a   5.45855250
_cell_length_b   16.59957318
_cell_length_c   9.50808716
_cell_angle_alpha   90.00000000
_cell_angle_beta   104.15877868
_cell_angle_gamma   90.00000000
_symmetry_Int_Tables_number   1
_chemical_formula_structural   H8S5N2
_chemical_formula_sum   'H32 S20 N8'
_cell_volume   835.35262595
_cell_formula_units_Z   4
loop_
 _symmetry_equiv_pos_site_id
 _symmetry_equiv_pos_as_xyz
  1  'x, y, z'
loop_
 _atom_site_type_symbol
 _atom_site_label
 _atom_site_symmetry_multiplicity
 _atom_site_fract_x
 _atom_site_fract_y
 _atom_site_fract_z
 _atom_site_occupancy
  H  H0  1  0.894813  0.641861  0.581479  1
  H  H1  1  0.105187  0.141861  0.918521  1
  H  H2  1  0.105187  0.358139  0.418521  1
  H  H3  1  0.894813  0.858139  0.081479  1
  H  H4  1  0.714584  0.725758  0.549400  1
  H  H5  1  0.285416  0.225758  0.950600  1
  H  H6  1  0.285416  0.274242  0.450600  1
  H  H7  1  0.714584  0.774242  0.049400  1
  H  H8  1  0.574094  0.632369  0.537971  1
  H  H9  1  0.425906  0.132369  0.962029  1
  H  H10  1  0.425906  0.367631  0.462029  1
  H  H11  1  0.574094  0.867631  0.037971  1
  H  H12  1  0.725111  0.669386  0.703185  1
  H  H13  1  0.274889  0.169386  0.796815  1
  H  H14  1  0.636422  0.933265  0.632073  1
  H  H15  1  0.274889  0.330614  0.296815  1
  H  H16  1  0.828643  0.976690  0.781400  1
  H  H17  1  0.171357  0.476690  0.718600  1
  H  H18  1  0.171357  0.023310  0.218600  1
  H  H19  1  0.828643  0.523310  0.281400  1
  H  H20  1  0.521113  0.956313  0.779065  1
  H  H21  1  0.478887  0.456313  0.720935  1
  H  H22  1  0.478887  0.043687  0.220935  1
  H  H23  1  0.521113  0.543687  0.279065  1
  H  H24  1  0.417119  0.530730  0.827271  1
  H  H25  1  0.582881  0.030730  0.672729  1
  H  H26  1  0.582881  0.469270  0.172729  1
  H  H27  1  0.417119  0.969270  0.327271  1
  H  H28  1  0.636422  0.566735  0.132073  1
  H  H29  1  0.363578  0.066735  0.367927  1
  H  H30  1  0.363578  0.433265  0.867927  1
  H  H31  1  0.725111  0.830614  0.203185  1
  S  S32  1  0.229287  0.929844  0.923309  1
  S  S33  1  0.770713  0.429844  0.576691  1
  S  S34  1  0.770713  0.070156  0.076691  1
  S  S35  1  0.229287  0.570156  0.423309  1
  S  S36  1  0.111566  0.819759  0.829333  1
  S  S37  1  0.888434  0.319759  0.670667  1
  S  S38  1  0.888434  0.180241  0.170667  1
  S  S39  1  0.111566  0.680241  0.329333  1
  S  S40  1  0.235952  0.805841  0.642531  1
  S  S41  1  0.764048  0.305841  0.857469  1
  S  S42  1  0.764048  0.194159  0.357469  1
  S  S43  1  0.235952  0.694159  0.142531  1
  S  S44  1  0.046472  0.611386  0.990781  1
  S  S45  1  0.953528  0.111386  0.509219  1
  S  S46  1  0.953528  0.388614  0.009219  1
  S  S47  1  0.046472  0.888614  0.490781  1
  S  S48  1  0.669930  0.644687  0.930140  1
  S  S49  1  0.330070  0.144687  0.569860  1
  S  S50  1  0.330070  0.355313  0.069860  1
  S  S51  1  0.669930  0.855313  0.430140  1
  N  N52  1  0.729320  0.667758  0.593160  1
  N  N53  1  0.270680  0.167758  0.906840  1
  N  N54  1  0.270680  0.332242  0.406840  1
  N  N55  1  0.729320  0.832242  0.093160  1
  N  N56  1  0.644161  0.974528  0.716552  1
  N  N57  1  0.355839  0.474528  0.783448  1
  N  N58  1  0.355839  0.025472  0.283448  1
  N  N59  1  0.644161  0.525472  0.216552  1
