# generated using pymatgen
data_NaMn3P3(HO6)2
_symmetry_space_group_name_H-M   'P 1'
_cell_length_a   8.78098574
_cell_length_b   8.78098574
_cell_length_c   6.74816436
_cell_angle_alpha   73.04241660
_cell_angle_beta   106.95758340
_cell_angle_gamma   88.87627603
_symmetry_Int_Tables_number   1
_chemical_formula_structural   NaMn3P3(HO6)2
_chemical_formula_sum   'Na2 Mn6 P6 H4 O24'
_cell_volume   472.93332386
_cell_formula_units_Z   2
loop_
 _symmetry_equiv_pos_site_id
 _symmetry_equiv_pos_as_xyz
  1  'x, y, z'
loop_
 _atom_site_type_symbol
 _atom_site_label
 _atom_site_symmetry_multiplicity
 _atom_site_fract_x
 _atom_site_fract_y
 _atom_site_fract_z
 _atom_site_occupancy
  Na  Na0  1  0.976868  0.976868  0.250000  1
  Na  Na1  1  0.023132  0.023132  0.750000  1
  Mn  Mn2  1  0.626711  0.050450  0.872038  1
  Mn  Mn3  1  0.050450  0.626711  0.627962  1
  Mn  Mn4  1  0.283083  0.283083  0.250000  1
  Mn  Mn5  1  0.716917  0.716917  0.750000  1
  Mn  Mn6  1  0.373289  0.949550  0.127962  1
  Mn  Mn7  1  0.949550  0.373289  0.372038  1
  P  P8  1  0.323202  0.896537  0.611438  1
  P  P9  1  0.103463  0.676798  0.111438  1
  P  P10  1  0.678575  0.678575  0.250000  1
  P  P11  1  0.321425  0.321425  0.750000  1
  P  P12  1  0.896537  0.323202  0.888562  1
  P  P13  1  0.676798  0.103463  0.388562  1
  H  H14  1  0.370712  0.618285  0.188458  1
  H  H15  1  0.618285  0.370712  0.311542  1
  H  H16  1  0.629288  0.381715  0.811542  1
  H  H17  1  0.381715  0.629288  0.688458  1
  O  O18  1  0.562179  0.262701  0.347003  1
  O  O19  1  0.847608  0.148100  0.402651  1
  O  O20  1  0.851900  0.152392  0.902651  1
  O  O21  1  0.152392  0.851900  0.597349  1
  O  O22  1  0.609432  0.036274  0.198778  1
  O  O23  1  0.036274  0.609432  0.301222  1
  O  O24  1  0.390568  0.963726  0.801222  1
  O  O25  1  0.963726  0.390568  0.698778  1
  O  O26  1  0.262701  0.562179  0.152997  1
  O  O27  1  0.148100  0.847608  0.097349  1
  O  O28  1  0.786687  0.713818  0.457692  1
  O  O29  1  0.713818  0.786687  0.042308  1
  O  O30  1  0.213313  0.286182  0.542308  1
  O  O31  1  0.286182  0.213313  0.957692  1
  O  O32  1  0.289103  0.500226  0.735027  1
  O  O33  1  0.500226  0.289103  0.764973  1
  O  O34  1  0.710897  0.499774  0.264973  1
  O  O35  1  0.737299  0.437821  0.847003  1
  O  O36  1  0.982721  0.676801  0.892148  1
  O  O37  1  0.676801  0.982721  0.607852  1
  O  O38  1  0.017279  0.323199  0.107852  1
  O  O39  1  0.323199  0.017279  0.392148  1
  O  O40  1  0.437821  0.737299  0.652997  1
  O  O41  1  0.499774  0.710897  0.235027  1
