# generated using pymatgen
data_Hf(Se2Cl3)2
_symmetry_space_group_name_H-M   'P 1'
_cell_length_a   11.10161761
_cell_length_b   11.10161761
_cell_length_c   11.12924653
_cell_angle_alpha   90.00000000
_cell_angle_beta   90.00000000
_cell_angle_gamma   90.00000000
_symmetry_Int_Tables_number   1
_chemical_formula_structural   Hf(Se2Cl3)2
_chemical_formula_sum   'Hf4 Se16 Cl24'
_cell_volume   1371.63415581
_cell_formula_units_Z   4
loop_
 _symmetry_equiv_pos_site_id
 _symmetry_equiv_pos_as_xyz
  1  'x, y, z'
loop_
 _atom_site_type_symbol
 _atom_site_label
 _atom_site_symmetry_multiplicity
 _atom_site_fract_x
 _atom_site_fract_y
 _atom_site_fract_z
 _atom_site_occupancy
  Hf  Hf0  1  0.750000  0.250000  0.750000  1
  Hf  Hf1  1  0.250000  0.250000  0.250000  1
  Hf  Hf2  1  0.750000  0.750000  0.250000  1
  Hf  Hf3  1  0.250000  0.750000  0.750000  1
  Se  Se4  1  0.854792  0.145208  0.250000  1
  Se  Se5  1  0.354792  0.354792  0.750000  1
  Se  Se6  1  0.645208  0.645208  0.750000  1
  Se  Se7  1  0.145208  0.854792  0.250000  1
  Se  Se8  1  0.645208  0.354792  0.250000  1
  Se  Se9  1  0.145208  0.145208  0.750000  1
  Se  Se10  1  0.854792  0.854792  0.750000  1
  Se  Se11  1  0.354792  0.645208  0.250000  1
  Se  Se12  1  0.160265  0.660265  0.170938  1
  Se  Se13  1  0.839735  0.339735  0.170938  1
  Se  Se14  1  0.160265  0.339735  0.670938  1
  Se  Se15  1  0.839735  0.660265  0.670938  1
  Se  Se16  1  0.660265  0.160265  0.329062  1
  Se  Se17  1  0.339735  0.160265  0.829062  1
  Se  Se18  1  0.660265  0.839735  0.829062  1
  Se  Se19  1  0.339735  0.839735  0.329062  1
  Cl  Cl20  1  0.419179  0.695406  0.886347  1
  Cl  Cl21  1  0.580821  0.304594  0.886347  1
  Cl  Cl22  1  0.195406  0.080821  0.386347  1
  Cl  Cl23  1  0.804594  0.919179  0.386347  1
  Cl  Cl24  1  0.695406  0.419179  0.613653  1
  Cl  Cl25  1  0.080821  0.195406  0.113653  1
  Cl  Cl26  1  0.919179  0.804594  0.113653  1
  Cl  Cl27  1  0.304594  0.580821  0.613653  1
  Cl  Cl28  1  0.080821  0.804594  0.613653  1
  Cl  Cl29  1  0.919179  0.195406  0.613653  1
  Cl  Cl30  1  0.304594  0.419179  0.113653  1
  Cl  Cl31  1  0.695406  0.580821  0.113653  1
  Cl  Cl32  1  0.804594  0.080821  0.886347  1
  Cl  Cl33  1  0.419179  0.304594  0.386347  1
  Cl  Cl34  1  0.580821  0.695406  0.386347  1
  Cl  Cl35  1  0.195406  0.919179  0.886347  1
  Cl  Cl36  1  0.118267  0.618267  0.863210  1
  Cl  Cl37  1  0.881733  0.381733  0.863210  1
  Cl  Cl38  1  0.118267  0.381733  0.363210  1
  Cl  Cl39  1  0.881733  0.618267  0.363210  1
  Cl  Cl40  1  0.381733  0.881733  0.636790  1
  Cl  Cl41  1  0.618267  0.881733  0.136790  1
  Cl  Cl42  1  0.381733  0.118267  0.136790  1
  Cl  Cl43  1  0.618267  0.118267  0.636790  1
