# generated using pymatgen
data_Rb2Zn3O4
_symmetry_space_group_name_H-M   'P 1'
_cell_length_a   8.41706762
_cell_length_b   8.41706762
_cell_length_c   5.87011782
_cell_angle_alpha   78.96159198
_cell_angle_beta   101.03840802
_cell_angle_gamma   133.77041321
_symmetry_Int_Tables_number   1
_chemical_formula_structural   Rb2Zn3O4
_chemical_formula_sum   'Rb4 Zn6 O8'
_cell_volume   293.73482512
_cell_formula_units_Z   2
loop_
 _symmetry_equiv_pos_site_id
 _symmetry_equiv_pos_as_xyz
  1  'x, y, z'
loop_
 _atom_site_type_symbol
 _atom_site_label
 _atom_site_symmetry_multiplicity
 _atom_site_fract_x
 _atom_site_fract_y
 _atom_site_fract_z
 _atom_site_occupancy
  Rb  Rb0  1  0.017230  0.251509  0.004340  1
  Rb  Rb1  1  0.251509  0.017230  0.495660  1
  Rb  Rb2  1  0.982770  0.748491  0.995660  1
  Rb  Rb3  1  0.748491  0.982770  0.504340  1
  Zn  Zn4  1  0.420873  0.809328  0.912373  1
  Zn  Zn5  1  0.809328  0.420873  0.587627  1
  Zn  Zn6  1  0.481803  0.481803  0.750000  1
  Zn  Zn7  1  0.518197  0.518197  0.250000  1
  Zn  Zn8  1  0.579127  0.190672  0.087627  1
  Zn  Zn9  1  0.190672  0.579127  0.412373  1
  O  O10  1  0.621399  0.141443  0.792447  1
  O  O11  1  0.141443  0.621399  0.707553  1
  O  O12  1  0.378601  0.858557  0.207553  1
  O  O13  1  0.858557  0.378601  0.292447  1
  O  O14  1  0.721382  0.593797  0.542896  1
  O  O15  1  0.593797  0.721382  0.957104  1
  O  O16  1  0.406203  0.278618  0.042896  1
  O  O17  1  0.278618  0.406203  0.457104  1
