# generated using pymatgen
data_NbSeBr3
_symmetry_space_group_name_H-M   'P 1'
_cell_length_a   7.14842640
_cell_length_b   7.50285569
_cell_length_c   12.81089782
_cell_angle_alpha   90.00000000
_cell_angle_beta   98.16633590
_cell_angle_gamma   90.00000000
_symmetry_Int_Tables_number   1
_chemical_formula_structural   NbSeBr3
_chemical_formula_sum   'Nb4 Se4 Br12'
_cell_volume   680.12748309
_cell_formula_units_Z   4
loop_
 _symmetry_equiv_pos_site_id
 _symmetry_equiv_pos_as_xyz
  1  'x, y, z'
loop_
 _atom_site_type_symbol
 _atom_site_label
 _atom_site_symmetry_multiplicity
 _atom_site_fract_x
 _atom_site_fract_y
 _atom_site_fract_z
 _atom_site_occupancy
  Nb  Nb0  1  0.068570  0.627830  0.650040  1
  Nb  Nb1  1  0.931430  0.627830  0.849960  1
  Nb  Nb2  1  0.931430  0.372170  0.349960  1
  Nb  Nb3  1  0.068570  0.372170  0.150040  1
  Se  Se4  1  0.151008  0.119701  0.297902  1
  Se  Se5  1  0.151008  0.880299  0.797902  1
  Se  Se6  1  0.848992  0.880299  0.702098  1
  Se  Se7  1  0.848992  0.119701  0.202098  1
  Br  Br8  1  0.347693  0.767648  0.578411  1
  Br  Br9  1  0.652307  0.767648  0.921589  1
  Br  Br10  1  0.652307  0.232352  0.421589  1
  Br  Br11  1  0.347693  0.232352  0.078411  1
  Br  Br12  1  0.235244  0.434038  0.803658  1
  Br  Br13  1  0.764756  0.434038  0.696342  1
  Br  Br14  1  0.764756  0.565962  0.196342  1
  Br  Br15  1  0.235244  0.565962  0.303658  1
  Br  Br16  1  0.143736  0.324844  0.538412  1
  Br  Br17  1  0.143736  0.675156  0.038412  1
  Br  Br18  1  0.856264  0.675156  0.461588  1
  Br  Br19  1  0.856264  0.324844  0.961588  1
