# generated using pymatgen
data_Hg5(ClO2)2
_symmetry_space_group_name_H-M   'P 1'
_cell_length_a   9.02084172
_cell_length_b   9.02084172
_cell_length_c   9.02084172
_cell_angle_alpha   139.53191953
_cell_angle_beta   97.14283674
_cell_angle_gamma   96.59722238
_symmetry_Int_Tables_number   1
_chemical_formula_structural   Hg5(ClO2)2
_chemical_formula_sum   'Hg10 Cl4 O8'
_cell_volume   447.02512102
_cell_formula_units_Z   2
loop_
 _symmetry_equiv_pos_site_id
 _symmetry_equiv_pos_as_xyz
  1  'x, y, z'
loop_
 _atom_site_type_symbol
 _atom_site_label
 _atom_site_symmetry_multiplicity
 _atom_site_fract_x
 _atom_site_fract_y
 _atom_site_fract_z
 _atom_site_occupancy
  Hg  Hg0  1  0.860973  0.784702  0.645675  1
  Hg  Hg1  1  0.639027  0.284702  0.923728  1
  Hg  Hg2  1  0.360973  0.715298  0.076272  1
  Hg  Hg3  1  0.139027  0.215298  0.354325  1
  Hg  Hg4  1  0.590901  0.250000  0.340901  1
  Hg  Hg5  1  0.909099  0.250000  0.659099  1
  Hg  Hg6  1  0.409099  0.750000  0.659099  1
  Hg  Hg7  1  0.090901  0.750000  0.340901  1
  Hg  Hg8  1  0.250000  0.250000  0.000000  1
  Hg  Hg9  1  0.750000  0.750000  0.000000  1
  Cl  Cl10  1  0.391140  0.229924  0.621064  1
  Cl  Cl11  1  0.108860  0.729924  0.838784  1
  Cl  Cl12  1  0.891140  0.270076  0.161216  1
  Cl  Cl13  1  0.608860  0.770076  0.378936  1
  O  O14  1  0.178289  0.523568  0.053443  1
  O  O15  1  0.321711  0.375154  0.345280  1
  O  O16  1  0.470125  0.124846  0.946557  1
  O  O17  1  0.029875  0.976432  0.654720  1
  O  O18  1  0.970125  0.023568  0.345280  1
  O  O19  1  0.529875  0.875154  0.053443  1
  O  O20  1  0.821711  0.476432  0.946557  1
  O  O21  1  0.678289  0.624846  0.654720  1
