# generated using pymatgen
data_K2CuF4
_symmetry_space_group_name_H-M   'P 1'
_cell_length_a   13.56057802
_cell_length_b   13.56057802
_cell_length_c   13.56057802
_cell_angle_alpha   154.71796938
_cell_angle_beta   154.71796938
_cell_angle_gamma   36.05688053
_symmetry_Int_Tables_number   1
_chemical_formula_structural   K2CuF4
_chemical_formula_sum   'K8 Cu4 F16'
_cell_volume   454.24626600
_cell_formula_units_Z   4
loop_
 _symmetry_equiv_pos_site_id
 _symmetry_equiv_pos_as_xyz
  1  'x, y, z'
loop_
 _atom_site_type_symbol
 _atom_site_label
 _atom_site_symmetry_multiplicity
 _atom_site_fract_x
 _atom_site_fract_y
 _atom_site_fract_z
 _atom_site_occupancy
  K  K0  1  0.428958  0.428958  0.000000  1
  K  K1  1  0.571042  0.571042  0.000000  1
  K  K2  1  0.071042  0.071042  0.000000  1
  K  K3  1  0.928958  0.928958  0.000000  1
  K  K4  1  0.321042  0.821042  0.500000  1
  K  K5  1  0.178958  0.678958  0.500000  1
  K  K6  1  0.678958  0.178958  0.500000  1
  K  K7  1  0.821042  0.321042  0.500000  1
  Cu  Cu8  1  0.250000  0.250000  0.000000  1
  Cu  Cu9  1  0.750000  0.750000  0.000000  1
  Cu  Cu10  1  0.500000  0.000000  0.500000  1
  Cu  Cu11  1  0.000000  0.500000  0.500000  1
  F  F12  1  0.518115  0.981885  1.000000  1
  F  F13  1  0.018115  0.018115  0.536231  1
  F  F14  1  0.481885  0.481885  0.463769  1
  F  F15  1  0.981885  0.518115  0.000000  1
  F  F16  1  0.768115  0.731885  0.500000  1
  F  F17  1  0.268115  0.768115  0.036231  1
  F  F18  1  0.731885  0.231885  0.963769  1
  F  F19  1  0.231885  0.268115  0.500000  1
  F  F20  1  0.326770  0.326770  0.000000  1
  F  F21  1  0.673230  0.673230  0.000000  1
  F  F22  1  0.173230  0.173230  0.000000  1
  F  F23  1  0.826770  0.826770  0.000000  1
  F  F24  1  0.923230  0.423230  0.500000  1
  F  F25  1  0.576770  0.076770  0.500000  1
  F  F26  1  0.076770  0.576770  0.500000  1
  F  F27  1  0.423230  0.923230  0.500000  1
