# generated using pymatgen
data_K2NaInAs2
_symmetry_space_group_name_H-M   'P 1'
_cell_length_a   9.13689984
_cell_length_b   9.13689984
_cell_length_c   9.13689984
_cell_angle_alpha   136.14348832
_cell_angle_beta   135.84268939
_cell_angle_gamma   63.99133610
_symmetry_Int_Tables_number   1
_chemical_formula_structural   K2NaInAs2
_chemical_formula_sum   'K4 Na2 In2 As4'
_cell_volume   363.22249368
_cell_formula_units_Z   2
loop_
 _symmetry_equiv_pos_site_id
 _symmetry_equiv_pos_as_xyz
  1  'x, y, z'
loop_
 _atom_site_type_symbol
 _atom_site_label
 _atom_site_symmetry_multiplicity
 _atom_site_fract_x
 _atom_site_fract_y
 _atom_site_fract_z
 _atom_site_occupancy
  K  K0  1  0.675925  0.415291  0.739366  1
  K  K1  1  0.824075  0.063441  0.239366  1
  K  K2  1  0.175925  0.936559  0.760634  1
  K  K3  1  0.324075  0.584709  0.260634  1
  Na  Na4  1  0.750000  0.000000  0.750000  1
  Na  Na5  1  0.250000  0.000000  0.250000  1
  In  In6  1  0.250000  0.500000  0.750000  1
  In  In7  1  0.750000  0.500000  0.250000  1
  As  As8  1  0.398244  0.180732  0.782488  1
  As  As9  1  0.601756  0.819268  0.217512  1
  As  As10  1  0.101756  0.384244  0.282488  1
  As  As11  1  0.898244  0.615756  0.717512  1
