# generated using pymatgen
data_TaAgF6
_symmetry_space_group_name_H-M   'P 1'
_cell_length_a   5.11829781
_cell_length_b   5.11829781
_cell_length_c   9.70782654
_cell_angle_alpha   90.00000000
_cell_angle_beta   90.00000000
_cell_angle_gamma   90.00000000
_symmetry_Int_Tables_number   1
_chemical_formula_structural   TaAgF6
_chemical_formula_sum   'Ta2 Ag2 F12'
_cell_volume   254.31566463
_cell_formula_units_Z   2
loop_
 _symmetry_equiv_pos_site_id
 _symmetry_equiv_pos_as_xyz
  1  'x, y, z'
loop_
 _atom_site_type_symbol
 _atom_site_label
 _atom_site_symmetry_multiplicity
 _atom_site_fract_x
 _atom_site_fract_y
 _atom_site_fract_z
 _atom_site_occupancy
  Ta  Ta0  1  0.000000  0.000000  0.000000  1
  Ta  Ta1  1  0.000000  0.000000  0.500000  1
  Ag  Ag2  1  0.500000  0.500000  0.250000  1
  Ag  Ag3  1  0.500000  0.500000  0.750000  1
  F  F4  1  0.809847  0.190153  0.860639  1
  F  F5  1  0.190153  0.809847  0.860639  1
  F  F6  1  0.190153  0.809847  0.139361  1
  F  F7  1  0.190153  0.190153  0.360639  1
  F  F8  1  0.733629  0.733629  0.000000  1
  F  F9  1  0.266371  0.733629  0.500000  1
  F  F10  1  0.733629  0.266371  0.500000  1
  F  F11  1  0.266371  0.266371  0.000000  1
  F  F12  1  0.809847  0.190153  0.139361  1
  F  F13  1  0.809847  0.809847  0.639361  1
  F  F14  1  0.190153  0.190153  0.639361  1
  F  F15  1  0.809847  0.809847  0.360639  1
