# generated using pymatgen
data_NaErCl4
_symmetry_space_group_name_H-M   'P 1'
_cell_length_a   6.44508273
_cell_length_b   7.72605864
_cell_length_c   6.80348402
_cell_angle_alpha   90.00000000
_cell_angle_beta   92.74184934
_cell_angle_gamma   90.00000000
_symmetry_Int_Tables_number   1
_chemical_formula_structural   NaErCl4
_chemical_formula_sum   'Na2 Er2 Cl8'
_cell_volume   338.39224424
_cell_formula_units_Z   2
loop_
 _symmetry_equiv_pos_site_id
 _symmetry_equiv_pos_as_xyz
  1  'x, y, z'
loop_
 _atom_site_type_symbol
 _atom_site_label
 _atom_site_symmetry_multiplicity
 _atom_site_fract_x
 _atom_site_fract_y
 _atom_site_fract_z
 _atom_site_occupancy
  Na  Na0  1  0.500000  0.353426  0.750000  1
  Na  Na1  1  0.500000  0.646574  0.250000  1
  Er  Er2  1  0.000000  0.844653  0.750000  1
  Er  Er3  1  0.000000  0.155347  0.250000  1
  Cl  Cl4  1  0.747360  0.625437  0.595331  1
  Cl  Cl5  1  0.252640  0.625437  0.904669  1
  Cl  Cl6  1  0.221599  0.103460  0.935686  1
  Cl  Cl7  1  0.778401  0.103460  0.564314  1
  Cl  Cl8  1  0.778401  0.896540  0.064314  1
  Cl  Cl9  1  0.221599  0.896540  0.435686  1
  Cl  Cl10  1  0.747360  0.374563  0.095331  1
  Cl  Cl11  1  0.252640  0.374563  0.404669  1
