# generated using pymatgen
data_CoH8(BrO2)2
_symmetry_space_group_name_H-M   'P 1'
_cell_length_a   6.12238731
_cell_length_b   7.59581845
_cell_length_c   8.65241415
_cell_angle_alpha   90.00000000
_cell_angle_beta   110.27817929
_cell_angle_gamma   90.00000000
_symmetry_Int_Tables_number   1
_chemical_formula_structural   CoH8(BrO2)2
_chemical_formula_sum   'Co2 H16 Br4 O8'
_cell_volume   377.43766223
_cell_formula_units_Z   2
loop_
 _symmetry_equiv_pos_site_id
 _symmetry_equiv_pos_as_xyz
  1  'x, y, z'
loop_
 _atom_site_type_symbol
 _atom_site_label
 _atom_site_symmetry_multiplicity
 _atom_site_fract_x
 _atom_site_fract_y
 _atom_site_fract_z
 _atom_site_occupancy
  Co  Co0  1  0.000000  0.000000  0.000000  1
  Co  Co1  1  0.000000  0.500000  0.500000  1
  H  H2  1  0.631179  0.701690  0.503362  1
  H  H3  1  0.368821  0.201690  0.996638  1
  H  H4  1  0.368821  0.298310  0.496638  1
  H  H5  1  0.631179  0.798310  0.003362  1
  H  H6  1  0.616527  0.682284  0.320544  1
  H  H7  1  0.383473  0.182284  0.179456  1
  H  H8  1  0.383473  0.317716  0.679456  1
  H  H9  1  0.616527  0.817716  0.820544  1
  H  H10  1  0.109312  0.571014  0.832763  1
  H  H11  1  0.890688  0.071014  0.667237  1
  H  H12  1  0.890688  0.428986  0.167237  1
  H  H13  1  0.109312  0.928986  0.332763  1
  H  H14  1  0.904000  0.431356  0.785100  1
  H  H15  1  0.096000  0.931356  0.714900  1
  H  H16  1  0.904000  0.068644  0.285100  1
  H  H17  1  0.096000  0.568644  0.214900  1
  Br  Br18  1  0.698714  0.230101  0.424193  1
  Br  Br19  1  0.301286  0.730101  0.075807  1
  Br  Br20  1  0.698714  0.269899  0.924193  1
  Br  Br21  1  0.301286  0.769899  0.575807  1
  O  O22  1  0.728460  0.683806  0.434570  1
  O  O23  1  0.271540  0.183806  0.065430  1
  O  O24  1  0.271540  0.316194  0.565430  1
  O  O25  1  0.728460  0.816194  0.934570  1
  O  O26  1  0.008353  0.497975  0.741402  1
  O  O27  1  0.991647  0.997975  0.758598  1
  O  O28  1  0.991647  0.502025  0.258598  1
  O  O29  1  0.008353  0.002025  0.241402  1
