# generated using pymatgen
data_Sb7Se8F35
_symmetry_space_group_name_H-M   'P 1'
_cell_length_a   11.41959222
_cell_length_b   13.91439250
_cell_length_c   15.91966826
_cell_angle_alpha   90.00000000
_cell_angle_beta   132.25178982
_cell_angle_gamma   90.00000000
_symmetry_Int_Tables_number   1
_chemical_formula_structural   Sb7Se8F35
_chemical_formula_sum   'Sb14 Se16 F70'
_cell_volume   1872.38973935
_cell_formula_units_Z   2
loop_
 _symmetry_equiv_pos_site_id
 _symmetry_equiv_pos_as_xyz
  1  'x, y, z'
loop_
 _atom_site_type_symbol
 _atom_site_label
 _atom_site_symmetry_multiplicity
 _atom_site_fract_x
 _atom_site_fract_y
 _atom_site_fract_z
 _atom_site_occupancy
  Sb  Sb0  1  0.500000  0.500000  0.500000  1
  Sb  Sb1  1  0.500000  0.000000  0.000000  1
  Sb  Sb2  1  0.461245  0.238242  0.242809  1
  Sb  Sb3  1  0.538755  0.738242  0.257191  1
  Sb  Sb4  1  0.538755  0.761758  0.757191  1
  Sb  Sb5  1  0.461245  0.261758  0.742809  1
  Sb  Sb6  1  0.023509  0.294736  0.777226  1
  Sb  Sb7  1  0.976491  0.794736  0.722774  1
  Sb  Sb8  1  0.976491  0.705264  0.222774  1
  Sb  Sb9  1  0.023509  0.205264  0.277226  1
  Sb  Sb10  1  0.599084  0.142934  0.553901  1
  Sb  Sb11  1  0.400916  0.642934  0.946099  1
  Sb  Sb12  1  0.400916  0.857066  0.446099  1
  Sb  Sb13  1  0.599084  0.357066  0.053901  1
  Se  Se14  1  0.031874  0.027021  0.915957  1
  Se  Se15  1  0.968126  0.527021  0.584043  1
  Se  Se16  1  0.968126  0.972979  0.084043  1
  Se  Se17  1  0.031874  0.472979  0.415957  1
  Se  Se18  1  0.817433  0.036765  0.903417  1
  Se  Se19  1  0.182567  0.536765  0.596583  1
  Se  Se20  1  0.182567  0.963235  0.096583  1
  Se  Se21  1  0.817433  0.463235  0.403417  1
  Se  Se22  1  0.987347  0.583041  0.920812  1
  Se  Se23  1  0.012653  0.083041  0.579188  1
  Se  Se24  1  0.012653  0.416959  0.079188  1
  Se  Se25  1  0.987347  0.916959  0.420812  1
  Se  Se26  1  0.185286  0.482821  0.065671  1
  Se  Se27  1  0.814714  0.982821  0.434329  1
  Se  Se28  1  0.814714  0.517179  0.934329  1
  Se  Se29  1  0.185286  0.017179  0.565671  1
  F  F30  1  0.507359  0.637633  0.494942  1
  F  F31  1  0.492641  0.137633  0.005058  1
  F  F32  1  0.492641  0.362367  0.505058  1
  F  F33  1  0.507359  0.862367  0.994942  1
  F  F34  1  0.348425  0.495218  0.338132  1
  F  F35  1  0.651575  0.995219  0.161868  1
  F  F36  1  0.651575  0.504782  0.661868  1
  F  F37  1  0.348425  0.004782  0.838132  1
  F  F38  1  0.330073  0.509289  0.500510  1
  F  F39  1  0.669927  0.009289  0.999490  1
  F  F40  1  0.669927  0.490711  0.499490  1
  F  F41  1  0.330073  0.990711  0.000510  1
  F  F42  1  0.427077  0.152086  0.320217  1
  F  F43  1  0.572923  0.652086  0.179783  1
  F  F44  1  0.572923  0.847914  0.679783  1
  F  F45  1  0.427077  0.347914  0.820217  1
  F  F46  1  0.305071  0.326329  0.211720  1
  F  F47  1  0.694929  0.826329  0.288280  1
  F  F48  1  0.694929  0.673671  0.788280  1
  F  F49  1  0.305071  0.173671  0.711720  1
  F  F50  1  0.620882  0.301940  0.384321  1
  F  F51  1  0.379118  0.801940  0.115679  1
  F  F52  1  0.379118  0.698060  0.615679  1
  F  F53  1  0.620882  0.198060  0.884321  1
  F  F54  1  0.298131  0.175759  0.102312  1
  F  F55  1  0.701869  0.675759  0.397688  1
  F  F56  1  0.701869  0.824241  0.897688  1
  F  F57  1  0.298131  0.324241  0.602312  1
  F  F58  1  0.494052  0.329865  0.167857  1
  F  F59  1  0.505948  0.829865  0.332143  1
  F  F60  1  0.505948  0.670135  0.832143  1
  F  F61  1  0.494052  0.170135  0.667857  1
  F  F62  1  0.617430  0.154648  0.272221  1
  F  F63  1  0.382570  0.654648  0.227779  1
  F  F64  1  0.382570  0.845352  0.727779  1
  F  F65  1  0.617430  0.345352  0.772221  1
  F  F66  1  0.964391  0.427037  0.753107  1
  F  F67  1  0.035609  0.927037  0.746893  1
  F  F68  1  0.035609  0.572963  0.246893  1
  F  F69  1  0.964391  0.072963  0.253107  1
  F  F70  1  0.992829  0.282464  0.880744  1
  F  F71  1  0.007171  0.782464  0.619256  1
  F  F72  1  0.007171  0.717536  0.119256  1
  F  F73  1  0.992829  0.217536  0.380744  1
  F  F74  1  0.071567  0.160573  0.791999  1
  F  F75  1  0.928433  0.660573  0.708001  1
  F  F76  1  0.928433  0.839427  0.208001  1
  F  F77  1  0.071567  0.339427  0.291999  1
  F  F78  1  0.035204  0.302581  0.662975  1
  F  F79  1  0.964796  0.802581  0.837025  1
  F  F80  1  0.964796  0.697419  0.337025  1
  F  F81  1  0.035204  0.197419  0.162975  1
  F  F82  1  0.241060  0.329393  0.896830  1
  F  F83  1  0.758940  0.829393  0.603170  1
  F  F84  1  0.758940  0.670607  0.103170  1
  F  F85  1  0.241060  0.170607  0.396830  1
  F  F86  1  0.795782  0.260077  0.653796  1
  F  F87  1  0.204218  0.760077  0.846204  1
  F  F88  1  0.204218  0.739923  0.346204  1
  F  F89  1  0.795782  0.239923  0.153796  1
  F  F90  1  0.500000  0.000000  0.500000  1
  F  F91  1  0.500000  0.500000  0.000000  1
  F  F92  1  0.734177  0.097207  0.526932  1
  F  F93  1  0.265823  0.597207  0.973068  1
  F  F94  1  0.265823  0.902793  0.473068  1
  F  F95  1  0.734177  0.402793  0.026932  1
  F  F96  1  0.745309  0.081516  0.703747  1
  F  F97  1  0.254691  0.581516  0.796253  1
  F  F98  1  0.254691  0.918484  0.296253  1
  F  F99  1  0.745309  0.418484  0.203747  1
