# generated using pymatgen
data_AlVMoO7
_symmetry_space_group_name_H-M   'P 1'
_cell_length_a   5.45149856
_cell_length_b   8.30497488
_cell_length_c   12.96197208
_cell_angle_alpha   90.00000000
_cell_angle_beta   90.00000000
_cell_angle_gamma   90.00000000
_symmetry_Int_Tables_number   1
_chemical_formula_structural   AlVMoO7
_chemical_formula_sum   'Al4 V4 Mo4 O28'
_cell_volume   586.84756450
_cell_formula_units_Z   4
loop_
 _symmetry_equiv_pos_site_id
 _symmetry_equiv_pos_as_xyz
  1  'x, y, z'
loop_
 _atom_site_type_symbol
 _atom_site_label
 _atom_site_symmetry_multiplicity
 _atom_site_fract_x
 _atom_site_fract_y
 _atom_site_fract_z
 _atom_site_occupancy
  Al  Al0  1  0.750000  0.234005  0.112277  1
  Al  Al1  1  0.250000  0.765995  0.887723  1
  Al  Al2  1  0.250000  0.734005  0.387723  1
  Al  Al3  1  0.750000  0.265995  0.612277  1
  V  V4  1  0.250000  0.432514  0.985442  1
  V  V5  1  0.750000  0.567486  0.014558  1
  V  V6  1  0.750000  0.932514  0.514558  1
  V  V7  1  0.250000  0.067486  0.485442  1
  Mo  Mo8  1  0.750000  0.045010  0.855094  1
  Mo  Mo9  1  0.250000  0.954990  0.144906  1
  Mo  Mo10  1  0.250000  0.545010  0.644906  1
  Mo  Mo11  1  0.750000  0.454990  0.355094  1
  O  O12  1  0.250000  0.283823  0.905238  1
  O  O13  1  0.750000  0.716177  0.094762  1
  O  O14  1  0.750000  0.783823  0.594762  1
  O  O15  1  0.250000  0.216177  0.405238  1
  O  O16  1  0.022250  0.598877  0.930566  1
  O  O17  1  0.522250  0.401123  0.069434  1
  O  O18  1  0.977750  0.098877  0.569434  1
  O  O19  1  0.477750  0.901123  0.430566  1
  O  O20  1  0.977750  0.401123  0.069434  1
  O  O21  1  0.477750  0.598877  0.930566  1
  O  O22  1  0.022250  0.901123  0.430566  1
  O  O23  1  0.522250  0.098877  0.569434  1
  O  O24  1  0.491118  0.585894  0.351329  1
  O  O25  1  0.991118  0.414106  0.648671  1
  O  O26  1  0.508882  0.085894  0.148671  1
  O  O27  1  0.008882  0.914106  0.851329  1
  O  O28  1  0.508882  0.414106  0.648671  1
  O  O29  1  0.008882  0.585894  0.351329  1
  O  O30  1  0.491118  0.914106  0.851329  1
  O  O31  1  0.991118  0.085894  0.148671  1
  O  O32  1  0.750000  0.344388  0.473508  1
  O  O33  1  0.250000  0.655612  0.526492  1
  O  O34  1  0.250000  0.844388  0.026492  1
  O  O35  1  0.750000  0.155612  0.973508  1
  O  O36  1  0.750000  0.322260  0.246119  1
  O  O37  1  0.250000  0.677740  0.753881  1
  O  O38  1  0.250000  0.822260  0.253881  1
  O  O39  1  0.750000  0.177740  0.746119  1
