# generated using pymatgen
data_LiTiPCO7
_symmetry_space_group_name_H-M   'P 1'
_cell_length_a   5.68612591
_cell_length_b   6.33638491
_cell_length_c   8.59221927
_cell_angle_alpha   90.00000000
_cell_angle_beta   93.11848996
_cell_angle_gamma   90.00000000
_symmetry_Int_Tables_number   1
_chemical_formula_structural   LiTiPCO7
_chemical_formula_sum   'Li2 Ti2 P2 C2 O14'
_cell_volume   309.11478681
_cell_formula_units_Z   2
loop_
 _symmetry_equiv_pos_site_id
 _symmetry_equiv_pos_as_xyz
  1  'x, y, z'
loop_
 _atom_site_type_symbol
 _atom_site_label
 _atom_site_symmetry_multiplicity
 _atom_site_fract_x
 _atom_site_fract_y
 _atom_site_fract_z
 _atom_site_occupancy
  Li  Li0  1  0.247754  0.895682  0.834811  1
  Li  Li1  1  0.752246  0.395682  0.165189  1
  Ti  Ti2  1  0.786296  0.774335  0.661958  1
  Ti  Ti3  1  0.213704  0.274335  0.338042  1
  P  P4  1  0.735633  0.276039  0.543722  1
  P  P5  1  0.264367  0.776039  0.456278  1
  C  C6  1  0.737815  0.736302  0.944678  1
  C  C7  1  0.262185  0.236302  0.055322  1
  O  O8  1  0.203071  0.579476  0.357192  1
  O  O9  1  0.942304  0.766091  0.879540  1
  O  O10  1  0.436875  0.268049  0.164004  1
  O  O11  1  0.563125  0.768049  0.835996  1
  O  O12  1  0.796126  0.471168  0.644783  1
  O  O13  1  0.123170  0.782272  0.605792  1
  O  O14  1  0.203874  0.971168  0.355217  1
  O  O15  1  0.876830  0.282272  0.394208  1
  O  O16  1  0.796929  0.079476  0.642808  1
  O  O17  1  0.470000  0.275358  0.492417  1
  O  O18  1  0.711387  0.678429  0.079248  1
  O  O19  1  0.288613  0.178429  0.920752  1
  O  O20  1  0.530000  0.775358  0.507583  1
  O  O21  1  0.057696  0.266091  0.120460  1
