# generated using pymatgen
data_BaSe2O5
_symmetry_space_group_name_H-M   'P 1'
_cell_length_a   4.61744841
_cell_length_b   12.05553717
_cell_length_c   9.96688608
_cell_angle_alpha   90.00000000
_cell_angle_beta   92.56319660
_cell_angle_gamma   90.00000000
_symmetry_Int_Tables_number   1
_chemical_formula_structural   BaSe2O5
_chemical_formula_sum   'Ba4 Se8 O20'
_cell_volume   554.25980512
_cell_formula_units_Z   4
loop_
 _symmetry_equiv_pos_site_id
 _symmetry_equiv_pos_as_xyz
  1  'x, y, z'
loop_
 _atom_site_type_symbol
 _atom_site_label
 _atom_site_symmetry_multiplicity
 _atom_site_fract_x
 _atom_site_fract_y
 _atom_site_fract_z
 _atom_site_occupancy
  Ba  Ba0  1  0.241734  0.668356  0.961031  1
  Ba  Ba1  1  0.758266  0.168356  0.538969  1
  Ba  Ba2  1  0.758266  0.331644  0.038969  1
  Ba  Ba3  1  0.241734  0.831644  0.461031  1
  Se  Se4  1  0.819119  0.603920  0.256970  1
  Se  Se5  1  0.180881  0.103920  0.243030  1
  Se  Se6  1  0.180881  0.396080  0.743030  1
  Se  Se7  1  0.819119  0.896080  0.756970  1
  Se  Se8  1  0.728923  0.583193  0.645947  1
  Se  Se9  1  0.271077  0.083193  0.854053  1
  Se  Se10  1  0.271077  0.416807  0.354053  1
  Se  Se11  1  0.728923  0.916807  0.145947  1
  O  O12  1  0.761251  0.558733  0.095881  1
  O  O13  1  0.238749  0.058733  0.404119  1
  O  O14  1  0.238749  0.441267  0.904119  1
  O  O15  1  0.761251  0.941267  0.595881  1
  O  O16  1  0.161305  0.655478  0.259009  1
  O  O17  1  0.838695  0.155478  0.240991  1
  O  O18  1  0.838695  0.344522  0.740991  1
  O  O19  1  0.161305  0.844522  0.759009  1
  O  O20  1  0.117092  0.536478  0.658279  1
  O  O21  1  0.882908  0.036478  0.841721  1
  O  O22  1  0.882908  0.463522  0.341721  1
  O  O23  1  0.117092  0.963522  0.158279  1
  O  O24  1  0.711987  0.857673  0.299814  1
  O  O25  1  0.288013  0.357673  0.200186  1
  O  O26  1  0.288013  0.142327  0.700186  1
  O  O27  1  0.711987  0.642327  0.799814  1
  O  O28  1  0.763715  0.809091  0.038799  1
  O  O29  1  0.236285  0.309091  0.461201  1
  O  O30  1  0.236285  0.190909  0.961201  1
  O  O31  1  0.763715  0.690909  0.538799  1
