# generated using pymatgen
data_NaGaBr4
_symmetry_space_group_name_H-M   'P 1'
_cell_length_a   7.72267193
_cell_length_b   7.76493618
_cell_length_c   14.23886207
_cell_angle_alpha   90.00000000
_cell_angle_beta   90.00000000
_cell_angle_gamma   90.00000000
_symmetry_Int_Tables_number   1
_chemical_formula_structural   NaGaBr4
_chemical_formula_sum   'Na4 Ga4 Br16'
_cell_volume   853.84838141
_cell_formula_units_Z   4
loop_
 _symmetry_equiv_pos_site_id
 _symmetry_equiv_pos_as_xyz
  1  'x, y, z'
loop_
 _atom_site_type_symbol
 _atom_site_label
 _atom_site_symmetry_multiplicity
 _atom_site_fract_x
 _atom_site_fract_y
 _atom_site_fract_z
 _atom_site_occupancy
  Na  Na0  1  0.250000  0.050188  0.651720  1
  Na  Na1  1  0.750000  0.550188  0.848280  1
  Na  Na2  1  0.750000  0.949812  0.348280  1
  Na  Na3  1  0.250000  0.449812  0.151720  1
  Ga  Ga4  1  0.250000  0.201605  0.398667  1
  Ga  Ga5  1  0.750000  0.701605  0.101333  1
  Ga  Ga6  1  0.750000  0.798395  0.601333  1
  Ga  Ga7  1  0.250000  0.298395  0.898667  1
  Br  Br8  1  0.250000  0.372124  0.534619  1
  Br  Br9  1  0.750000  0.872124  0.965381  1
  Br  Br10  1  0.750000  0.627876  0.465381  1
  Br  Br11  1  0.250000  0.127876  0.034619  1
  Br  Br12  1  0.250000  0.909676  0.446251  1
  Br  Br13  1  0.750000  0.409676  0.053749  1
  Br  Br14  1  0.750000  0.090324  0.553749  1
  Br  Br15  1  0.250000  0.590324  0.946251  1
  Br  Br16  1  0.006083  0.238803  0.801657  1
  Br  Br17  1  0.993917  0.738803  0.698343  1
  Br  Br18  1  0.506083  0.761197  0.198343  1
  Br  Br19  1  0.493917  0.261197  0.301657  1
  Br  Br20  1  0.993917  0.761197  0.198343  1
  Br  Br21  1  0.006083  0.261197  0.301657  1
  Br  Br22  1  0.493917  0.238803  0.801657  1
  Br  Br23  1  0.506083  0.738803  0.698343  1
