# generated using pymatgen
data_Ta3I7
_symmetry_space_group_name_H-M   'P 1'
_cell_length_a   11.16276819
_cell_length_b   11.16276819
_cell_length_c   12.92259765
_cell_angle_alpha   90.00000000
_cell_angle_beta   90.00000000
_cell_angle_gamma   93.81529816
_symmetry_Int_Tables_number   1
_chemical_formula_structural   Ta3I7
_chemical_formula_sum   'Ta12 I28'
_cell_volume   1606.68247208
_cell_formula_units_Z   4
loop_
 _symmetry_equiv_pos_site_id
 _symmetry_equiv_pos_as_xyz
  1  'x, y, z'
loop_
 _atom_site_type_symbol
 _atom_site_label
 _atom_site_symmetry_multiplicity
 _atom_site_fract_x
 _atom_site_fract_y
 _atom_site_fract_z
 _atom_site_occupancy
  Ta  Ta0  1  0.905345  0.094655  0.932066  1
  Ta  Ta1  1  0.594655  0.405345  0.432066  1
  Ta  Ta2  1  0.405345  0.594655  0.567934  1
  Ta  Ta3  1  0.094655  0.905345  0.067934  1
  Ta  Ta4  1  0.849862  0.944451  0.105291  1
  Ta  Ta5  1  0.650138  0.555549  0.605291  1
  Ta  Ta6  1  0.555549  0.650138  0.394709  1
  Ta  Ta7  1  0.944451  0.849862  0.894709  1
  Ta  Ta8  1  0.150138  0.055549  0.894709  1
  Ta  Ta9  1  0.349862  0.444451  0.394709  1
  Ta  Ta10  1  0.444451  0.349862  0.605291  1
  Ta  Ta11  1  0.055549  0.150138  0.105291  1
  I  I12  1  0.626197  0.873803  0.250000  1
  I  I13  1  0.873803  0.626197  0.750000  1
  I  I14  1  0.373803  0.126197  0.750000  1
  I  I15  1  0.126197  0.373803  0.250000  1
  I  I16  1  0.671044  0.082332  0.019194  1
  I  I17  1  0.828956  0.417668  0.519194  1
  I  I18  1  0.417668  0.828956  0.480806  1
  I  I19  1  0.082332  0.671044  0.980806  1
  I  I20  1  0.328956  0.917668  0.980806  1
  I  I21  1  0.171044  0.582332  0.480806  1
  I  I22  1  0.582332  0.171044  0.519194  1
  I  I23  1  0.917668  0.328956  0.019194  1
  I  I24  1  0.256242  0.256242  1.000000  1
  I  I25  1  0.243758  0.243758  0.500000  1
  I  I26  1  0.743758  0.743758  0.000000  1
  I  I27  1  0.756242  0.756242  0.500000  1
  I  I28  1  0.881137  0.118863  0.262731  1
  I  I29  1  0.618863  0.381137  0.762731  1
  I  I30  1  0.381137  0.618863  0.237269  1
  I  I31  1  0.118863  0.881137  0.737269  1
  I  I32  1  0.713122  0.531070  0.266529  1
  I  I33  1  0.786878  0.968930  0.766529  1
  I  I34  1  0.968930  0.786878  0.233471  1
  I  I35  1  0.531070  0.713122  0.733471  1
  I  I36  1  0.286878  0.468930  0.733471  1
  I  I37  1  0.213122  0.031070  0.233471  1
  I  I38  1  0.031070  0.213122  0.766529  1
  I  I39  1  0.468930  0.286878  0.266529  1
