# generated using pymatgen
data_TaCl4F
_symmetry_space_group_name_H-M   'P 1'
_cell_length_a   10.23735470
_cell_length_b   10.23735470
_cell_length_c   10.23735470
_cell_angle_alpha   100.19957068
_cell_angle_beta   100.19957068
_cell_angle_gamma   130.22908044
_symmetry_Int_Tables_number   1
_chemical_formula_structural   TaCl4F
_chemical_formula_sum   'Ta4 Cl16 F4'
_cell_volume   743.07693668
_cell_formula_units_Z   4
loop_
 _symmetry_equiv_pos_site_id
 _symmetry_equiv_pos_as_xyz
  1  'x, y, z'
loop_
 _atom_site_type_symbol
 _atom_site_label
 _atom_site_symmetry_multiplicity
 _atom_site_fract_x
 _atom_site_fract_y
 _atom_site_fract_z
 _atom_site_occupancy
  Ta  Ta0  1  0.234703  0.965223  0.173322  1
  Ta  Ta1  1  0.938619  0.765297  0.730520  1
  Ta  Ta2  1  0.034777  0.208099  0.269480  1
  Ta  Ta3  1  0.791901  0.061381  0.826678  1
  Cl  Cl4  1  0.955580  0.702467  0.168469  1
  Cl  Cl5  1  0.533998  0.787110  0.831531  1
  Cl  Cl6  1  0.297533  0.466002  0.253113  1
  Cl  Cl7  1  0.212890  0.044420  0.746887  1
  Cl  Cl8  1  0.719382  0.222844  0.896757  1
  Cl  Cl9  1  0.177375  0.280618  0.503461  1
  Cl  Cl10  1  0.777156  0.673913  0.496539  1
  Cl  Cl11  1  0.326087  0.822625  0.103243  1
  Cl  Cl12  1  0.025363  0.610438  0.693023  1
  Cl  Cl13  1  0.667660  0.974637  0.585075  1
  Cl  Cl14  1  0.389562  0.082585  0.414925  1
  Cl  Cl15  1  0.917415  0.332340  0.306977  1
  Cl  Cl16  1  0.091587  0.317643  0.856403  1
  Cl  Cl17  1  0.764816  0.908413  0.226056  1
  Cl  Cl18  1  0.682357  0.538760  0.773944  1
  Cl  Cl19  1  0.461240  0.235184  0.143597  1
  F  F20  1  0.917754  0.122681  0.044198  1
  F  F21  1  0.078483  0.873556  0.955802  1
  F  F22  1  0.877319  0.921517  0.795073  1
  F  F23  1  0.126444  0.082246  0.204927  1
