# generated using pymatgen
data_BPS4
_symmetry_space_group_name_H-M   'P 1'
_cell_length_a   6.69368365
_cell_length_b   6.69368365
_cell_length_c   6.69368365
_cell_angle_alpha   133.48032714
_cell_angle_beta   124.24002265
_cell_angle_gamma   75.47712850
_symmetry_Int_Tables_number   1
_chemical_formula_structural   BPS4
_chemical_formula_sum   'B1 P1 S4'
_cell_volume   175.19094360
_cell_formula_units_Z   1
loop_
 _symmetry_equiv_pos_site_id
 _symmetry_equiv_pos_as_xyz
  1  'x, y, z'
loop_
 _atom_site_type_symbol
 _atom_site_label
 _atom_site_symmetry_multiplicity
 _atom_site_fract_x
 _atom_site_fract_y
 _atom_site_fract_z
 _atom_site_occupancy
  B  B0  1  1.000000  0.500000  0.500000  1
  P  P1  1  0.000000  0.000000  0.000000  1
  S  S2  1  0.730786  0.633590  0.564629  1
  S  S3  1  0.269214  0.833843  0.902804  1
  S  S4  1  0.931039  0.366410  0.097196  1
  S  S5  1  0.068961  0.166157  0.435371  1
