# generated using pymatgen
data_Li3NiPCO7
_symmetry_space_group_name_H-M   'P 1'
_cell_length_a   4.97499646
_cell_length_b   6.41963083
_cell_length_c   8.39751154
_cell_angle_alpha   90.00000000
_cell_angle_beta   95.50686556
_cell_angle_gamma   90.00000000
_symmetry_Int_Tables_number   1
_chemical_formula_structural   Li3NiPCO7
_chemical_formula_sum   'Li6 Ni2 P2 C2 O14'
_cell_volume   266.95889944
_cell_formula_units_Z   2
loop_
 _symmetry_equiv_pos_site_id
 _symmetry_equiv_pos_as_xyz
  1  'x, y, z'
loop_
 _atom_site_type_symbol
 _atom_site_label
 _atom_site_symmetry_multiplicity
 _atom_site_fract_x
 _atom_site_fract_y
 _atom_site_fract_z
 _atom_site_occupancy
  Li  Li0  1  0.236252  0.984149  0.774779  1
  Li  Li1  1  0.763748  0.015851  0.225221  1
  Li  Li2  1  0.289151  0.250000  0.396004  1
  Li  Li3  1  0.710849  0.750000  0.603996  1
  Li  Li4  1  0.236252  0.515851  0.774779  1
  Li  Li5  1  0.763748  0.484149  0.225221  1
  Ni  Ni6  1  0.292271  0.750000  0.167377  1
  Ni  Ni7  1  0.707729  0.250000  0.832623  1
  P  P8  1  0.228252  0.250000  0.086312  1
  P  P9  1  0.771748  0.750000  0.913688  1
  C  C10  1  0.184496  0.750000  0.458128  1
  C  C11  1  0.815504  0.250000  0.541872  1
  O  O12  1  0.664930  0.750000  0.079707  1
  O  O13  1  0.434291  0.750000  0.426852  1
  O  O14  1  0.999929  0.250000  0.663776  1
  O  O15  1  0.000071  0.750000  0.336224  1
  O  O16  1  0.667517  0.562354  0.807663  1
  O  O17  1  0.565709  0.250000  0.573148  1
  O  O18  1  0.667517  0.937646  0.807663  1
  O  O19  1  0.332483  0.437646  0.192337  1
  O  O20  1  0.332483  0.062354  0.192337  1
  O  O21  1  0.912627  0.250000  0.062936  1
  O  O22  1  0.116576  0.750000  0.603157  1
  O  O23  1  0.883424  0.250000  0.396843  1
  O  O24  1  0.087373  0.750000  0.937064  1
  O  O25  1  0.335070  0.250000  0.920293  1
