# generated using pymatgen
data_Rb3H(SO4)2
_symmetry_space_group_name_H-M   'P 1'
_cell_length_a   8.32349410
_cell_length_b   8.32349410
_cell_length_c   10.33024278
_cell_angle_alpha   78.36350655
_cell_angle_beta   101.63649345
_cell_angle_gamma   137.66469626
_symmetry_Int_Tables_number   1
_chemical_formula_structural   Rb3H(SO4)2
_chemical_formula_sum   'Rb6 H2 S4 O16'
_cell_volume   470.58125008
_cell_formula_units_Z   2
loop_
 _symmetry_equiv_pos_site_id
 _symmetry_equiv_pos_as_xyz
  1  'x, y, z'
loop_
 _atom_site_type_symbol
 _atom_site_label
 _atom_site_symmetry_multiplicity
 _atom_site_fract_x
 _atom_site_fract_y
 _atom_site_fract_z
 _atom_site_occupancy
  Rb  Rb0  1  0.033620  0.413283  0.847689  1
  Rb  Rb1  1  0.413283  0.033620  0.652311  1
  Rb  Rb2  1  0.966380  0.586717  0.152311  1
  Rb  Rb3  1  0.586717  0.966380  0.347689  1
  Rb  Rb4  1  0.244102  0.244102  0.250000  1
  Rb  Rb5  1  0.755898  0.755898  0.750000  1
  H  H6  1  0.500000  0.500000  0.500000  1
  H  H7  1  0.500000  0.500000  0.000000  1
  S  S8  1  0.831657  0.601349  0.464843  1
  S  S9  1  0.601349  0.831657  0.035157  1
  S  S10  1  0.168343  0.398651  0.535157  1
  S  S11  1  0.398651  0.168343  0.964843  1
  O  O12  1  0.052299  0.802895  0.396611  1
  O  O13  1  0.802895  0.052299  0.103389  1
  O  O14  1  0.947701  0.197105  0.603389  1
  O  O15  1  0.197105  0.947701  0.896611  1
  O  O16  1  0.882395  0.579256  0.609712  1
  O  O17  1  0.579256  0.882395  0.890288  1
  O  O18  1  0.117605  0.420744  0.390288  1
  O  O19  1  0.420744  0.117605  0.109712  1
  O  O20  1  0.341585  0.313342  0.946075  1
  O  O21  1  0.313342  0.341585  0.553925  1
  O  O22  1  0.658415  0.686658  0.053925  1
  O  O23  1  0.686658  0.658415  0.446075  1
  O  O24  1  0.627473  0.322147  0.905221  1
  O  O25  1  0.322147  0.627473  0.594779  1
  O  O26  1  0.372527  0.677853  0.094779  1
  O  O27  1  0.677853  0.372527  0.405221  1
