# generated using pymatgen
data_Se2O5
_symmetry_space_group_name_H-M   'P 1'
_cell_length_a   4.85660233
_cell_length_b   7.11005797
_cell_length_c   14.01935114
_cell_angle_alpha   90.00000000
_cell_angle_beta   91.12573061
_cell_angle_gamma   90.00000000
_symmetry_Int_Tables_number   1
_chemical_formula_structural   Se2O5
_chemical_formula_sum   'Se8 O20'
_cell_volume   484.00491054
_cell_formula_units_Z   4
loop_
 _symmetry_equiv_pos_site_id
 _symmetry_equiv_pos_as_xyz
  1  'x, y, z'
loop_
 _atom_site_type_symbol
 _atom_site_label
 _atom_site_symmetry_multiplicity
 _atom_site_fract_x
 _atom_site_fract_y
 _atom_site_fract_z
 _atom_site_occupancy
  Se  Se0  1  0.631608  0.759151  0.359580  1
  Se  Se1  1  0.368392  0.259151  0.140420  1
  Se  Se2  1  0.368392  0.240849  0.640420  1
  Se  Se3  1  0.631608  0.740849  0.859580  1
  Se  Se4  1  0.501446  0.713593  0.129204  1
  Se  Se5  1  0.498554  0.213593  0.370796  1
  Se  Se6  1  0.498554  0.286407  0.870796  1
  Se  Se7  1  0.501446  0.786407  0.629204  1
  O  O8  1  0.299444  0.749057  0.361390  1
  O  O9  1  0.700556  0.249057  0.138610  1
  O  O10  1  0.700556  0.250943  0.638610  1
  O  O11  1  0.299444  0.750943  0.861390  1
  O  O12  1  0.729802  0.717986  0.228240  1
  O  O13  1  0.270198  0.217986  0.271760  1
  O  O14  1  0.270198  0.282014  0.771760  1
  O  O15  1  0.729802  0.782014  0.728240  1
  O  O16  1  0.698933  0.829569  0.538513  1
  O  O17  1  0.301067  0.329569  0.961487  1
  O  O18  1  0.301067  0.170431  0.461487  1
  O  O19  1  0.698933  0.670431  0.038513  1
  O  O20  1  0.300459  0.602045  0.625869  1
  O  O21  1  0.699541  0.102045  0.874131  1
  O  O22  1  0.699541  0.397955  0.374131  1
  O  O23  1  0.300459  0.897955  0.125869  1
  O  O24  1  0.280487  0.975747  0.652948  1
  O  O25  1  0.719513  0.475747  0.847052  1
  O  O26  1  0.719513  0.024253  0.347052  1
  O  O27  1  0.280487  0.524253  0.152948  1
