# generated using pymatgen
data_Zn3B7ClO13
_symmetry_space_group_name_H-M   'P 1'
_cell_length_a   8.65923842
_cell_length_b   8.65923842
_cell_length_c   8.65923842
_cell_angle_alpha   59.80068658
_cell_angle_beta   59.80068658
_cell_angle_gamma   59.80068658
_symmetry_Int_Tables_number   1
_chemical_formula_structural   Zn3B7ClO13
_chemical_formula_sum   'Zn6 B14 Cl2 O26'
_cell_volume   457.04045362
_cell_formula_units_Z   2
loop_
 _symmetry_equiv_pos_site_id
 _symmetry_equiv_pos_as_xyz
  1  'x, y, z'
loop_
 _atom_site_type_symbol
 _atom_site_label
 _atom_site_symmetry_multiplicity
 _atom_site_fract_x
 _atom_site_fract_y
 _atom_site_fract_z
 _atom_site_occupancy
  Zn  Zn0  1  0.464402  0.027607  0.028727  1
  Zn  Zn1  1  0.027607  0.028727  0.464402  1
  Zn  Zn2  1  0.028727  0.464402  0.027607  1
  Zn  Zn3  1  0.964402  0.528727  0.527607  1
  Zn  Zn4  1  0.528727  0.527607  0.964402  1
  Zn  Zn5  1  0.527607  0.964402  0.528727  1
  B  B6  1  0.426646  0.733109  0.427119  1
  B  B7  1  0.396873  0.396873  0.396873  1
  B  B8  1  0.896873  0.896873  0.896873  1
  B  B9  1  0.733109  0.427119  0.426646  1
  B  B10  1  0.427119  0.426646  0.733109  1
  B  B11  1  0.926646  0.927119  0.233109  1
  B  B12  1  0.927119  0.233109  0.926646  1
  B  B13  1  0.233109  0.926646  0.927119  1
  B  B14  1  0.245834  0.752146  0.753363  1
  B  B15  1  0.753363  0.245834  0.752146  1
  B  B16  1  0.752146  0.753363  0.245834  1
  B  B17  1  0.253363  0.252146  0.745834  1
  B  B18  1  0.745834  0.253363  0.252146  1
  B  B19  1  0.252146  0.745834  0.253363  1
  Cl  Cl20  1  0.230337  0.230337  0.230337  1
  Cl  Cl21  1  0.730337  0.730337  0.730337  1
  O  O22  1  0.810569  0.387366  0.565092  1
  O  O23  1  0.565092  0.810569  0.387366  1
  O  O24  1  0.899469  0.751670  0.285229  1
  O  O25  1  0.285229  0.899469  0.751670  1
  O  O26  1  0.751670  0.285229  0.899469  1
  O  O27  1  0.251670  0.399469  0.785229  1
  O  O28  1  0.785229  0.251670  0.399469  1
  O  O29  1  0.399469  0.785229  0.251670  1
  O  O30  1  0.012063  0.012063  0.012063  1
  O  O31  1  0.512063  0.512063  0.512063  1
  O  O32  1  0.735161  0.893365  0.054334  1
  O  O33  1  0.054334  0.735161  0.893365  1
  O  O34  1  0.893365  0.054334  0.735161  1
  O  O35  1  0.554334  0.393365  0.235161  1
  O  O36  1  0.235161  0.554334  0.393365  1
  O  O37  1  0.393365  0.235161  0.554334  1
  O  O38  1  0.064757  0.299750  0.747015  1
  O  O39  1  0.747015  0.064757  0.299750  1
  O  O40  1  0.299750  0.747015  0.064757  1
  O  O41  1  0.247015  0.799750  0.564757  1
  O  O42  1  0.564757  0.247015  0.799750  1
  O  O43  1  0.799750  0.564757  0.247015  1
  O  O44  1  0.310569  0.065092  0.887366  1
  O  O45  1  0.887366  0.310569  0.065092  1
  O  O46  1  0.065092  0.887366  0.310569  1
  O  O47  1  0.387366  0.565092  0.810569  1
