# generated using pymatgen
data_Li3Bi2(PO4)3
_symmetry_space_group_name_H-M   'P 1'
_cell_length_a   9.75635840
_cell_length_b   9.75635840
_cell_length_c   9.75635840
_cell_angle_alpha   54.45921532
_cell_angle_beta   54.45921532
_cell_angle_gamma   54.45921532
_symmetry_Int_Tables_number   1
_chemical_formula_structural   Li3Bi2(PO4)3
_chemical_formula_sum   'Li6 Bi4 P6 O24'
_cell_volume   571.83283242
_cell_formula_units_Z   2
loop_
 _symmetry_equiv_pos_site_id
 _symmetry_equiv_pos_as_xyz
  1  'x, y, z'
loop_
 _atom_site_type_symbol
 _atom_site_label
 _atom_site_symmetry_multiplicity
 _atom_site_fract_x
 _atom_site_fract_y
 _atom_site_fract_z
 _atom_site_occupancy
  Li  Li0  1  0.666738  0.262842  0.935195  1
  Li  Li1  1  0.333262  0.737158  0.064805  1
  Li  Li2  1  0.737158  0.064805  0.333262  1
  Li  Li3  1  0.064805  0.333262  0.737158  1
  Li  Li4  1  0.935195  0.666738  0.262842  1
  Li  Li5  1  0.262842  0.935195  0.666738  1
  Bi  Bi6  1  0.344596  0.344596  0.344596  1
  Bi  Bi7  1  0.847658  0.847658  0.847658  1
  Bi  Bi8  1  0.152342  0.152342  0.152342  1
  Bi  Bi9  1  0.655404  0.655404  0.655404  1
  P  P10  1  0.049977  0.748015  0.437718  1
  P  P11  1  0.562282  0.950023  0.251985  1
  P  P12  1  0.437718  0.049977  0.748015  1
  P  P13  1  0.950023  0.251985  0.562282  1
  P  P14  1  0.251985  0.562282  0.950023  1
  P  P15  1  0.748015  0.437718  0.049977  1
  O  O16  1  0.143447  0.536253  0.504792  1
  O  O17  1  0.536253  0.504792  0.143447  1
  O  O18  1  0.839240  0.252149  0.175740  1
  O  O19  1  0.799927  0.410636  0.877871  1
  O  O20  1  0.200073  0.589364  0.122129  1
  O  O21  1  0.160760  0.747851  0.824260  1
  O  O22  1  0.463747  0.495208  0.856553  1
  O  O23  1  0.122129  0.200073  0.589364  1
  O  O24  1  0.989374  0.814999  0.579334  1
  O  O25  1  0.589364  0.122129  0.200073  1
  O  O26  1  0.185001  0.420666  0.010626  1
  O  O27  1  0.010626  0.185001  0.420666  1
  O  O28  1  0.495208  0.856553  0.463747  1
  O  O29  1  0.747851  0.824260  0.160760  1
  O  O30  1  0.824260  0.160760  0.747851  1
  O  O31  1  0.420666  0.010626  0.185001  1
  O  O32  1  0.579334  0.989374  0.814999  1
  O  O33  1  0.856553  0.463747  0.495208  1
  O  O34  1  0.252149  0.175740  0.839240  1
  O  O35  1  0.504792  0.143447  0.536253  1
  O  O36  1  0.175740  0.839240  0.252149  1
  O  O37  1  0.814999  0.579334  0.989374  1
  O  O38  1  0.410636  0.877871  0.799927  1
  O  O39  1  0.877871  0.799927  0.410636  1
