# generated using pymatgen
data_LiBiF4
_symmetry_space_group_name_H-M   'P 1'
_cell_length_a   6.80311999
_cell_length_b   6.80311999
_cell_length_c   6.80311999
_cell_angle_alpha   133.54937176
_cell_angle_beta   133.54937176
_cell_angle_gamma   67.79269988
_symmetry_Int_Tables_number   1
_chemical_formula_structural   LiBiF4
_chemical_formula_sum   'Li2 Bi2 F8'
_cell_volume   162.57235214
_cell_formula_units_Z   2
loop_
 _symmetry_equiv_pos_site_id
 _symmetry_equiv_pos_as_xyz
  1  'x, y, z'
loop_
 _atom_site_type_symbol
 _atom_site_label
 _atom_site_symmetry_multiplicity
 _atom_site_fract_x
 _atom_site_fract_y
 _atom_site_fract_z
 _atom_site_occupancy
  Li  Li0  1  0.000000  0.000000  0.000000  1
  Li  Li1  1  0.750000  0.250000  0.500000  1
  Bi  Bi2  1  0.250000  0.750000  0.500000  1
  Bi  Bi3  1  0.500000  0.500000  0.000000  1
  F  F4  1  0.241126  0.802722  0.883886  1
  F  F5  1  0.552722  0.168837  0.061596  1
  F  F6  1  0.831163  0.892759  0.383886  1
  F  F7  1  0.642759  0.758874  0.561596  1
  F  F8  1  0.197278  0.081163  0.438404  1
  F  F9  1  0.508874  0.447278  0.616114  1
  F  F10  1  0.918837  0.357241  0.116114  1
  F  F11  1  0.107241  0.491126  0.938404  1
