# generated using pymatgen
data_Nb2Se4O13
_symmetry_space_group_name_H-M   'P 1'
_cell_length_a   7.75754174
_cell_length_b   6.89968258
_cell_length_c   11.69262363
_cell_angle_alpha   90.00000000
_cell_angle_beta   109.17605627
_cell_angle_gamma   90.00000000
_symmetry_Int_Tables_number   1
_chemical_formula_structural   Nb2Se4O13
_chemical_formula_sum   'Nb4 Se8 O26'
_cell_volume   591.11703319
_cell_formula_units_Z   2
loop_
 _symmetry_equiv_pos_site_id
 _symmetry_equiv_pos_as_xyz
  1  'x, y, z'
loop_
 _atom_site_type_symbol
 _atom_site_label
 _atom_site_symmetry_multiplicity
 _atom_site_fract_x
 _atom_site_fract_y
 _atom_site_fract_z
 _atom_site_occupancy
  Nb  Nb0  1  0.941266  0.492897  0.603362  1
  Nb  Nb1  1  0.441266  0.507103  0.603362  1
  Nb  Nb2  1  0.825834  0.004388  0.951845  1
  Nb  Nb3  1  0.325834  0.995612  0.951845  1
  Se  Se4  1  0.892233  0.514485  0.292709  1
  Se  Se5  1  0.392233  0.485515  0.292709  1
  Se  Se6  1  0.047686  0.071696  0.277324  1
  Se  Se7  1  0.547686  0.928304  0.277324  1
  Se  Se8  1  0.676133  0.063178  0.617593  1
  Se  Se9  1  0.176133  0.936822  0.617593  1
  Se  Se10  1  0.588207  0.562163  0.938618  1
  Se  Se11  1  0.088207  0.437837  0.938618  1
  O  O12  1  0.499984  0.098762  0.362096  1
  O  O13  1  0.999984  0.901238  0.362096  1
  O  O14  1  0.699663  0.579043  0.187453  1
  O  O15  1  0.199663  0.420957  0.187453  1
  O  O16  1  0.865388  0.245032  0.277229  1
  O  O17  1  0.365388  0.754968  0.277229  1
  O  O18  1  0.663451  0.577610  0.597680  1
  O  O19  1  0.163451  0.422390  0.597680  1
  O  O20  1  0.822702  0.524703  0.423323  1
  O  O21  1  0.322702  0.475297  0.423323  1
  O  O22  1  0.839460  0.216439  0.595371  1
  O  O23  1  0.339460  0.783561  0.595371  1
  O  O24  1  0.272537  0.987107  0.769217  1
  O  O25  1  0.772537  0.012893  0.769217  1
  O  O26  1  0.269441  0.283772  0.941027  1
  O  O27  1  0.769441  0.716228  0.941027  1
  O  O28  1  0.923880  0.284050  0.957587  1
  O  O29  1  0.423880  0.715950  0.957587  1
  O  O30  1  0.438593  0.017592  0.130073  1
  O  O31  1  0.938593  0.982408  0.130073  1
  O  O32  1  0.099816  0.923217  0.948666  1
  O  O33  1  0.599816  0.076783  0.948666  1
  O  O34  1  0.997725  0.479796  0.784669  1
  O  O35  1  0.497725  0.520204  0.784669  1
  O  O36  1  0.499701  0.219183  0.620159  1
  O  O37  1  0.999701  0.780817  0.620159  1
