# generated using pymatgen
data_K3GeTe3
_symmetry_space_group_name_H-M   'P 1'
_cell_length_a   10.67277162
_cell_length_b   10.67277162
_cell_length_c   9.83809432
_cell_angle_alpha   85.78541578
_cell_angle_beta   94.21458422
_cell_angle_gamma   98.62171087
_symmetry_Int_Tables_number   1
_chemical_formula_structural   K3GeTe3
_chemical_formula_sum   'K12 Ge4 Te12'
_cell_volume   1102.75817909
_cell_formula_units_Z   4
loop_
 _symmetry_equiv_pos_site_id
 _symmetry_equiv_pos_as_xyz
  1  'x, y, z'
loop_
 _atom_site_type_symbol
 _atom_site_label
 _atom_site_symmetry_multiplicity
 _atom_site_fract_x
 _atom_site_fract_y
 _atom_site_fract_z
 _atom_site_occupancy
  K  K0  1  0.224812  0.751938  0.225022  1
  K  K1  1  0.751938  0.224812  0.274978  1
  K  K2  1  0.775188  0.248062  0.774978  1
  K  K3  1  0.248062  0.775188  0.725022  1
  K  K4  1  0.810118  0.632143  0.134508  1
  K  K5  1  0.632143  0.810118  0.365492  1
  K  K6  1  0.189882  0.367857  0.865492  1
  K  K7  1  0.367857  0.189882  0.634508  1
  K  K8  1  0.403094  0.403094  0.250000  1
  K  K9  1  0.596906  0.596906  0.750000  1
  K  K10  1  0.094088  0.094088  0.250000  1
  K  K11  1  0.905912  0.905912  0.750000  1
  Ge  Ge12  1  0.568394  0.924480  0.959384  1
  Ge  Ge13  1  0.924480  0.568394  0.540616  1
  Ge  Ge14  1  0.431606  0.075520  0.040616  1
  Ge  Ge15  1  0.075520  0.431606  0.459384  1
  Te  Te16  1  0.568299  0.946660  0.690968  1
  Te  Te17  1  0.946660  0.568299  0.809032  1
  Te  Te18  1  0.431701  0.053340  0.309032  1
  Te  Te19  1  0.053340  0.431701  0.190968  1
  Te  Te20  1  0.477019  0.690203  0.038164  1
  Te  Te21  1  0.690203  0.477019  0.461836  1
  Te  Te22  1  0.522981  0.309797  0.961836  1
  Te  Te23  1  0.309797  0.522981  0.538164  1
  Te  Te24  1  0.800815  0.978262  0.062589  1
  Te  Te25  1  0.978262  0.800815  0.437411  1
  Te  Te26  1  0.199185  0.021738  0.937411  1
  Te  Te27  1  0.021738  0.199185  0.562589  1
