# generated using pymatgen
data_ClF
_symmetry_space_group_name_H-M   'P 1'
_cell_length_a   6.56305622
_cell_length_b   3.73940138
_cell_length_c   7.33865863
_cell_angle_alpha   90.00000000
_cell_angle_beta   106.18213794
_cell_angle_gamma   90.00000000
_symmetry_Int_Tables_number   1
_chemical_formula_structural   ClF
_chemical_formula_sum   'Cl4 F4'
_cell_volume   172.96900230
_cell_formula_units_Z   4
loop_
 _symmetry_equiv_pos_site_id
 _symmetry_equiv_pos_as_xyz
  1  'x, y, z'
loop_
 _atom_site_type_symbol
 _atom_site_label
 _atom_site_symmetry_multiplicity
 _atom_site_fract_x
 _atom_site_fract_y
 _atom_site_fract_z
 _atom_site_occupancy
  Cl  Cl0  1  0.847087  0.489882  0.209847  1
  Cl  Cl1  1  0.152913  0.989882  0.290153  1
  Cl  Cl2  1  0.152913  0.510118  0.790153  1
  Cl  Cl3  1  0.847087  0.010118  0.709847  1
  F  F4  1  0.632386  0.219556  0.153184  1
  F  F5  1  0.367614  0.719556  0.346816  1
  F  F6  1  0.367614  0.780444  0.846816  1
  F  F7  1  0.632386  0.280444  0.653184  1
