# generated using pymatgen
data_Na2S5
_symmetry_space_group_name_H-M   'P 1'
_cell_length_a   5.91704265
_cell_length_b   7.80636446
_cell_length_c   14.75681763
_cell_angle_alpha   90.00000000
_cell_angle_beta   90.00000000
_cell_angle_gamma   90.00000000
_symmetry_Int_Tables_number   1
_chemical_formula_structural   Na2S5
_chemical_formula_sum   'Na8 S20'
_cell_volume   681.62613427
_cell_formula_units_Z   4
loop_
 _symmetry_equiv_pos_site_id
 _symmetry_equiv_pos_as_xyz
  1  'x, y, z'
loop_
 _atom_site_type_symbol
 _atom_site_label
 _atom_site_symmetry_multiplicity
 _atom_site_fract_x
 _atom_site_fract_y
 _atom_site_fract_z
 _atom_site_occupancy
  Na  Na0  1  0.198542  0.946541  0.750000  1
  Na  Na1  1  0.698542  0.553459  0.250000  1
  Na  Na2  1  0.301458  0.446541  0.750000  1
  Na  Na3  1  0.801458  0.053459  0.250000  1
  Na  Na4  1  0.000000  0.000000  0.500000  1
  Na  Na5  1  0.500000  0.500000  0.500000  1
  Na  Na6  1  0.500000  0.500000  0.000000  1
  Na  Na7  1  0.000000  0.000000  0.000000  1
  S  S8  1  0.107652  0.455087  0.135185  1
  S  S9  1  0.607652  0.044913  0.864815  1
  S  S10  1  0.392348  0.955087  0.364815  1
  S  S11  1  0.892348  0.544913  0.635185  1
  S  S12  1  0.892348  0.544913  0.864815  1
  S  S13  1  0.392348  0.955087  0.135185  1
  S  S14  1  0.607652  0.044913  0.635185  1
  S  S15  1  0.107652  0.455087  0.364815  1
  S  S16  1  0.266256  0.356789  0.250000  1
  S  S17  1  0.766256  0.143211  0.750000  1
  S  S18  1  0.233744  0.856789  0.250000  1
  S  S19  1  0.733744  0.643211  0.750000  1
  S  S20  1  0.837817  0.297483  0.397138  1
  S  S21  1  0.337817  0.202517  0.602862  1
  S  S22  1  0.662183  0.797483  0.102862  1
  S  S23  1  0.162183  0.702517  0.897138  1
  S  S24  1  0.162183  0.702517  0.602862  1
  S  S25  1  0.662183  0.797483  0.397138  1
  S  S26  1  0.337817  0.202517  0.897138  1
  S  S27  1  0.837817  0.297483  0.102862  1
