# generated using pymatgen
data_BSBr
_symmetry_space_group_name_H-M   'P 1'
_cell_length_a   14.63952199
_cell_length_b   4.82073839
_cell_length_c   18.72882354
_cell_angle_alpha   90.00000000
_cell_angle_beta   115.17147887
_cell_angle_gamma   90.00000000
_symmetry_Int_Tables_number   1
_chemical_formula_structural   BSBr
_chemical_formula_sum   'B12 S12 Br12'
_cell_volume   1196.23966468
_cell_formula_units_Z   12
loop_
 _symmetry_equiv_pos_site_id
 _symmetry_equiv_pos_as_xyz
  1  'x, y, z'
loop_
 _atom_site_type_symbol
 _atom_site_label
 _atom_site_symmetry_multiplicity
 _atom_site_fract_x
 _atom_site_fract_y
 _atom_site_fract_z
 _atom_site_occupancy
  B  B0  1  0.370816  0.750338  0.833212  1
  B  B1  1  0.629184  0.250338  0.666788  1
  B  B2  1  0.629184  0.249662  0.166788  1
  B  B3  1  0.370816  0.749662  0.333212  1
  B  B4  1  0.172755  0.979740  0.729550  1
  B  B5  1  0.827245  0.479740  0.770450  1
  B  B6  1  0.827245  0.020260  0.270450  1
  B  B7  1  0.172755  0.520260  0.229550  1
  B  B8  1  0.238393  0.972002  0.901016  1
  B  B9  1  0.761607  0.472002  0.598984  1
  B  B10  1  0.761607  0.027998  0.098984  1
  B  B11  1  0.238393  0.527998  0.401016  1
  S  S12  1  0.285225  0.681239  0.231783  1
  S  S13  1  0.714775  0.181239  0.268217  1
  S  S14  1  0.714775  0.318761  0.768217  1
  S  S15  1  0.285225  0.818761  0.731783  1
  S  S16  1  0.359257  0.686892  0.424000  1
  S  S17  1  0.640743  0.186892  0.076000  1
  S  S18  1  0.640743  0.313108  0.576000  1
  S  S19  1  0.359257  0.813108  0.924000  1
  S  S20  1  0.137449  0.429261  0.307865  1
  S  S21  1  0.862551  0.929261  0.192135  1
  S  S22  1  0.862551  0.570739  0.692135  1
  S  S23  1  0.137449  0.070739  0.807865  1
  Br  Br24  1  0.495927  0.577095  0.846789  1
  Br  Br25  1  0.504073  0.077095  0.653211  1
  Br  Br26  1  0.504073  0.422905  0.153211  1
  Br  Br27  1  0.495927  0.922905  0.346789  1
  Br  Br28  1  0.072270  0.070174  0.625178  1
  Br  Br29  1  0.927730  0.570174  0.874822  1
  Br  Br30  1  0.927730  0.929826  0.374822  1
  Br  Br31  1  0.072270  0.429826  0.125178  1
  Br  Br32  1  0.212410  0.050864  0.991667  1
  Br  Br33  1  0.787590  0.550864  0.508333  1
  Br  Br34  1  0.787590  0.949136  0.008333  1
  Br  Br35  1  0.212410  0.449136  0.491667  1
