# generated using pymatgen
data_PI2
_symmetry_space_group_name_H-M   'P 1'
_cell_length_a   5.20430297
_cell_length_b   7.56627675
_cell_length_c   7.73994348
_cell_angle_alpha   80.20380844
_cell_angle_beta   77.94522633
_cell_angle_gamma   73.53076784
_symmetry_Int_Tables_number   1
_chemical_formula_structural   PI2
_chemical_formula_sum   'P2 I4'
_cell_volume   283.82103082
_cell_formula_units_Z   2
loop_
 _symmetry_equiv_pos_site_id
 _symmetry_equiv_pos_as_xyz
  1  'x, y, z'
loop_
 _atom_site_type_symbol
 _atom_site_label
 _atom_site_symmetry_multiplicity
 _atom_site_fract_x
 _atom_site_fract_y
 _atom_site_fract_z
 _atom_site_occupancy
  P  P0  1  0.416060  0.032941  0.872097  1
  P  P1  1  0.583940  0.967059  0.127903  1
  I  I2  1  0.556894  0.327932  0.779110  1
  I  I3  1  0.443106  0.672068  0.220890  1
  I  I4  1  0.798570  0.807755  0.710008  1
  I  I5  1  0.201430  0.192245  0.289992  1
