# generated using pymatgen
data_In(IO3)3
_symmetry_space_group_name_H-M   'P 1'
_cell_length_a   9.72271990
_cell_length_b   9.72271990
_cell_length_c   5.42318386
_cell_angle_alpha   90.00000000
_cell_angle_beta   90.00000000
_cell_angle_gamma   120.00000000
_symmetry_Int_Tables_number   1
_chemical_formula_structural   In(IO3)3
_chemical_formula_sum   'In2 I6 O18'
_cell_volume   443.97703750
_cell_formula_units_Z   2
loop_
 _symmetry_equiv_pos_site_id
 _symmetry_equiv_pos_as_xyz
  1  'x, y, z'
loop_
 _atom_site_type_symbol
 _atom_site_label
 _atom_site_symmetry_multiplicity
 _atom_site_fract_x
 _atom_site_fract_y
 _atom_site_fract_z
 _atom_site_occupancy
  In  In0  1  0.666667  0.333333  0.693785  1
  In  In1  1  0.333333  0.666667  0.193785  1
  I  I2  1  0.683545  0.019778  0.332778  1
  I  I3  1  0.316455  0.980222  0.832778  1
  I  I4  1  0.019778  0.336233  0.832778  1
  I  I5  1  0.336233  0.316455  0.332778  1
  I  I6  1  0.980222  0.663767  0.332778  1
  I  I7  1  0.663767  0.683545  0.832778  1
  O  O8  1  0.770209  0.830821  0.065617  1
  O  O9  1  0.939388  0.770209  0.565617  1
  O  O10  1  0.830821  0.060612  0.565617  1
  O  O11  1  0.169179  0.939388  0.065617  1
  O  O12  1  0.060612  0.229791  0.065617  1
  O  O13  1  0.229791  0.169179  0.565617  1
  O  O14  1  0.716432  0.533328  0.934460  1
  O  O15  1  0.183104  0.716432  0.434460  1
  O  O16  1  0.540382  0.420765  0.468783  1
  O  O17  1  0.119617  0.540382  0.968783  1
  O  O18  1  0.420765  0.880383  0.968783  1
  O  O19  1  0.579235  0.119617  0.468783  1
  O  O20  1  0.880383  0.459618  0.468783  1
  O  O21  1  0.459618  0.579235  0.968783  1
  O  O22  1  0.283568  0.466672  0.434460  1
  O  O23  1  0.816896  0.283568  0.934460  1
  O  O24  1  0.466672  0.183104  0.934460  1
  O  O25  1  0.533328  0.816896  0.434460  1
