# generated using pymatgen
data_Cd5P3ClO12
_symmetry_space_group_name_H-M   'P 1'
_cell_length_a   9.92485465
_cell_length_b   9.92485465
_cell_length_c   6.57008848
_cell_angle_alpha   90.00000000
_cell_angle_beta   90.00000000
_cell_angle_gamma   120.00000000
_symmetry_Int_Tables_number   1
_chemical_formula_structural   Cd5P3ClO12
_chemical_formula_sum   'Cd10 P6 Cl2 O24'
_cell_volume   560.46714654
_cell_formula_units_Z   2
loop_
 _symmetry_equiv_pos_site_id
 _symmetry_equiv_pos_as_xyz
  1  'x, y, z'
loop_
 _atom_site_type_symbol
 _atom_site_label
 _atom_site_symmetry_multiplicity
 _atom_site_fract_x
 _atom_site_fract_y
 _atom_site_fract_z
 _atom_site_occupancy
  Cd  Cd0  1  0.666667  0.333333  0.004295  1
  Cd  Cd1  1  0.333333  0.666667  0.504295  1
  Cd  Cd2  1  0.666667  0.333333  0.495705  1
  Cd  Cd3  1  0.333333  0.666667  0.995705  1
  Cd  Cd4  1  0.752455  0.028540  0.750000  1
  Cd  Cd5  1  0.723916  0.752455  0.250000  1
  Cd  Cd6  1  0.028540  0.276084  0.250000  1
  Cd  Cd7  1  0.971460  0.723916  0.750000  1
  Cd  Cd8  1  0.276084  0.247545  0.750000  1
  Cd  Cd9  1  0.247545  0.971460  0.250000  1
  P  P10  1  0.024837  0.620650  0.250000  1
  P  P11  1  0.595813  0.975163  0.250000  1
  P  P12  1  0.404187  0.024837  0.750000  1
  P  P13  1  0.620650  0.595813  0.750000  1
  P  P14  1  0.975163  0.379350  0.750000  1
  P  P15  1  0.379350  0.404187  0.250000  1
  Cl  Cl16  1  0.000000  0.000000  0.250000  1
  Cl  Cl17  1  0.000000  0.000000  0.750000  1
  O  O18  1  0.494002  0.643111  0.750000  1
  O  O19  1  0.927082  0.271148  0.560359  1
  O  O20  1  0.271148  0.344066  0.439641  1
  O  O21  1  0.927082  0.271148  0.939641  1
  O  O22  1  0.344066  0.072918  0.939641  1
  O  O23  1  0.655934  0.927082  0.439641  1
  O  O24  1  0.072918  0.728852  0.439641  1
  O  O25  1  0.728852  0.655934  0.939641  1
  O  O26  1  0.728852  0.655934  0.560359  1
  O  O27  1  0.072918  0.728852  0.060359  1
  O  O28  1  0.271148  0.344066  0.060359  1
  O  O29  1  0.544441  0.411897  0.750000  1
  O  O30  1  0.132544  0.544441  0.250000  1
  O  O31  1  0.411897  0.867456  0.250000  1
  O  O32  1  0.588103  0.132544  0.750000  1
  O  O33  1  0.867456  0.455559  0.750000  1
  O  O34  1  0.505998  0.356889  0.250000  1
  O  O35  1  0.149109  0.505998  0.750000  1
  O  O36  1  0.356889  0.850891  0.750000  1
  O  O37  1  0.643111  0.149109  0.250000  1
  O  O38  1  0.850891  0.494002  0.250000  1
  O  O39  1  0.344066  0.072918  0.560359  1
  O  O40  1  0.455559  0.588103  0.250000  1
  O  O41  1  0.655934  0.927082  0.060359  1
