# generated using pymatgen
data_V2Pb3O8
_symmetry_space_group_name_H-M   'P 1'
_cell_length_a   7.54609010
_cell_length_b   7.54609010
_cell_length_c   7.54609010
_cell_angle_alpha   45.30973168
_cell_angle_beta   45.30973168
_cell_angle_gamma   45.30973168
_symmetry_Int_Tables_number   1
_chemical_formula_structural   V2Pb3O8
_chemical_formula_sum   'V2 Pb3 O8'
_cell_volume   197.79662258
_cell_formula_units_Z   1
loop_
 _symmetry_equiv_pos_site_id
 _symmetry_equiv_pos_as_xyz
  1  'x, y, z'
loop_
 _atom_site_type_symbol
 _atom_site_label
 _atom_site_symmetry_multiplicity
 _atom_site_fract_x
 _atom_site_fract_y
 _atom_site_fract_z
 _atom_site_occupancy
  V  V0  1  0.404477  0.404477  0.404477  1
  V  V1  1  0.595523  0.595523  0.595523  1
  Pb  Pb2  1  0.200892  0.200892  0.200892  1
  Pb  Pb3  1  0.799108  0.799108  0.799108  1
  Pb  Pb4  1  0.000000  0.000000  0.000000  1
  O  O5  1  0.319591  0.319591  0.319591  1
  O  O6  1  0.680409  0.680409  0.680409  1
  O  O7  1  0.268112  0.762172  0.268112  1
  O  O8  1  0.762172  0.268112  0.268112  1
  O  O9  1  0.268112  0.268112  0.762172  1
  O  O10  1  0.237828  0.731888  0.731888  1
  O  O11  1  0.731888  0.237828  0.731888  1
  O  O12  1  0.731888  0.731888  0.237828  1
