# generated using pymatgen
data_RbPb
_symmetry_space_group_name_H-M   'P 1'
_cell_length_a   13.14704843
_cell_length_b   13.14704843
_cell_length_c   13.14704843
_cell_angle_alpha   124.97690466
_cell_angle_beta   124.97690466
_cell_angle_gamma   81.57628990
_symmetry_Int_Tables_number   1
_chemical_formula_structural   RbPb
_chemical_formula_sum   'Rb16 Pb16'
_cell_volume   1468.46220868
_cell_formula_units_Z   16
loop_
 _symmetry_equiv_pos_site_id
 _symmetry_equiv_pos_as_xyz
  1  'x, y, z'
loop_
 _atom_site_type_symbol
 _atom_site_label
 _atom_site_symmetry_multiplicity
 _atom_site_fract_x
 _atom_site_fract_y
 _atom_site_fract_z
 _atom_site_occupancy
  Rb  Rb0  1  0.125000  0.238900  0.613900  1
  Rb  Rb1  1  0.988900  0.875000  0.613900  1
  Rb  Rb2  1  0.261100  0.375000  0.386100  1
  Rb  Rb3  1  0.625000  0.511100  0.386100  1
  Rb  Rb4  1  0.625000  0.011100  0.886100  1
  Rb  Rb5  1  0.761100  0.375000  0.886100  1
  Rb  Rb6  1  0.488900  0.875000  0.113900  1
  Rb  Rb7  1  0.125000  0.738900  0.113900  1
  Rb  Rb8  1  0.629213  0.629213  0.758426  1
  Rb  Rb9  1  0.379213  0.120787  0.500000  1
  Rb  Rb10  1  0.620787  0.879213  0.500000  1
  Rb  Rb11  1  0.870787  0.870787  0.241574  1
  Rb  Rb12  1  0.120787  0.620787  0.741574  1
  Rb  Rb13  1  0.370787  0.129213  0.000000  1
  Rb  Rb14  1  0.129213  0.370787  0.000000  1
  Rb  Rb15  1  0.879213  0.379213  0.258426  1
  Pb  Pb16  1  0.942398  0.117642  0.946433  1
  Pb  Pb17  1  0.867642  0.421209  0.675244  1
  Pb  Pb18  1  0.745965  0.192398  0.324756  1
  Pb  Pb19  1  0.307602  0.754035  0.675244  1
  Pb  Pb20  1  0.078791  0.632358  0.324756  1
  Pb  Pb21  1  0.504035  0.328791  0.946433  1
  Pb  Pb22  1  0.382358  0.557602  0.053567  1
  Pb  Pb23  1  0.171209  0.995965  0.053567  1
  Pb  Pb24  1  0.807602  0.132358  0.553567  1
  Pb  Pb25  1  0.882358  0.828791  0.824756  1
  Pb  Pb26  1  0.004035  0.057602  0.175244  1
  Pb  Pb27  1  0.442398  0.495965  0.824756  1
  Pb  Pb28  1  0.671209  0.617642  0.175244  1
  Pb  Pb29  1  0.245965  0.921209  0.553567  1
  Pb  Pb30  1  0.367642  0.692398  0.446433  1
  Pb  Pb31  1  0.578791  0.254035  0.446433  1
