# generated using pymatgen
data_BaP10
_symmetry_space_group_name_H-M   'P 1'
_cell_length_a   7.25865155
_cell_length_b   7.25865155
_cell_length_c   12.14039500
_cell_angle_alpha   90.00000000
_cell_angle_beta   90.00000000
_cell_angle_gamma   126.84662582
_symmetry_Int_Tables_number   1
_chemical_formula_structural   BaP10
_chemical_formula_sum   'Ba2 P20'
_cell_volume   511.87856414
_cell_formula_units_Z   2
loop_
 _symmetry_equiv_pos_site_id
 _symmetry_equiv_pos_as_xyz
  1  'x, y, z'
loop_
 _atom_site_type_symbol
 _atom_site_label
 _atom_site_symmetry_multiplicity
 _atom_site_fract_x
 _atom_site_fract_y
 _atom_site_fract_z
 _atom_site_occupancy
  Ba  Ba0  1  0.186765  0.813235  0.506512  1
  Ba  Ba1  1  0.813235  0.186765  0.006512  1
  P  P2  1  0.772354  0.729086  0.316008  1
  P  P3  1  0.227646  0.270914  0.816008  1
  P  P4  1  0.610895  0.389105  0.605500  1
  P  P5  1  0.389105  0.610895  0.105500  1
  P  P6  1  0.934074  0.065926  0.557758  1
  P  P7  1  0.065926  0.934074  0.057758  1
  P  P8  1  0.592213  0.407787  0.783196  1
  P  P9  1  0.407787  0.592213  0.283196  1
  P  P10  1  0.187055  0.812945  0.929813  1
  P  P11  1  0.812945  0.187055  0.429813  1
  P  P12  1  0.091743  0.908257  0.779771  1
  P  P13  1  0.908257  0.091743  0.279771  1
  P  P14  1  0.448754  0.551246  0.564653  1
  P  P15  1  0.551246  0.448754  0.064653  1
  P  P16  1  0.621441  0.868631  0.665090  1
  P  P17  1  0.378559  0.131369  0.165090  1
  P  P18  1  0.131369  0.378559  0.665090  1
  P  P19  1  0.868631  0.621441  0.165090  1
  P  P20  1  0.729086  0.772354  0.816008  1
  P  P21  1  0.270914  0.227646  0.316008  1
