# generated using pymatgen
data_BaNd2O4
_symmetry_space_group_name_H-M   'P 1'
_cell_length_a   3.63368531
_cell_length_b   10.74319049
_cell_length_c   12.60408988
_cell_angle_alpha   90.00000000
_cell_angle_beta   90.00000000
_cell_angle_gamma   90.00000000
_symmetry_Int_Tables_number   1
_chemical_formula_structural   BaNd2O4
_chemical_formula_sum   'Ba4 Nd8 O16'
_cell_volume   492.03056385
_cell_formula_units_Z   4
loop_
 _symmetry_equiv_pos_site_id
 _symmetry_equiv_pos_as_xyz
  1  'x, y, z'
loop_
 _atom_site_type_symbol
 _atom_site_label
 _atom_site_symmetry_multiplicity
 _atom_site_fract_x
 _atom_site_fract_y
 _atom_site_fract_z
 _atom_site_occupancy
  Ba  Ba0  1  0.750000  0.248397  0.647042  1
  Ba  Ba1  1  0.250000  0.751603  0.352958  1
  Ba  Ba2  1  0.750000  0.748397  0.852958  1
  Ba  Ba3  1  0.250000  0.251603  0.147042  1
  Nd  Nd4  1  0.250000  0.924098  0.612176  1
  Nd  Nd5  1  0.750000  0.075902  0.387824  1
  Nd  Nd6  1  0.250000  0.424098  0.887824  1
  Nd  Nd7  1  0.750000  0.575902  0.112176  1
  Nd  Nd8  1  0.750000  0.578923  0.611390  1
  Nd  Nd9  1  0.250000  0.421077  0.388610  1
  Nd  Nd10  1  0.750000  0.078923  0.888610  1
  Nd  Nd11  1  0.250000  0.921077  0.111390  1
  O  O12  1  0.250000  0.928951  0.923855  1
  O  O13  1  0.750000  0.071049  0.076145  1
  O  O14  1  0.250000  0.428951  0.576145  1
  O  O15  1  0.750000  0.571049  0.423855  1
  O  O16  1  0.250000  0.015307  0.282795  1
  O  O17  1  0.750000  0.984693  0.717205  1
  O  O18  1  0.250000  0.515307  0.217205  1
  O  O19  1  0.750000  0.484693  0.782795  1
  O  O20  1  0.250000  0.621560  0.981276  1
  O  O21  1  0.750000  0.378440  0.018724  1
  O  O22  1  0.250000  0.121560  0.518724  1
  O  O23  1  0.750000  0.878440  0.481276  1
  O  O24  1  0.750000  0.788573  0.169379  1
  O  O25  1  0.250000  0.211427  0.830621  1
  O  O26  1  0.750000  0.288573  0.330621  1
  O  O27  1  0.250000  0.711427  0.669379  1
