# generated using pymatgen
data_Na5InS4
_symmetry_space_group_name_H-M   'P 1'
_cell_length_a   6.88394907
_cell_length_b   8.85339768
_cell_length_c   7.87440020
_cell_angle_alpha   90.00000000
_cell_angle_beta   91.00406550
_cell_angle_gamma   90.00000000
_symmetry_Int_Tables_number   1
_chemical_formula_structural   Na5InS4
_chemical_formula_sum   'Na10 In2 S8'
_cell_volume   479.84217320
_cell_formula_units_Z   2
loop_
 _symmetry_equiv_pos_site_id
 _symmetry_equiv_pos_as_xyz
  1  'x, y, z'
loop_
 _atom_site_type_symbol
 _atom_site_label
 _atom_site_symmetry_multiplicity
 _atom_site_fract_x
 _atom_site_fract_y
 _atom_site_fract_z
 _atom_site_occupancy
  Na  Na0  1  0.345483  0.479979  0.334694  1
  Na  Na1  1  0.654517  0.979979  0.665306  1
  Na  Na2  1  0.654517  0.520021  0.665306  1
  Na  Na3  1  0.345483  0.020021  0.334694  1
  Na  Na4  1  0.023208  0.750000  0.469061  1
  Na  Na5  1  0.976792  0.250000  0.530939  1
  Na  Na6  1  0.331121  0.750000  0.839021  1
  Na  Na7  1  0.668879  0.250000  0.160979  1
  Na  Na8  1  0.000000  0.000000  0.000000  1
  Na  Na9  1  0.000000  0.500000  0.000000  1
  In  In10  1  0.361415  0.250000  0.824049  1
  In  In11  1  0.638585  0.750000  0.175951  1
  S  S12  1  0.240589  0.250000  0.120806  1
  S  S13  1  0.759411  0.750000  0.879194  1
  S  S14  1  0.766005  0.980744  0.328202  1
  S  S15  1  0.233995  0.480744  0.671798  1
  S  S16  1  0.233995  0.019256  0.671798  1
  S  S17  1  0.766005  0.519256  0.328202  1
  S  S18  1  0.273611  0.750000  0.179165  1
  S  S19  1  0.726389  0.250000  0.820835  1
