# generated using pymatgen
data_ErH3(SO4)3
_symmetry_space_group_name_H-M   'P 1'
_cell_length_a   9.56287693
_cell_length_b   12.10225051
_cell_length_c   16.87849425
_cell_angle_alpha   90.00000000
_cell_angle_beta   90.00000000
_cell_angle_gamma   90.00000000
_symmetry_Int_Tables_number   1
_chemical_formula_structural   ErH3(SO4)3
_chemical_formula_sum   'Er8 H24 S24 O96'
_cell_volume   1953.38750363
_cell_formula_units_Z   8
loop_
 _symmetry_equiv_pos_site_id
 _symmetry_equiv_pos_as_xyz
  1  'x, y, z'
loop_
 _atom_site_type_symbol
 _atom_site_label
 _atom_site_symmetry_multiplicity
 _atom_site_fract_x
 _atom_site_fract_y
 _atom_site_fract_z
 _atom_site_occupancy
  Er  Er0  1  0.835134  0.606912  0.268309  1
  Er  Er1  1  0.335134  0.393088  0.231691  1
  Er  Er2  1  0.664866  0.106912  0.731691  1
  Er  Er3  1  0.164866  0.893088  0.768309  1
  Er  Er4  1  0.164866  0.393088  0.731691  1
  Er  Er5  1  0.664866  0.606912  0.768309  1
  Er  Er6  1  0.335134  0.893088  0.268309  1
  Er  Er7  1  0.835134  0.106912  0.231691  1
  H  H8  1  0.103986  0.759136  0.068298  1
  H  H9  1  0.603986  0.240864  0.431702  1
  H  H10  1  0.396014  0.259136  0.931702  1
  H  H11  1  0.896014  0.740864  0.568298  1
  H  H12  1  0.896014  0.240864  0.931702  1
  H  H13  1  0.396014  0.759136  0.568298  1
  H  H14  1  0.603986  0.740864  0.068298  1
  H  H15  1  0.103986  0.259136  0.431702  1
  H  H16  1  0.884092  0.421258  0.054239  1
  H  H17  1  0.384092  0.578742  0.445761  1
  H  H18  1  0.615908  0.921258  0.945761  1
  H  H19  1  0.115908  0.078742  0.554239  1
  H  H20  1  0.115908  0.578742  0.945761  1
  H  H21  1  0.615908  0.421258  0.554239  1
  H  H22  1  0.384092  0.078742  0.054239  1
  H  H23  1  0.884092  0.921258  0.445761  1
  H  H24  1  0.619345  0.418880  0.997428  1
  H  H25  1  0.119345  0.581120  0.502572  1
  H  H26  1  0.880655  0.918880  0.002572  1
  H  H27  1  0.380655  0.081120  0.497428  1
  H  H28  1  0.380655  0.581120  0.002572  1
  H  H29  1  0.880655  0.418880  0.497428  1
  H  H30  1  0.119345  0.081120  0.997428  1
  H  H31  1  0.619345  0.918880  0.502572  1
  S  S32  1  0.171097  0.657849  0.165244  1
  S  S33  1  0.671097  0.342151  0.334756  1
  S  S34  1  0.328903  0.157849  0.834756  1
  S  S35  1  0.828903  0.842151  0.665244  1
  S  S36  1  0.828903  0.342151  0.834756  1
  S  S37  1  0.328903  0.657849  0.665244  1
  S  S38  1  0.671097  0.842151  0.165244  1
  S  S39  1  0.171097  0.157849  0.334756  1
  S  S40  1  0.094338  0.484094  0.396997  1
  S  S41  1  0.594338  0.515906  0.103003  1
  S  S42  1  0.405662  0.984094  0.603003  1
  S  S43  1  0.905662  0.015906  0.896997  1
  S  S44  1  0.905662  0.515906  0.603003  1
  S  S45  1  0.405662  0.484094  0.896997  1
  S  S46  1  0.594338  0.015906  0.396997  1
  S  S47  1  0.094338  0.984094  0.103003  1
  S  S48  1  0.986256  0.363353  0.159713  1
  S  S49  1  0.486256  0.636647  0.340287  1
  S  S50  1  0.513744  0.863353  0.840287  1
  S  S51  1  0.013744  0.136647  0.659713  1
  S  S52  1  0.013744  0.636647  0.840287  1
  S  S53  1  0.513744  0.363353  0.659713  1
  S  S54  1  0.486256  0.136647  0.159713  1
  S  S55  1  0.986256  0.863353  0.340287  1
  O  O56  1  0.134035  0.334650  0.169184  1
  O  O57  1  0.634035  0.665350  0.330816  1
  O  O58  1  0.365965  0.834650  0.830816  1
  O  O59  1  0.865965  0.165350  0.669184  1
  O  O60  1  0.865965  0.665350  0.830816  1
  O  O61  1  0.365965  0.334650  0.669184  1
  O  O62  1  0.634035  0.165350  0.169184  1
  O  O63  1  0.134035  0.834650  0.330816  1
  O  O64  1  0.035402  0.666092  0.205478  1
  O  O65  1  0.535402  0.333908  0.294522  1
  O  O66  1  0.464598  0.166092  0.794522  1
  O  O67  1  0.964598  0.833908  0.705478  1
  O  O68  1  0.964598  0.333908  0.794522  1
  O  O69  1  0.464598  0.666092  0.705478  1
  O  O70  1  0.535402  0.833908  0.205478  1
  O  O71  1  0.035402  0.166092  0.294522  1
  O  O72  1  0.941105  0.446449  0.217352  1
  O  O73  1  0.441105  0.553551  0.282648  1
  O  O74  1  0.558895  0.946449  0.782648  1
  O  O75  1  0.058895  0.053551  0.717352  1
  O  O76  1  0.058895  0.553551  0.782648  1
  O  O77  1  0.558895  0.446449  0.717352  1
  O  O78  1  0.441105  0.053551  0.217352  1
  O  O79  1  0.941105  0.946449  0.282648  1
  O  O80  1  0.769914  0.758930  0.193280  1
  O  O81  1  0.269914  0.241070  0.306720  1
  O  O82  1  0.730086  0.258930  0.806720  1
  O  O83  1  0.230086  0.741070  0.693280  1
  O  O84  1  0.230086  0.241070  0.806720  1
  O  O85  1  0.730086  0.758930  0.693280  1
  O  O86  1  0.269914  0.741070  0.193280  1
  O  O87  1  0.769914  0.258930  0.306720  1
  O  O88  1  0.698924  0.545646  0.161611  1
  O  O89  1  0.198924  0.454354  0.338389  1
  O  O90  1  0.801076  0.045646  0.838389  1
  O  O91  1  0.301076  0.954354  0.661611  1
  O  O92  1  0.301076  0.454354  0.838389  1
  O  O93  1  0.801076  0.545646  0.661611  1
  O  O94  1  0.198924  0.954354  0.161611  1
  O  O95  1  0.698924  0.045646  0.338389  1
  O  O96  1  0.144256  0.682686  0.074623  1
  O  O97  1  0.644256  0.317314  0.425377  1
  O  O98  1  0.355744  0.182686  0.925377  1
  O  O99  1  0.855744  0.817314  0.574623  1
  O  O100  1  0.855744  0.317314  0.925377  1
  O  O101  1  0.355744  0.682686  0.574623  1
  O  O102  1  0.644256  0.817314  0.074623  1
  O  O103  1  0.144256  0.182686  0.425377  1
  O  O104  1  0.987293  0.559930  0.368136  1
  O  O105  1  0.487293  0.440070  0.131864  1
  O  O106  1  0.512707  0.059930  0.631864  1
  O  O107  1  0.012707  0.940070  0.868136  1
  O  O108  1  0.012707  0.440070  0.631864  1
  O  O109  1  0.512707  0.559930  0.868136  1
  O  O110  1  0.487293  0.940070  0.368136  1
  O  O111  1  0.987293  0.059930  0.131864  1
  O  O112  1  0.981463  0.416658  0.074120  1
  O  O113  1  0.481463  0.583342  0.425880  1
  O  O114  1  0.518537  0.916658  0.925880  1
  O  O115  1  0.018537  0.083342  0.574120  1
  O  O116  1  0.018537  0.583342  0.925880  1
  O  O117  1  0.518537  0.416658  0.574120  1
  O  O118  1  0.481463  0.083342  0.074120  1
  O  O119  1  0.981463  0.916658  0.425880  1
  O  O120  1  0.229133  0.546650  0.164582  1
  O  O121  1  0.729133  0.453350  0.335418  1
  O  O122  1  0.270867  0.046650  0.835418  1
  O  O123  1  0.770867  0.953350  0.664582  1
  O  O124  1  0.770867  0.453350  0.835418  1
  O  O125  1  0.270867  0.546650  0.664582  1
  O  O126  1  0.729133  0.953350  0.164582  1
  O  O127  1  0.229133  0.046650  0.335418  1
  O  O128  1  0.894284  0.266961  0.157310  1
  O  O129  1  0.394284  0.733039  0.342690  1
  O  O130  1  0.605716  0.766961  0.842690  1
  O  O131  1  0.105716  0.233039  0.657310  1
  O  O132  1  0.105716  0.733039  0.842690  1
  O  O133  1  0.605716  0.266961  0.657310  1
  O  O134  1  0.394284  0.233039  0.157310  1
  O  O135  1  0.894284  0.766961  0.342690  1
  O  O136  1  0.032215  0.388449  0.438202  1
  O  O137  1  0.532215  0.611551  0.061798  1
  O  O138  1  0.467785  0.888449  0.561798  1
  O  O139  1  0.967785  0.111551  0.938202  1
  O  O140  1  0.967785  0.611551  0.561798  1
  O  O141  1  0.467785  0.388449  0.938202  1
  O  O142  1  0.532215  0.111551  0.438202  1
  O  O143  1  0.032215  0.888449  0.061798  1
  O  O144  1  0.683330  0.448689  0.039530  1
  O  O145  1  0.183330  0.551311  0.460470  1
  O  O146  1  0.816670  0.948689  0.960470  1
  O  O147  1  0.316670  0.051311  0.539530  1
  O  O148  1  0.316670  0.551311  0.960470  1
  O  O149  1  0.816670  0.448689  0.539530  1
  O  O150  1  0.183330  0.051311  0.039530  1
  O  O151  1  0.683330  0.948689  0.460470  1
