# generated using pymatgen
data_ZnCN2
_symmetry_space_group_name_H-M   'P 1'
_cell_length_a   6.91631401
_cell_length_b   6.91631401
_cell_length_c   6.91631401
_cell_angle_alpha   98.82516497
_cell_angle_beta   98.82516497
_cell_angle_gamma   133.88079555
_symmetry_Int_Tables_number   1
_chemical_formula_structural   ZnCN2
_chemical_formula_sum   'Zn4 C4 N8'
_cell_volume   219.41331221
_cell_formula_units_Z   4
loop_
 _symmetry_equiv_pos_site_id
 _symmetry_equiv_pos_as_xyz
  1  'x, y, z'
loop_
 _atom_site_type_symbol
 _atom_site_label
 _atom_site_symmetry_multiplicity
 _atom_site_fract_x
 _atom_site_fract_y
 _atom_site_fract_z
 _atom_site_occupancy
  Zn  Zn0  1  0.625000  0.828314  0.703314  1
  Zn  Zn1  1  0.078314  0.375000  0.203314  1
  Zn  Zn2  1  0.171686  0.875000  0.796686  1
  Zn  Zn3  1  0.125000  0.921686  0.296686  1
  C  C4  1  0.625000  0.303860  0.178860  1
  C  C5  1  0.553860  0.375000  0.678860  1
  C  C6  1  0.125000  0.446140  0.821140  1
  C  C7  1  0.696140  0.875000  0.321140  1
  N  N8  1  0.494494  0.728837  0.383851  1
  N  N9  1  0.271163  0.655014  0.765657  1
  N  N10  1  0.344986  0.110643  0.616149  1
  N  N11  1  0.889357  0.505506  0.234343  1
  N  N12  1  0.905014  0.021163  0.265657  1
  N  N13  1  0.360643  0.094986  0.116149  1
  N  N14  1  0.978837  0.244494  0.883851  1
  N  N15  1  0.755506  0.639357  0.734343  1
