# generated using pymatgen
data_Na4Al3Si3ClO12
_symmetry_space_group_name_H-M   'P 1'
_cell_length_a   8.97066172
_cell_length_b   8.97066172
_cell_length_c   8.97066172
_cell_angle_alpha   90.00000000
_cell_angle_beta   90.00000000
_cell_angle_gamma   90.00000000
_symmetry_Int_Tables_number   1
_chemical_formula_structural   Na4Al3Si3ClO12
_chemical_formula_sum   'Na8 Al6 Si6 Cl2 O24'
_cell_volume   721.89401254
_cell_formula_units_Z   2
loop_
 _symmetry_equiv_pos_site_id
 _symmetry_equiv_pos_as_xyz
  1  'x, y, z'
loop_
 _atom_site_type_symbol
 _atom_site_label
 _atom_site_symmetry_multiplicity
 _atom_site_fract_x
 _atom_site_fract_y
 _atom_site_fract_z
 _atom_site_occupancy
  Na  Na0  1  0.322423  0.322423  0.677577  1
  Na  Na1  1  0.677577  0.322423  0.322423  1
  Na  Na2  1  0.677577  0.677577  0.677577  1
  Na  Na3  1  0.177577  0.177577  0.177577  1
  Na  Na4  1  0.177577  0.822423  0.822423  1
  Na  Na5  1  0.822423  0.822423  0.177577  1
  Na  Na6  1  0.322423  0.677577  0.322423  1
  Na  Na7  1  0.822423  0.177577  0.822423  1
  Al  Al8  1  0.500000  0.750000  0.000000  1
  Al  Al9  1  0.250000  0.000000  0.500000  1
  Al  Al10  1  0.000000  0.500000  0.250000  1
  Al  Al11  1  0.500000  0.250000  0.000000  1
  Al  Al12  1  0.000000  0.500000  0.750000  1
  Al  Al13  1  0.750000  0.000000  0.500000  1
  Si  Si14  1  0.500000  0.000000  0.250000  1
  Si  Si15  1  0.000000  0.250000  0.500000  1
  Si  Si16  1  0.250000  0.500000  0.000000  1
  Si  Si17  1  0.000000  0.750000  0.500000  1
  Si  Si18  1  0.500000  0.000000  0.750000  1
  Si  Si19  1  0.750000  0.500000  0.000000  1
  Cl  Cl20  1  0.500000  0.500000  0.500000  1
  Cl  Cl21  1  0.000000  0.000000  0.000000  1
  O  O22  1  0.360803  0.062457  0.649319  1
  O  O23  1  0.860803  0.850681  0.437543  1
  O  O24  1  0.649319  0.360803  0.062457  1
  O  O25  1  0.437543  0.139197  0.149319  1
  O  O26  1  0.139197  0.850681  0.562457  1
  O  O27  1  0.062457  0.350681  0.639197  1
  O  O28  1  0.639197  0.937543  0.649319  1
  O  O29  1  0.139197  0.149319  0.437543  1
  O  O30  1  0.562457  0.860803  0.149319  1
  O  O31  1  0.649319  0.639197  0.937543  1
  O  O32  1  0.360803  0.937543  0.350681  1
  O  O33  1  0.149319  0.562457  0.860803  1
  O  O34  1  0.350681  0.639197  0.062457  1
  O  O35  1  0.149319  0.437543  0.139197  1
  O  O36  1  0.062457  0.649319  0.360803  1
  O  O37  1  0.562457  0.139197  0.850681  1
  O  O38  1  0.937543  0.649319  0.639197  1
  O  O39  1  0.860803  0.149319  0.562457  1
  O  O40  1  0.850681  0.437543  0.860803  1
  O  O41  1  0.937543  0.350681  0.360803  1
  O  O42  1  0.850681  0.562457  0.139197  1
  O  O43  1  0.350681  0.360803  0.937543  1
  O  O44  1  0.639197  0.062457  0.350681  1
  O  O45  1  0.437543  0.860803  0.850681  1
