# generated using pymatgen
data_LiSnPO4
_symmetry_space_group_name_H-M   'P 1'
_cell_length_a   7.95763150
_cell_length_b   7.95763150
_cell_length_c   10.27308400
_cell_angle_alpha   90.00000000
_cell_angle_beta   90.00000000
_cell_angle_gamma   120.00000000
_symmetry_Int_Tables_number   1
_chemical_formula_structural   LiSnPO4
_chemical_formula_sum   'Li6 Sn6 P6 O24'
_cell_volume   563.37700861
_cell_formula_units_Z   6
loop_
 _symmetry_equiv_pos_site_id
 _symmetry_equiv_pos_as_xyz
  1  'x, y, z'
loop_
 _atom_site_type_symbol
 _atom_site_label
 _atom_site_symmetry_multiplicity
 _atom_site_fract_x
 _atom_site_fract_y
 _atom_site_fract_z
 _atom_site_occupancy
  Li  Li0  1  0.211312  0.978637  0.251763  1
  Li  Li1  1  0.021363  0.232675  0.251763  1
  Li  Li2  1  0.232675  0.021363  0.751763  1
  Li  Li3  1  0.767325  0.788688  0.251763  1
  Li  Li4  1  0.788688  0.767325  0.751763  1
  Li  Li5  1  0.978637  0.211312  0.751763  1
  Sn  Sn6  1  0.005652  0.574617  0.473326  1
  Sn  Sn7  1  0.568965  0.994348  0.473326  1
  Sn  Sn8  1  0.425383  0.431035  0.473326  1
  Sn  Sn9  1  0.431035  0.425383  0.973326  1
  Sn  Sn10  1  0.574617  0.005652  0.973326  1
  Sn  Sn11  1  0.994348  0.568965  0.973326  1
  P  P12  1  0.000000  0.000000  0.499752  1
  P  P13  1  0.000000  0.000000  0.999752  1
  P  P14  1  0.333333  0.666667  0.195105  1
  P  P15  1  0.333333  0.666667  0.754342  1
  P  P16  1  0.666667  0.333333  0.695105  1
  P  P17  1  0.666667  0.333333  0.254342  1
  O  O18  1  0.097948  0.887185  0.443205  1
  O  O19  1  0.222206  0.769742  0.144584  1
  O  O20  1  0.229564  0.775920  0.807098  1
  O  O21  1  0.224080  0.453644  0.807098  1
  O  O22  1  0.333333  0.666667  0.345930  1
  O  O23  1  0.000000  0.000000  0.150358  1
  O  O24  1  0.333333  0.666667  0.604030  1
  O  O25  1  0.112815  0.210763  0.443205  1
  O  O26  1  0.230258  0.452464  0.144584  1
  O  O27  1  0.547536  0.777794  0.144584  1
  O  O28  1  0.210763  0.112815  0.943205  1
  O  O29  1  0.546356  0.770436  0.807098  1
  O  O30  1  0.452464  0.230258  0.644584  1
  O  O31  1  0.789237  0.902052  0.443205  1
  O  O32  1  0.453644  0.224080  0.307098  1
  O  O33  1  0.770436  0.546356  0.307098  1
  O  O34  1  0.666667  0.333333  0.845930  1
  O  O35  1  0.666667  0.333333  0.104030  1
  O  O36  1  0.902052  0.789237  0.943205  1
  O  O37  1  0.777794  0.547536  0.644584  1
  O  O38  1  0.769742  0.222206  0.644584  1
  O  O39  1  0.775920  0.229564  0.307098  1
  O  O40  1  0.887185  0.097948  0.943205  1
  O  O41  1  0.000000  0.000000  0.650358  1
