# generated using pymatgen
data_Bi2O3
_symmetry_space_group_name_H-M   'P 1'
_cell_length_a   5.93334870
_cell_length_b   8.27644683
_cell_length_c   7.52775045
_cell_angle_alpha   90.00000000
_cell_angle_beta   112.47187298
_cell_angle_gamma   90.00000000
_symmetry_Int_Tables_number   1
_chemical_formula_structural   Bi2O3
_chemical_formula_sum   'Bi8 O12'
_cell_volume   341.59586862
_cell_formula_units_Z   4
loop_
 _symmetry_equiv_pos_site_id
 _symmetry_equiv_pos_as_xyz
  1  'x, y, z'
loop_
 _atom_site_type_symbol
 _atom_site_label
 _atom_site_symmetry_multiplicity
 _atom_site_fract_x
 _atom_site_fract_y
 _atom_site_fract_z
 _atom_site_occupancy
  Bi  Bi0  1  0.039676  0.541301  0.276976  1
  Bi  Bi1  1  0.960324  0.041301  0.223024  1
  Bi  Bi2  1  0.960324  0.458699  0.723024  1
  Bi  Bi3  1  0.039676  0.958699  0.776976  1
  Bi  Bi4  1  0.524096  0.683241  0.865726  1
  Bi  Bi5  1  0.475904  0.183241  0.634274  1
  Bi  Bi6  1  0.475904  0.316759  0.134274  1
  Bi  Bi7  1  0.524096  0.816759  0.365726  1
  O  O8  1  0.269235  0.533105  0.011891  1
  O  O9  1  0.730765  0.033105  0.488109  1
  O  O10  1  0.730765  0.466895  0.988109  1
  O  O11  1  0.269235  0.966895  0.511891  1
  O  O12  1  0.236563  0.549862  0.623283  1
  O  O13  1  0.763437  0.049862  0.876717  1
  O  O14  1  0.763437  0.450138  0.376717  1
  O  O15  1  0.236563  0.950138  0.123283  1
  O  O16  1  0.777678  0.701797  0.705678  1
  O  O17  1  0.222322  0.201797  0.794322  1
  O  O18  1  0.222322  0.298203  0.294322  1
  O  O19  1  0.777678  0.798203  0.205678  1
