# generated using pymatgen
data_W(S4Cl3)2
_symmetry_space_group_name_H-M   'P 1'
_cell_length_a   8.51266563
_cell_length_b   8.51737103
_cell_length_c   14.51295587
_cell_angle_alpha   95.80327000
_cell_angle_beta   99.44390675
_cell_angle_gamma   90.11016435
_symmetry_Int_Tables_number   1
_chemical_formula_structural   W(S4Cl3)2
_chemical_formula_sum   'W2 S16 Cl12'
_cell_volume   1032.50424595
_cell_formula_units_Z   2
loop_
 _symmetry_equiv_pos_site_id
 _symmetry_equiv_pos_as_xyz
  1  'x, y, z'
loop_
 _atom_site_type_symbol
 _atom_site_label
 _atom_site_symmetry_multiplicity
 _atom_site_fract_x
 _atom_site_fract_y
 _atom_site_fract_z
 _atom_site_occupancy
  W  W0  1  0.712666  0.223476  0.892777  1
  W  W1  1  0.287334  0.776524  0.107223  1
  S  S2  1  0.427193  0.750904  0.656783  1
  S  S3  1  0.572807  0.249096  0.343217  1
  S  S4  1  0.268170  0.898008  0.586541  1
  S  S5  1  0.731830  0.101992  0.413459  1
  S  S6  1  0.092574  0.957759  0.665482  1
  S  S7  1  0.907426  0.042241  0.334518  1
  S  S8  1  0.896025  0.812081  0.618286  1
  S  S9  1  0.103975  0.187919  0.381714  1
  S  S10  1  0.901131  0.628997  0.701541  1
  S  S11  1  0.098869  0.371003  0.298459  1
  S  S12  1  0.996868  0.433924  0.636774  1
  S  S13  1  0.003132  0.566076  0.363226  1
  S  S14  1  0.235009  0.422340  0.692319  1
  S  S15  1  0.764991  0.577660  0.307681  1
  S  S16  1  0.631166  0.480048  0.394527  1
  S  S17  1  0.368834  0.519952  0.605473  1
  Cl  Cl18  1  0.752409  0.250044  0.054570  1
  Cl  Cl19  1  0.247591  0.749956  0.945430  1
  Cl  Cl20  1  0.672844  0.196326  0.730508  1
  Cl  Cl21  1  0.327156  0.803674  0.269492  1
  Cl  Cl22  1  0.450965  0.147319  0.889247  1
  Cl  Cl23  1  0.549035  0.852681  0.110753  1
  Cl  Cl24  1  0.636852  0.483796  0.892146  1
  Cl  Cl25  1  0.363148  0.516204  0.107854  1
  Cl  Cl26  1  0.974036  0.300459  0.895797  1
  Cl  Cl27  1  0.025964  0.699541  0.104203  1
  Cl  Cl28  1  0.788126  0.963058  0.892858  1
  Cl  Cl29  1  0.211874  0.036942  0.107142  1
