# generated using pymatgen
data_K2H5F7
_symmetry_space_group_name_H-M   'P 1'
_cell_length_a   8.42840875
_cell_length_b   8.55120196
_cell_length_c   10.15943005
_cell_angle_alpha   90.00000000
_cell_angle_beta   101.74019358
_cell_angle_gamma   90.00000000
_symmetry_Int_Tables_number   1
_chemical_formula_structural   K2H5F7
_chemical_formula_sum   'K8 H20 F28'
_cell_volume   716.90302804
_cell_formula_units_Z   4
loop_
 _symmetry_equiv_pos_site_id
 _symmetry_equiv_pos_as_xyz
  1  'x, y, z'
loop_
 _atom_site_type_symbol
 _atom_site_label
 _atom_site_symmetry_multiplicity
 _atom_site_fract_x
 _atom_site_fract_y
 _atom_site_fract_z
 _atom_site_occupancy
  K  K0  1  0.864032  0.228633  0.961321  1
  K  K1  1  0.635968  0.728633  0.038679  1
  K  K2  1  0.135968  0.771367  0.038679  1
  K  K3  1  0.364032  0.271367  0.961321  1
  K  K4  1  0.500007  0.250985  0.498022  1
  K  K5  1  0.999993  0.750985  0.501978  1
  K  K6  1  0.499993  0.749015  0.501978  1
  K  K7  1  0.000007  0.249015  0.498022  1
  H  H8  1  0.123016  0.023435  0.783498  1
  H  H9  1  0.376984  0.523435  0.216502  1
  H  H10  1  0.876984  0.976565  0.216502  1
  H  H11  1  0.623016  0.476565  0.783498  1
  H  H12  1  0.519864  0.023753  0.782737  1
  H  H13  1  0.980136  0.523753  0.217263  1
  H  H14  1  0.480136  0.976247  0.217263  1
  H  H15  1  0.019864  0.476247  0.782737  1
  H  H16  1  0.711415  0.001418  0.348130  1
  H  H17  1  0.788585  0.501418  0.651870  1
  H  H18  1  0.287666  0.474851  0.657115  1
  H  H19  1  0.212334  0.974851  0.342885  1
  H  H20  1  0.712334  0.525149  0.342885  1
  H  H21  1  0.787666  0.025149  0.657115  1
  H  H22  1  0.318179  0.693177  0.774362  1
  H  H23  1  0.181821  0.193177  0.225638  1
  H  H24  1  0.681821  0.306823  0.225638  1
  H  H25  1  0.818179  0.806823  0.774362  1
  H  H26  1  0.288585  0.998582  0.651870  1
  H  H27  1  0.211415  0.498582  0.348130  1
  F  F28  1  0.288948  0.352654  0.658085  1
  F  F29  1  0.849313  0.000897  0.347877  1
  F  F30  1  0.349313  0.499103  0.347877  1
  F  F31  1  0.650687  0.500897  0.652123  1
  F  F32  1  0.922919  0.501183  0.649204  1
  F  F33  1  0.577081  0.001183  0.350796  1
  F  F34  1  0.077081  0.498817  0.350796  1
  F  F35  1  0.422919  0.998817  0.649204  1
  F  F36  1  0.079953  0.450323  0.874329  1
  F  F37  1  0.420047  0.950323  0.125671  1
  F  F38  1  0.920047  0.549677  0.125671  1
  F  F39  1  0.579953  0.049677  0.874329  1
  F  F40  1  0.608968  0.452474  0.876661  1
  F  F41  1  0.891032  0.952474  0.123339  1
  F  F42  1  0.391032  0.547526  0.123339  1
  F  F43  1  0.108968  0.047526  0.876661  1
  F  F44  1  0.711052  0.647346  0.341915  1
  F  F45  1  0.788948  0.147346  0.658085  1
  F  F46  1  0.343444  0.746130  0.865843  1
  F  F47  1  0.156556  0.246130  0.134157  1
  F  F48  1  0.656556  0.253870  0.134157  1
  F  F49  1  0.843444  0.753870  0.865843  1
  F  F50  1  0.285259  0.626663  0.650626  1
  F  F51  1  0.214741  0.126663  0.349374  1
  F  F52  1  0.714741  0.373337  0.349374  1
  F  F53  1  0.785259  0.873337  0.650626  1
  F  F54  1  0.150687  0.999103  0.652123  1
  F  F55  1  0.211052  0.852654  0.341915  1
