# generated using pymatgen
data_NaClO3
_symmetry_space_group_name_H-M   'P 1'
_cell_length_a   6.68960613
_cell_length_b   6.68960613
_cell_length_c   6.68960613
_cell_angle_alpha   90.00000000
_cell_angle_beta   90.00000000
_cell_angle_gamma   90.00000000
_symmetry_Int_Tables_number   1
_chemical_formula_structural   NaClO3
_chemical_formula_sum   'Na4 Cl4 O12'
_cell_volume   299.36542786
_cell_formula_units_Z   4
loop_
 _symmetry_equiv_pos_site_id
 _symmetry_equiv_pos_as_xyz
  1  'x, y, z'
loop_
 _atom_site_type_symbol
 _atom_site_label
 _atom_site_symmetry_multiplicity
 _atom_site_fract_x
 _atom_site_fract_y
 _atom_site_fract_z
 _atom_site_occupancy
  Na  Na0  1  0.064229  0.064229  0.064229  1
  Na  Na1  1  0.435771  0.935771  0.564229  1
  Na  Na2  1  0.564229  0.435771  0.935771  1
  Na  Na3  1  0.935771  0.564229  0.435771  1
  Cl  Cl4  1  0.421745  0.421745  0.421745  1
  Cl  Cl5  1  0.078255  0.578255  0.921745  1
  Cl  Cl6  1  0.921745  0.078255  0.578255  1
  Cl  Cl7  1  0.578255  0.921745  0.078255  1
  O  O8  1  0.192858  0.403873  0.007984  1
  O  O9  1  0.692858  0.096127  0.992016  1
  O  O10  1  0.807142  0.903873  0.492016  1
  O  O11  1  0.096127  0.992016  0.692858  1
  O  O12  1  0.492016  0.807142  0.903873  1
  O  O13  1  0.992016  0.692858  0.096127  1
  O  O14  1  0.403873  0.007984  0.192858  1
  O  O15  1  0.007984  0.192858  0.403873  1
  O  O16  1  0.307142  0.596127  0.507984  1
  O  O17  1  0.507984  0.307142  0.596127  1
  O  O18  1  0.596127  0.507984  0.307142  1
  O  O19  1  0.903873  0.492016  0.807142  1
