# generated using pymatgen
data_SbCl3F2
_symmetry_space_group_name_H-M   'P 1'
_cell_length_a   10.16171925
_cell_length_b   10.16171925
_cell_length_c   10.16171925
_cell_angle_alpha   97.87002221
_cell_angle_beta   97.87002221
_cell_angle_gamma   136.56438491
_symmetry_Int_Tables_number   1
_chemical_formula_structural   SbCl3F2
_chemical_formula_sum   'Sb4 Cl12 F8'
_cell_volume   670.22846839
_cell_formula_units_Z   4
loop_
 _symmetry_equiv_pos_site_id
 _symmetry_equiv_pos_as_xyz
  1  'x, y, z'
loop_
 _atom_site_type_symbol
 _atom_site_label
 _atom_site_symmetry_multiplicity
 _atom_site_fract_x
 _atom_site_fract_y
 _atom_site_fract_z
 _atom_site_occupancy
  Sb  Sb0  1  0.296715  0.561520  0.828257  1
  Sb  Sb1  1  0.531542  0.703285  0.264805  1
  Sb  Sb2  1  0.438480  0.266737  0.735195  1
  Sb  Sb3  1  0.733263  0.468458  0.171743  1
  Cl  Cl4  1  0.205681  0.704449  0.901409  1
  Cl  Cl5  1  0.867638  0.570251  0.415285  1
  Cl  Cl6  1  0.429749  0.845034  0.297387  1
  Cl  Cl7  1  0.154966  0.452353  0.584715  1
  Cl  Cl8  1  0.003886  0.777327  0.144176  1
  Cl  Cl9  1  0.140290  0.996114  0.773441  1
  Cl  Cl10  1  0.222673  0.366849  0.226559  1
  Cl  Cl11  1  0.633151  0.859710  0.855824  1
  Cl  Cl12  1  0.295551  0.196959  0.501231  1
  Cl  Cl13  1  0.803041  0.304272  0.098591  1
  Cl  Cl14  1  0.547647  0.132362  0.702613  1
  Cl  Cl15  1  0.695728  0.794319  0.498769  1
  F  F16  1  0.063953  0.303663  0.839896  1
  F  F17  1  0.775943  0.936047  0.239711  1
  F  F18  1  0.696337  0.536232  0.760289  1
  F  F19  1  0.463768  0.224057  0.160104  1
  F  F20  1  0.574714  0.376174  0.957646  1
  F  F21  1  0.623826  0.581472  0.198540  1
  F  F22  1  0.382932  0.425286  0.801460  1
  F  F23  1  0.418528  0.617068  0.042354  1
