# generated using pymatgen
data_LiBeH3
_symmetry_space_group_name_H-M   'P 1'
_cell_length_a   4.69952579
_cell_length_b   6.17787689
_cell_length_c   6.51196205
_cell_angle_alpha   96.63601982
_cell_angle_beta   100.22552664
_cell_angle_gamma   106.85436089
_symmetry_Int_Tables_number   1
_chemical_formula_structural   LiBeH3
_chemical_formula_sum   'Li4 Be4 H12'
_cell_volume   175.24459054
_cell_formula_units_Z   4
loop_
 _symmetry_equiv_pos_site_id
 _symmetry_equiv_pos_as_xyz
  1  'x, y, z'
loop_
 _atom_site_type_symbol
 _atom_site_label
 _atom_site_symmetry_multiplicity
 _atom_site_fract_x
 _atom_site_fract_y
 _atom_site_fract_z
 _atom_site_occupancy
  Li  Li0  1  0.770759  0.332063  0.186668  1
  Li  Li1  1  0.579390  0.315084  0.663460  1
  Li  Li2  1  0.420610  0.684916  0.336540  1
  Li  Li3  1  0.229241  0.667937  0.813332  1
  Be  Be4  1  0.087739  0.208116  0.871553  1
  Be  Be5  1  0.237465  0.191022  0.259355  1
  Be  Be6  1  0.912261  0.791884  0.128447  1
  Be  Be7  1  0.762535  0.808978  0.740645  1
  H  H8  1  0.833449  0.611470  0.661216  1
  H  H9  1  0.735984  0.626932  0.228865  1
  H  H10  1  0.175868  0.739727  0.093588  1
  H  H11  1  0.480798  0.814302  0.622102  1
  H  H12  1  0.693185  0.804156  0.946518  1
  H  H13  1  0.166551  0.388530  0.338784  1
  H  H14  1  0.519202  0.185698  0.377898  1
  H  H15  1  0.027675  0.993397  0.729058  1
  H  H16  1  0.264016  0.373068  0.771135  1
  H  H17  1  0.972325  0.006603  0.270942  1
  H  H18  1  0.306815  0.195844  0.053482  1
  H  H19  1  0.824132  0.260273  0.906412  1
