# generated using pymatgen
data_Pr2Te4O11
_symmetry_space_group_name_H-M   'P 1'
_cell_length_a   6.94980888
_cell_length_b   6.94980888
_cell_length_c   16.72380541
_cell_angle_alpha   76.60918899
_cell_angle_beta   103.39081101
_cell_angle_gamma   134.89558404
_symmetry_Int_Tables_number   1
_chemical_formula_structural   Pr2Te4O11
_chemical_formula_sum   'Pr4 Te8 O22'
_cell_volume   553.92681520
_cell_formula_units_Z   2
loop_
 _symmetry_equiv_pos_site_id
 _symmetry_equiv_pos_as_xyz
  1  'x, y, z'
loop_
 _atom_site_type_symbol
 _atom_site_label
 _atom_site_symmetry_multiplicity
 _atom_site_fract_x
 _atom_site_fract_y
 _atom_site_fract_z
 _atom_site_occupancy
  Pr  Pr0  1  0.133896  0.369690  0.461969  1
  Pr  Pr1  1  0.369690  0.133896  0.038031  1
  Pr  Pr2  1  0.866104  0.630310  0.538031  1
  Pr  Pr3  1  0.630310  0.866104  0.961969  1
  Te  Te4  1  0.605161  0.840609  0.300799  1
  Te  Te5  1  0.840609  0.605161  0.199201  1
  Te  Te6  1  0.394839  0.159391  0.699201  1
  Te  Te7  1  0.159391  0.394839  0.800799  1
  Te  Te8  1  0.147544  0.414799  0.125405  1
  Te  Te9  1  0.414799  0.147544  0.374595  1
  Te  Te10  1  0.852456  0.585201  0.874595  1
  Te  Te11  1  0.585201  0.852456  0.625405  1
  O  O12  1  0.849874  0.849874  0.250000  1
  O  O13  1  0.150126  0.150126  0.750000  1
  O  O14  1  0.194644  0.900995  0.170059  1
  O  O15  1  0.900995  0.194644  0.329941  1
  O  O16  1  0.805356  0.099005  0.829941  1
  O  O17  1  0.099005  0.805356  0.670059  1
  O  O18  1  0.612633  0.564131  0.100487  1
  O  O19  1  0.564131  0.612633  0.399513  1
  O  O20  1  0.387367  0.435869  0.899513  1
  O  O21  1  0.435869  0.387367  0.600487  1
  O  O22  1  0.046231  0.190930  0.046964  1
  O  O23  1  0.190930  0.046231  0.453036  1
  O  O24  1  0.679024  0.185795  0.626855  1
  O  O25  1  0.185795  0.679024  0.873145  1
  O  O26  1  0.320976  0.814205  0.373145  1
  O  O27  1  0.814205  0.320976  0.126855  1
  O  O28  1  0.253241  0.669609  0.555105  1
  O  O29  1  0.669609  0.253241  0.944895  1
  O  O30  1  0.746759  0.330391  0.444895  1
  O  O31  1  0.330391  0.746759  0.055105  1
  O  O32  1  0.809070  0.953769  0.546964  1
  O  O33  1  0.953769  0.809070  0.953036  1
