# generated using pymatgen
data_Sr2P6O17
_symmetry_space_group_name_H-M   'P 1'
_cell_length_a   7.30637676
_cell_length_b   13.53360544
_cell_length_c   7.34633948
_cell_angle_alpha   90.00000000
_cell_angle_beta   105.37077545
_cell_angle_gamma   90.00000000
_symmetry_Int_Tables_number   1
_chemical_formula_structural   Sr2P6O17
_chemical_formula_sum   'Sr4 P12 O34'
_cell_volume   700.43451013
_cell_formula_units_Z   2
loop_
 _symmetry_equiv_pos_site_id
 _symmetry_equiv_pos_as_xyz
  1  'x, y, z'
loop_
 _atom_site_type_symbol
 _atom_site_label
 _atom_site_symmetry_multiplicity
 _atom_site_fract_x
 _atom_site_fract_y
 _atom_site_fract_z
 _atom_site_occupancy
  Sr  Sr0  1  0.185354  0.217511  0.874602  1
  Sr  Sr1  1  0.814646  0.717511  0.125398  1
  Sr  Sr2  1  0.783248  0.000385  0.824203  1
  Sr  Sr3  1  0.216752  0.500385  0.175797  1
  P  P4  1  0.329561  0.249013  0.382726  1
  P  P5  1  0.670439  0.749013  0.617274  1
  P  P6  1  0.342598  0.035113  0.383109  1
  P  P7  1  0.657402  0.535113  0.616891  1
  P  P8  1  0.989782  0.936912  0.400651  1
  P  P9  1  0.010218  0.436912  0.599349  1
  P  P10  1  0.238513  0.757232  0.527938  1
  P  P11  1  0.761487  0.257232  0.472062  1
  P  P12  1  0.266165  0.728911  0.950709  1
  P  P13  1  0.733835  0.228911  0.049291  1
  P  P14  1  0.319515  0.950223  0.999186  1
  P  P15  1  0.680485  0.450223  0.000814  1
  O  O16  1  0.251253  0.311880  0.211859  1
  O  O17  1  0.748747  0.811880  0.788141  1
  O  O18  1  0.237453  0.238454  0.538667  1
  O  O19  1  0.762547  0.738454  0.461333  1
  O  O20  1  0.352613  0.140051  0.287522  1
  O  O21  1  0.647387  0.640051  0.712478  1
  O  O22  1  0.480978  0.023108  0.567562  1
  O  O23  1  0.519022  0.523108  0.432438  1
  O  O24  1  0.127643  0.030650  0.388817  1
  O  O25  1  0.872357  0.530650  0.611183  1
  O  O26  1  0.861797  0.968524  0.515164  1
  O  O27  1  0.138203  0.468524  0.484836  1
  O  O28  1  0.920371  0.895007  0.205630  1
  O  O29  1  0.079629  0.395007  0.794370  1
  O  O30  1  0.153094  0.863634  0.532697  1
  O  O31  1  0.846906  0.363634  0.467303  1
  O  O32  1  0.632097  0.457062  0.767286  1
  O  O33  1  0.367903  0.957062  0.232714  1
  O  O34  1  0.832060  0.525271  0.082674  1
  O  O35  1  0.167940  0.025271  0.917326  1
  O  O36  1  0.495176  0.448020  0.047064  1
  O  O37  1  0.504824  0.948020  0.952936  1
  O  O38  1  0.788116  0.343879  0.035501  1
  O  O39  1  0.211884  0.843879  0.964499  1
  O  O40  1  0.891192  0.167860  0.011749  1
  O  O41  1  0.108808  0.667860  0.988251  1
  O  O42  1  0.534103  0.206916  0.944755  1
  O  O43  1  0.465897  0.706916  0.055245  1
  O  O44  1  0.753116  0.212195  0.274494  1
  O  O45  1  0.246884  0.712195  0.725506  1
  O  O46  1  0.550278  0.279471  0.475901  1
  O  O47  1  0.449722  0.779471  0.524099  1
  O  O48  1  0.861356  0.192918  0.629491  1
  O  O49  1  0.138644  0.692918  0.370509  1
