# generated using pymatgen
data_AlSeBr7
_symmetry_space_group_name_H-M   'P 1'
_cell_length_a   7.12416582
_cell_length_b   6.82140094
_cell_length_c   15.29868462
_cell_angle_alpha   90.00000000
_cell_angle_beta   105.22079803
_cell_angle_gamma   90.00000000
_symmetry_Int_Tables_number   1
_chemical_formula_structural   AlSeBr7
_chemical_formula_sum   'Al2 Se2 Br14'
_cell_volume   717.38709888
_cell_formula_units_Z   2
loop_
 _symmetry_equiv_pos_site_id
 _symmetry_equiv_pos_as_xyz
  1  'x, y, z'
loop_
 _atom_site_type_symbol
 _atom_site_label
 _atom_site_symmetry_multiplicity
 _atom_site_fract_x
 _atom_site_fract_y
 _atom_site_fract_z
 _atom_site_occupancy
  Al  Al0  1  0.698688  0.998280  0.337153  1
  Al  Al1  1  0.698688  0.001720  0.837153  1
  Se  Se2  1  0.997141  0.597363  0.496432  1
  Se  Se3  1  0.997141  0.402637  0.996432  1
  Br  Br4  1  0.894543  0.399213  0.602335  1
  Br  Br5  1  0.242837  0.398097  0.463787  1
  Br  Br6  1  0.202089  0.179610  0.099200  1
  Br  Br7  1  0.202089  0.820390  0.599200  1
  Br  Br8  1  0.007370  0.121174  0.836970  1
  Br  Br9  1  0.242837  0.601903  0.963787  1
  Br  Br10  1  0.640103  0.128905  0.970076  1
  Br  Br11  1  0.640103  0.871095  0.470076  1
  Br  Br12  1  0.677048  0.663236  0.833982  1
  Br  Br13  1  0.677048  0.336764  0.333982  1
  Br  Br14  1  0.475479  0.129670  0.710167  1
  Br  Br15  1  0.475479  0.870330  0.210167  1
  Br  Br16  1  0.894543  0.600787  0.102335  1
  Br  Br17  1  0.007370  0.878826  0.336970  1
