# generated using pymatgen
data_KTe
_symmetry_space_group_name_H-M   'P 1'
_cell_length_a   5.65869988
_cell_length_b   5.65869988
_cell_length_c   12.44790206
_cell_angle_alpha   90.00000000
_cell_angle_beta   90.00000000
_cell_angle_gamma   120.00000000
_symmetry_Int_Tables_number   1
_chemical_formula_structural   KTe
_chemical_formula_sum   'K4 Te4'
_cell_volume   345.19151839
_cell_formula_units_Z   4
loop_
 _symmetry_equiv_pos_site_id
 _symmetry_equiv_pos_as_xyz
  1  'x, y, z'
loop_
 _atom_site_type_symbol
 _atom_site_label
 _atom_site_symmetry_multiplicity
 _atom_site_fract_x
 _atom_site_fract_y
 _atom_site_fract_z
 _atom_site_occupancy
  K  K0  1  0.000000  0.000000  0.000000  1
  K  K1  1  0.000000  0.000000  0.500000  1
  K  K2  1  0.333333  0.666667  0.250000  1
  K  K3  1  0.666667  0.333333  0.750000  1
  Te  Te4  1  0.333333  0.666667  0.636039  1
  Te  Te5  1  0.666667  0.333333  0.136039  1
  Te  Te6  1  0.666667  0.333333  0.363961  1
  Te  Te7  1  0.333333  0.666667  0.863961  1
