# generated using pymatgen
data_TeI
_symmetry_space_group_name_H-M   'P 1'
_cell_length_a   8.41460974
_cell_length_b   8.82415870
_cell_length_c   10.18074361
_cell_angle_alpha   103.28084815
_cell_angle_beta   89.87204038
_cell_angle_gamma   104.02203512
_symmetry_Int_Tables_number   1
_chemical_formula_structural   TeI
_chemical_formula_sum   'Te8 I8'
_cell_volume   712.65588867
_cell_formula_units_Z   8
loop_
 _symmetry_equiv_pos_site_id
 _symmetry_equiv_pos_as_xyz
  1  'x, y, z'
loop_
 _atom_site_type_symbol
 _atom_site_label
 _atom_site_symmetry_multiplicity
 _atom_site_fract_x
 _atom_site_fract_y
 _atom_site_fract_z
 _atom_site_occupancy
  Te  Te0  1  0.190123  0.758914  0.181341  1
  Te  Te1  1  0.809877  0.241086  0.818659  1
  Te  Te2  1  0.488205  0.005333  0.198464  1
  Te  Te3  1  0.511795  0.994667  0.801536  1
  Te  Te4  1  0.314114  0.250731  0.280232  1
  Te  Te5  1  0.685886  0.749269  0.719768  1
  Te  Te6  1  0.013097  0.004250  0.197043  1
  Te  Te7  1  0.986903  0.995750  0.802957  1
  I  I8  1  0.179427  0.707452  0.441216  1
  I  I9  1  0.820573  0.292548  0.558784  1
  I  I10  1  0.319340  0.287956  0.559117  1
  I  I11  1  0.680660  0.712044  0.440883  1
  I  I12  1  0.823590  0.272639  0.186589  1
  I  I13  1  0.176410  0.727361  0.813411  1
  I  I14  1  0.685667  0.730496  0.086557  1
  I  I15  1  0.314333  0.269504  0.913443  1
