# generated using pymatgen
data_Pb(ClO3)2
_symmetry_space_group_name_H-M   'P 1'
_cell_length_a   8.70431636
_cell_length_b   7.45430725
_cell_length_c   7.09291900
_cell_angle_alpha   73.45608602
_cell_angle_beta   55.17889477
_cell_angle_gamma   51.36501920
_symmetry_Int_Tables_number   1
_chemical_formula_structural   Pb(ClO3)2
_chemical_formula_sum   'Pb2 Cl4 O12'
_cell_volume   293.27120857
_cell_formula_units_Z   2
loop_
 _symmetry_equiv_pos_site_id
 _symmetry_equiv_pos_as_xyz
  1  'x, y, z'
loop_
 _atom_site_type_symbol
 _atom_site_label
 _atom_site_symmetry_multiplicity
 _atom_site_fract_x
 _atom_site_fract_y
 _atom_site_fract_z
 _atom_site_occupancy
  Pb  Pb0  1  0.745847  0.254153  0.254153  1
  Pb  Pb1  1  0.995847  0.504153  0.504153  1
  Cl  Cl2  1  0.409644  0.634081  0.986448  1
  Cl  Cl3  1  0.969827  0.986448  0.634081  1
  Cl  Cl4  1  0.263552  0.280173  0.840356  1
  Cl  Cl5  1  0.615919  0.840356  0.280173  1
  O  O6  1  0.205728  0.879236  0.050862  1
  O  O7  1  0.864174  0.050862  0.879236  1
  O  O8  1  0.199138  0.385826  0.044272  1
  O  O9  1  0.370764  0.044272  0.385826  1
  O  O10  1  0.343294  0.400964  0.634664  1
  O  O11  1  0.621078  0.634664  0.400964  1
  O  O12  1  0.729973  0.877363  0.355029  1
  O  O13  1  0.037635  0.355029  0.877363  1
  O  O14  1  0.894971  0.212365  0.520027  1
  O  O15  1  0.372637  0.520027  0.212365  1
  O  O16  1  0.849036  0.906706  0.628922  1
  O  O17  1  0.615336  0.628922  0.906706  1
