# generated using pymatgen
data_RbIO4
_symmetry_space_group_name_H-M   'P 1'
_cell_length_a   7.93252229
_cell_length_b   7.93252229
_cell_length_c   7.93252229
_cell_angle_alpha   135.14229731
_cell_angle_beta   135.14229731
_cell_angle_gamma   65.30918185
_symmetry_Int_Tables_number   1
_chemical_formula_structural   RbIO4
_chemical_formula_sum   'Rb2 I2 O8'
_cell_volume   244.70629215
_cell_formula_units_Z   2
loop_
 _symmetry_equiv_pos_site_id
 _symmetry_equiv_pos_as_xyz
  1  'x, y, z'
loop_
 _atom_site_type_symbol
 _atom_site_label
 _atom_site_symmetry_multiplicity
 _atom_site_fract_x
 _atom_site_fract_y
 _atom_site_fract_z
 _atom_site_occupancy
  Rb  Rb0  1  0.250000  0.750000  0.500000  1
  Rb  Rb1  1  0.500000  0.500000  0.000000  1
  I  I2  1  0.750000  0.250000  0.500000  1
  I  I3  1  0.000000  0.000000  0.000000  1
  O  O4  1  0.039738  0.205418  0.593394  1
  O  O5  1  0.955418  0.862024  0.665681  1
  O  O6  1  0.196344  0.289738  0.334319  1
  O  O7  1  0.612024  0.446344  0.406606  1
  O  O8  1  0.137976  0.803656  0.093394  1
  O  O9  1  0.553656  0.960262  0.165681  1
  O  O10  1  0.794582  0.387976  0.834319  1
  O  O11  1  0.710262  0.044582  0.906606  1
