# generated using pymatgen
data_KSb2F7
_symmetry_space_group_name_H-M   'P 1'
_cell_length_a   8.72505737
_cell_length_b   7.64477019
_cell_length_c   10.99778180
_cell_angle_alpha   90.00000000
_cell_angle_beta   101.24195796
_cell_angle_gamma   90.00000000
_symmetry_Int_Tables_number   1
_chemical_formula_structural   KSb2F7
_chemical_formula_sum   'K4 Sb8 F28'
_cell_volume   719.48854632
_cell_formula_units_Z   4
loop_
 _symmetry_equiv_pos_site_id
 _symmetry_equiv_pos_as_xyz
  1  'x, y, z'
loop_
 _atom_site_type_symbol
 _atom_site_label
 _atom_site_symmetry_multiplicity
 _atom_site_fract_x
 _atom_site_fract_y
 _atom_site_fract_z
 _atom_site_occupancy
  K  K0  1  0.326869  0.335893  0.570659  1
  K  K1  1  0.173131  0.835893  0.429341  1
  K  K2  1  0.673131  0.664107  0.429341  1
  K  K3  1  0.826869  0.164107  0.570659  1
  Sb  Sb4  1  0.990783  0.683740  0.741244  1
  Sb  Sb5  1  0.509217  0.183740  0.258756  1
  Sb  Sb6  1  0.009217  0.316260  0.258756  1
  Sb  Sb7  1  0.490783  0.816260  0.741244  1
  Sb  Sb8  1  0.653623  0.321731  0.892240  1
  Sb  Sb9  1  0.846377  0.821731  0.107760  1
  Sb  Sb10  1  0.346377  0.678269  0.107760  1
  Sb  Sb11  1  0.153623  0.178269  0.892240  1
  F  F12  1  0.055233  0.433800  0.872793  1
  F  F13  1  0.444767  0.933800  0.127207  1
  F  F14  1  0.944767  0.566200  0.127207  1
  F  F15  1  0.555233  0.066200  0.872793  1
  F  F16  1  0.930918  0.111262  0.873570  1
  F  F17  1  0.569082  0.611262  0.126430  1
  F  F18  1  0.069082  0.888738  0.126430  1
  F  F19  1  0.430918  0.388738  0.873570  1
  F  F20  1  0.131216  0.202811  0.712611  1
  F  F21  1  0.368784  0.702811  0.287389  1
  F  F22  1  0.868784  0.797189  0.287389  1
  F  F23  1  0.631216  0.297189  0.712611  1
  F  F24  1  0.688696  0.882365  0.692276  1
  F  F25  1  0.811304  0.382365  0.307724  1
  F  F26  1  0.311304  0.117635  0.307724  1
  F  F27  1  0.188696  0.617635  0.692276  1
  F  F28  1  0.682642  0.587057  0.850559  1
  F  F29  1  0.817358  0.087057  0.149441  1
  F  F30  1  0.317358  0.412943  0.149441  1
  F  F31  1  0.182642  0.912943  0.850559  1
  F  F32  1  0.464232  0.657818  0.592181  1
  F  F33  1  0.035768  0.157818  0.407819  1
  F  F34  1  0.535768  0.342182  0.407819  1
  F  F35  1  0.964232  0.842182  0.592181  1
  F  F36  1  0.380474  0.989494  0.620128  1
  F  F37  1  0.119526  0.489494  0.379872  1
  F  F38  1  0.619526  0.010506  0.379872  1
  F  F39  1  0.880474  0.510506  0.620128  1
