# generated using pymatgen
data_SnI4
_symmetry_space_group_name_H-M   'P 1'
_cell_length_a   13.35761565
_cell_length_b   13.35761565
_cell_length_c   13.35761565
_cell_angle_alpha   90.00000000
_cell_angle_beta   90.00000000
_cell_angle_gamma   90.00000000
_symmetry_Int_Tables_number   1
_chemical_formula_structural   SnI4
_chemical_formula_sum   'Sn8 I32'
_cell_volume   2383.34453881
_cell_formula_units_Z   8
loop_
 _symmetry_equiv_pos_site_id
 _symmetry_equiv_pos_as_xyz
  1  'x, y, z'
loop_
 _atom_site_type_symbol
 _atom_site_label
 _atom_site_symmetry_multiplicity
 _atom_site_fract_x
 _atom_site_fract_y
 _atom_site_fract_z
 _atom_site_occupancy
  Sn  Sn0  1  0.130117  0.130117  0.130117  1
  Sn  Sn1  1  0.369883  0.869883  0.630117  1
  Sn  Sn2  1  0.630117  0.369883  0.869883  1
  Sn  Sn3  1  0.869883  0.630117  0.369883  1
  Sn  Sn4  1  0.869883  0.869883  0.869883  1
  Sn  Sn5  1  0.630117  0.130117  0.369883  1
  Sn  Sn6  1  0.369883  0.630117  0.130117  1
  Sn  Sn7  1  0.130117  0.369883  0.630117  1
  I  I8  1  0.246949  0.246949  0.246949  1
  I  I9  1  0.253051  0.753051  0.746949  1
  I  I10  1  0.746949  0.253051  0.753051  1
  I  I11  1  0.753051  0.746949  0.253051  1
  I  I12  1  0.753051  0.753051  0.753051  1
  I  I13  1  0.746949  0.246949  0.253051  1
  I  I14  1  0.253051  0.746949  0.246949  1
  I  I15  1  0.246949  0.253051  0.746949  1
  I  I16  1  0.019432  0.007675  0.248063  1
  I  I17  1  0.248063  0.019432  0.007675  1
  I  I18  1  0.007675  0.248063  0.019432  1
  I  I19  1  0.492325  0.751937  0.519432  1
  I  I20  1  0.748063  0.480568  0.992325  1
  I  I21  1  0.992325  0.748063  0.480568  1
  I  I22  1  0.251937  0.980568  0.507675  1
  I  I23  1  0.751937  0.519432  0.492325  1
  I  I24  1  0.507675  0.251937  0.980568  1
  I  I25  1  0.519432  0.492325  0.751937  1
  I  I26  1  0.980568  0.507675  0.251937  1
  I  I27  1  0.480568  0.992325  0.748063  1
  I  I28  1  0.980568  0.992325  0.751937  1
  I  I29  1  0.751937  0.980568  0.992325  1
  I  I30  1  0.992325  0.751937  0.980568  1
  I  I31  1  0.507675  0.248063  0.480568  1
  I  I32  1  0.251937  0.519432  0.007675  1
  I  I33  1  0.007675  0.251937  0.519432  1
  I  I34  1  0.748063  0.019432  0.492325  1
  I  I35  1  0.248063  0.480568  0.507675  1
  I  I36  1  0.492325  0.748063  0.019432  1
  I  I37  1  0.480568  0.507675  0.248063  1
  I  I38  1  0.019432  0.492325  0.748063  1
  I  I39  1  0.519432  0.007675  0.251937  1
