# generated using pymatgen
data_RbInTe2
_symmetry_space_group_name_H-M   'P 1'
_cell_length_a   7.41637621
_cell_length_b   7.41637621
_cell_length_c   7.41637621
_cell_angle_alpha   104.89861681
_cell_angle_beta   104.89861681
_cell_angle_gamma   119.06365886
_symmetry_Int_Tables_number   1
_chemical_formula_structural   RbInTe2
_chemical_formula_sum   'Rb2 In2 Te4'
_cell_volume   307.31878577
_cell_formula_units_Z   2
loop_
 _symmetry_equiv_pos_site_id
 _symmetry_equiv_pos_as_xyz
  1  'x, y, z'
loop_
 _atom_site_type_symbol
 _atom_site_label
 _atom_site_symmetry_multiplicity
 _atom_site_fract_x
 _atom_site_fract_y
 _atom_site_fract_z
 _atom_site_occupancy
  Rb  Rb0  1  0.750000  0.750000  0.000000  1
  Rb  Rb1  1  0.250000  0.250000  0.000000  1
  In  In2  1  0.250000  0.750000  0.500000  1
  In  In3  1  0.750000  0.250000  0.500000  1
  Te  Te4  1  0.169353  0.330647  0.500000  1
  Te  Te5  1  0.669353  0.169353  0.838707  1
  Te  Te6  1  0.330647  0.830647  0.161293  1
  Te  Te7  1  0.830647  0.669353  0.500000  1
