# generated using pymatgen
data_Li2SnP2O7
_symmetry_space_group_name_H-M   'P 1'
_cell_length_a   7.32993150
_cell_length_b   7.32993150
_cell_length_c   13.17260067
_cell_angle_alpha   89.64964967
_cell_angle_beta   90.35035033
_cell_angle_gamma   59.96717667
_symmetry_Int_Tables_number   1
_chemical_formula_structural   Li2SnP2O7
_chemical_formula_sum   'Li8 Sn4 P8 O28'
_cell_volume   612.66876692
_cell_formula_units_Z   4
loop_
 _symmetry_equiv_pos_site_id
 _symmetry_equiv_pos_as_xyz
  1  'x, y, z'
loop_
 _atom_site_type_symbol
 _atom_site_label
 _atom_site_symmetry_multiplicity
 _atom_site_fract_x
 _atom_site_fract_y
 _atom_site_fract_z
 _atom_site_occupancy
  Li  Li0  1  0.746844  0.715189  0.005391  1
  Li  Li1  1  0.284811  0.253156  0.505391  1
  Li  Li2  1  0.739006  0.739006  0.250000  1
  Li  Li3  1  0.281281  0.281281  0.250000  1
  Li  Li4  1  0.718719  0.718719  0.750000  1
  Li  Li5  1  0.260994  0.260994  0.750000  1
  Li  Li6  1  0.715189  0.746844  0.494609  1
  Li  Li7  1  0.253156  0.284811  0.994609  1
  Sn  Sn8  1  0.667300  0.342708  0.121068  1
  Sn  Sn9  1  0.657292  0.332700  0.621068  1
  Sn  Sn10  1  0.342708  0.667300  0.378932  1
  Sn  Sn11  1  0.332700  0.657292  0.878932  1
  P  P12  1  0.707171  0.082440  0.385462  1
  P  P13  1  0.917560  0.292829  0.885462  1
  P  P14  1  0.895631  0.345523  0.355874  1
  P  P15  1  0.654477  0.104369  0.855874  1
  P  P16  1  0.345523  0.895631  0.144126  1
  P  P17  1  0.104369  0.654477  0.644126  1
  P  P18  1  0.082440  0.707171  0.114538  1
  P  P19  1  0.292829  0.917560  0.614538  1
  O  O20  1  0.912217  0.118430  0.377602  1
  O  O21  1  0.881570  0.087783  0.877602  1
  O  O22  1  0.613712  0.143987  0.493597  1
  O  O23  1  0.856013  0.386288  0.993597  1
  O  O24  1  0.842092  0.409925  0.242058  1
  O  O25  1  0.590075  0.157908  0.742058  1
  O  O26  1  0.552156  0.228456  0.304685  1
  O  O27  1  0.771544  0.447844  0.804685  1
  O  O28  1  0.709255  0.506444  0.421044  1
  O  O29  1  0.315506  0.109947  0.117853  1
  O  O30  1  0.493556  0.290745  0.921044  1
  O  O31  1  0.890053  0.684494  0.617853  1
  O  O32  1  0.847392  0.799150  0.129028  1
  O  O33  1  0.200850  0.152608  0.629028  1
  O  O34  1  0.799150  0.847392  0.370972  1
  O  O35  1  0.152608  0.200850  0.870972  1
  O  O36  1  0.109947  0.315506  0.382147  1
  O  O37  1  0.506444  0.709255  0.078956  1
  O  O38  1  0.684494  0.890053  0.882147  1
  O  O39  1  0.290745  0.493556  0.578956  1
  O  O40  1  0.228456  0.552156  0.195315  1
  O  O41  1  0.447844  0.771544  0.695315  1
  O  O42  1  0.409925  0.842092  0.257942  1
  O  O43  1  0.157908  0.590075  0.757942  1
  O  O44  1  0.143987  0.613712  0.006403  1
  O  O45  1  0.386288  0.856013  0.506403  1
  O  O46  1  0.118430  0.912217  0.122398  1
  O  O47  1  0.087783  0.881570  0.622398  1
