# generated using pymatgen
data_Na5ScH4(C2O7)2
_symmetry_space_group_name_H-M   'P 1'
_cell_length_a   7.56586172
_cell_length_b   7.56586172
_cell_length_c   11.63055440
_cell_angle_alpha   90.00000000
_cell_angle_beta   90.00000000
_cell_angle_gamma   90.00000000
_symmetry_Int_Tables_number   1
_chemical_formula_structural   Na5ScH4(C2O7)2
_chemical_formula_sum   'Na10 Sc2 H8 C8 O28'
_cell_volume   665.75926039
_cell_formula_units_Z   2
loop_
 _symmetry_equiv_pos_site_id
 _symmetry_equiv_pos_as_xyz
  1  'x, y, z'
loop_
 _atom_site_type_symbol
 _atom_site_label
 _atom_site_symmetry_multiplicity
 _atom_site_fract_x
 _atom_site_fract_y
 _atom_site_fract_z
 _atom_site_occupancy
  Na  Na0  1  0.180785  0.679947  0.709037  1
  Na  Na1  1  0.819215  0.320053  0.709037  1
  Na  Na2  1  0.179947  0.680785  0.209037  1
  Na  Na3  1  0.320053  0.180785  0.290963  1
  Na  Na4  1  0.679947  0.819215  0.290963  1
  Na  Na5  1  0.680785  0.820053  0.790963  1
  Na  Na6  1  0.319215  0.179947  0.790963  1
  Na  Na7  1  0.820053  0.319215  0.209037  1
  Na  Na8  1  0.000000  0.000000  0.500000  1
  Na  Na9  1  0.500000  0.500000  0.000000  1
  Sc  Sc10  1  0.500000  0.500000  0.500000  1
  Sc  Sc11  1  0.000000  0.000000  0.000000  1
  H  H12  1  0.439979  0.914656  0.615343  1
  H  H13  1  0.560021  0.085344  0.615343  1
  H  H14  1  0.414656  0.939979  0.115343  1
  H  H15  1  0.085344  0.439979  0.384657  1
  H  H16  1  0.914656  0.560021  0.384657  1
  H  H17  1  0.939979  0.585344  0.884657  1
  H  H18  1  0.060021  0.414656  0.884657  1
  H  H19  1  0.585344  0.060021  0.115343  1
  C  C20  1  0.280325  0.823340  0.922917  1
  C  C21  1  0.719675  0.176660  0.922917  1
  C  C22  1  0.323340  0.780325  0.422917  1
  C  C23  1  0.176660  0.280325  0.077083  1
  C  C24  1  0.219675  0.323340  0.577083  1
  C  C25  1  0.676660  0.219675  0.422917  1
  C  C26  1  0.823340  0.719675  0.077083  1
  C  C27  1  0.780325  0.676660  0.577083  1
  O  O28  1  0.747150  0.657904  0.466175  1
  O  O29  1  0.247150  0.842096  0.033825  1
  O  O30  1  0.657904  0.252850  0.533825  1
  O  O31  1  0.342096  0.747150  0.533825  1
  O  O32  1  0.593109  0.330808  0.355219  1
  O  O33  1  0.252850  0.342096  0.466175  1
  O  O34  1  0.669192  0.593109  0.644781  1
  O  O35  1  0.906891  0.830808  0.144781  1
  O  O36  1  0.093109  0.169192  0.144781  1
  O  O37  1  0.406891  0.669192  0.355219  1
  O  O38  1  0.830808  0.093109  0.855219  1
  O  O39  1  0.169192  0.906891  0.855219  1
  O  O40  1  0.768712  0.092984  0.383943  1
  O  O41  1  0.092984  0.231288  0.616057  1
  O  O42  1  0.907016  0.768712  0.616057  1
  O  O43  1  0.731288  0.592984  0.116057  1
  O  O44  1  0.268712  0.407016  0.116057  1
  O  O45  1  0.231288  0.907016  0.383943  1
  O  O46  1  0.592984  0.268712  0.883943  1
  O  O47  1  0.407016  0.731288  0.883943  1
  O  O48  1  0.500000  0.000000  0.167248  1
  O  O49  1  0.000000  0.500000  0.832752  1
  O  O50  1  0.000000  0.500000  0.332752  1
  O  O51  1  0.500000  0.000000  0.667248  1
  O  O52  1  0.157904  0.247150  0.966175  1
  O  O53  1  0.752850  0.157904  0.033825  1
  O  O54  1  0.330808  0.406891  0.644781  1
  O  O55  1  0.842096  0.752850  0.966175  1
