# generated using pymatgen
data_Bi2TeO6
_symmetry_space_group_name_H-M   'P 1'
_cell_length_a   8.85045673
_cell_length_b   8.85045673
_cell_length_c   5.45762471
_cell_angle_alpha   90.00000000
_cell_angle_beta   90.00000000
_cell_angle_gamma   144.10541667
_symmetry_Int_Tables_number   1
_chemical_formula_structural   Bi2TeO6
_chemical_formula_sum   'Bi4 Te2 O12'
_cell_volume   250.64081761
_cell_formula_units_Z   2
loop_
 _symmetry_equiv_pos_site_id
 _symmetry_equiv_pos_as_xyz
  1  'x, y, z'
loop_
 _atom_site_type_symbol
 _atom_site_label
 _atom_site_symmetry_multiplicity
 _atom_site_fract_x
 _atom_site_fract_y
 _atom_site_fract_z
 _atom_site_occupancy
  Bi  Bi0  1  0.673197  0.326803  0.011092  1
  Bi  Bi1  1  0.826803  0.173197  0.511092  1
  Bi  Bi2  1  0.326803  0.673197  0.988908  1
  Bi  Bi3  1  0.173197  0.826803  0.488908  1
  Te  Te4  1  0.500000  0.500000  0.500000  1
  Te  Te5  1  0.000000  0.000000  0.000000  1
  O  O6  1  0.609181  0.390819  0.415468  1
  O  O7  1  0.890819  0.109181  0.915468  1
  O  O8  1  0.390819  0.609181  0.584532  1
  O  O9  1  0.109181  0.890819  0.084532  1
  O  O10  1  0.217845  0.282155  0.250000  1
  O  O11  1  0.282155  0.217845  0.750000  1
  O  O12  1  0.500398  0.999602  0.750000  1
  O  O13  1  0.999602  0.500398  0.250000  1
  O  O14  1  0.499602  0.000398  0.250000  1
  O  O15  1  0.000398  0.499602  0.750000  1
  O  O16  1  0.717845  0.782155  0.250000  1
  O  O17  1  0.782155  0.717845  0.750000  1
