# generated using pymatgen
data_MgInBr3
_symmetry_space_group_name_H-M   'P 1'
_cell_length_a   4.01046233
_cell_length_b   9.64231245
_cell_length_c   15.65899768
_cell_angle_alpha   90.00000000
_cell_angle_beta   90.00000000
_cell_angle_gamma   90.00000000
_symmetry_Int_Tables_number   1
_chemical_formula_structural   MgInBr3
_chemical_formula_sum   'Mg4 In4 Br12'
_cell_volume   605.53548934
_cell_formula_units_Z   4
loop_
 _symmetry_equiv_pos_site_id
 _symmetry_equiv_pos_as_xyz
  1  'x, y, z'
loop_
 _atom_site_type_symbol
 _atom_site_label
 _atom_site_symmetry_multiplicity
 _atom_site_fract_x
 _atom_site_fract_y
 _atom_site_fract_z
 _atom_site_occupancy
  Mg  Mg0  1  0.250000  0.661497  0.946731  1
  Mg  Mg1  1  0.750000  0.338503  0.053269  1
  Mg  Mg2  1  0.250000  0.161497  0.553269  1
  Mg  Mg3  1  0.750000  0.838503  0.446731  1
  In  In4  1  0.250000  0.971573  0.175581  1
  In  In5  1  0.750000  0.028427  0.824419  1
  In  In6  1  0.250000  0.471573  0.324419  1
  In  In7  1  0.750000  0.528427  0.675581  1
  Br  Br8  1  0.750000  0.979938  0.599127  1
  Br  Br9  1  0.250000  0.020062  0.400873  1
  Br  Br10  1  0.750000  0.479938  0.900873  1
  Br  Br11  1  0.250000  0.520062  0.099127  1
  Br  Br12  1  0.750000  0.325117  0.497419  1
  Br  Br13  1  0.250000  0.674883  0.502581  1
  Br  Br14  1  0.750000  0.825117  0.002581  1
  Br  Br15  1  0.250000  0.174883  0.997419  1
  Br  Br16  1  0.750000  0.726173  0.293431  1
  Br  Br17  1  0.250000  0.273827  0.706569  1
  Br  Br18  1  0.750000  0.226173  0.206569  1
  Br  Br19  1  0.250000  0.773827  0.793431  1
