# generated using pymatgen
data_LiMo3P3O16
_symmetry_space_group_name_H-M   'P 1'
_cell_length_a   6.46572359
_cell_length_b   7.93133925
_cell_length_c   12.70976054
_cell_angle_alpha   79.64448205
_cell_angle_beta   77.88179291
_cell_angle_gamma   81.01570586
_symmetry_Int_Tables_number   1
_chemical_formula_structural   LiMo3P3O16
_chemical_formula_sum   'Li2 Mo6 P6 O32'
_cell_volume   622.10566822
_cell_formula_units_Z   2
loop_
 _symmetry_equiv_pos_site_id
 _symmetry_equiv_pos_as_xyz
  1  'x, y, z'
loop_
 _atom_site_type_symbol
 _atom_site_label
 _atom_site_symmetry_multiplicity
 _atom_site_fract_x
 _atom_site_fract_y
 _atom_site_fract_z
 _atom_site_occupancy
  Li  Li0  1  0.580679  0.350060  0.318948  1
  Li  Li1  1  0.419321  0.649940  0.681052  1
  Mo  Mo2  1  0.961961  0.798677  0.847878  1
  Mo  Mo3  1  0.038039  0.201323  0.152122  1
  Mo  Mo4  1  0.601962  0.249724  0.834480  1
  Mo  Mo5  1  0.398038  0.750276  0.165520  1
  Mo  Mo6  1  0.792949  0.787703  0.472933  1
  Mo  Mo7  1  0.207051  0.212297  0.527067  1
  P  P8  1  0.945588  0.509329  0.687452  1
  P  P9  1  0.054412  0.490671  0.312548  1
  P  P10  1  0.692666  0.159907  0.566853  1
  P  P11  1  0.307334  0.840093  0.433147  1
  P  P12  1  0.439949  0.844487  0.889509  1
  P  P13  1  0.560051  0.155513  0.110491  1
  O  O14  1  0.624878  0.214155  0.679757  1
  O  O15  1  0.375122  0.785845  0.320243  1
  O  O16  1  0.857325  0.382828  0.788798  1
  O  O17  1  0.142675  0.617172  0.211202  1
  O  O18  1  0.434269  0.040368  0.882597  1
  O  O19  1  0.565731  0.959632  0.117403  1
  O  O20  1  0.628476  0.241722  0.992850  1
  O  O21  1  0.371524  0.758278  0.007150  1
  O  O22  1  0.409287  0.423146  0.825804  1
  O  O23  1  0.590713  0.576854  0.174196  1
  O  O24  1  0.664135  0.760981  0.837715  1
  O  O25  1  0.335865  0.239019  0.162285  1
  O  O26  1  0.207066  0.052865  0.636684  1
  O  O27  1  0.792934  0.947135  0.363316  1
  O  O28  1  0.903995  0.225988  0.507144  1
  O  O29  1  0.096005  0.774012  0.492856  1
  O  O30  1  0.528534  0.248946  0.493587  1
  O  O31  1  0.471466  0.751054  0.506413  1
  O  O32  1  0.292226  0.038501  0.417158  1
  O  O33  1  0.707774  0.961499  0.582842  1
  O  O34  1  0.132060  0.418699  0.612198  1
  O  O35  1  0.867940  0.581301  0.387802  1
  O  O36  1  0.235082  0.397985  0.372189  1
  O  O37  1  0.764918  0.602015  0.627811  1
  O  O38  1  0.060715  0.285752  0.018129  1
  O  O39  1  0.939285  0.714248  0.981871  1
  O  O40  1  0.949101  0.355976  0.268915  1
  O  O41  1  0.050899  0.644024  0.731085  1
  O  O42  1  0.715897  0.195646  0.179827  1
  O  O43  1  0.284103  0.804354  0.820173  1
  O  O44  1  0.122446  0.978286  0.158091  1
  O  O45  1  0.877554  0.021714  0.841909  1
