# generated using pymatgen
data_Tl6SI4
_symmetry_space_group_name_H-M   'P 1'
_cell_length_a   9.48968167
_cell_length_b   9.48968167
_cell_length_c   9.93696465
_cell_angle_alpha   90.00000000
_cell_angle_beta   90.00000000
_cell_angle_gamma   90.00000000
_symmetry_Int_Tables_number   1
_chemical_formula_structural   Tl6SI4
_chemical_formula_sum   'Tl12 S2 I8'
_cell_volume   894.86399290
_cell_formula_units_Z   2
loop_
 _symmetry_equiv_pos_site_id
 _symmetry_equiv_pos_as_xyz
  1  'x, y, z'
loop_
 _atom_site_type_symbol
 _atom_site_label
 _atom_site_symmetry_multiplicity
 _atom_site_fract_x
 _atom_site_fract_y
 _atom_site_fract_z
 _atom_site_occupancy
  Tl  Tl0  1  0.698752  0.898136  0.500000  1
  Tl  Tl1  1  0.301248  0.101864  0.500000  1
  Tl  Tl2  1  0.601864  0.801248  0.000000  1
  Tl  Tl3  1  0.101864  0.698752  0.500000  1
  Tl  Tl4  1  0.898136  0.301248  0.500000  1
  Tl  Tl5  1  0.198752  0.601864  0.000000  1
  Tl  Tl6  1  0.801248  0.398136  0.000000  1
  Tl  Tl7  1  0.398136  0.198752  0.000000  1
  Tl  Tl8  1  0.000000  0.000000  0.792486  1
  Tl  Tl9  1  0.500000  0.500000  0.707514  1
  Tl  Tl10  1  0.000000  0.000000  0.207514  1
  Tl  Tl11  1  0.500000  0.500000  0.292486  1
  S  S12  1  0.000000  0.000000  0.500000  1
  S  S13  1  0.500000  0.500000  0.000000  1
  I  I14  1  0.167202  0.332798  0.750000  1
  I  I15  1  0.667202  0.167202  0.750000  1
  I  I16  1  0.332798  0.832798  0.750000  1
  I  I17  1  0.832798  0.667202  0.750000  1
  I  I18  1  0.832798  0.667202  0.250000  1
  I  I19  1  0.332798  0.832798  0.250000  1
  I  I20  1  0.667202  0.167202  0.250000  1
  I  I21  1  0.167202  0.332798  0.250000  1
