# generated using pymatgen
data_LiCo2P3O10
_symmetry_space_group_name_H-M   'P 1'
_cell_length_a   4.65615831
_cell_length_b   8.57072421
_cell_length_c   9.07327227
_cell_angle_alpha   90.00000000
_cell_angle_beta   97.86505651
_cell_angle_gamma   90.00000000
_symmetry_Int_Tables_number   1
_chemical_formula_structural   LiCo2P3O10
_chemical_formula_sum   'Li2 Co4 P6 O20'
_cell_volume   358.67780356
_cell_formula_units_Z   2
loop_
 _symmetry_equiv_pos_site_id
 _symmetry_equiv_pos_as_xyz
  1  'x, y, z'
loop_
 _atom_site_type_symbol
 _atom_site_label
 _atom_site_symmetry_multiplicity
 _atom_site_fract_x
 _atom_site_fract_y
 _atom_site_fract_z
 _atom_site_occupancy
  Li  Li0  1  0.000000  0.500000  0.000000  1
  Li  Li1  1  0.000000  0.000000  0.000000  1
  Co  Co2  1  0.963344  0.569869  0.663950  1
  Co  Co3  1  0.036656  0.069869  0.336050  1
  Co  Co4  1  0.036656  0.430131  0.336050  1
  Co  Co5  1  0.963344  0.930131  0.663950  1
  P  P6  1  0.457542  0.250000  0.144581  1
  P  P7  1  0.542458  0.750000  0.855419  1
  P  P8  1  0.328304  0.250000  0.822567  1
  P  P9  1  0.671696  0.750000  0.177433  1
  P  P10  1  0.605385  0.250000  0.538592  1
  P  P11  1  0.394615  0.750000  0.461408  1
  O  O12  1  0.223882  0.900286  0.482044  1
  O  O13  1  0.242273  0.750000  0.760562  1
  O  O14  1  0.716578  0.600625  0.841641  1
  O  O15  1  0.283422  0.100625  0.158359  1
  O  O16  1  0.283422  0.399375  0.158359  1
  O  O17  1  0.716578  0.899375  0.841641  1
  O  O18  1  0.549190  0.250000  0.975905  1
  O  O19  1  0.450810  0.750000  0.024095  1
  O  O20  1  0.757727  0.250000  0.239438  1
  O  O21  1  0.776118  0.400286  0.517956  1
  O  O22  1  0.776118  0.099714  0.517956  1
  O  O23  1  0.223882  0.599714  0.482044  1
  O  O24  1  0.697233  0.750000  0.552589  1
  O  O25  1  0.302767  0.250000  0.447411  1
  O  O26  1  0.841532  0.599453  0.186237  1
  O  O27  1  0.564423  0.250000  0.712357  1
  O  O28  1  0.841532  0.900547  0.186237  1
  O  O29  1  0.158468  0.400547  0.813763  1
  O  O30  1  0.158468  0.099453  0.813763  1
  O  O31  1  0.435577  0.750000  0.287643  1
