# generated using pymatgen
data_Rb2Hg3Te4
_symmetry_space_group_name_H-M   'P 1'
_cell_length_a   7.41156832
_cell_length_b   12.61855538
_cell_length_c   14.90287801
_cell_angle_alpha   90.00000000
_cell_angle_beta   90.00000000
_cell_angle_gamma   90.00000000
_symmetry_Int_Tables_number   1
_chemical_formula_structural   Rb2Hg3Te4
_chemical_formula_sum   'Rb8 Hg12 Te16'
_cell_volume   1393.76611190
_cell_formula_units_Z   4
loop_
 _symmetry_equiv_pos_site_id
 _symmetry_equiv_pos_as_xyz
  1  'x, y, z'
loop_
 _atom_site_type_symbol
 _atom_site_label
 _atom_site_symmetry_multiplicity
 _atom_site_fract_x
 _atom_site_fract_y
 _atom_site_fract_z
 _atom_site_occupancy
  Rb  Rb0  1  0.664641  0.135419  0.041672  1
  Rb  Rb1  1  0.664641  0.864581  0.458328  1
  Rb  Rb2  1  0.835359  0.635419  0.958328  1
  Rb  Rb3  1  0.835359  0.364581  0.541672  1
  Rb  Rb4  1  0.335359  0.864581  0.958328  1
  Rb  Rb5  1  0.335359  0.135419  0.541672  1
  Rb  Rb6  1  0.164641  0.364581  0.041672  1
  Rb  Rb7  1  0.164641  0.635419  0.458328  1
  Hg  Hg8  1  0.398970  0.500000  0.250000  1
  Hg  Hg9  1  0.101030  0.000000  0.750000  1
  Hg  Hg10  1  0.601030  0.500000  0.750000  1
  Hg  Hg11  1  0.898970  0.000000  0.250000  1
  Hg  Hg12  1  0.339558  0.158931  0.254255  1
  Hg  Hg13  1  0.339558  0.841069  0.245745  1
  Hg  Hg14  1  0.160442  0.658931  0.745745  1
  Hg  Hg15  1  0.160442  0.341069  0.754255  1
  Hg  Hg16  1  0.660442  0.841069  0.745745  1
  Hg  Hg17  1  0.660442  0.158931  0.754255  1
  Hg  Hg18  1  0.839558  0.341069  0.254255  1
  Hg  Hg19  1  0.839558  0.658931  0.245745  1
  Te  Te20  1  0.144943  0.078389  0.112243  1
  Te  Te21  1  0.144943  0.921611  0.387757  1
  Te  Te22  1  0.355057  0.578389  0.887757  1
  Te  Te23  1  0.355057  0.421611  0.612243  1
  Te  Te24  1  0.669588  0.846413  0.158112  1
  Te  Te25  1  0.669588  0.153587  0.341888  1
  Te  Te26  1  0.830412  0.346413  0.841888  1
  Te  Te27  1  0.830412  0.653587  0.658112  1
  Te  Te28  1  0.330412  0.153587  0.841888  1
  Te  Te29  1  0.330412  0.846413  0.658112  1
  Te  Te30  1  0.169588  0.653587  0.158112  1
  Te  Te31  1  0.169588  0.346413  0.341888  1
  Te  Te32  1  0.644943  0.578389  0.387757  1
  Te  Te33  1  0.644943  0.421611  0.112243  1
  Te  Te34  1  0.855057  0.078389  0.612243  1
  Te  Te35  1  0.855057  0.921611  0.887757  1
