# generated using pymatgen
data_MgSiP2
_symmetry_space_group_name_H-M   'P 1'
_cell_length_a   6.54106932
_cell_length_b   6.54106932
_cell_length_c   6.54106932
_cell_angle_alpha   127.85000260
_cell_angle_beta   127.85000260
_cell_angle_gamma   76.86814415
_symmetry_Int_Tables_number   1
_chemical_formula_structural   MgSiP2
_chemical_formula_sum   'Mg2 Si2 P4'
_cell_volume   169.41771424
_cell_formula_units_Z   2
loop_
 _symmetry_equiv_pos_site_id
 _symmetry_equiv_pos_as_xyz
  1  'x, y, z'
loop_
 _atom_site_type_symbol
 _atom_site_label
 _atom_site_symmetry_multiplicity
 _atom_site_fract_x
 _atom_site_fract_y
 _atom_site_fract_z
 _atom_site_occupancy
  Mg  Mg0  1  0.250000  0.750000  0.500000  1
  Mg  Mg1  1  0.500000  0.500000  0.000000  1
  Si  Si2  1  0.750000  0.250000  0.500000  1
  Si  Si3  1  0.000000  0.000000  0.000000  1
  P  P4  1  0.875000  0.332421  0.957421  1
  P  P5  1  0.667579  0.625000  0.542579  1
  P  P6  1  0.082421  0.125000  0.457421  1
  P  P7  1  0.375000  0.917579  0.042579  1
