# generated using pymatgen
data_BaSn2S3
_symmetry_space_group_name_H-M   'P 1'
_cell_length_a   6.24477025
_cell_length_b   13.66459802
_cell_length_c   12.08429058
_cell_angle_alpha   90.00000000
_cell_angle_beta   101.16877446
_cell_angle_gamma   90.00000000
_symmetry_Int_Tables_number   1
_chemical_formula_structural   BaSn2S3
_chemical_formula_sum   'Ba6 Sn12 S18'
_cell_volume   1011.65035095
_cell_formula_units_Z   6
loop_
 _symmetry_equiv_pos_site_id
 _symmetry_equiv_pos_as_xyz
  1  'x, y, z'
loop_
 _atom_site_type_symbol
 _atom_site_label
 _atom_site_symmetry_multiplicity
 _atom_site_fract_x
 _atom_site_fract_y
 _atom_site_fract_z
 _atom_site_occupancy
  Ba  Ba0  1  0.876517  0.750000  0.525480  1
  Ba  Ba1  1  0.123483  0.250000  0.474520  1
  Ba  Ba2  1  0.200659  0.421730  0.871881  1
  Ba  Ba3  1  0.799341  0.921730  0.128119  1
  Ba  Ba4  1  0.799341  0.578270  0.128119  1
  Ba  Ba5  1  0.200659  0.078270  0.871881  1
  Sn  Sn6  1  0.546532  0.885984  0.772191  1
  Sn  Sn7  1  0.617252  0.250000  0.791836  1
  Sn  Sn8  1  0.775411  0.447927  0.552344  1
  Sn  Sn9  1  0.224589  0.947927  0.447656  1
  Sn  Sn10  1  0.224589  0.552073  0.447656  1
  Sn  Sn11  1  0.775411  0.052073  0.552344  1
  Sn  Sn12  1  0.157380  0.750000  0.900768  1
  Sn  Sn13  1  0.842620  0.250000  0.099232  1
  Sn  Sn14  1  0.453468  0.385984  0.227809  1
  Sn  Sn15  1  0.453468  0.114016  0.227809  1
  Sn  Sn16  1  0.546532  0.614016  0.772191  1
  Sn  Sn17  1  0.382748  0.750000  0.208164  1
  S  S18  1  0.751589  0.750000  0.929856  1
  S  S19  1  0.248411  0.250000  0.070144  1
  S  S20  1  0.426241  0.750000  0.621687  1
  S  S21  1  0.573759  0.250000  0.378313  1
  S  S22  1  0.038830  0.750000  0.282915  1
  S  S23  1  0.961170  0.250000  0.717085  1
  S  S24  1  0.738558  0.393178  0.948883  1
  S  S25  1  0.261442  0.893178  0.051117  1
  S  S26  1  0.261442  0.606822  0.051117  1
  S  S27  1  0.738558  0.106822  0.948883  1
  S  S28  1  0.087156  0.420892  0.290347  1
  S  S29  1  0.912844  0.920892  0.709653  1
  S  S30  1  0.912844  0.579108  0.709653  1
  S  S31  1  0.087156  0.079108  0.290347  1
  S  S32  1  0.405365  0.071116  0.613913  1
  S  S33  1  0.594635  0.928884  0.386087  1
  S  S34  1  0.594635  0.571116  0.386087  1
  S  S35  1  0.405365  0.428884  0.613913  1
