# generated using pymatgen
data_Co2Si(P2O7)2
_symmetry_space_group_name_H-M   'P 1'
_cell_length_a   8.91388454
_cell_length_b   8.91388454
_cell_length_c   12.42307926
_cell_angle_alpha   77.47348350
_cell_angle_beta   102.52651650
_cell_angle_gamma   147.26325446
_symmetry_Int_Tables_number   1
_chemical_formula_structural   Co2Si(P2O7)2
_chemical_formula_sum   'Co4 Si2 P8 O28'
_cell_volume   519.98880075
_cell_formula_units_Z   2
loop_
 _symmetry_equiv_pos_site_id
 _symmetry_equiv_pos_as_xyz
  1  'x, y, z'
loop_
 _atom_site_type_symbol
 _atom_site_label
 _atom_site_symmetry_multiplicity
 _atom_site_fract_x
 _atom_site_fract_y
 _atom_site_fract_z
 _atom_site_occupancy
  Co  Co0  1  0.904437  0.397830  0.870087  1
  Co  Co1  1  0.397830  0.904437  0.629913  1
  Co  Co2  1  0.095563  0.602170  0.129913  1
  Co  Co3  1  0.602170  0.095563  0.370087  1
  Si  Si4  1  0.849342  0.849342  0.750000  1
  Si  Si5  1  0.150658  0.150658  0.250000  1
  P  P6  1  0.302328  0.030963  0.915391  1
  P  P7  1  0.030963  0.302328  0.584609  1
  P  P8  1  0.513265  0.765213  0.864458  1
  P  P9  1  0.765213  0.513265  0.635542  1
  P  P10  1  0.486735  0.234787  0.135542  1
  P  P11  1  0.234787  0.486735  0.364458  1
  P  P12  1  0.697672  0.969037  0.084609  1
  P  P13  1  0.969037  0.697672  0.415391  1
  O  O14  1  0.898062  0.023669  0.168148  1
  O  O15  1  0.023669  0.898062  0.331852  1
  O  O16  1  0.101938  0.976331  0.831852  1
  O  O17  1  0.976331  0.101938  0.668148  1
  O  O18  1  0.832112  0.237256  0.046507  1
  O  O19  1  0.237256  0.832112  0.453493  1
  O  O20  1  0.167888  0.762744  0.953493  1
  O  O21  1  0.762744  0.167888  0.546507  1
  O  O22  1  0.582183  0.270787  0.868947  1
  O  O23  1  0.270787  0.582183  0.631053  1
  O  O24  1  0.417817  0.729213  0.131053  1
  O  O25  1  0.729213  0.417817  0.368947  1
  O  O26  1  0.686863  0.874958  0.982558  1
  O  O27  1  0.874958  0.686863  0.517442  1
  O  O28  1  0.296792  0.388462  0.321323  1
  O  O29  1  0.388462  0.296792  0.178677  1
  O  O30  1  0.703208  0.611538  0.678677  1
  O  O31  1  0.611538  0.703208  0.821323  1
  O  O32  1  0.504580  0.792591  0.379092  1
  O  O33  1  0.792591  0.504580  0.120908  1
  O  O34  1  0.495420  0.207409  0.620908  1
  O  O35  1  0.207409  0.495420  0.879092  1
  O  O36  1  0.382545  0.996753  0.204468  1
  O  O37  1  0.996753  0.382545  0.295532  1
  O  O38  1  0.617455  0.003247  0.795532  1
  O  O39  1  0.003247  0.617455  0.704468  1
  O  O40  1  0.125042  0.313137  0.482558  1
  O  O41  1  0.313137  0.125042  0.017442  1
