# generated using pymatgen
data_VMoO5
_symmetry_space_group_name_H-M   'P 1'
_cell_length_a   6.72160371
_cell_length_b   6.72160371
_cell_length_c   4.65537694
_cell_angle_alpha   90.00000000
_cell_angle_beta   90.00000000
_cell_angle_gamma   90.00000000
_symmetry_Int_Tables_number   1
_chemical_formula_structural   VMoO5
_chemical_formula_sum   'V2 Mo2 O10'
_cell_volume   210.32972733
_cell_formula_units_Z   2
loop_
 _symmetry_equiv_pos_site_id
 _symmetry_equiv_pos_as_xyz
  1  'x, y, z'
loop_
 _atom_site_type_symbol
 _atom_site_label
 _atom_site_symmetry_multiplicity
 _atom_site_fract_x
 _atom_site_fract_y
 _atom_site_fract_z
 _atom_site_occupancy
  V  V0  1  0.000000  0.500000  0.829813  1
  V  V1  1  0.500000  0.000000  0.170187  1
  Mo  Mo2  1  0.500000  0.500000  0.500000  1
  Mo  Mo3  1  0.000000  0.000000  0.500000  1
  O  O4  1  0.714659  0.465463  0.722965  1
  O  O5  1  0.965463  0.785341  0.722965  1
  O  O6  1  0.034537  0.214659  0.722965  1
  O  O7  1  0.285341  0.534537  0.722965  1
  O  O8  1  0.000000  0.500000  0.180450  1
  O  O9  1  0.500000  0.000000  0.819550  1
  O  O10  1  0.214659  0.965463  0.277035  1
  O  O11  1  0.465463  0.285341  0.277035  1
  O  O12  1  0.534537  0.714659  0.277035  1
  O  O13  1  0.785341  0.034537  0.277035  1
