# generated using pymatgen
data_Na2ZnH8(SO6)2
_symmetry_space_group_name_H-M   'P 1'
_cell_length_a   5.57486536
_cell_length_b   8.37235093
_cell_length_c   11.17139830
_cell_angle_alpha   90.00000000
_cell_angle_beta   99.39848711
_cell_angle_gamma   90.00000000
_symmetry_Int_Tables_number   1
_chemical_formula_structural   Na2ZnH8(SO6)2
_chemical_formula_sum   'Na4 Zn2 H16 S4 O24'
_cell_volume   514.42266882
_cell_formula_units_Z   2
loop_
 _symmetry_equiv_pos_site_id
 _symmetry_equiv_pos_as_xyz
  1  'x, y, z'
loop_
 _atom_site_type_symbol
 _atom_site_label
 _atom_site_symmetry_multiplicity
 _atom_site_fract_x
 _atom_site_fract_y
 _atom_site_fract_z
 _atom_site_occupancy
  Na  Na0  1  0.881066  0.927354  0.638140  1
  Na  Na1  1  0.118934  0.072646  0.361860  1
  Na  Na2  1  0.881066  0.572646  0.138140  1
  Na  Na3  1  0.118934  0.427354  0.861860  1
  Zn  Zn4  1  0.000000  0.500000  0.500000  1
  Zn  Zn5  1  0.000000  0.000000  0.000000  1
  H  H6  1  0.755131  0.272568  0.987771  1
  H  H7  1  0.244869  0.772568  0.512229  1
  H  H8  1  0.244869  0.727432  0.012229  1
  H  H9  1  0.755131  0.227432  0.487771  1
  H  H10  1  0.671469  0.195474  0.861304  1
  H  H11  1  0.328531  0.695474  0.638696  1
  H  H12  1  0.328531  0.804526  0.138696  1
  H  H13  1  0.671469  0.304526  0.361304  1
  H  H14  1  0.228866  0.863937  0.845291  1
  H  H15  1  0.771134  0.363937  0.654709  1
  H  H16  1  0.236769  0.053467  0.817955  1
  H  H17  1  0.763231  0.553467  0.682045  1
  H  H18  1  0.763231  0.946533  0.182045  1
  H  H19  1  0.236769  0.446533  0.317955  1
  H  H20  1  0.771134  0.136063  0.154709  1
  H  H21  1  0.228866  0.636063  0.345291  1
  S  S22  1  0.377909  0.211865  0.636264  1
  S  S23  1  0.622091  0.711865  0.863736  1
  S  S24  1  0.622091  0.788135  0.363736  1
  S  S25  1  0.377909  0.288135  0.136264  1
  O  O26  1  0.782698  0.915201  0.422502  1
  O  O27  1  0.217302  0.084799  0.577498  1
  O  O28  1  0.317175  0.130194  0.077991  1
  O  O29  1  0.782698  0.584799  0.922502  1
  O  O30  1  0.682825  0.869806  0.922009  1
  O  O31  1  0.317175  0.369806  0.577991  1
  O  O32  1  0.639868  0.323307  0.127017  1
  O  O33  1  0.360132  0.823307  0.372983  1
  O  O34  1  0.360132  0.676693  0.872983  1
  O  O35  1  0.639868  0.176693  0.627017  1
  O  O36  1  0.870765  0.036380  0.163841  1
  O  O37  1  0.129235  0.536380  0.336159  1
  O  O38  1  0.129235  0.963620  0.836159  1
  O  O39  1  0.870765  0.463620  0.663841  1
  O  O40  1  0.819283  0.285495  0.422183  1
  O  O41  1  0.180717  0.785495  0.077817  1
  O  O42  1  0.180717  0.714505  0.577817  1
  O  O43  1  0.819283  0.214505  0.922183  1
  O  O44  1  0.360469  0.220835  0.769540  1
  O  O45  1  0.639531  0.720835  0.730460  1
  O  O46  1  0.639531  0.779165  0.230460  1
  O  O47  1  0.360469  0.279165  0.269540  1
  O  O48  1  0.682825  0.630194  0.422009  1
  O  O49  1  0.217302  0.415201  0.077498  1
