# generated using pymatgen
data_TePbF6
_symmetry_space_group_name_H-M   'P 1'
_cell_length_a   4.75923885
_cell_length_b   13.06667162
_cell_length_c   8.69164516
_cell_angle_alpha   90.00000000
_cell_angle_beta   103.30892672
_cell_angle_gamma   90.00000000
_symmetry_Int_Tables_number   1
_chemical_formula_structural   TePbF6
_chemical_formula_sum   'Te4 Pb4 F24'
_cell_volume   525.99442017
_cell_formula_units_Z   4
loop_
 _symmetry_equiv_pos_site_id
 _symmetry_equiv_pos_as_xyz
  1  'x, y, z'
loop_
 _atom_site_type_symbol
 _atom_site_label
 _atom_site_symmetry_multiplicity
 _atom_site_fract_x
 _atom_site_fract_y
 _atom_site_fract_z
 _atom_site_occupancy
  Te  Te0  1  0.941684  0.777433  0.028405  1
  Te  Te1  1  0.058316  0.277433  0.471595  1
  Te  Te2  1  0.058316  0.222567  0.971595  1
  Te  Te3  1  0.941684  0.722567  0.528405  1
  Pb  Pb4  1  0.362608  0.505000  0.191930  1
  Pb  Pb5  1  0.637392  0.005000  0.308070  1
  Pb  Pb6  1  0.637392  0.495000  0.808070  1
  Pb  Pb7  1  0.362608  0.995000  0.691930  1
  F  F8  1  0.110558  0.671687  0.364045  1
  F  F9  1  0.889442  0.171687  0.135955  1
  F  F10  1  0.889442  0.328313  0.635955  1
  F  F11  1  0.110558  0.828313  0.864045  1
  F  F12  1  0.748257  0.812990  0.337598  1
  F  F13  1  0.251743  0.312990  0.162402  1
  F  F14  1  0.251743  0.187010  0.662402  1
  F  F15  1  0.748257  0.687010  0.837598  1
  F  F16  1  0.220444  0.469831  0.915610  1
  F  F17  1  0.779556  0.969831  0.584390  1
  F  F18  1  0.779556  0.530169  0.084390  1
  F  F19  1  0.220444  0.030169  0.415610  1
  F  F20  1  0.325911  0.394863  0.544473  1
  F  F21  1  0.674089  0.894863  0.955527  1
  F  F22  1  0.674089  0.605137  0.455527  1
  F  F23  1  0.325911  0.105137  0.044473  1
  F  F24  1  0.193017  0.882452  0.156341  1
  F  F25  1  0.806983  0.382452  0.343659  1
  F  F26  1  0.806983  0.117548  0.843659  1
  F  F27  1  0.193017  0.617548  0.656341  1
  F  F28  1  0.296757  0.684010  0.064073  1
  F  F29  1  0.703243  0.184010  0.435927  1
  F  F30  1  0.703243  0.315990  0.935927  1
  F  F31  1  0.296757  0.815990  0.564073  1
