# generated using pymatgen
data_FeSeCl7
_symmetry_space_group_name_H-M   'P 1'
_cell_length_a   6.61185026
_cell_length_b   8.53041913
_cell_length_c   10.36100068
_cell_angle_alpha   85.56212097
_cell_angle_beta   75.99568776
_cell_angle_gamma   83.86259553
_symmetry_Int_Tables_number   1
_chemical_formula_structural   FeSeCl7
_chemical_formula_sum   'Fe2 Se2 Cl14'
_cell_volume   562.95647679
_cell_formula_units_Z   2
loop_
 _symmetry_equiv_pos_site_id
 _symmetry_equiv_pos_as_xyz
  1  'x, y, z'
loop_
 _atom_site_type_symbol
 _atom_site_label
 _atom_site_symmetry_multiplicity
 _atom_site_fract_x
 _atom_site_fract_y
 _atom_site_fract_z
 _atom_site_occupancy
  Fe  Fe0  1  0.493798  0.125978  0.126293  1
  Fe  Fe1  1  0.752232  0.566067  0.549261  1
  Se  Se2  1  0.959603  0.505009  0.083715  1
  Se  Se3  1  0.183704  0.948171  0.542256  1
  Cl  Cl4  1  0.939364  0.046679  0.442392  1
  Cl  Cl5  1  0.991691  0.934482  0.746175  1
  Cl  Cl6  1  0.319690  0.165991  0.560782  1
  Cl  Cl7  1  0.702857  0.365820  0.692181  1
  Cl  Cl8  1  0.822871  0.190622  0.077798  1
  Cl  Cl9  1  0.277583  0.332267  0.205376  1
  Cl  Cl10  1  0.470941  0.928334  0.282710  1
  Cl  Cl11  1  0.424637  0.039573  0.952387  1
  Cl  Cl12  1  0.078162  0.722890  0.121999  1
  Cl  Cl13  1  0.171323  0.466131  0.889331  1
  Cl  Cl14  1  0.688522  0.614373  0.013360  1
  Cl  Cl15  1  0.080385  0.629230  0.514699  1
  Cl  Cl16  1  0.533029  0.768094  0.635741  1
  Cl  Cl17  1  0.693209  0.500088  0.358841  1
