# generated using pymatgen
data_BiF5
_symmetry_space_group_name_H-M   'P 1'
_cell_length_a   5.35329794
_cell_length_b   5.35329794
_cell_length_c   5.35329794
_cell_angle_alpha   99.52333089
_cell_angle_beta   99.52333089
_cell_angle_gamma   131.99776236
_symmetry_Int_Tables_number   1
_chemical_formula_structural   BiF5
_chemical_formula_sum   'Bi1 F5'
_cell_volume   104.15481721
_cell_formula_units_Z   1
loop_
 _symmetry_equiv_pos_site_id
 _symmetry_equiv_pos_as_xyz
  1  'x, y, z'
loop_
 _atom_site_type_symbol
 _atom_site_label
 _atom_site_symmetry_multiplicity
 _atom_site_fract_x
 _atom_site_fract_y
 _atom_site_fract_z
 _atom_site_occupancy
  Bi  Bi0  1  0.000000  0.000000  0.000000  1
  F  F1  1  0.093598  0.724565  0.818164  1
  F  F2  1  0.500000  0.500000  0.000000  1
  F  F3  1  0.906402  0.275435  0.181836  1
  F  F4  1  0.724565  0.906402  0.630967  1
  F  F5  1  0.275435  0.093598  0.369033  1
