# generated using pymatgen
data_Ca(AuO2)2
_symmetry_space_group_name_H-M   'P 1'
_cell_length_a   6.69014670
_cell_length_b   6.69014670
_cell_length_c   6.69014670
_cell_angle_alpha   125.70676965
_cell_angle_beta   125.70676965
_cell_angle_gamma   80.37062043
_symmetry_Int_Tables_number   1
_chemical_formula_structural   Ca(AuO2)2
_chemical_formula_sum   'Ca2 Au4 O8'
_cell_volume   190.49358268
_cell_formula_units_Z   2
loop_
 _symmetry_equiv_pos_site_id
 _symmetry_equiv_pos_as_xyz
  1  'x, y, z'
loop_
 _atom_site_type_symbol
 _atom_site_label
 _atom_site_symmetry_multiplicity
 _atom_site_fract_x
 _atom_site_fract_y
 _atom_site_fract_z
 _atom_site_occupancy
  Ca  Ca0  1  0.250000  0.750000  0.500000  1
  Ca  Ca1  1  0.500000  0.500000  0.000000  1
  Au  Au2  1  0.875000  0.125000  0.250000  1
  Au  Au3  1  0.375000  0.125000  0.250000  1
  Au  Au4  1  0.875000  0.625000  0.750000  1
  Au  Au5  1  0.875000  0.125000  0.750000  1
  O  O6  1  0.094294  0.457935  0.954189  1
  O  O7  1  0.207935  0.753745  0.863641  1
  O  O8  1  0.890105  0.344294  0.136359  1
  O  O9  1  0.503745  0.140105  0.045811  1
  O  O10  1  0.655706  0.792065  0.545811  1
  O  O11  1  0.542065  0.496255  0.636359  1
  O  O12  1  0.246255  0.109895  0.454189  1
  O  O13  1  0.859895  0.905706  0.363641  1
