# generated using pymatgen
data_SbAsO3
_symmetry_space_group_name_H-M   'P 1'
_cell_length_a   4.65862579
_cell_length_b   13.65246334
_cell_length_c   6.96863717
_cell_angle_alpha   90.00000000
_cell_angle_beta   126.07897057
_cell_angle_gamma   90.00000000
_symmetry_Int_Tables_number   1
_chemical_formula_structural   SbAsO3
_chemical_formula_sum   'Sb4 As4 O12'
_cell_volume   358.21091384
_cell_formula_units_Z   4
loop_
 _symmetry_equiv_pos_site_id
 _symmetry_equiv_pos_as_xyz
  1  'x, y, z'
loop_
 _atom_site_type_symbol
 _atom_site_label
 _atom_site_symmetry_multiplicity
 _atom_site_fract_x
 _atom_site_fract_y
 _atom_site_fract_z
 _atom_site_occupancy
  Sb  Sb0  1  0.664883  0.351957  0.661811  1
  Sb  Sb1  1  0.335117  0.851957  0.838189  1
  Sb  Sb2  1  0.335117  0.648043  0.338189  1
  Sb  Sb3  1  0.664883  0.148043  0.161811  1
  As  As4  1  0.782168  0.099180  0.746049  1
  As  As5  1  0.217832  0.599180  0.753951  1
  As  As6  1  0.217832  0.900820  0.253951  1
  As  As7  1  0.782168  0.400820  0.246049  1
  O  O8  1  0.148336  0.358556  0.541087  1
  O  O9  1  0.851664  0.858556  0.958913  1
  O  O10  1  0.851664  0.641444  0.458913  1
  O  O11  1  0.148336  0.141444  0.041087  1
  O  O12  1  0.485096  0.098687  0.834020  1
  O  O13  1  0.514904  0.598687  0.665980  1
  O  O14  1  0.514904  0.901313  0.165980  1
  O  O15  1  0.485096  0.401313  0.334020  1
  O  O16  1  0.639984  0.210538  0.570563  1
  O  O17  1  0.360016  0.710538  0.929437  1
  O  O18  1  0.360016  0.789462  0.429437  1
  O  O19  1  0.639984  0.289462  0.070563  1
