# generated using pymatgen
data_SrH2
_symmetry_space_group_name_H-M   'P 1'
_cell_length_a   4.11217805
_cell_length_b   4.11217805
_cell_length_c   5.74676379
_cell_angle_alpha   90.00000000
_cell_angle_beta   90.00000000
_cell_angle_gamma   120.00000000
_symmetry_Int_Tables_number   1
_chemical_formula_structural   SrH2
_chemical_formula_sum   'Sr2 H4'
_cell_volume   84.15846391
_cell_formula_units_Z   2
loop_
 _symmetry_equiv_pos_site_id
 _symmetry_equiv_pos_as_xyz
  1  'x, y, z'
loop_
 _atom_site_type_symbol
 _atom_site_label
 _atom_site_symmetry_multiplicity
 _atom_site_fract_x
 _atom_site_fract_y
 _atom_site_fract_z
 _atom_site_occupancy
  Sr  Sr0  1  0.333333  0.666667  0.250000  1
  Sr  Sr1  1  0.666667  0.333333  0.750000  1
  H  H2  1  0.666667  0.333333  0.250000  1
  H  H3  1  0.333333  0.666667  0.750000  1
  H  H4  1  0.000000  0.000000  0.500000  1
  H  H5  1  0.000000  0.000000  0.000000  1
