# generated using pymatgen
data_Hg3(ClO)2
_symmetry_space_group_name_H-M   'P 1'
_cell_length_a   6.48583804
_cell_length_b   7.10408480
_cell_length_c   6.95787141
_cell_angle_alpha   90.00000000
_cell_angle_beta   113.74850912
_cell_angle_gamma   90.00000000
_symmetry_Int_Tables_number   1
_chemical_formula_structural   Hg3(ClO)2
_chemical_formula_sum   'Hg6 Cl4 O4'
_cell_volume   293.44351471
_cell_formula_units_Z   2
loop_
 _symmetry_equiv_pos_site_id
 _symmetry_equiv_pos_as_xyz
  1  'x, y, z'
loop_
 _atom_site_type_symbol
 _atom_site_label
 _atom_site_symmetry_multiplicity
 _atom_site_fract_x
 _atom_site_fract_y
 _atom_site_fract_z
 _atom_site_occupancy
  Hg  Hg0  1  0.423243  0.864013  0.761363  1
  Hg  Hg1  1  0.576757  0.364013  0.738637  1
  Hg  Hg2  1  0.576757  0.135987  0.238637  1
  Hg  Hg3  1  0.423243  0.635987  0.261363  1
  Hg  Hg4  1  0.000000  0.500000  0.500000  1
  Hg  Hg5  1  0.000000  0.000000  0.000000  1
  Cl  Cl6  1  0.779513  0.625865  0.039186  1
  Cl  Cl7  1  0.220487  0.125865  0.460814  1
  Cl  Cl8  1  0.779513  0.874135  0.539186  1
  Cl  Cl9  1  0.220487  0.374135  0.960814  1
  O  O10  1  0.324964  0.603912  0.560429  1
  O  O11  1  0.675036  0.103912  0.939571  1
  O  O12  1  0.675036  0.396088  0.439571  1
  O  O13  1  0.324964  0.896088  0.060429  1
