# generated using pymatgen
data_BH3NF3
_symmetry_space_group_name_H-M   'P 1'
_cell_length_a   8.00041076
_cell_length_b   8.11172576
_cell_length_c   9.41484569
_cell_angle_alpha   90.00000000
_cell_angle_beta   90.00000000
_cell_angle_gamma   90.00000000
_symmetry_Int_Tables_number   1
_chemical_formula_structural   BH3NF3
_chemical_formula_sum   'B8 H24 N8 F24'
_cell_volume   610.99654049
_cell_formula_units_Z   8
loop_
 _symmetry_equiv_pos_site_id
 _symmetry_equiv_pos_as_xyz
  1  'x, y, z'
loop_
 _atom_site_type_symbol
 _atom_site_label
 _atom_site_symmetry_multiplicity
 _atom_site_fract_x
 _atom_site_fract_y
 _atom_site_fract_z
 _atom_site_occupancy
  B  B0  1  0.896425  0.161327  0.330751  1
  B  B1  1  0.396425  0.838673  0.169249  1
  B  B2  1  0.603575  0.661327  0.669249  1
  B  B3  1  0.103575  0.338673  0.830751  1
  B  B4  1  0.103575  0.838673  0.669249  1
  B  B5  1  0.603575  0.161327  0.830751  1
  B  B6  1  0.396425  0.338673  0.330751  1
  B  B7  1  0.896425  0.661327  0.169249  1
  H  H8  1  0.794089  0.025694  0.511885  1
  H  H9  1  0.294089  0.974306  0.988115  1
  H  H10  1  0.705911  0.525694  0.488115  1
  H  H11  1  0.205911  0.474306  0.011885  1
  H  H12  1  0.205911  0.974306  0.488115  1
  H  H13  1  0.705911  0.025694  0.011885  1
  H  H14  1  0.294089  0.474306  0.511885  1
  H  H15  1  0.794089  0.525694  0.988115  1
  H  H16  1  0.753364  0.935592  0.358020  1
  H  H17  1  0.253364  0.064408  0.141980  1
  H  H18  1  0.746636  0.435592  0.641980  1
  H  H19  1  0.246636  0.564408  0.858020  1
  H  H20  1  0.246636  0.064408  0.641980  1
  H  H21  1  0.746636  0.935592  0.858020  1
  H  H22  1  0.253364  0.564408  0.358020  1
  H  H23  1  0.753364  0.435592  0.141980  1
  H  H24  1  0.644545  0.099809  0.407717  1
  H  H25  1  0.144545  0.900191  0.092283  1
  H  H26  1  0.855455  0.599809  0.592283  1
  H  H27  1  0.355455  0.400191  0.907717  1
  H  H28  1  0.355455  0.900191  0.592283  1
  H  H29  1  0.855455  0.099809  0.907717  1
  H  H30  1  0.144545  0.400191  0.407717  1
  H  H31  1  0.644545  0.599809  0.092283  1
  N  N32  1  0.762419  0.048290  0.407783  1
  N  N33  1  0.262419  0.951710  0.092217  1
  N  N34  1  0.737581  0.548290  0.592217  1
  N  N35  1  0.237581  0.451710  0.907783  1
  N  N36  1  0.237581  0.951710  0.592217  1
  N  N37  1  0.737581  0.048290  0.907783  1
  N  N38  1  0.262419  0.451710  0.407783  1
  N  N39  1  0.762419  0.548290  0.092217  1
  F  F40  1  0.048939  0.073952  0.326542  1
  F  F41  1  0.548939  0.926048  0.173458  1
  F  F42  1  0.451061  0.573952  0.673458  1
  F  F43  1  0.951061  0.426048  0.826542  1
  F  F44  1  0.951061  0.926048  0.673458  1
  F  F45  1  0.451061  0.073952  0.826542  1
  F  F46  1  0.548939  0.426048  0.326542  1
  F  F47  1  0.048939  0.573952  0.173458  1
  F  F48  1  0.838725  0.197350  0.192924  1
  F  F49  1  0.338725  0.802650  0.307076  1
  F  F50  1  0.661275  0.697350  0.807076  1
  F  F51  1  0.161275  0.302650  0.692924  1
  F  F52  1  0.161275  0.802650  0.807076  1
  F  F53  1  0.661275  0.197350  0.692924  1
  F  F54  1  0.338725  0.302650  0.192924  1
  F  F55  1  0.838725  0.697350  0.307076  1
  F  F56  1  0.917133  0.308080  0.409787  1
  F  F57  1  0.417133  0.691920  0.090213  1
  F  F58  1  0.582867  0.808080  0.590213  1
  F  F59  1  0.082867  0.191920  0.909787  1
  F  F60  1  0.082867  0.691920  0.590213  1
  F  F61  1  0.582867  0.308080  0.909787  1
  F  F62  1  0.417133  0.191920  0.409787  1
  F  F63  1  0.917133  0.808080  0.090213  1
