# generated using pymatgen
data_YbCl2
_symmetry_space_group_name_H-M   'P 1'
_cell_length_a   6.63542191
_cell_length_b   6.85063816
_cell_length_c   13.04745305
_cell_angle_alpha   90.00000000
_cell_angle_beta   90.00000000
_cell_angle_gamma   90.00000000
_symmetry_Int_Tables_number   1
_chemical_formula_structural   YbCl2
_chemical_formula_sum   'Yb8 Cl16'
_cell_volume   593.09643642
_cell_formula_units_Z   8
loop_
 _symmetry_equiv_pos_site_id
 _symmetry_equiv_pos_as_xyz
  1  'x, y, z'
loop_
 _atom_site_type_symbol
 _atom_site_label
 _atom_site_symmetry_multiplicity
 _atom_site_fract_x
 _atom_site_fract_y
 _atom_site_fract_z
 _atom_site_occupancy
  Yb  Yb0  1  0.732334  0.044630  0.387677  1
  Yb  Yb1  1  0.232334  0.955370  0.112323  1
  Yb  Yb2  1  0.767666  0.544630  0.612323  1
  Yb  Yb3  1  0.267666  0.455370  0.887677  1
  Yb  Yb4  1  0.267666  0.955370  0.612323  1
  Yb  Yb5  1  0.767666  0.044630  0.887677  1
  Yb  Yb6  1  0.232334  0.455370  0.387677  1
  Yb  Yb7  1  0.732334  0.544630  0.112323  1
  Cl  Cl8  1  0.999879  0.237816  0.527650  1
  Cl  Cl9  1  0.499879  0.762184  0.972350  1
  Cl  Cl10  1  0.500121  0.737816  0.472350  1
  Cl  Cl11  1  0.000121  0.262184  0.027650  1
  Cl  Cl12  1  0.000121  0.762184  0.472350  1
  Cl  Cl13  1  0.500121  0.237816  0.027650  1
  Cl  Cl14  1  0.499879  0.262184  0.527650  1
  Cl  Cl15  1  0.999879  0.737816  0.972350  1
  Cl  Cl16  1  0.862841  0.879042  0.208578  1
  Cl  Cl17  1  0.362841  0.120958  0.291422  1
  Cl  Cl18  1  0.637159  0.379042  0.791422  1
  Cl  Cl19  1  0.137159  0.620958  0.708578  1
  Cl  Cl20  1  0.137159  0.120958  0.791422  1
  Cl  Cl21  1  0.637159  0.879042  0.708578  1
  Cl  Cl22  1  0.362841  0.620958  0.208578  1
  Cl  Cl23  1  0.862841  0.379042  0.291422  1
