# generated using pymatgen
data_PH8N2O3F
_symmetry_space_group_name_H-M   'P 1'
_cell_length_a   6.07916654
_cell_length_b   8.05625285
_cell_length_c   11.45135919
_cell_angle_alpha   90.00000000
_cell_angle_beta   90.00000000
_cell_angle_gamma   90.00000000
_symmetry_Int_Tables_number   1
_chemical_formula_structural   PH8N2O3F
_chemical_formula_sum   'P4 H32 N8 O12 F4'
_cell_volume   560.83378338
_cell_formula_units_Z   4
loop_
 _symmetry_equiv_pos_site_id
 _symmetry_equiv_pos_as_xyz
  1  'x, y, z'
loop_
 _atom_site_type_symbol
 _atom_site_label
 _atom_site_symmetry_multiplicity
 _atom_site_fract_x
 _atom_site_fract_y
 _atom_site_fract_z
 _atom_site_occupancy
  P  P0  1  0.246682  0.804433  0.127470  1
  P  P1  1  0.746682  0.195567  0.872530  1
  P  P2  1  0.746682  0.695567  0.627470  1
  P  P3  1  0.246682  0.304433  0.372530  1
  H  H4  1  0.112042  0.397128  0.715151  1
  H  H5  1  0.612042  0.602872  0.284849  1
  H  H6  1  0.612042  0.102872  0.215151  1
  H  H7  1  0.112042  0.897128  0.784849  1
  H  H8  1  0.285903  0.335832  0.608942  1
  H  H9  1  0.785903  0.664168  0.391058  1
  H  H10  1  0.785903  0.164168  0.108942  1
  H  H11  1  0.285903  0.835832  0.891058  1
  H  H12  1  0.331638  0.522226  0.675398  1
  H  H13  1  0.831638  0.477774  0.324602  1
  H  H14  1  0.831638  0.977774  0.175398  1
  H  H15  1  0.331638  0.022226  0.824602  1
  H  H16  1  0.370402  0.339397  0.750049  1
  H  H17  1  0.870402  0.660603  0.249951  1
  H  H18  1  0.282762  0.488965  0.029464  1
  H  H19  1  0.870402  0.160603  0.250049  1
  H  H20  1  0.308610  0.326053  0.124175  1
  H  H21  1  0.808610  0.673947  0.875825  1
  H  H22  1  0.808610  0.173947  0.624175  1
  H  H23  1  0.308610  0.826053  0.375825  1
  H  H24  1  0.363872  0.300104  0.976845  1
  H  H25  1  0.863872  0.699896  0.023155  1
  H  H26  1  0.863872  0.199896  0.476845  1
  H  H27  1  0.363872  0.800104  0.523155  1
  H  H28  1  0.101462  0.327670  0.020685  1
  H  H29  1  0.601462  0.672330  0.979315  1
  H  H30  1  0.601462  0.172330  0.520685  1
  H  H31  1  0.101462  0.827670  0.479315  1
  H  H32  1  0.282762  0.988965  0.470536  1
  H  H33  1  0.782762  0.011035  0.529464  1
  H  H34  1  0.782762  0.511035  0.970536  1
  H  H35  1  0.370402  0.839397  0.749951  1
  N  N36  1  0.764721  0.139544  0.538473  1
  N  N37  1  0.764721  0.639544  0.961527  1
  N  N38  1  0.264721  0.360456  0.038473  1
  N  N39  1  0.273678  0.901804  0.812340  1
  N  N40  1  0.773678  0.098196  0.187660  1
  N  N41  1  0.773678  0.598196  0.312340  1
  N  N42  1  0.273678  0.401804  0.687660  1
  N  N43  1  0.264721  0.860456  0.461527  1
  O  O44  1  0.821785  0.289651  0.982630  1
  O  O45  1  0.321785  0.210349  0.482630  1
  O  O46  1  0.821785  0.789651  0.517370  1
  O  O47  1  0.321785  0.710349  0.017370  1
  O  O48  1  0.998574  0.784925  0.149244  1
  O  O49  1  0.498574  0.215075  0.850756  1
  O  O50  1  0.893341  0.715113  0.733143  1
  O  O51  1  0.498574  0.715075  0.649244  1
  O  O52  1  0.998574  0.284925  0.350756  1
  O  O53  1  0.893341  0.215113  0.766857  1
  O  O54  1  0.393341  0.784887  0.233143  1
  O  O55  1  0.393341  0.284887  0.266857  1
  F  F56  1  0.269228  0.497761  0.411589  1
  F  F57  1  0.769228  0.002239  0.911589  1
  F  F58  1  0.269228  0.997761  0.088411  1
  F  F59  1  0.769228  0.502239  0.588411  1
