# generated using pymatgen
data_Rb3B12H12Cl
_symmetry_space_group_name_H-M   'P 1'
_cell_length_a   7.05809954
_cell_length_b   7.05809954
_cell_length_c   7.05809954
_cell_angle_alpha   92.84620131
_cell_angle_beta   92.84620131
_cell_angle_gamma   92.84620131
_symmetry_Int_Tables_number   1
_chemical_formula_structural   Rb3B12H12Cl
_chemical_formula_sum   'Rb3 B12 H12 Cl1'
_cell_volume   350.26567165
_cell_formula_units_Z   1
loop_
 _symmetry_equiv_pos_site_id
 _symmetry_equiv_pos_as_xyz
  1  'x, y, z'
loop_
 _atom_site_type_symbol
 _atom_site_label
 _atom_site_symmetry_multiplicity
 _atom_site_fract_x
 _atom_site_fract_y
 _atom_site_fract_z
 _atom_site_occupancy
  Rb  Rb0  1  0.500000  0.000000  0.500000  1
  Rb  Rb1  1  0.500000  0.500000  0.000000  1
  Rb  Rb2  1  0.000000  0.500000  0.500000  1
  B  B3  1  0.121327  0.121327  0.839926  1
  B  B4  1  0.878673  0.878673  0.160074  1
  B  B5  1  0.878673  0.160074  0.878673  1
  B  B6  1  0.160074  0.878673  0.878673  1
  B  B7  1  0.231551  0.057973  0.057973  1
  B  B8  1  0.057973  0.231551  0.057973  1
  B  B9  1  0.057973  0.057973  0.231551  1
  B  B10  1  0.942027  0.942027  0.768449  1
  B  B11  1  0.768449  0.942027  0.942027  1
  B  B12  1  0.942027  0.768449  0.942027  1
  B  B13  1  0.839926  0.121327  0.121327  1
  B  B14  1  0.121327  0.839926  0.121327  1
  H  H15  1  0.272273  0.790954  0.790954  1
  H  H16  1  0.790954  0.272273  0.790954  1
  H  H17  1  0.790954  0.790954  0.272273  1
  H  H18  1  0.209046  0.209046  0.727727  1
  H  H19  1  0.604138  0.900676  0.900676  1
  H  H20  1  0.900676  0.604138  0.900676  1
  H  H21  1  0.900676  0.900676  0.604138  1
  H  H22  1  0.099324  0.099324  0.395862  1
  H  H23  1  0.395862  0.099324  0.099324  1
  H  H24  1  0.099324  0.395862  0.099324  1
  H  H25  1  0.727727  0.209046  0.209046  1
  H  H26  1  0.209046  0.727727  0.209046  1
  Cl  Cl27  1  0.500000  0.500000  0.500000  1
