# generated using pymatgen
data_K2NiH8(CO5)2
_symmetry_space_group_name_H-M   'P 1'
_cell_length_a   6.89276821
_cell_length_b   6.28550582
_cell_length_c   12.30215394
_cell_angle_alpha   90.00000000
_cell_angle_beta   114.33560679
_cell_angle_gamma   90.00000000
_symmetry_Int_Tables_number   1
_chemical_formula_structural   K2NiH8(CO5)2
_chemical_formula_sum   'K4 Ni2 H16 C4 O20'
_cell_volume   485.62796379
_cell_formula_units_Z   2
loop_
 _symmetry_equiv_pos_site_id
 _symmetry_equiv_pos_as_xyz
  1  'x, y, z'
loop_
 _atom_site_type_symbol
 _atom_site_label
 _atom_site_symmetry_multiplicity
 _atom_site_fract_x
 _atom_site_fract_y
 _atom_site_fract_z
 _atom_site_occupancy
  K  K0  1  0.235706  0.844717  0.317495  1
  K  K1  1  0.764294  0.344717  0.182505  1
  K  K2  1  0.235706  0.655283  0.817495  1
  K  K3  1  0.764294  0.155283  0.682505  1
  Ni  Ni4  1  0.000000  0.500000  0.500000  1
  Ni  Ni5  1  0.000000  0.000000  0.000000  1
  H  H6  1  0.296492  0.674768  0.076803  1
  H  H7  1  0.703508  0.174768  0.423197  1
  H  H8  1  0.703508  0.325232  0.923197  1
  H  H9  1  0.296492  0.825232  0.576803  1
  H  H10  1  0.426951  0.889450  0.109872  1
  H  H11  1  0.573049  0.389450  0.390128  1
  H  H12  1  0.805505  0.659306  0.632653  1
  H  H13  1  0.194495  0.159306  0.867347  1
  H  H14  1  0.194495  0.340694  0.367347  1
  H  H15  1  0.426951  0.610550  0.609872  1
  H  H16  1  0.205141  0.300484  0.982880  1
  H  H17  1  0.794859  0.800484  0.517120  1
  H  H18  1  0.794859  0.699516  0.017120  1
  H  H19  1  0.205141  0.199516  0.482880  1
  H  H20  1  0.573049  0.110550  0.890128  1
  H  H21  1  0.805505  0.840694  0.132653  1
  C  C22  1  0.744343  0.657423  0.818998  1
  C  C23  1  0.744343  0.842577  0.318998  1
  C  C24  1  0.255657  0.342577  0.181002  1
  C  C25  1  0.255657  0.157423  0.681002  1
  O  O26  1  0.708726  0.172822  0.949323  1
  O  O27  1  0.672404  0.585304  0.894998  1
  O  O28  1  0.893614  0.719375  0.591390  1
  O  O29  1  0.106386  0.219375  0.908610  1
  O  O30  1  0.106386  0.280625  0.408610  1
  O  O31  1  0.893614  0.780625  0.091390  1
  O  O32  1  0.291274  0.672822  0.550677  1
  O  O33  1  0.327596  0.085304  0.605002  1
  O  O34  1  0.708726  0.327178  0.449323  1
  O  O35  1  0.291274  0.827178  0.050677  1
  O  O36  1  0.876313  0.816205  0.846253  1
  O  O37  1  0.123687  0.316205  0.653747  1
  O  O38  1  0.123687  0.183795  0.153747  1
  O  O39  1  0.876313  0.683795  0.346253  1
  O  O40  1  0.316232  0.068535  0.785223  1
  O  O41  1  0.316232  0.431465  0.285223  1
  O  O42  1  0.672404  0.914696  0.394998  1
  O  O43  1  0.683768  0.568535  0.714777  1
  O  O44  1  0.327596  0.414696  0.105002  1
  O  O45  1  0.683768  0.931465  0.214777  1
