# generated using pymatgen
data_K2BeO2
_symmetry_space_group_name_H-M   'P 1'
_cell_length_a   7.13114181
_cell_length_b   5.82623107
_cell_length_c   10.70361447
_cell_angle_alpha   90.00000000
_cell_angle_beta   131.42931478
_cell_angle_gamma   90.00000000
_symmetry_Int_Tables_number   1
_chemical_formula_structural   K2BeO2
_chemical_formula_sum   'K8 Be4 O8'
_cell_volume   333.43164248
_cell_formula_units_Z   4
loop_
 _symmetry_equiv_pos_site_id
 _symmetry_equiv_pos_as_xyz
  1  'x, y, z'
loop_
 _atom_site_type_symbol
 _atom_site_label
 _atom_site_symmetry_multiplicity
 _atom_site_fract_x
 _atom_site_fract_y
 _atom_site_fract_z
 _atom_site_occupancy
  K  K0  1  0.744957  0.656356  0.886295  1
  K  K1  1  0.255043  0.156356  0.613705  1
  K  K2  1  0.255043  0.343644  0.113705  1
  K  K3  1  0.744957  0.843644  0.386295  1
  K  K4  1  0.157096  0.561518  0.756189  1
  K  K5  1  0.842904  0.061518  0.743811  1
  K  K6  1  0.842904  0.438482  0.243811  1
  K  K7  1  0.157096  0.938482  0.256189  1
  Be  Be8  1  0.600824  0.085100  0.976297  1
  Be  Be9  1  0.600824  0.414900  0.476297  1
  Be  Be10  1  0.399176  0.914900  0.023703  1
  Be  Be11  1  0.399176  0.585100  0.523703  1
  O  O12  1  0.250437  0.794465  0.057255  1
  O  O13  1  0.671575  0.638069  0.588929  1
  O  O14  1  0.328425  0.361931  0.411071  1
  O  O15  1  0.671575  0.861931  0.088929  1
  O  O16  1  0.749563  0.294465  0.442745  1
  O  O17  1  0.749563  0.205535  0.942745  1
  O  O18  1  0.250437  0.705535  0.557255  1
  O  O19  1  0.328425  0.138069  0.911071  1
