# generated using pymatgen
data_Rb2PbO3
_symmetry_space_group_name_H-M   'P 1'
_cell_length_a   6.15375705
_cell_length_b   7.53616413
_cell_length_c   11.08534357
_cell_angle_alpha   90.00000000
_cell_angle_beta   90.00000000
_cell_angle_gamma   90.00000000
_symmetry_Int_Tables_number   1
_chemical_formula_structural   Rb2PbO3
_chemical_formula_sum   'Rb8 Pb4 O12'
_cell_volume   514.09082437
_cell_formula_units_Z   4
loop_
 _symmetry_equiv_pos_site_id
 _symmetry_equiv_pos_as_xyz
  1  'x, y, z'
loop_
 _atom_site_type_symbol
 _atom_site_label
 _atom_site_symmetry_multiplicity
 _atom_site_fract_x
 _atom_site_fract_y
 _atom_site_fract_z
 _atom_site_occupancy
  Rb  Rb0  1  0.764063  0.391851  0.087450  1
  Rb  Rb1  1  0.735937  0.891851  0.912550  1
  Rb  Rb2  1  0.264063  0.108149  0.087450  1
  Rb  Rb3  1  0.264063  0.108149  0.412550  1
  Rb  Rb4  1  0.235937  0.608149  0.587450  1
  Rb  Rb5  1  0.735937  0.891851  0.587450  1
  Rb  Rb6  1  0.235937  0.608149  0.912550  1
  Rb  Rb7  1  0.764063  0.391851  0.412550  1
  Pb  Pb8  1  0.262130  0.157707  0.750000  1
  Pb  Pb9  1  0.737870  0.842293  0.250000  1
  Pb  Pb10  1  0.762130  0.342293  0.750000  1
  Pb  Pb11  1  0.237870  0.657707  0.250000  1
  O  O12  1  0.004453  0.231837  0.619809  1
  O  O13  1  0.176433  0.389162  0.250000  1
  O  O14  1  0.495547  0.731837  0.119809  1
  O  O15  1  0.995547  0.768163  0.119809  1
  O  O16  1  0.004453  0.231837  0.880191  1
  O  O17  1  0.823567  0.610838  0.750000  1
  O  O18  1  0.495547  0.731837  0.380191  1
  O  O19  1  0.323567  0.889162  0.750000  1
  O  O20  1  0.676433  0.110838  0.250000  1
  O  O21  1  0.504453  0.268163  0.619809  1
  O  O22  1  0.504453  0.268163  0.880191  1
  O  O23  1  0.995547  0.768163  0.380191  1
