# generated using pymatgen
data_Rb6Si10O23
_symmetry_space_group_name_H-M   'P 1'
_cell_length_a   9.54380435
_cell_length_b   9.54380435
_cell_length_c   8.19073700
_cell_angle_alpha   90.00000000
_cell_angle_beta   90.00000000
_cell_angle_gamma   120.47731682
_symmetry_Int_Tables_number   1
_chemical_formula_structural   Rb6Si10O23
_chemical_formula_sum   'Rb6 Si10 O23'
_cell_volume   642.96547983
_cell_formula_units_Z   1
loop_
 _symmetry_equiv_pos_site_id
 _symmetry_equiv_pos_as_xyz
  1  'x, y, z'
loop_
 _atom_site_type_symbol
 _atom_site_label
 _atom_site_symmetry_multiplicity
 _atom_site_fract_x
 _atom_site_fract_y
 _atom_site_fract_z
 _atom_site_occupancy
  Rb  Rb0  1  0.228275  0.989736  0.500000  1
  Rb  Rb1  1  0.989736  0.228275  0.500000  1
  Rb  Rb2  1  0.241589  0.999614  1.000000  1
  Rb  Rb3  1  0.999614  0.241589  0.000000  1
  Rb  Rb4  1  0.749679  0.749679  0.500000  1
  Rb  Rb5  1  0.755903  0.755903  0.000000  1
  Si  Si6  1  0.310893  0.654760  0.688600  1
  Si  Si7  1  0.654760  0.310893  0.311400  1
  Si  Si8  1  0.310893  0.654760  0.311400  1
  Si  Si9  1  0.654760  0.310893  0.688600  1
  Si  Si10  1  0.589631  0.980594  0.809192  1
  Si  Si11  1  0.980594  0.589631  0.190808  1
  Si  Si12  1  0.589631  0.980594  0.190808  1
  Si  Si13  1  0.980594  0.589631  0.809192  1
  Si  Si14  1  0.398412  0.398412  0.198530  1
  Si  Si15  1  0.398412  0.398412  0.801470  1
  O  O16  1  0.579810  0.150628  0.804827  1
  O  O17  1  0.150628  0.579810  0.195173  1
  O  O18  1  0.579810  0.150628  0.195173  1
  O  O19  1  0.150628  0.579810  0.804827  1
  O  O20  1  0.423408  0.851710  0.703655  1
  O  O21  1  0.851710  0.423408  0.296345  1
  O  O22  1  0.423408  0.851710  0.296345  1
  O  O23  1  0.851710  0.423408  0.703655  1
  O  O24  1  0.755840  0.998339  0.750082  1
  O  O25  1  0.998339  0.755840  0.249918  1
  O  O26  1  0.755840  0.998339  0.249918  1
  O  O27  1  0.998339  0.755840  0.750082  1
  O  O28  1  0.419991  0.573118  0.732581  1
  O  O29  1  0.573118  0.419991  0.267419  1
  O  O30  1  0.419991  0.573118  0.267419  1
  O  O31  1  0.573118  0.419991  0.732581  1
  O  O32  1  0.427621  0.427621  0.000000  1
  O  O33  1  0.915730  0.539635  0.000000  1
  O  O34  1  0.539635  0.915730  1.000000  1
  O  O35  1  0.610431  0.244808  0.500000  1
  O  O36  1  0.244808  0.610431  0.500000  1
  O  O37  1  0.236956  0.236956  0.751736  1
  O  O38  1  0.236956  0.236956  0.248264  1
