# generated using pymatgen
data_Sr(YS2)2
_symmetry_space_group_name_H-M   'P 1'
_cell_length_a   4.00376418
_cell_length_b   12.06357584
_cell_length_c   14.40180683
_cell_angle_alpha   90.00000000
_cell_angle_beta   90.00000000
_cell_angle_gamma   90.00000000
_symmetry_Int_Tables_number   1
_chemical_formula_structural   Sr(YS2)2
_chemical_formula_sum   'Sr4 Y8 S16'
_cell_volume   695.60313414
_cell_formula_units_Z   4
loop_
 _symmetry_equiv_pos_site_id
 _symmetry_equiv_pos_as_xyz
  1  'x, y, z'
loop_
 _atom_site_type_symbol
 _atom_site_label
 _atom_site_symmetry_multiplicity
 _atom_site_fract_x
 _atom_site_fract_y
 _atom_site_fract_z
 _atom_site_occupancy
  Sr  Sr0  1  0.250000  0.757929  0.661907  1
  Sr  Sr1  1  0.750000  0.242071  0.338093  1
  Sr  Sr2  1  0.250000  0.257929  0.838093  1
  Sr  Sr3  1  0.750000  0.742071  0.161907  1
  Y  Y4  1  0.250000  0.432233  0.610142  1
  Y  Y5  1  0.750000  0.567767  0.389858  1
  Y  Y6  1  0.250000  0.932233  0.889858  1
  Y  Y7  1  0.750000  0.067767  0.110142  1
  Y  Y8  1  0.250000  0.919380  0.399187  1
  Y  Y9  1  0.750000  0.080620  0.600813  1
  Y  Y10  1  0.250000  0.419380  0.100813  1
  Y  Y11  1  0.750000  0.580620  0.899187  1
  S  S12  1  0.250000  0.630187  0.026883  1
  S  S13  1  0.750000  0.369813  0.973117  1
  S  S14  1  0.250000  0.130187  0.473117  1
  S  S15  1  0.750000  0.869813  0.526883  1
  S  S16  1  0.750000  0.292609  0.674696  1
  S  S17  1  0.250000  0.707391  0.325304  1
  S  S18  1  0.750000  0.792609  0.825304  1
  S  S19  1  0.250000  0.207391  0.174696  1
  S  S20  1  0.750000  0.585866  0.578495  1
  S  S21  1  0.250000  0.414134  0.421505  1
  S  S22  1  0.750000  0.085866  0.921505  1
  S  S23  1  0.250000  0.914134  0.078495  1
  S  S24  1  0.750000  0.977654  0.284148  1
  S  S25  1  0.250000  0.022346  0.715852  1
  S  S26  1  0.750000  0.477654  0.215852  1
  S  S27  1  0.250000  0.522346  0.784148  1
