# generated using pymatgen
data_Fe7P6(HO6)4
_symmetry_space_group_name_H-M   'P 1'
_cell_length_a   6.67537445
_cell_length_b   8.10758901
_cell_length_c   9.58312752
_cell_angle_alpha   103.41336162
_cell_angle_beta   108.96054235
_cell_angle_gamma   101.62690960
_symmetry_Int_Tables_number   1
_chemical_formula_structural   Fe7P6(HO6)4
_chemical_formula_sum   'Fe7 P6 H4 O24'
_cell_volume   455.00096484
_cell_formula_units_Z   1
loop_
 _symmetry_equiv_pos_site_id
 _symmetry_equiv_pos_as_xyz
  1  'x, y, z'
loop_
 _atom_site_type_symbol
 _atom_site_label
 _atom_site_symmetry_multiplicity
 _atom_site_fract_x
 _atom_site_fract_y
 _atom_site_fract_z
 _atom_site_occupancy
  Fe  Fe0  1  0.055778  0.709675  0.516370  1
  Fe  Fe1  1  0.944222  0.290325  0.483630  1
  Fe  Fe2  1  0.268592  0.803916  0.280489  1
  Fe  Fe3  1  0.731408  0.196084  0.719511  1
  Fe  Fe4  1  0.613539  0.546022  0.886779  1
  Fe  Fe5  1  0.386461  0.453978  0.113221  1
  Fe  Fe6  1  0.000000  0.000000  0.000000  1
  P  P7  1  0.593204  0.779199  0.633183  1
  P  P8  1  0.406796  0.220801  0.366817  1
  P  P9  1  0.912199  0.415164  0.170980  1
  P  P10  1  0.087801  0.584836  0.829020  1
  P  P11  1  0.777881  0.854345  0.226453  1
  P  P12  1  0.222119  0.145655  0.773547  1
  H  H13  1  0.660824  0.734203  0.420715  1
  H  H14  1  0.177604  0.879354  0.805411  1
  H  H15  1  0.822396  0.120646  0.194589  1
  H  H16  1  0.339176  0.265797  0.579285  1
  O  O17  1  0.740520  0.738759  0.531700  1
  O  O18  1  0.259480  0.261241  0.468300  1
  O  O19  1  0.550071  0.632654  0.701046  1
  O  O20  1  0.449929  0.367346  0.298954  1
  O  O21  1  0.382293  0.792035  0.511459  1
  O  O22  1  0.617707  0.207965  0.488541  1
  O  O23  1  0.880289  0.462873  0.834879  1
  O  O24  1  0.119711  0.537127  0.165121  1
  O  O25  1  0.897902  0.215685  0.104078  1
  O  O26  1  0.014421  0.169835  0.659490  1
  O  O27  1  0.985579  0.830165  0.340510  1
  O  O28  1  0.225117  0.188008  0.939753  1
  O  O29  1  0.774883  0.811992  0.060247  1
  O  O30  1  0.569040  0.752714  0.245673  1
  O  O31  1  0.430960  0.247286  0.754327  1
  O  O32  1  0.789639  0.059256  0.274998  1
  O  O33  1  0.210361  0.940744  0.725002  1
  O  O34  1  0.273807  0.038728  0.235512  1
  O  O35  1  0.726193  0.961272  0.764488  1
  O  O36  1  0.302571  0.549068  0.922434  1
  O  O37  1  0.697429  0.450932  0.077566  1
  O  O38  1  0.063535  0.545535  0.656421  1
  O  O39  1  0.936465  0.454465  0.343579  1
  O  O40  1  0.102098  0.784315  0.895922  1
