# generated using pymatgen
data_KHCO3
_symmetry_space_group_name_H-M   'P 1'
_cell_length_a   4.41724710
_cell_length_b   5.63077279
_cell_length_c   7.02280355
_cell_angle_alpha   109.73117167
_cell_angle_beta   104.78503113
_cell_angle_gamma   94.50126142
_symmetry_Int_Tables_number   1
_chemical_formula_structural   KHCO3
_chemical_formula_sum   'K2 H2 C2 O6'
_cell_volume   156.35250426
_cell_formula_units_Z   2
loop_
 _symmetry_equiv_pos_site_id
 _symmetry_equiv_pos_as_xyz
  1  'x, y, z'
loop_
 _atom_site_type_symbol
 _atom_site_label
 _atom_site_symmetry_multiplicity
 _atom_site_fract_x
 _atom_site_fract_y
 _atom_site_fract_z
 _atom_site_occupancy
  K  K0  1  0.291630  0.140863  0.304489  1
  K  K1  1  0.708370  0.859137  0.695511  1
  H  H2  1  0.454530  0.297992  0.926275  1
  H  H3  1  0.545470  0.702008  0.073725  1
  C  C4  1  0.099917  0.426908  0.773348  1
  C  C5  1  0.900083  0.573092  0.226652  1
  O  O6  1  0.166228  0.637474  0.366834  1
  O  O7  1  0.833772  0.362526  0.633166  1
  O  O8  1  0.247974  0.230997  0.799747  1
  O  O9  1  0.752026  0.769003  0.200253  1
  O  O10  1  0.241605  0.658679  0.890937  1
  O  O11  1  0.758395  0.341321  0.109063  1
