# generated using pymatgen
data_Zn(H2N)2
_symmetry_space_group_name_H-M   'P 1'
_cell_length_a   12.41091298
_cell_length_b   12.41091298
_cell_length_c   12.41091298
_cell_angle_alpha   131.83676654
_cell_angle_beta   131.83676654
_cell_angle_gamma   70.48695887
_symmetry_Int_Tables_number   1
_chemical_formula_structural   Zn(H2N)2
_chemical_formula_sum   'Zn16 H64 N32'
_cell_volume   1039.77139019
_cell_formula_units_Z   16
loop_
 _symmetry_equiv_pos_site_id
 _symmetry_equiv_pos_as_xyz
  1  'x, y, z'
loop_
 _atom_site_type_symbol
 _atom_site_label
 _atom_site_symmetry_multiplicity
 _atom_site_fract_x
 _atom_site_fract_y
 _atom_site_fract_z
 _atom_site_occupancy
  Zn  Zn0  1  0.182736  0.921667  0.483828  1
  Zn  Zn1  1  0.801091  0.062161  0.483828  1
  Zn  Zn2  1  0.578333  0.317264  0.516172  1
  Zn  Zn3  1  0.067264  0.051091  0.238931  1
  Zn  Zn4  1  0.812161  0.828333  0.761069  1
  Zn  Zn5  1  0.671667  0.687839  0.238931  1
  Zn  Zn6  1  0.448909  0.432736  0.761069  1
  Zn  Zn7  1  0.437839  0.698909  0.516172  1
  Zn  Zn8  1  0.567264  0.328333  0.016172  1
  Zn  Zn9  1  0.948909  0.187839  0.016172  1
  Zn  Zn10  1  0.171667  0.932736  0.983828  1
  Zn  Zn11  1  0.682736  0.198909  0.261069  1
  Zn  Zn12  1  0.937839  0.421667  0.738931  1
  Zn  Zn13  1  0.078333  0.562161  0.261069  1
  Zn  Zn14  1  0.301091  0.817264  0.738931  1
  Zn  Zn15  1  0.312161  0.551091  0.983828  1
  H  H16  1  0.604191  0.242404  0.789334  1
  H  H17  1  0.685142  0.046930  0.789334  1
  H  H18  1  0.257596  0.895809  0.210666  1
  H  H19  1  0.645809  0.935142  0.138212  1
  H  H20  1  0.796930  0.507596  0.861788  1
  H  H21  1  0.992404  0.703070  0.138212  1
  H  H22  1  0.564858  0.854191  0.861788  1
  H  H23  1  0.453070  0.814858  0.210666  1
  H  H24  1  0.145809  0.007596  0.710666  1
  H  H25  1  0.064858  0.203070  0.710666  1
  H  H26  1  0.492404  0.354191  0.289334  1
  H  H27  1  0.104191  0.314858  0.361788  1
  H  H28  1  0.953070  0.742404  0.638212  1
  H  H29  1  0.757596  0.546930  0.361788  1
  H  H30  1  0.185142  0.395809  0.638212  1
  H  H31  1  0.296930  0.435142  0.289334  1
  H  H32  1  0.325448  0.064597  0.336289  1
  H  H33  1  0.510841  0.771691  0.336289  1
  H  H34  1  0.435403  0.174552  0.663711  1
  H  H35  1  0.924552  0.760841  0.239150  1
  H  H36  1  0.521691  0.685403  0.760850  1
  H  H37  1  0.814597  0.978309  0.239150  1
  H  H38  1  0.739159  0.575448  0.760850  1
  H  H39  1  0.728309  0.989159  0.663711  1
  H  H40  1  0.424552  0.185403  0.163711  1
  H  H41  1  0.239159  0.478309  0.163711  1
  H  H42  1  0.314597  0.075448  0.836289  1
  H  H43  1  0.663784  0.157164  0.612419  1
  H  H44  1  0.825448  0.489159  0.260850  1
  H  H45  1  0.935403  0.271691  0.260850  1
  H  H46  1  0.010841  0.674552  0.739150  1
  H  H47  1  0.021691  0.260841  0.836289  1
  H  H48  1  0.210824  0.177361  0.585160  1
  H  H49  1  0.874335  0.907799  0.585160  1
  H  H50  1  0.322639  0.289176  0.414840  1
  H  H51  1  0.039176  0.124335  0.466536  1
  H  H52  1  0.657799  0.572639  0.533464  1
  H  H53  1  0.927361  0.842201  0.466536  1
  H  H54  1  0.375665  0.460824  0.533464  1
  H  H55  1  0.592201  0.625665  0.414840  1
  H  H56  1  0.539176  0.072639  0.914840  1
  H  H57  1  0.875665  0.342201  0.914840  1
  H  H58  1  0.427361  0.960824  0.085160  1
  H  H59  1  0.710824  0.125665  0.033464  1
  H  H60  1  0.092201  0.677361  0.966536  1
  H  H61  1  0.822639  0.407799  0.033464  1
  H  H62  1  0.374335  0.789176  0.966536  1
  H  H63  1  0.157799  0.624335  0.085160  1
  H  H64  1  0.205255  0.198634  0.112419  1
  H  H65  1  0.948634  0.336216  0.493380  1
  H  H66  1  0.842836  0.455255  0.506620  1
  H  H67  1  0.044745  0.657164  0.493380  1
  H  H68  1  0.163784  0.551366  0.506620  1
  H  H69  1  0.407164  0.413784  0.112419  1
  H  H70  1  0.301366  0.294745  0.887581  1
  H  H71  1  0.086216  0.092836  0.887581  1
  H  H72  1  0.544745  0.051366  0.387581  1
  H  H73  1  0.801366  0.913784  0.006620  1
  H  H74  1  0.907164  0.794745  0.993380  1
  H  H75  1  0.705255  0.592836  0.006620  1
  H  H76  1  0.586216  0.698634  0.993380  1
  H  H77  1  0.342836  0.836216  0.387581  1
  H  H78  1  0.448634  0.955255  0.612419  1
  H  H79  1  0.228309  0.564597  0.739150  1
  N  N80  1  0.514048  0.269626  0.784051  1
  N  N81  1  0.770002  0.014425  0.784051  1
  N  N82  1  0.230374  0.985952  0.215949  1
  N  N83  1  0.735952  0.020002  0.255577  1
  N  N84  1  0.764425  0.480374  0.744423  1
  N  N85  1  0.019626  0.735575  0.255577  1
  N  N86  1  0.479998  0.764048  0.744423  1
  N  N87  1  0.485575  0.729998  0.215949  1
  N  N88  1  0.235952  0.980374  0.715949  1
  N  N89  1  0.979998  0.235575  0.715949  1
  N  N90  1  0.519626  0.264048  0.284051  1
  N  N91  1  0.014048  0.229998  0.244423  1
  N  N92  1  0.985575  0.769626  0.755577  1
  N  N93  1  0.730374  0.514425  0.244423  1
  N  N94  1  0.270002  0.485952  0.755577  1
  N  N95  1  0.264425  0.520002  0.284051  1
  N  N96  1  0.125000  0.088333  0.463333  1
  N  N97  1  0.838333  0.875000  0.463333  1
  N  N98  1  0.411667  0.375000  0.536667  1
  N  N99  1  0.625000  0.661667  0.536667  1
  N  N100  1  0.625000  0.161667  0.036667  1
  N  N101  1  0.911667  0.375000  0.036667  1
  N  N102  1  0.338333  0.875000  0.963333  1
  N  N103  1  0.125000  0.588333  0.963333  1
  N  N104  1  0.635363  0.135363  0.500000  1
  N  N105  1  0.885363  0.885363  0.000000  1
  N  N106  1  0.614637  0.614637  0.000000  1
  N  N107  1  0.364637  0.864637  0.500000  1
  N  N108  1  0.114637  0.114637  0.000000  1
  N  N109  1  0.864637  0.364637  0.500000  1
  N  N110  1  0.135363  0.635363  0.500000  1
  N  N111  1  0.385363  0.385363  0.000000  1
