# generated using pymatgen
data_Ba(BrO3)2
_symmetry_space_group_name_H-M   'P 1'
_cell_length_a   9.27613222
_cell_length_b   7.98198701
_cell_length_c   7.41548108
_cell_angle_alpha   73.98753988
_cell_angle_beta   55.80209847
_cell_angle_gamma   50.21036166
_symmetry_Int_Tables_number   1
_chemical_formula_structural   Ba(BrO3)2
_chemical_formula_sum   'Ba2 Br4 O12'
_cell_volume   345.89928173
_cell_formula_units_Z   2
loop_
 _symmetry_equiv_pos_site_id
 _symmetry_equiv_pos_as_xyz
  1  'x, y, z'
loop_
 _atom_site_type_symbol
 _atom_site_label
 _atom_site_symmetry_multiplicity
 _atom_site_fract_x
 _atom_site_fract_y
 _atom_site_fract_z
 _atom_site_occupancy
  Ba  Ba0  1  0.750790  0.249210  0.249210  1
  Ba  Ba1  1  0.000790  0.499210  0.499210  1
  Br  Br2  1  0.405837  0.636740  0.983115  1
  Br  Br3  1  0.974308  0.983115  0.636740  1
  Br  Br4  1  0.266885  0.275692  0.844163  1
  Br  Br5  1  0.613260  0.844163  0.275692  1
  O  O6  1  0.198875  0.906832  0.048271  1
  O  O7  1  0.846023  0.048271  0.906832  1
  O  O8  1  0.201729  0.403977  0.051125  1
  O  O9  1  0.343168  0.051125  0.403977  1
  O  O10  1  0.334231  0.404883  0.625423  1
  O  O11  1  0.635464  0.625423  0.404883  1
  O  O12  1  0.717613  0.897237  0.360891  1
  O  O13  1  0.024259  0.360891  0.897237  1
  O  O14  1  0.889109  0.225741  0.532387  1
  O  O15  1  0.352763  0.532387  0.225741  1
  O  O16  1  0.845117  0.915769  0.614536  1
  O  O17  1  0.624577  0.614536  0.915769  1
