# generated using pymatgen
data_Mn(InS2)2
_symmetry_space_group_name_H-M   'P 1'
_cell_length_a   7.63784123
_cell_length_b   7.63784123
_cell_length_c   7.63784123
_cell_angle_alpha   60.00000000
_cell_angle_beta   60.00000000
_cell_angle_gamma   60.00000000
_symmetry_Int_Tables_number   1
_chemical_formula_structural   Mn(InS2)2
_chemical_formula_sum   'Mn2 In4 S8'
_cell_volume   315.06262044
_cell_formula_units_Z   2
loop_
 _symmetry_equiv_pos_site_id
 _symmetry_equiv_pos_as_xyz
  1  'x, y, z'
loop_
 _atom_site_type_symbol
 _atom_site_label
 _atom_site_symmetry_multiplicity
 _atom_site_fract_x
 _atom_site_fract_y
 _atom_site_fract_z
 _atom_site_occupancy
  Mn  Mn0  1  0.500000  0.500000  0.500000  1
  Mn  Mn1  1  0.750000  0.750000  0.750000  1
  In  In2  1  0.625000  0.125000  0.125000  1
  In  In3  1  0.125000  0.125000  0.625000  1
  In  In4  1  0.125000  0.125000  0.125000  1
  In  In5  1  0.125000  0.625000  0.125000  1
  S  S6  1  0.879933  0.360200  0.879933  1
  S  S7  1  0.370067  0.370067  0.370067  1
  S  S8  1  0.889800  0.370067  0.370067  1
  S  S9  1  0.370067  0.370067  0.889800  1
  S  S10  1  0.360200  0.879933  0.879933  1
  S  S11  1  0.879933  0.879933  0.360200  1
  S  S12  1  0.370067  0.889800  0.370067  1
  S  S13  1  0.879933  0.879933  0.879933  1
