# generated using pymatgen
data_Li2H2SeO5
_symmetry_space_group_name_H-M   'P 1'
_cell_length_a   5.72311132
_cell_length_b   5.07095209
_cell_length_c   8.58615612
_cell_angle_alpha   90.00000000
_cell_angle_beta   107.21896764
_cell_angle_gamma   90.00000000
_symmetry_Int_Tables_number   1
_chemical_formula_structural   Li2H2SeO5
_chemical_formula_sum   'Li4 H4 Se2 O10'
_cell_volume   238.01585695
_cell_formula_units_Z   2
loop_
 _symmetry_equiv_pos_site_id
 _symmetry_equiv_pos_as_xyz
  1  'x, y, z'
loop_
 _atom_site_type_symbol
 _atom_site_label
 _atom_site_symmetry_multiplicity
 _atom_site_fract_x
 _atom_site_fract_y
 _atom_site_fract_z
 _atom_site_occupancy
  Li  Li0  1  0.562143  0.411257  0.896615  1
  Li  Li1  1  0.687550  0.899026  0.504460  1
  Li  Li2  1  0.437857  0.911257  0.103385  1
  Li  Li3  1  0.312450  0.399026  0.495540  1
  H  H4  1  0.996644  0.784368  0.057256  1
  H  H5  1  0.043498  0.026173  0.182253  1
  H  H6  1  0.003356  0.284368  0.942744  1
  H  H7  1  0.956502  0.526173  0.817747  1
  Se  Se8  1  0.284712  0.897253  0.708204  1
  Se  Se9  1  0.715288  0.397253  0.291796  1
  O  O10  1  0.394474  0.768548  0.564199  1
  O  O11  1  0.605526  0.268548  0.435801  1
  O  O12  1  0.907126  0.445534  0.907670  1
  O  O13  1  0.554086  0.277600  0.110004  1
  O  O14  1  0.992626  0.812657  0.674398  1
  O  O15  1  0.007374  0.312657  0.325602  1
  O  O16  1  0.445914  0.777600  0.889996  1
  O  O17  1  0.092874  0.945534  0.092330  1
  O  O18  1  0.322433  0.225425  0.710027  1
  O  O19  1  0.677567  0.725425  0.289973  1
