# generated using pymatgen
data_Dy2GeO5
_symmetry_space_group_name_H-M   'P 1'
_cell_length_a   8.24861055
_cell_length_b   8.24861055
_cell_length_c   10.55627313
_cell_angle_alpha   61.38063492
_cell_angle_beta   118.61936508
_cell_angle_gamma   130.53126055
_symmetry_Int_Tables_number   1
_chemical_formula_structural   Dy2GeO5
_chemical_formula_sum   'Dy8 Ge4 O20'
_cell_volume   463.81811084
_cell_formula_units_Z   4
loop_
 _symmetry_equiv_pos_site_id
 _symmetry_equiv_pos_as_xyz
  1  'x, y, z'
loop_
 _atom_site_type_symbol
 _atom_site_label
 _atom_site_symmetry_multiplicity
 _atom_site_fract_x
 _atom_site_fract_y
 _atom_site_fract_z
 _atom_site_occupancy
  Dy  Dy0  1  0.722942  0.793543  0.033881  1
  Dy  Dy1  1  0.793543  0.722942  0.466119  1
  Dy  Dy2  1  0.277058  0.206457  0.966119  1
  Dy  Dy3  1  0.206457  0.277058  0.533881  1
  Dy  Dy4  1  0.988141  0.263842  0.162072  1
  Dy  Dy5  1  0.263842  0.988141  0.337928  1
  Dy  Dy6  1  0.011859  0.736158  0.837928  1
  Dy  Dy7  1  0.736158  0.011859  0.662072  1
  Ge  Ge8  1  0.779124  0.409347  0.308060  1
  Ge  Ge9  1  0.409347  0.779124  0.191940  1
  Ge  Ge10  1  0.220876  0.590653  0.691940  1
  Ge  Ge11  1  0.590653  0.220876  0.808060  1
  O  O12  1  0.780913  0.371592  0.944804  1
  O  O13  1  0.371592  0.780913  0.555196  1
  O  O14  1  0.219087  0.628408  0.055196  1
  O  O15  1  0.628408  0.219087  0.444804  1
  O  O16  1  0.576941  0.409124  0.632509  1
  O  O17  1  0.409124  0.576941  0.867491  1
  O  O18  1  0.423059  0.590876  0.367491  1
  O  O19  1  0.590876  0.423059  0.132509  1
  O  O20  1  0.958815  0.350185  0.324320  1
  O  O21  1  0.350185  0.958815  0.175680  1
  O  O22  1  0.041185  0.649815  0.675680  1
  O  O23  1  0.649815  0.041185  0.824320  1
  O  O24  1  0.886625  0.919332  0.603261  1
  O  O25  1  0.919332  0.886625  0.896739  1
  O  O26  1  0.113375  0.080668  0.396739  1
  O  O27  1  0.080668  0.113375  0.103261  1
  O  O28  1  0.085591  0.319841  0.675429  1
  O  O29  1  0.319841  0.085591  0.824571  1
  O  O30  1  0.914409  0.680159  0.324571  1
  O  O31  1  0.680159  0.914409  0.175429  1
