# generated using pymatgen
data_SnPCl9
_symmetry_space_group_name_H-M   'P 1'
_cell_length_a   7.41626014
_cell_length_b   9.35947482
_cell_length_c   10.00198485
_cell_angle_alpha   101.10310881
_cell_angle_beta   96.57778854
_cell_angle_gamma   95.16408642
_symmetry_Int_Tables_number   1
_chemical_formula_structural   SnPCl9
_chemical_formula_sum   'Sn2 P2 Cl18'
_cell_volume   672.29396075
_cell_formula_units_Z   2
loop_
 _symmetry_equiv_pos_site_id
 _symmetry_equiv_pos_as_xyz
  1  'x, y, z'
loop_
 _atom_site_type_symbol
 _atom_site_label
 _atom_site_symmetry_multiplicity
 _atom_site_fract_x
 _atom_site_fract_y
 _atom_site_fract_z
 _atom_site_occupancy
  Sn  Sn0  1  0.610713  0.638971  0.678571  1
  Sn  Sn1  1  0.389287  0.361029  0.321429  1
  P  P2  1  0.049579  0.193612  0.778192  1
  P  P3  1  0.950421  0.806388  0.221808  1
  Cl  Cl4  1  0.376023  0.574489  0.217710  1
  Cl  Cl5  1  0.623977  0.425511  0.782290  1
  Cl  Cl6  1  0.420656  0.162206  0.442080  1
  Cl  Cl7  1  0.579344  0.837794  0.557920  1
  Cl  Cl8  1  0.067929  0.281989  0.243951  1
  Cl  Cl9  1  0.932071  0.718011  0.756049  1
  Cl  Cl10  1  0.519733  0.228983  0.128072  1
  Cl  Cl11  1  0.480267  0.771017  0.871928  1
  Cl  Cl12  1  0.291980  0.518627  0.548410  1
  Cl  Cl13  1  0.708020  0.481373  0.451590  1
  Cl  Cl14  1  0.845286  0.612842  0.118371  1
  Cl  Cl15  1  0.154714  0.387158  0.881629  1
  Cl  Cl16  1  0.947021  0.206033  0.592610  1
  Cl  Cl17  1  0.052979  0.793967  0.407390  1
  Cl  Cl18  1  0.240814  0.061749  0.768725  1
  Cl  Cl19  1  0.759186  0.938251  0.231275  1
  Cl  Cl20  1  0.855986  0.115544  0.871096  1
  Cl  Cl21  1  0.144014  0.884456  0.128904  1
