# generated using pymatgen
data_Mg(H2N)2
_symmetry_space_group_name_H-M   'P 1'
_cell_length_a   12.74655007
_cell_length_b   12.74655007
_cell_length_c   12.74655007
_cell_angle_alpha   131.33875383
_cell_angle_beta   131.33875383
_cell_angle_gamma   71.27541996
_symmetry_Int_Tables_number   1
_chemical_formula_structural   Mg(H2N)2
_chemical_formula_sum   'Mg16 H64 N32'
_cell_volume   1142.81247874
_cell_formula_units_Z   16
loop_
 _symmetry_equiv_pos_site_id
 _symmetry_equiv_pos_as_xyz
  1  'x, y, z'
loop_
 _atom_site_type_symbol
 _atom_site_label
 _atom_site_symmetry_multiplicity
 _atom_site_fract_x
 _atom_site_fract_y
 _atom_site_fract_z
 _atom_site_occupancy
  Mg  Mg0  1  0.669228  0.432412  0.980162  1
  Mg  Mg1  1  0.810933  0.047749  0.980162  1
  Mg  Mg2  1  0.067588  0.830772  0.019838  1
  Mg  Mg3  1  0.580772  0.060933  0.263184  1
  Mg  Mg4  1  0.797749  0.317588  0.736816  1
  Mg  Mg5  1  0.182412  0.702251  0.263184  1
  Mg  Mg6  1  0.439067  0.919228  0.736816  1
  Mg  Mg7  1  0.452251  0.689067  0.019838  1
  Mg  Mg8  1  0.080772  0.817588  0.519838  1
  Mg  Mg9  1  0.939067  0.202251  0.519838  1
  Mg  Mg10  1  0.682412  0.419228  0.480162  1
  Mg  Mg11  1  0.169228  0.189067  0.236816  1
  Mg  Mg12  1  0.952251  0.932412  0.763184  1
  Mg  Mg13  1  0.567588  0.547749  0.236816  1
  Mg  Mg14  1  0.310933  0.330772  0.763184  1
  Mg  Mg15  1  0.297749  0.560933  0.480162  1
  H  H16  1  0.505625  0.179417  0.739245  1
  H  H17  1  0.733620  0.059828  0.739245  1
  H  H18  1  0.320583  0.994375  0.260755  1
  H  H19  1  0.744375  0.983620  0.173791  1
  H  H20  1  0.809828  0.570583  0.826209  1
  H  H21  1  0.929417  0.690172  0.173791  1
  H  H22  1  0.516380  0.755625  0.826209  1
  H  H23  1  0.440172  0.766380  0.260755  1
  H  H24  1  0.244375  0.070583  0.760755  1
  H  H25  1  0.016380  0.190172  0.760755  1
  H  H26  1  0.429417  0.255625  0.239245  1
  H  H27  1  0.005625  0.266380  0.326209  1
  H  H28  1  0.940172  0.679417  0.673791  1
  H  H29  1  0.820583  0.559828  0.326209  1
  H  H30  1  0.233620  0.494375  0.673791  1
  H  H31  1  0.309828  0.483620  0.239245  1
  H  H32  1  0.450610  0.244005  0.640901  1
  H  H33  1  0.690292  0.896897  0.640901  1
  H  H34  1  0.255995  0.049390  0.359099  1
  H  H35  1  0.799390  0.940292  0.293395  1
  H  H36  1  0.646897  0.505995  0.706605  1
  H  H37  1  0.994005  0.853103  0.293395  1
  H  H38  1  0.559708  0.700610  0.706605  1
  H  H39  1  0.603103  0.809708  0.359099  1
  H  H40  1  0.299390  0.005995  0.859099  1
  H  H41  1  0.059708  0.353103  0.859099  1
  H  H42  1  0.494005  0.200610  0.140901  1
  H  H43  1  0.156626  0.080061  0.538065  1
  H  H44  1  0.950610  0.309708  0.206605  1
  H  H45  1  0.755995  0.396897  0.206605  1
  H  H46  1  0.190292  0.549390  0.793395  1
  H  H47  1  0.146897  0.440292  0.140901  1
  H  H48  1  0.346000  0.953806  0.507914  1
  H  H49  1  0.661914  0.054108  0.507914  1
  H  H50  1  0.546194  0.154000  0.492086  1
  H  H51  1  0.904000  0.911914  0.107806  1
  H  H52  1  0.804108  0.796194  0.892194  1
  H  H53  1  0.703806  0.695892  0.107806  1
  H  H54  1  0.588086  0.596000  0.892194  1
  H  H55  1  0.445892  0.838086  0.492086  1
  H  H56  1  0.404000  0.296194  0.992086  1
  H  H57  1  0.088086  0.195892  0.992086  1
  H  H58  1  0.203806  0.096000  0.007914  1
  H  H59  1  0.846000  0.338086  0.392194  1
  H  H60  1  0.945892  0.453806  0.607806  1
  H  H61  1  0.046194  0.554108  0.392194  1
  H  H62  1  0.161914  0.654000  0.607806  1
  H  H63  1  0.304108  0.411914  0.007914  1
  H  H64  1  0.208003  0.631439  0.038065  1
  H  H65  1  0.381439  0.843374  0.923435  1
  H  H66  1  0.919939  0.458003  0.076565  1
  H  H67  1  0.041997  0.580061  0.923435  1
  H  H68  1  0.656626  0.118561  0.076565  1
  H  H69  1  0.330061  0.906626  0.038065  1
  H  H70  1  0.868561  0.291997  0.961935  1
  H  H71  1  0.593374  0.169939  0.961935  1
  H  H72  1  0.541997  0.618561  0.461935  1
  H  H73  1  0.368561  0.406626  0.576565  1
  H  H74  1  0.830061  0.791997  0.423435  1
  H  H75  1  0.708003  0.669939  0.576565  1
  H  H76  1  0.093374  0.131439  0.423435  1
  H  H77  1  0.419939  0.343374  0.461935  1
  H  H78  1  0.881439  0.958003  0.538065  1
  H  H79  1  0.103103  0.744005  0.793395  1
  N  N80  1  0.021972  0.766295  0.289749  1
  N  N81  1  0.767777  0.023454  0.289749  1
  N  N82  1  0.733705  0.478028  0.710251  1
  N  N83  1  0.228028  0.017777  0.244323  1
  N  N84  1  0.773454  0.983705  0.755677  1
  N  N85  1  0.516295  0.726546  0.244323  1
  N  N86  1  0.482223  0.271972  0.755677  1
  N  N87  1  0.476546  0.732223  0.710251  1
  N  N88  1  0.728028  0.483705  0.210251  1
  N  N89  1  0.982223  0.226546  0.210251  1
  N  N90  1  0.016295  0.771972  0.789749  1
  N  N91  1  0.521972  0.232223  0.255677  1
  N  N92  1  0.976546  0.266295  0.744323  1
  N  N93  1  0.233705  0.523454  0.255677  1
  N  N94  1  0.267777  0.978028  0.744323  1
  N  N95  1  0.273454  0.517777  0.789749  1
  N  N96  1  0.634906  0.134906  0.500000  1
  N  N97  1  0.884906  0.884906  0.000000  1
  N  N98  1  0.615094  0.615094  0.000000  1
  N  N99  1  0.365094  0.865094  0.500000  1
  N  N100  1  0.115094  0.115094  0.000000  1
  N  N101  1  0.865094  0.365094  0.500000  1
  N  N102  1  0.134906  0.634906  0.500000  1
  N  N103  1  0.384906  0.384906  0.000000  1
  N  N104  1  0.125000  0.166671  0.541671  1
  N  N105  1  0.916671  0.875000  0.541671  1
  N  N106  1  0.333329  0.375000  0.458329  1
  N  N107  1  0.625000  0.583329  0.458329  1
  N  N108  1  0.625000  0.083329  0.958329  1
  N  N109  1  0.833329  0.375000  0.958329  1
  N  N110  1  0.416671  0.875000  0.041671  1
  N  N111  1  0.125000  0.666671  0.041671  1
