# generated using pymatgen
data_Bi2MoO6
_symmetry_space_group_name_H-M   'P 1'
_cell_length_a   5.61750632
_cell_length_b   5.62605806
_cell_length_c   16.62480112
_cell_angle_alpha   90.00000000
_cell_angle_beta   90.00000000
_cell_angle_gamma   90.00000000
_symmetry_Int_Tables_number   1
_chemical_formula_structural   Bi2MoO6
_chemical_formula_sum   'Bi8 Mo4 O24'
_cell_volume   525.41714230
_cell_formula_units_Z   4
loop_
 _symmetry_equiv_pos_site_id
 _symmetry_equiv_pos_as_xyz
  1  'x, y, z'
loop_
 _atom_site_type_symbol
 _atom_site_label
 _atom_site_symmetry_multiplicity
 _atom_site_fract_x
 _atom_site_fract_y
 _atom_site_fract_z
 _atom_site_occupancy
  Bi  Bi0  1  0.473512  0.065170  0.424212  1
  Bi  Bi1  1  0.026468  0.042687  0.923993  1
  Bi  Bi2  1  0.526488  0.565170  0.575788  1
  Bi  Bi3  1  0.473532  0.542687  0.923993  1
  Bi  Bi4  1  0.973532  0.542687  0.076007  1
  Bi  Bi5  1  0.526468  0.042687  0.076007  1
  Bi  Bi6  1  0.026488  0.565170  0.424212  1
  Bi  Bi7  1  0.973512  0.065170  0.575788  1
  Mo  Mo8  1  0.491916  0.021634  0.749985  1
  Mo  Mo9  1  0.991916  0.021634  0.250015  1
  Mo  Mo10  1  0.508084  0.521634  0.250015  1
  Mo  Mo11  1  0.008084  0.521634  0.749985  1
  O  O12  1  0.898990  0.441781  0.646824  1
  O  O13  1  0.773610  0.681022  0.278597  1
  O  O14  1  0.688666  0.259423  0.777870  1
  O  O15  1  0.408687  0.917831  0.853930  1
  O  O16  1  0.260089  0.785804  0.502486  1
  O  O17  1  0.762349  0.262149  0.998340  1
  O  O18  1  0.760089  0.785804  0.497514  1
  O  O19  1  0.239911  0.285804  0.502486  1
  O  O20  1  0.188666  0.259423  0.222130  1
  O  O21  1  0.726390  0.181022  0.278597  1
  O  O22  1  0.226390  0.181022  0.721403  1
  O  O23  1  0.091313  0.417831  0.853930  1
  O  O24  1  0.101010  0.941781  0.353176  1
  O  O25  1  0.591313  0.417831  0.146070  1
  O  O26  1  0.262349  0.262149  0.001660  1
  O  O27  1  0.908687  0.917831  0.146070  1
  O  O28  1  0.811334  0.759423  0.777870  1
  O  O29  1  0.273610  0.681022  0.721403  1
  O  O30  1  0.311334  0.759423  0.222130  1
  O  O31  1  0.737651  0.762149  0.998340  1
  O  O32  1  0.739911  0.285804  0.497514  1
  O  O33  1  0.601010  0.941781  0.646824  1
  O  O34  1  0.237651  0.762149  0.001660  1
  O  O35  1  0.398990  0.441781  0.353176  1
