# generated using pymatgen
data_CuH4(ClO)2
_symmetry_space_group_name_H-M   'P 1'
_cell_length_a   3.89677282
_cell_length_b   7.45907716
_cell_length_c   8.06117197
_cell_angle_alpha   90.00000000
_cell_angle_beta   90.00000000
_cell_angle_gamma   90.00000000
_symmetry_Int_Tables_number   1
_chemical_formula_structural   CuH4(ClO)2
_chemical_formula_sum   'Cu2 H8 Cl4 O4'
_cell_volume   234.30867773
_cell_formula_units_Z   2
loop_
 _symmetry_equiv_pos_site_id
 _symmetry_equiv_pos_as_xyz
  1  'x, y, z'
loop_
 _atom_site_type_symbol
 _atom_site_label
 _atom_site_symmetry_multiplicity
 _atom_site_fract_x
 _atom_site_fract_y
 _atom_site_fract_z
 _atom_site_occupancy
  Cu  Cu0  1  0.000000  0.500000  0.500000  1
  Cu  Cu1  1  0.000000  0.000000  0.000000  1
  H  H2  1  0.127506  0.085776  0.688156  1
  H  H3  1  0.127506  0.414224  0.811844  1
  H  H4  1  0.872494  0.914224  0.311844  1
  H  H5  1  0.872494  0.585776  0.188156  1
  H  H6  1  0.127506  0.414224  0.188156  1
  H  H7  1  0.872494  0.914224  0.688156  1
  H  H8  1  0.872494  0.585776  0.811844  1
  H  H9  1  0.127506  0.085776  0.311844  1
  Cl  Cl10  1  0.648823  0.746460  0.500000  1
  Cl  Cl11  1  0.351177  0.246460  0.000000  1
  Cl  Cl12  1  0.351177  0.253540  0.500000  1
  Cl  Cl13  1  0.648823  0.753540  0.000000  1
  O  O14  1  0.000000  0.000000  0.758829  1
  O  O15  1  0.000000  0.500000  0.258829  1
  O  O16  1  0.000000  0.500000  0.741171  1
  O  O17  1  0.000000  0.000000  0.241171  1
