# generated using pymatgen
data_Ba4P2O
_symmetry_space_group_name_H-M   'P 1'
_cell_length_a   9.05226864
_cell_length_b   9.05226864
_cell_length_c   7.62743208
_cell_angle_alpha   90.00000000
_cell_angle_beta   90.00000000
_cell_angle_gamma   132.73684900
_symmetry_Int_Tables_number   1
_chemical_formula_structural   Ba4P2O
_chemical_formula_sum   'Ba8 P4 O2'
_cell_volume   459.06288574
_cell_formula_units_Z   2
loop_
 _symmetry_equiv_pos_site_id
 _symmetry_equiv_pos_as_xyz
  1  'x, y, z'
loop_
 _atom_site_type_symbol
 _atom_site_label
 _atom_site_symmetry_multiplicity
 _atom_site_fract_x
 _atom_site_fract_y
 _atom_site_fract_z
 _atom_site_occupancy
  Ba  Ba0  1  0.322413  0.677587  0.569794  1
  Ba  Ba1  1  0.677587  0.322413  0.430206  1
  Ba  Ba2  1  0.822413  0.177587  0.930206  1
  Ba  Ba3  1  0.177587  0.822413  0.069794  1
  Ba  Ba4  1  0.770177  0.729823  0.750000  1
  Ba  Ba5  1  0.729823  0.770177  0.250000  1
  Ba  Ba6  1  0.229823  0.270177  0.250000  1
  Ba  Ba7  1  0.270177  0.229823  0.750000  1
  P  P8  1  0.865639  0.134361  0.524576  1
  P  P9  1  0.134361  0.865639  0.475424  1
  P  P10  1  0.634361  0.365639  0.024576  1
  P  P11  1  0.365639  0.634361  0.975424  1
  O  O12  1  0.500000  0.500000  0.500000  1
  O  O13  1  0.000000  0.000000  0.000000  1
