# generated using pymatgen
data_Er2S3
_symmetry_space_group_name_H-M   'P 1'
_cell_length_a   10.11643051
_cell_length_b   3.99357656
_cell_length_c   17.54691330
_cell_angle_alpha   90.00000000
_cell_angle_beta   98.62247304
_cell_angle_gamma   90.00000000
_symmetry_Int_Tables_number   1
_chemical_formula_structural   Er2S3
_chemical_formula_sum   'Er12 S18'
_cell_volume   700.89595048
_cell_formula_units_Z   6
loop_
 _symmetry_equiv_pos_site_id
 _symmetry_equiv_pos_as_xyz
  1  'x, y, z'
loop_
 _atom_site_type_symbol
 _atom_site_label
 _atom_site_symmetry_multiplicity
 _atom_site_fract_x
 _atom_site_fract_y
 _atom_site_fract_z
 _atom_site_occupancy
  Er  Er0  1  0.876088  0.750000  0.570178  1
  Er  Er1  1  0.123912  0.250000  0.429822  1
  Er  Er2  1  0.450975  0.750000  0.885317  1
  Er  Er3  1  0.549025  0.250000  0.114683  1
  Er  Er4  1  0.810983  0.750000  0.979333  1
  Er  Er5  1  0.189017  0.250000  0.020667  1
  Er  Er6  1  0.513253  0.750000  0.600415  1
  Er  Er7  1  0.486747  0.250000  0.399585  1
  Er  Er8  1  0.829674  0.250000  0.781722  1
  Er  Er9  1  0.170326  0.750000  0.218278  1
  Er  Er10  1  0.187686  0.250000  0.720854  1
  Er  Er11  1  0.812314  0.750000  0.279146  1
  S  S12  1  0.384792  0.750000  0.032561  1
  S  S13  1  0.615208  0.250000  0.967439  1
  S  S14  1  0.710236  0.250000  0.631391  1
  S  S15  1  0.289764  0.750000  0.368609  1
  S  S16  1  0.007607  0.250000  0.268186  1
  S  S17  1  0.992393  0.750000  0.731814  1
  S  S18  1  0.367215  0.250000  0.531270  1
  S  S19  1  0.632785  0.750000  0.468730  1
  S  S20  1  0.362300  0.750000  0.717795  1
  S  S21  1  0.637700  0.250000  0.282205  1
  S  S22  1  0.268704  0.250000  0.873029  1
  S  S23  1  0.731296  0.750000  0.126971  1
  S  S24  1  0.048569  0.750000  0.075785  1
  S  S25  1  0.951431  0.250000  0.924215  1
  S  S26  1  0.947628  0.750000  0.424700  1
  S  S27  1  0.052372  0.250000  0.575300  1
  S  S28  1  0.318858  0.250000  0.181321  1
  S  S29  1  0.681142  0.750000  0.818679  1
