# generated using pymatgen
data_AlTeI7
_symmetry_space_group_name_H-M   'P 1'
_cell_length_a   7.75885987
_cell_length_b   7.48030430
_cell_length_c   16.86105824
_cell_angle_alpha   90.00000000
_cell_angle_beta   104.62013994
_cell_angle_gamma   90.00000000
_symmetry_Int_Tables_number   1
_chemical_formula_structural   AlTeI7
_chemical_formula_sum   'Al2 Te2 I14'
_cell_volume   946.90643026
_cell_formula_units_Z   2
loop_
 _symmetry_equiv_pos_site_id
 _symmetry_equiv_pos_as_xyz
  1  'x, y, z'
loop_
 _atom_site_type_symbol
 _atom_site_label
 _atom_site_symmetry_multiplicity
 _atom_site_fract_x
 _atom_site_fract_y
 _atom_site_fract_z
 _atom_site_occupancy
  Al  Al0  1  0.711732  0.995564  0.345643  1
  Al  Al1  1  0.711732  0.004436  0.845643  1
  Te  Te2  1  0.998246  0.597678  0.498306  1
  Te  Te3  1  0.998246  0.402322  0.998306  1
  I  I4  1  0.891811  0.384368  0.611312  1
  I  I5  1  0.271681  0.393332  0.467093  1
  I  I6  1  0.215499  0.169497  0.109675  1
  I  I7  1  0.215499  0.830503  0.609675  1
  I  I8  1  0.025471  0.119811  0.845218  1
  I  I9  1  0.271681  0.606668  0.967093  1
  I  I10  1  0.647222  0.126017  0.978878  1
  I  I11  1  0.647222  0.873983  0.478878  1
  I  I12  1  0.686208  0.664770  0.838152  1
  I  I13  1  0.686208  0.335230  0.338152  1
  I  I14  1  0.490029  0.143049  0.721202  1
  I  I15  1  0.490029  0.856951  0.221202  1
  I  I16  1  0.891811  0.615632  0.111312  1
  I  I17  1  0.025471  0.880189  0.345218  1
