# generated using pymatgen
data_K2GeTe4
_symmetry_space_group_name_H-M   'P 1'
_cell_length_a   10.21814871
_cell_length_b   8.80307857
_cell_length_c   12.87482590
_cell_angle_alpha   90.00000000
_cell_angle_beta   105.05896229
_cell_angle_gamma   90.00000000
_symmetry_Int_Tables_number   1
_chemical_formula_structural   K2GeTe4
_chemical_formula_sum   'K8 Ge4 Te16'
_cell_volume   1118.33505936
_cell_formula_units_Z   4
loop_
 _symmetry_equiv_pos_site_id
 _symmetry_equiv_pos_as_xyz
  1  'x, y, z'
loop_
 _atom_site_type_symbol
 _atom_site_label
 _atom_site_symmetry_multiplicity
 _atom_site_fract_x
 _atom_site_fract_y
 _atom_site_fract_z
 _atom_site_occupancy
  K  K0  1  0.195850  0.925853  0.341007  1
  K  K1  1  0.304150  0.425853  0.658993  1
  K  K2  1  0.804150  0.074147  0.658993  1
  K  K3  1  0.695850  0.574147  0.341007  1
  K  K4  1  0.213887  0.562037  0.044740  1
  K  K5  1  0.286113  0.062037  0.955260  1
  K  K6  1  0.786113  0.437963  0.955260  1
  K  K7  1  0.713887  0.937963  0.044740  1
  Ge  Ge8  1  0.959995  0.638659  0.741953  1
  Ge  Ge9  1  0.540005  0.138659  0.258047  1
  Ge  Ge10  1  0.040005  0.361341  0.258047  1
  Ge  Ge11  1  0.459995  0.861341  0.741953  1
  Te  Te12  1  0.044489  0.723646  0.569759  1
  Te  Te13  1  0.455511  0.223646  0.430241  1
  Te  Te14  1  0.955511  0.276354  0.430241  1
  Te  Te15  1  0.544489  0.776354  0.569759  1
  Te  Te16  1  0.527216  0.341432  0.114601  1
  Te  Te17  1  0.972784  0.841432  0.885399  1
  Te  Te18  1  0.472784  0.658568  0.885399  1
  Te  Te19  1  0.027216  0.158568  0.114601  1
  Te  Te20  1  0.035508  0.363289  0.797251  1
  Te  Te21  1  0.464492  0.863289  0.202749  1
  Te  Te22  1  0.964492  0.636711  0.202749  1
  Te  Te23  1  0.535508  0.136711  0.797251  1
  Te  Te24  1  0.714491  0.533174  0.646367  1
  Te  Te25  1  0.785509  0.033174  0.353633  1
  Te  Te26  1  0.285509  0.466826  0.353633  1
  Te  Te27  1  0.214491  0.966826  0.646367  1
