# generated using pymatgen
data_Ba4P3
_symmetry_space_group_name_H-M   'P 1'
_cell_length_a   11.37622586
_cell_length_b   12.70053805
_cell_length_c   13.49774575
_cell_angle_alpha   90.00000000
_cell_angle_beta   90.00000000
_cell_angle_gamma   90.00000000
_symmetry_Int_Tables_number   1
_chemical_formula_structural   Ba4P3
_chemical_formula_sum   'Ba32 P24'
_cell_volume   1950.21085342
_cell_formula_units_Z   8
loop_
 _symmetry_equiv_pos_site_id
 _symmetry_equiv_pos_as_xyz
  1  'x, y, z'
loop_
 _atom_site_type_symbol
 _atom_site_label
 _atom_site_symmetry_multiplicity
 _atom_site_fract_x
 _atom_site_fract_y
 _atom_site_fract_z
 _atom_site_occupancy
  Ba  Ba0  1  0.500000  0.120140  0.875157  1
  Ba  Ba1  1  0.500000  0.879860  0.124843  1
  Ba  Ba2  1  0.500000  0.620140  0.624843  1
  Ba  Ba3  1  0.500000  0.379860  0.375157  1
  Ba  Ba4  1  0.820025  0.000000  0.000000  1
  Ba  Ba5  1  0.179975  0.500000  0.500000  1
  Ba  Ba6  1  0.179975  0.000000  0.000000  1
  Ba  Ba7  1  0.820025  0.500000  0.500000  1
  Ba  Ba8  1  0.680814  0.169131  0.568006  1
  Ba  Ba9  1  0.680814  0.830869  0.431994  1
  Ba  Ba10  1  0.319186  0.669131  0.931994  1
  Ba  Ba11  1  0.319186  0.330869  0.068006  1
  Ba  Ba12  1  0.319186  0.830869  0.431994  1
  Ba  Ba13  1  0.319186  0.169131  0.568006  1
  Ba  Ba14  1  0.680814  0.330869  0.068006  1
  Ba  Ba15  1  0.680814  0.669131  0.931994  1
  Ba  Ba16  1  0.000000  0.725413  0.080175  1
  Ba  Ba17  1  0.000000  0.274587  0.919825  1
  Ba  Ba18  1  0.000000  0.225413  0.419825  1
  Ba  Ba19  1  0.000000  0.774587  0.580175  1
  Ba  Ba20  1  0.715906  0.900570  0.736660  1
  Ba  Ba21  1  0.715906  0.099430  0.263340  1
  Ba  Ba22  1  0.284094  0.400570  0.763340  1
  Ba  Ba23  1  0.284094  0.599430  0.236660  1
  Ba  Ba24  1  0.284094  0.099430  0.263340  1
  Ba  Ba25  1  0.284094  0.900570  0.736660  1
  Ba  Ba26  1  0.715906  0.599430  0.236660  1
  Ba  Ba27  1  0.715906  0.400570  0.763340  1
  Ba  Ba28  1  0.000000  0.892542  0.294797  1
  Ba  Ba29  1  0.000000  0.107458  0.705203  1
  Ba  Ba30  1  0.000000  0.392542  0.205203  1
  Ba  Ba31  1  0.000000  0.607458  0.794797  1
  P  P32  1  0.000000  0.640019  0.364672  1
  P  P33  1  0.000000  0.359981  0.635328  1
  P  P34  1  0.000000  0.140019  0.135328  1
  P  P35  1  0.000000  0.859981  0.864672  1
  P  P36  1  0.500000  0.034127  0.422430  1
  P  P37  1  0.500000  0.965873  0.577570  1
  P  P38  1  0.500000  0.534127  0.077570  1
  P  P39  1  0.500000  0.465873  0.922430  1
  P  P40  1  0.236138  0.337669  0.320994  1
  P  P41  1  0.236138  0.662331  0.679006  1
  P  P42  1  0.763862  0.837669  0.179006  1
  P  P43  1  0.763862  0.162331  0.820994  1
  P  P44  1  0.763862  0.662331  0.679006  1
  P  P45  1  0.763862  0.337669  0.320994  1
  P  P46  1  0.236138  0.162331  0.820994  1
  P  P47  1  0.236138  0.837669  0.179006  1
  P  P48  1  0.500000  0.638687  0.386994  1
  P  P49  1  0.500000  0.361313  0.613006  1
  P  P50  1  0.500000  0.138687  0.113006  1
  P  P51  1  0.500000  0.861313  0.886994  1
  P  P52  1  0.899159  0.000000  0.500000  1
  P  P53  1  0.100841  0.500000  0.000000  1
  P  P54  1  0.100841  0.000000  0.500000  1
  P  P55  1  0.899159  0.500000  0.000000  1
