# generated using pymatgen
data_Al3Te3I
_symmetry_space_group_name_H-M   'P 1'
_cell_length_a   4.15318480
_cell_length_b   11.67025180
_cell_length_c   21.30771337
_cell_angle_alpha   90.00000000
_cell_angle_beta   90.00000000
_cell_angle_gamma   90.00000000
_symmetry_Int_Tables_number   1
_chemical_formula_structural   Al3Te3I
_chemical_formula_sum   'Al12 Te12 I4'
_cell_volume   1032.75743098
_cell_formula_units_Z   4
loop_
 _symmetry_equiv_pos_site_id
 _symmetry_equiv_pos_as_xyz
  1  'x, y, z'
loop_
 _atom_site_type_symbol
 _atom_site_label
 _atom_site_symmetry_multiplicity
 _atom_site_fract_x
 _atom_site_fract_y
 _atom_site_fract_z
 _atom_site_occupancy
  Al  Al0  1  0.750000  0.823547  0.628344  1
  Al  Al1  1  0.250000  0.176453  0.371656  1
  Al  Al2  1  0.750000  0.323547  0.871656  1
  Al  Al3  1  0.250000  0.676453  0.128344  1
  Al  Al4  1  0.250000  0.663923  0.494654  1
  Al  Al5  1  0.750000  0.336077  0.505346  1
  Al  Al6  1  0.250000  0.163923  0.005346  1
  Al  Al7  1  0.750000  0.836077  0.994654  1
  Al  Al8  1  0.250000  0.544007  0.594982  1
  Al  Al9  1  0.750000  0.455993  0.405018  1
  Al  Al10  1  0.250000  0.044007  0.905018  1
  Al  Al11  1  0.750000  0.955993  0.094982  1
  Te  Te12  1  0.250000  0.713727  0.681412  1
  Te  Te13  1  0.750000  0.286273  0.318588  1
  Te  Te14  1  0.250000  0.213727  0.818588  1
  Te  Te15  1  0.750000  0.786273  0.181412  1
  Te  Te16  1  0.750000  0.406424  0.625454  1
  Te  Te17  1  0.250000  0.593576  0.374546  1
  Te  Te18  1  0.750000  0.906424  0.874546  1
  Te  Te19  1  0.250000  0.093576  0.125454  1
  Te  Te20  1  0.750000  0.813609  0.502961  1
  Te  Te21  1  0.250000  0.186391  0.497039  1
  Te  Te22  1  0.750000  0.313609  0.997039  1
  Te  Te23  1  0.250000  0.686391  0.002961  1
  I  I24  1  0.750000  0.029844  0.664487  1
  I  I25  1  0.250000  0.970156  0.335513  1
  I  I26  1  0.750000  0.529844  0.835513  1
  I  I27  1  0.250000  0.470156  0.164487  1
