# generated using pymatgen
data_RbB3O5
_symmetry_space_group_name_H-M   'P 1'
_cell_length_a   6.52762478
_cell_length_b   8.53779202
_cell_length_c   8.79847997
_cell_angle_alpha   90.00000000
_cell_angle_beta   90.00000000
_cell_angle_gamma   90.00000000
_symmetry_Int_Tables_number   1
_chemical_formula_structural   RbB3O5
_chemical_formula_sum   'Rb4 B12 O20'
_cell_volume   490.35251070
_cell_formula_units_Z   4
loop_
 _symmetry_equiv_pos_site_id
 _symmetry_equiv_pos_as_xyz
  1  'x, y, z'
loop_
 _atom_site_type_symbol
 _atom_site_label
 _atom_site_symmetry_multiplicity
 _atom_site_fract_x
 _atom_site_fract_y
 _atom_site_fract_z
 _atom_site_occupancy
  Rb  Rb0  1  0.363200  0.656377  0.106581  1
  Rb  Rb1  1  0.863200  0.843623  0.893419  1
  Rb  Rb2  1  0.636800  0.156377  0.393419  1
  Rb  Rb3  1  0.136800  0.343623  0.606581  1
  B  B4  1  0.876582  0.789084  0.298951  1
  B  B5  1  0.376582  0.710916  0.701049  1
  B  B6  1  0.123418  0.289084  0.201049  1
  B  B7  1  0.623418  0.210916  0.798951  1
  B  B8  1  0.128433  0.000496  0.245895  1
  B  B9  1  0.628433  0.499504  0.754105  1
  B  B10  1  0.786612  0.616781  0.507532  1
  B  B11  1  0.286612  0.883219  0.492468  1
  B  B12  1  0.213388  0.116781  0.992468  1
  B  B13  1  0.713388  0.383219  0.007532  1
  B  B14  1  0.871567  0.500496  0.254105  1
  B  B15  1  0.371567  0.999504  0.745895  1
  O  O16  1  0.790372  0.490664  0.411634  1
  O  O17  1  0.915040  0.938594  0.247944  1
  O  O18  1  0.584960  0.061406  0.747944  1
  O  O19  1  0.415040  0.561406  0.752056  1
  O  O20  1  0.758696  0.602955  0.660841  1
  O  O21  1  0.258696  0.897045  0.339159  1
  O  O22  1  0.241304  0.102955  0.839159  1
  O  O23  1  0.741304  0.397045  0.160841  1
  O  O24  1  0.672287  0.232202  0.952037  1
  O  O25  1  0.172287  0.267798  0.047963  1
  O  O26  1  0.327713  0.732202  0.547963  1
  O  O27  1  0.827713  0.767798  0.452037  1
  O  O28  1  0.209628  0.990664  0.088366  1
  O  O29  1  0.709628  0.509336  0.911634  1
  O  O30  1  0.875612  0.665023  0.199584  1
  O  O31  1  0.375612  0.834977  0.800416  1
  O  O32  1  0.124388  0.165023  0.300416  1
  O  O33  1  0.624388  0.334977  0.699584  1
  O  O34  1  0.084960  0.438594  0.252056  1
  O  O35  1  0.290372  0.009336  0.588366  1
