# generated using pymatgen
data_Cd4Sb2I3
_symmetry_space_group_name_H-M   'P 1'
_cell_length_a   13.89713461
_cell_length_b   13.89713461
_cell_length_c   13.89713461
_cell_angle_alpha   90.00000000
_cell_angle_beta   90.00000000
_cell_angle_gamma   90.00000000
_symmetry_Int_Tables_number   1
_chemical_formula_structural   Cd4Sb2I3
_chemical_formula_sum   'Cd32 Sb16 I24'
_cell_volume   2683.95847635
_cell_formula_units_Z   8
loop_
 _symmetry_equiv_pos_site_id
 _symmetry_equiv_pos_as_xyz
  1  'x, y, z'
loop_
 _atom_site_type_symbol
 _atom_site_label
 _atom_site_symmetry_multiplicity
 _atom_site_fract_x
 _atom_site_fract_y
 _atom_site_fract_z
 _atom_site_occupancy
  Cd  Cd0  1  0.031516  0.017989  0.254498  1
  Cd  Cd1  1  0.254498  0.031516  0.017989  1
  Cd  Cd2  1  0.017989  0.254498  0.031516  1
  Cd  Cd3  1  0.482011  0.745502  0.531516  1
  Cd  Cd4  1  0.754498  0.468484  0.982011  1
  Cd  Cd5  1  0.982011  0.754498  0.468484  1
  Cd  Cd6  1  0.245502  0.968484  0.517989  1
  Cd  Cd7  1  0.745502  0.531516  0.482011  1
  Cd  Cd8  1  0.517989  0.245502  0.968484  1
  Cd  Cd9  1  0.531516  0.482011  0.745502  1
  Cd  Cd10  1  0.968484  0.517989  0.245502  1
  Cd  Cd11  1  0.468484  0.982011  0.754498  1
  Cd  Cd12  1  0.968484  0.982011  0.745502  1
  Cd  Cd13  1  0.745502  0.968484  0.982011  1
  Cd  Cd14  1  0.982011  0.745502  0.968484  1
  Cd  Cd15  1  0.517989  0.254498  0.468484  1
  Cd  Cd16  1  0.245502  0.531516  0.017989  1
  Cd  Cd17  1  0.017989  0.245502  0.531516  1
  Cd  Cd18  1  0.754498  0.031516  0.482011  1
  Cd  Cd19  1  0.254498  0.468484  0.517989  1
  Cd  Cd20  1  0.482011  0.754498  0.031516  1
  Cd  Cd21  1  0.468484  0.517989  0.254498  1
  Cd  Cd22  1  0.031516  0.482011  0.754498  1
  Cd  Cd23  1  0.531516  0.017989  0.245502  1
  Cd  Cd24  1  0.778167  0.221833  0.721833  1
  Cd  Cd25  1  0.721833  0.778167  0.221833  1
  Cd  Cd26  1  0.221833  0.721833  0.778167  1
  Cd  Cd27  1  0.278167  0.278167  0.278167  1
  Cd  Cd28  1  0.221833  0.778167  0.278167  1
  Cd  Cd29  1  0.278167  0.221833  0.778167  1
  Cd  Cd30  1  0.778167  0.278167  0.221833  1
  Cd  Cd31  1  0.721833  0.721833  0.721833  1
  Sb  Sb32  1  0.893697  0.106303  0.606303  1
  Sb  Sb33  1  0.606303  0.893697  0.106303  1
  Sb  Sb34  1  0.106303  0.606303  0.893697  1
  Sb  Sb35  1  0.393697  0.393697  0.393697  1
  Sb  Sb36  1  0.106303  0.893697  0.393697  1
  Sb  Sb37  1  0.393697  0.106303  0.893697  1
  Sb  Sb38  1  0.893697  0.393697  0.106303  1
  Sb  Sb39  1  0.606303  0.606303  0.606303  1
  Sb  Sb40  1  0.558814  0.058814  0.441186  1
  Sb  Sb41  1  0.441186  0.558814  0.058814  1
  Sb  Sb42  1  0.058814  0.441186  0.558814  1
  Sb  Sb43  1  0.941186  0.941186  0.941186  1
  Sb  Sb44  1  0.441186  0.941186  0.558814  1
  Sb  Sb45  1  0.558814  0.441186  0.941186  1
  Sb  Sb46  1  0.941186  0.558814  0.441186  1
  Sb  Sb47  1  0.058814  0.058814  0.058814  1
  I  I48  1  0.232994  0.180714  0.571551  1
  I  I49  1  0.571551  0.232994  0.180714  1
  I  I50  1  0.180714  0.571551  0.232994  1
  I  I51  1  0.319286  0.428449  0.732994  1
  I  I52  1  0.071551  0.267006  0.819286  1
  I  I53  1  0.819286  0.071551  0.267006  1
  I  I54  1  0.928449  0.767006  0.680714  1
  I  I55  1  0.428449  0.732994  0.319286  1
  I  I56  1  0.680714  0.928449  0.767006  1
  I  I57  1  0.732994  0.319286  0.428449  1
  I  I58  1  0.767006  0.680714  0.928449  1
  I  I59  1  0.267006  0.819286  0.071551  1
  I  I60  1  0.767006  0.819286  0.428449  1
  I  I61  1  0.428449  0.767006  0.819286  1
  I  I62  1  0.819286  0.428449  0.767006  1
  I  I63  1  0.680714  0.571551  0.267006  1
  I  I64  1  0.928449  0.732994  0.180714  1
  I  I65  1  0.180714  0.928449  0.732994  1
  I  I66  1  0.071551  0.232994  0.319286  1
  I  I67  1  0.571551  0.267006  0.680714  1
  I  I68  1  0.319286  0.071551  0.232994  1
  I  I69  1  0.267006  0.680714  0.571551  1
  I  I70  1  0.232994  0.319286  0.071551  1
  I  I71  1  0.732994  0.180714  0.928449  1
