# generated using pymatgen
data_AlP2I9
_symmetry_space_group_name_H-M   'P 1'
_cell_length_a   11.48292008
_cell_length_b   18.82112604
_cell_length_c   21.60612130
_cell_angle_alpha   90.00000000
_cell_angle_beta   90.00000000
_cell_angle_gamma   90.00000000
_symmetry_Int_Tables_number   1
_chemical_formula_structural   AlP2I9
_chemical_formula_sum   'Al8 P16 I72'
_cell_volume   4669.54704492
_cell_formula_units_Z   8
loop_
 _symmetry_equiv_pos_site_id
 _symmetry_equiv_pos_as_xyz
  1  'x, y, z'
loop_
 _atom_site_type_symbol
 _atom_site_label
 _atom_site_symmetry_multiplicity
 _atom_site_fract_x
 _atom_site_fract_y
 _atom_site_fract_z
 _atom_site_occupancy
  Al  Al0  1  0.869922  0.221083  0.379881  1
  Al  Al1  1  0.369922  0.278917  0.620119  1
  Al  Al2  1  0.130078  0.721083  0.120119  1
  Al  Al3  1  0.630078  0.778917  0.879881  1
  Al  Al4  1  0.130078  0.778917  0.620119  1
  Al  Al5  1  0.630078  0.721083  0.379881  1
  Al  Al6  1  0.869922  0.278917  0.879881  1
  Al  Al7  1  0.369922  0.221083  0.120119  1
  P  P8  1  0.805072  0.995189  0.133248  1
  P  P9  1  0.305072  0.504811  0.866752  1
  P  P10  1  0.194928  0.495189  0.366752  1
  P  P11  1  0.694928  0.004811  0.633248  1
  P  P12  1  0.194928  0.004811  0.866752  1
  P  P13  1  0.694928  0.495189  0.133248  1
  P  P14  1  0.805072  0.504811  0.633248  1
  P  P15  1  0.305072  0.995189  0.366752  1
  P  P16  1  0.669812  0.924172  0.087094  1
  P  P17  1  0.169812  0.575828  0.912906  1
  P  P18  1  0.330188  0.424172  0.412906  1
  P  P19  1  0.830188  0.075828  0.587094  1
  P  P20  1  0.330188  0.075828  0.912906  1
  P  P21  1  0.830188  0.424172  0.087094  1
  P  P22  1  0.669812  0.575828  0.587094  1
  P  P23  1  0.169812  0.924172  0.412906  1
  I  I24  1  0.974898  0.224835  0.483882  1
  I  I25  1  0.725776  0.386179  0.881170  1
  I  I26  1  0.774224  0.613821  0.381170  1
  I  I27  1  0.274224  0.886179  0.618830  1
  I  I28  1  0.774224  0.886179  0.881170  1
  I  I29  1  0.274224  0.613821  0.118830  1
  I  I30  1  0.225776  0.386179  0.618830  1
  I  I31  1  0.725776  0.113821  0.381170  1
  I  I32  1  0.000288  0.002625  0.398956  1
  I  I33  1  0.500288  0.497375  0.601044  1
  I  I34  1  0.999712  0.502625  0.101044  1
  I  I35  1  0.499712  0.997375  0.898956  1
  I  I36  1  0.999712  0.997375  0.601044  1
  I  I37  1  0.499712  0.502625  0.398956  1
  I  I38  1  0.000288  0.497375  0.898956  1
  I  I39  1  0.500288  0.002625  0.101044  1
  I  I40  1  0.150241  0.837153  0.329024  1
  I  I41  1  0.650241  0.662847  0.670976  1
  I  I42  1  0.849759  0.337153  0.170976  1
  I  I43  1  0.349759  0.162847  0.829024  1
  I  I44  1  0.849759  0.162847  0.670976  1
  I  I45  1  0.349759  0.337153  0.329024  1
  I  I46  1  0.150241  0.662847  0.829024  1
  I  I47  1  0.650241  0.837153  0.170976  1
  I  I48  1  0.225776  0.113821  0.118830  1
  I  I49  1  0.989084  0.572963  0.632682  1
  I  I50  1  0.510916  0.427037  0.132682  1
  I  I51  1  0.010916  0.072963  0.867318  1
  I  I52  1  0.510916  0.072963  0.632682  1
  I  I53  1  0.010916  0.427037  0.367318  1
  I  I54  1  0.489084  0.572963  0.867318  1
  I  I55  1  0.989084  0.927037  0.132682  1
  I  I56  1  0.262831  0.041545  0.262653  1
  I  I57  1  0.762831  0.458455  0.737347  1
  I  I58  1  0.737169  0.541545  0.237347  1
  I  I59  1  0.237169  0.958455  0.762653  1
  I  I60  1  0.737169  0.958455  0.737347  1
  I  I61  1  0.237169  0.541545  0.262653  1
  I  I62  1  0.262831  0.458455  0.762653  1
  I  I63  1  0.762831  0.041545  0.237347  1
  I  I64  1  0.327005  0.094813  0.437828  1
  I  I65  1  0.827005  0.405187  0.562172  1
  I  I66  1  0.672995  0.594813  0.062172  1
  I  I67  1  0.172995  0.905187  0.937828  1
  I  I68  1  0.672995  0.905187  0.562172  1
  I  I69  1  0.172995  0.594813  0.437828  1
  I  I70  1  0.327005  0.405187  0.937828  1
  I  I71  1  0.827005  0.094813  0.062172  1
  I  I72  1  0.489084  0.927037  0.367318  1
  I  I73  1  0.474898  0.275165  0.516118  1
  I  I74  1  0.025102  0.724835  0.016118  1
  I  I75  1  0.525102  0.775165  0.983882  1
  I  I76  1  0.025102  0.775165  0.516118  1
  I  I77  1  0.525102  0.724835  0.483882  1
  I  I78  1  0.974898  0.275165  0.983882  1
  I  I79  1  0.474898  0.224835  0.016118  1
  I  I80  1  0.002207  0.209479  0.286219  1
  I  I81  1  0.502207  0.290521  0.713781  1
  I  I82  1  0.997793  0.709479  0.213781  1
  I  I83  1  0.497793  0.790521  0.786219  1
  I  I84  1  0.997793  0.790521  0.713781  1
  I  I85  1  0.497793  0.709479  0.286219  1
  I  I86  1  0.002207  0.290521  0.786219  1
  I  I87  1  0.502207  0.209479  0.213781  1
  I  I88  1  0.752900  0.337954  0.369426  1
  I  I89  1  0.252900  0.162046  0.630574  1
  I  I90  1  0.247100  0.837954  0.130574  1
  I  I91  1  0.747100  0.662046  0.869426  1
  I  I92  1  0.247100  0.662046  0.630574  1
  I  I93  1  0.747100  0.837954  0.369426  1
  I  I94  1  0.752900  0.162046  0.869426  1
  I  I95  1  0.252900  0.337954  0.130574  1
