# generated using pymatgen
data_Nb3SBr7
_symmetry_space_group_name_H-M   'P 1'
_cell_length_a   7.20381289
_cell_length_b   7.20381289
_cell_length_c   6.93488391
_cell_angle_alpha   90.00000000
_cell_angle_beta   90.00000000
_cell_angle_gamma   120.00000000
_symmetry_Int_Tables_number   1
_chemical_formula_structural   Nb3SBr7
_chemical_formula_sum   'Nb3 S1 Br7'
_cell_volume   311.66976580
_cell_formula_units_Z   1
loop_
 _symmetry_equiv_pos_site_id
 _symmetry_equiv_pos_as_xyz
  1  'x, y, z'
loop_
 _atom_site_type_symbol
 _atom_site_label
 _atom_site_symmetry_multiplicity
 _atom_site_fract_x
 _atom_site_fract_y
 _atom_site_fract_z
 _atom_site_occupancy
  Nb  Nb0  1  0.936416  0.468208  0.223228  1
  Nb  Nb1  1  0.531792  0.063584  0.223228  1
  Nb  Nb2  1  0.531792  0.468208  0.223228  1
  S  S3  1  0.666667  0.333333  0.472736  1
  Br  Br4  1  0.331492  0.165746  0.976208  1
  Br  Br5  1  0.834254  0.668508  0.976208  1
  Br  Br6  1  0.333333  0.666667  0.020830  1
  Br  Br7  1  0.669435  0.834717  0.431009  1
  Br  Br8  1  0.165283  0.834717  0.431009  1
  Br  Br9  1  0.165283  0.330565  0.431009  1
  Br  Br10  1  0.834254  0.165746  0.976208  1
