# generated using pymatgen
data_KPHNO2
_symmetry_space_group_name_H-M   'P 1'
_cell_length_a   8.19564138
_cell_length_b   8.19564138
_cell_length_c   8.19564138
_cell_angle_alpha   103.79679194
_cell_angle_beta   103.79679194
_cell_angle_gamma   103.79679194
_symmetry_Int_Tables_number   1
_chemical_formula_structural   KPHNO2
_chemical_formula_sum   'K6 P6 H6 N6 O12'
_cell_volume   493.06676356
_cell_formula_units_Z   6
loop_
 _symmetry_equiv_pos_site_id
 _symmetry_equiv_pos_as_xyz
  1  'x, y, z'
loop_
 _atom_site_type_symbol
 _atom_site_label
 _atom_site_symmetry_multiplicity
 _atom_site_fract_x
 _atom_site_fract_y
 _atom_site_fract_z
 _atom_site_occupancy
  K  K0  1  0.685269  0.173120  0.871701  1
  K  K1  1  0.871701  0.685269  0.173120  1
  K  K2  1  0.173120  0.871701  0.685269  1
  K  K3  1  0.314731  0.826880  0.128299  1
  K  K4  1  0.128299  0.314731  0.826880  1
  K  K5  1  0.826880  0.128299  0.314731  1
  P  P6  1  0.447561  0.278615  0.180056  1
  P  P7  1  0.180056  0.447561  0.278615  1
  P  P8  1  0.278615  0.180056  0.447561  1
  P  P9  1  0.552439  0.721385  0.819944  1
  P  P10  1  0.819944  0.552439  0.721385  1
  P  P11  1  0.721385  0.819944  0.552439  1
  H  H12  1  0.541619  0.431462  0.738135  1
  H  H13  1  0.738135  0.541619  0.431462  1
  H  H14  1  0.431462  0.738135  0.541619  1
  H  H15  1  0.458381  0.568538  0.261865  1
  H  H16  1  0.261865  0.458381  0.568538  1
  H  H17  1  0.568538  0.261865  0.458381  1
  N  N18  1  0.640998  0.552252  0.794418  1
  N  N19  1  0.794418  0.640998  0.552252  1
  N  N20  1  0.552252  0.794418  0.640998  1
  N  N21  1  0.359002  0.447748  0.205582  1
  N  N22  1  0.205582  0.359002  0.447748  1
  N  N23  1  0.447748  0.205582  0.359002  1
  O  O24  1  0.640851  0.359311  0.198357  1
  O  O25  1  0.359311  0.198357  0.640851  1
  O  O26  1  0.198357  0.640851  0.359311  1
  O  O27  1  0.359149  0.640689  0.801643  1
  O  O28  1  0.640689  0.801643  0.359149  1
  O  O29  1  0.801643  0.359149  0.640689  1
  O  O30  1  0.129238  0.015162  0.331433  1
  O  O31  1  0.015162  0.331433  0.129238  1
  O  O32  1  0.331433  0.129238  0.015162  1
  O  O33  1  0.870762  0.984838  0.668567  1
  O  O34  1  0.984838  0.668567  0.870762  1
  O  O35  1  0.668567  0.870762  0.984838  1
