# generated using pymatgen
data_Sr2In2O5
_symmetry_space_group_name_H-M   'P 1'
_cell_length_a   9.05744089
_cell_length_b   9.05744089
_cell_length_c   9.05744089
_cell_angle_alpha   141.81845885
_cell_angle_beta   140.31204231
_cell_angle_gamma   56.24864637
_symmetry_Int_Tables_number   1
_chemical_formula_structural   Sr2In2O5
_chemical_formula_sum   'Sr4 In4 O10'
_cell_volume   291.02659348
_cell_formula_units_Z   2
loop_
 _symmetry_equiv_pos_site_id
 _symmetry_equiv_pos_as_xyz
  1  'x, y, z'
loop_
 _atom_site_type_symbol
 _atom_site_label
 _atom_site_symmetry_multiplicity
 _atom_site_fract_x
 _atom_site_fract_y
 _atom_site_fract_z
 _atom_site_occupancy
  Sr  Sr0  1  0.133235  0.624104  0.542342  1
  Sr  Sr1  1  0.866765  0.409107  0.490869  1
  Sr  Sr2  1  0.581762  0.124104  0.490869  1
  Sr  Sr3  1  0.418238  0.909107  0.542342  1
  In  In4  1  0.000000  0.001537  0.001537  1
  In  In5  1  0.500000  0.501537  0.001537  1
  In  In6  1  0.186196  0.292014  0.978210  1
  In  In7  1  0.813804  0.792014  0.105819  1
  O  O8  1  0.867346  0.149247  0.516593  1
  O  O9  1  0.132654  0.649247  0.281901  1
  O  O10  1  0.442649  0.314660  0.035372  1
  O  O11  1  0.557351  0.592723  0.872011  1
  O  O12  1  0.779288  0.814660  0.872011  1
  O  O13  1  0.220712  0.092723  0.035372  1
  O  O14  1  0.773824  0.272802  0.011631  1
  O  O15  1  0.226176  0.237807  0.498978  1
  O  O16  1  0.238829  0.737807  0.011631  1
  O  O17  1  0.761171  0.772802  0.498978  1
