# generated using pymatgen
data_KAs2F7
_symmetry_space_group_name_H-M   'P 1'
_cell_length_a   8.96745749
_cell_length_b   7.46776702
_cell_length_c   11.11905414
_cell_angle_alpha   90.00000000
_cell_angle_beta   110.52274615
_cell_angle_gamma   90.00000000
_symmetry_Int_Tables_number   1
_chemical_formula_structural   KAs2F7
_chemical_formula_sum   'K4 As8 F28'
_cell_volume   697.35040250
_cell_formula_units_Z   4
loop_
 _symmetry_equiv_pos_site_id
 _symmetry_equiv_pos_as_xyz
  1  'x, y, z'
loop_
 _atom_site_type_symbol
 _atom_site_label
 _atom_site_symmetry_multiplicity
 _atom_site_fract_x
 _atom_site_fract_y
 _atom_site_fract_z
 _atom_site_occupancy
  K  K0  1  0.276486  0.654794  0.921947  1
  K  K1  1  0.223514  0.154794  0.078053  1
  K  K2  1  0.723514  0.345206  0.078053  1
  K  K3  1  0.776486  0.845206  0.921947  1
  As  As4  1  0.340076  0.180719  0.774372  1
  As  As5  1  0.159924  0.680719  0.225628  1
  As  As6  1  0.659924  0.819281  0.225628  1
  As  As7  1  0.840076  0.319281  0.774372  1
  As  As8  1  0.371265  0.670350  0.596361  1
  As  As9  1  0.128735  0.170350  0.403639  1
  As  As10  1  0.628735  0.329650  0.403639  1
  As  As11  1  0.871265  0.829650  0.596361  1
  F  F12  1  0.303628  0.005826  0.633666  1
  F  F13  1  0.196372  0.505826  0.366334  1
  F  F14  1  0.696372  0.994174  0.366334  1
  F  F15  1  0.803628  0.494174  0.633666  1
  F  F16  1  0.548469  0.125937  0.822890  1
  F  F17  1  0.951531  0.625937  0.177110  1
  F  F18  1  0.451531  0.874063  0.177110  1
  F  F19  1  0.048469  0.374063  0.822890  1
  F  F20  1  0.293519  0.004815  0.867038  1
  F  F21  1  0.206481  0.504815  0.132962  1
  F  F22  1  0.706481  0.995185  0.132962  1
  F  F23  1  0.793519  0.495185  0.867038  1
  F  F24  1  0.933568  0.060356  0.609804  1
  F  F25  1  0.566432  0.560356  0.390196  1
  F  F26  1  0.066432  0.939644  0.390196  1
  F  F27  1  0.433568  0.439644  0.609804  1
  F  F28  1  0.694482  0.878710  0.628738  1
  F  F29  1  0.805518  0.378710  0.371262  1
  F  F30  1  0.305518  0.121290  0.371262  1
  F  F31  1  0.194482  0.621290  0.628738  1
  F  F32  1  0.982066  0.797744  0.764030  1
  F  F33  1  0.517934  0.297744  0.235970  1
  F  F34  1  0.017934  0.202256  0.235970  1
  F  F35  1  0.482066  0.702256  0.764030  1
  F  F36  1  0.900407  0.179699  0.933738  1
  F  F37  1  0.599593  0.679699  0.066262  1
  F  F38  1  0.099593  0.820301  0.066262  1
  F  F39  1  0.400407  0.320301  0.933738  1
