# generated using pymatgen
data_XeN2(OF4)2
_symmetry_space_group_name_H-M   'P 1'
_cell_length_a   6.02040790
_cell_length_b   9.08970998
_cell_length_c   13.32052657
_cell_angle_alpha   90.00000000
_cell_angle_beta   90.00000000
_cell_angle_gamma   90.00000000
_symmetry_Int_Tables_number   1
_chemical_formula_structural   XeN2(OF4)2
_chemical_formula_sum   'Xe4 N8 O8 F32'
_cell_volume   728.94932270
_cell_formula_units_Z   4
loop_
 _symmetry_equiv_pos_site_id
 _symmetry_equiv_pos_as_xyz
  1  'x, y, z'
loop_
 _atom_site_type_symbol
 _atom_site_label
 _atom_site_symmetry_multiplicity
 _atom_site_fract_x
 _atom_site_fract_y
 _atom_site_fract_z
 _atom_site_occupancy
  Xe  Xe0  1  0.250000  0.787311  0.125705  1
  Xe  Xe1  1  0.750000  0.212689  0.874295  1
  Xe  Xe2  1  0.250000  0.287311  0.374295  1
  Xe  Xe3  1  0.750000  0.712689  0.625705  1
  N  N4  1  0.750000  0.579456  0.968205  1
  N  N5  1  0.750000  0.993600  0.281851  1
  N  N6  1  0.250000  0.006400  0.718149  1
  N  N7  1  0.750000  0.493600  0.218149  1
  N  N8  1  0.250000  0.920544  0.468205  1
  N  N9  1  0.750000  0.079456  0.531795  1
  N  N10  1  0.250000  0.506400  0.781851  1
  N  N11  1  0.250000  0.420544  0.031795  1
  O  O12  1  0.250000  0.941160  0.788096  1
  O  O13  1  0.750000  0.058840  0.211904  1
  O  O14  1  0.250000  0.441160  0.711904  1
  O  O15  1  0.750000  0.187580  0.569880  1
  O  O16  1  0.250000  0.812420  0.430120  1
  O  O17  1  0.750000  0.687580  0.930120  1
  O  O18  1  0.750000  0.558840  0.288096  1
  O  O19  1  0.250000  0.312420  0.069880  1
  F  F20  1  0.966131  0.874345  0.065735  1
  F  F21  1  0.466131  0.625655  0.565735  1
  F  F22  1  0.533869  0.874345  0.065735  1
  F  F23  1  0.033869  0.125655  0.934265  1
  F  F24  1  0.973844  0.918926  0.613951  1
  F  F25  1  0.473844  0.081074  0.386049  1
  F  F26  1  0.526156  0.418926  0.886049  1
  F  F27  1  0.966131  0.374345  0.434265  1
  F  F28  1  0.026156  0.081074  0.386049  1
  F  F29  1  0.526156  0.918926  0.613951  1
  F  F30  1  0.473844  0.581074  0.113951  1
  F  F31  1  0.973844  0.418926  0.886049  1
  F  F32  1  0.967789  0.714335  0.751048  1
  F  F33  1  0.467789  0.285665  0.248952  1
  F  F34  1  0.532211  0.214335  0.748952  1
  F  F35  1  0.032211  0.785665  0.251048  1
  F  F36  1  0.032211  0.285665  0.248952  1
  F  F37  1  0.532211  0.714335  0.751048  1
  F  F38  1  0.467789  0.785665  0.251048  1
  F  F39  1  0.967789  0.214335  0.748952  1
  F  F40  1  0.533869  0.374345  0.434265  1
  F  F41  1  0.033869  0.625655  0.565735  1
  F  F42  1  0.250000  0.003223  0.169122  1
  F  F43  1  0.750000  0.996777  0.830878  1
  F  F44  1  0.250000  0.503223  0.330878  1
  F  F45  1  0.750000  0.496777  0.669122  1
  F  F46  1  0.250000  0.727814  0.973712  1
  F  F47  1  0.750000  0.272186  0.026288  1
  F  F48  1  0.250000  0.227814  0.526288  1
  F  F49  1  0.750000  0.772186  0.473712  1
  F  F50  1  0.026156  0.581074  0.113951  1
  F  F51  1  0.466131  0.125655  0.934265  1
