# generated using pymatgen
data_TlZnSClO4
_symmetry_space_group_name_H-M   'P 1'
_cell_length_a   7.35868180
_cell_length_b   9.79796661
_cell_length_c   8.36611967
_cell_angle_alpha   90.00000000
_cell_angle_beta   94.59994435
_cell_angle_gamma   90.00000000
_symmetry_Int_Tables_number   1
_chemical_formula_structural   TlZnSClO4
_chemical_formula_sum   'Tl4 Zn4 S4 Cl4 O16'
_cell_volume   601.25529260
_cell_formula_units_Z   4
loop_
 _symmetry_equiv_pos_site_id
 _symmetry_equiv_pos_as_xyz
  1  'x, y, z'
loop_
 _atom_site_type_symbol
 _atom_site_label
 _atom_site_symmetry_multiplicity
 _atom_site_fract_x
 _atom_site_fract_y
 _atom_site_fract_z
 _atom_site_occupancy
  Tl  Tl0  1  0.377590  0.586734  0.707666  1
  Tl  Tl1  1  0.622410  0.086734  0.792334  1
  Tl  Tl2  1  0.622410  0.413266  0.292334  1
  Tl  Tl3  1  0.377590  0.913266  0.207666  1
  Zn  Zn4  1  0.905141  0.803088  0.456662  1
  Zn  Zn5  1  0.094859  0.196912  0.543338  1
  Zn  Zn6  1  0.905141  0.696912  0.956662  1
  Zn  Zn7  1  0.094859  0.303088  0.043338  1
  S  S8  1  0.106209  0.567761  0.268112  1
  S  S9  1  0.893791  0.432239  0.731888  1
  S  S10  1  0.893791  0.067761  0.231888  1
  S  S11  1  0.106209  0.932239  0.768112  1
  Cl  Cl12  1  0.625878  0.680410  0.036846  1
  Cl  Cl13  1  0.625878  0.819590  0.536846  1
  Cl  Cl14  1  0.374122  0.319590  0.963154  1
  Cl  Cl15  1  0.374122  0.180410  0.463154  1
  O  O16  1  0.047389  0.076062  0.728982  1
  O  O17  1  0.952611  0.576062  0.771018  1
  O  O18  1  0.952611  0.923938  0.271018  1
  O  O19  1  0.047389  0.423938  0.228982  1
  O  O20  1  0.286711  0.926571  0.855143  1
  O  O21  1  0.713289  0.426571  0.644857  1
  O  O22  1  0.713289  0.073429  0.144857  1
  O  O23  1  0.286711  0.573429  0.355143  1
  O  O24  1  0.960065  0.877319  0.865711  1
  O  O25  1  0.111833  0.648725  0.115036  1
  O  O26  1  0.039935  0.122681  0.134289  1
  O  O27  1  0.960065  0.622681  0.365711  1
  O  O28  1  0.111833  0.851275  0.615036  1
  O  O29  1  0.888167  0.351275  0.884964  1
  O  O30  1  0.888167  0.148725  0.384964  1
  O  O31  1  0.039935  0.377319  0.634289  1
