# generated using pymatgen
data_CrBiO3
_symmetry_space_group_name_H-M   'P 1'
_cell_length_a   5.56904834
_cell_length_b   5.56904834
_cell_length_c   9.76391202
_cell_angle_alpha   73.80585628
_cell_angle_beta   106.19414372
_cell_angle_gamma   119.82225141
_symmetry_Int_Tables_number   1
_chemical_formula_structural   CrBiO3
_chemical_formula_sum   'Cr4 Bi4 O12'
_cell_volume   248.69731320
_cell_formula_units_Z   4
loop_
 _symmetry_equiv_pos_site_id
 _symmetry_equiv_pos_as_xyz
  1  'x, y, z'
loop_
 _atom_site_type_symbol
 _atom_site_label
 _atom_site_symmetry_multiplicity
 _atom_site_fract_x
 _atom_site_fract_y
 _atom_site_fract_z
 _atom_site_occupancy
  Cr  Cr0  1  0.000000  0.500000  0.500000  1
  Cr  Cr1  1  0.500000  1.000000  0.000000  1
  Cr  Cr2  1  0.239238  0.239238  0.250000  1
  Cr  Cr3  1  0.760762  0.760762  0.750000  1
  Bi  Bi4  1  0.077107  0.345502  0.869173  1
  Bi  Bi5  1  0.345502  0.077107  0.630827  1
  Bi  Bi6  1  0.922893  0.654498  0.130827  1
  Bi  Bi7  1  0.654498  0.922893  0.369173  1
  O  O8  1  0.170093  0.873606  0.840490  1
  O  O9  1  0.873606  0.170093  0.659510  1
  O  O10  1  0.829907  0.126394  0.159510  1
  O  O11  1  0.126394  0.829907  0.340490  1
  O  O12  1  0.372144  0.682776  0.634914  1
  O  O13  1  0.682776  0.372144  0.865086  1
  O  O14  1  0.627856  0.317224  0.365086  1
  O  O15  1  0.317224  0.627856  0.134914  1
  O  O16  1  0.719029  0.886058  0.916424  1
  O  O17  1  0.886058  0.719029  0.583576  1
  O  O18  1  0.113942  0.280971  0.416424  1
  O  O19  1  0.280971  0.113942  0.083576  1
