# generated using pymatgen
data_Sn4OF6
_symmetry_space_group_name_H-M   'P 1'
_cell_length_a   5.12763588
_cell_length_b   10.93392965
_cell_length_c   16.58333138
_cell_angle_alpha   90.00000000
_cell_angle_beta   90.00000000
_cell_angle_gamma   90.00000000
_symmetry_Int_Tables_number   1
_chemical_formula_structural   Sn4OF6
_chemical_formula_sum   'Sn16 O4 F24'
_cell_volume   929.74795603
_cell_formula_units_Z   4
loop_
 _symmetry_equiv_pos_site_id
 _symmetry_equiv_pos_as_xyz
  1  'x, y, z'
loop_
 _atom_site_type_symbol
 _atom_site_label
 _atom_site_symmetry_multiplicity
 _atom_site_fract_x
 _atom_site_fract_y
 _atom_site_fract_z
 _atom_site_occupancy
  Sn  Sn0  1  0.466095  0.591583  0.517820  1
  Sn  Sn1  1  0.966095  0.908417  0.482180  1
  Sn  Sn2  1  0.533905  0.091583  0.982180  1
  Sn  Sn3  1  0.033905  0.408417  0.017820  1
  Sn  Sn4  1  0.462385  0.470351  0.190430  1
  Sn  Sn5  1  0.962385  0.029649  0.809570  1
  Sn  Sn6  1  0.537615  0.970351  0.309570  1
  Sn  Sn7  1  0.037615  0.529649  0.690430  1
  Sn  Sn8  1  0.964223  0.701352  0.315375  1
  Sn  Sn9  1  0.464223  0.798648  0.684625  1
  Sn  Sn10  1  0.035777  0.201352  0.184625  1
  Sn  Sn11  1  0.535777  0.298648  0.815375  1
  Sn  Sn12  1  0.870711  0.305104  0.410077  1
  Sn  Sn13  1  0.370711  0.194896  0.589923  1
  Sn  Sn14  1  0.129289  0.805104  0.089923  1
  Sn  Sn15  1  0.629289  0.694896  0.910077  1
  O  O16  1  0.175096  0.364652  0.133445  1
  O  O17  1  0.675096  0.135348  0.866555  1
  O  O18  1  0.824904  0.864652  0.366555  1
  O  O19  1  0.324904  0.635348  0.633445  1
  F  F20  1  0.658099  0.475104  0.076959  1
  F  F21  1  0.158099  0.024896  0.923041  1
  F  F22  1  0.341901  0.975104  0.423041  1
  F  F23  1  0.841901  0.524896  0.576959  1
  F  F24  1  0.196701  0.620217  0.120964  1
  F  F25  1  0.696701  0.879783  0.879036  1
  F  F26  1  0.803299  0.120217  0.379036  1
  F  F27  1  0.303299  0.379783  0.620964  1
  F  F28  1  0.734048  0.233918  0.534729  1
  F  F29  1  0.234048  0.266082  0.465271  1
  F  F30  1  0.265952  0.733918  0.965271  1
  F  F31  1  0.765952  0.766082  0.034729  1
  F  F32  1  0.365583  0.706285  0.796376  1
  F  F33  1  0.865583  0.793715  0.203624  1
  F  F34  1  0.634417  0.206285  0.703624  1
  F  F35  1  0.134417  0.293715  0.296376  1
  F  F36  1  0.638959  0.769898  0.538558  1
  F  F37  1  0.138959  0.730102  0.461442  1
  F  F38  1  0.361041  0.269898  0.961442  1
  F  F39  1  0.861041  0.230102  0.038558  1
  F  F40  1  0.839052  0.719044  0.705499  1
  F  F41  1  0.339052  0.780956  0.294501  1
  F  F42  1  0.160948  0.219044  0.794501  1
  F  F43  1  0.660948  0.280956  0.205499  1
