# generated using pymatgen
data_SiI3
_symmetry_space_group_name_H-M   'P 1'
_cell_length_a   8.50299466
_cell_length_b   13.28485370
_cell_length_c   14.72551536
_cell_angle_alpha   90.00000000
_cell_angle_beta   90.00000000
_cell_angle_gamma   90.00000000
_symmetry_Int_Tables_number   1
_chemical_formula_structural   SiI3
_chemical_formula_sum   'Si8 I24'
_cell_volume   1663.40953063
_cell_formula_units_Z   8
loop_
 _symmetry_equiv_pos_site_id
 _symmetry_equiv_pos_as_xyz
  1  'x, y, z'
loop_
 _atom_site_type_symbol
 _atom_site_label
 _atom_site_symmetry_multiplicity
 _atom_site_fract_x
 _atom_site_fract_y
 _atom_site_fract_z
 _atom_site_occupancy
  Si  Si0  1  0.780574  0.750000  0.603781  1
  Si  Si1  1  0.280574  0.250000  0.896219  1
  Si  Si2  1  0.219426  0.250000  0.396219  1
  Si  Si3  1  0.719426  0.750000  0.103781  1
  Si  Si4  1  0.049257  0.750000  0.646613  1
  Si  Si5  1  0.549257  0.250000  0.853387  1
  Si  Si6  1  0.950743  0.250000  0.353387  1
  Si  Si7  1  0.450743  0.750000  0.146613  1
  I  I8  1  0.770013  0.597566  0.013531  1
  I  I9  1  0.270013  0.402434  0.486469  1
  I  I10  1  0.229987  0.097566  0.986469  1
  I  I11  1  0.729987  0.902434  0.513531  1
  I  I12  1  0.229987  0.402434  0.986469  1
  I  I13  1  0.729987  0.597566  0.513531  1
  I  I14  1  0.770013  0.902434  0.013531  1
  I  I15  1  0.270013  0.097566  0.486469  1
  I  I16  1  0.291052  0.750000  0.006946  1
  I  I17  1  0.791052  0.250000  0.493054  1
  I  I18  1  0.708948  0.250000  0.993054  1
  I  I19  1  0.208948  0.750000  0.506946  1
  I  I20  1  0.882108  0.750000  0.241799  1
  I  I21  1  0.382108  0.250000  0.258201  1
  I  I22  1  0.117892  0.250000  0.758201  1
  I  I23  1  0.617892  0.750000  0.741799  1
  I  I24  1  0.896729  0.098021  0.263039  1
  I  I25  1  0.396729  0.901979  0.236961  1
  I  I26  1  0.103271  0.598021  0.736961  1
  I  I27  1  0.603271  0.401979  0.763039  1
  I  I28  1  0.103271  0.901979  0.736961  1
  I  I29  1  0.603271  0.098021  0.763039  1
  I  I30  1  0.896729  0.401979  0.263039  1
  I  I31  1  0.396729  0.598021  0.236961  1
