# generated using pymatgen
data_KTe2F9
_symmetry_space_group_name_H-M   'P 1'
_cell_length_a   4.94548418
_cell_length_b   9.50763053
_cell_length_c   9.58058588
_cell_angle_alpha   109.67390878
_cell_angle_beta   96.07129422
_cell_angle_gamma   95.74194485
_symmetry_Int_Tables_number   1
_chemical_formula_structural   KTe2F9
_chemical_formula_sum   'K2 Te4 F18'
_cell_volume   417.35103435
_cell_formula_units_Z   2
loop_
 _symmetry_equiv_pos_site_id
 _symmetry_equiv_pos_as_xyz
  1  'x, y, z'
loop_
 _atom_site_type_symbol
 _atom_site_label
 _atom_site_symmetry_multiplicity
 _atom_site_fract_x
 _atom_site_fract_y
 _atom_site_fract_z
 _atom_site_occupancy
  K  K0  1  0.620568  0.757660  0.543533  1
  K  K1  1  0.379432  0.242340  0.456467  1
  Te  Te2  1  0.634357  0.905045  0.177096  1
  Te  Te3  1  0.365643  0.094955  0.822904  1
  Te  Te4  1  0.886042  0.462451  0.191611  1
  Te  Te5  1  0.113958  0.537549  0.808389  1
  F  F6  1  0.308946  0.757504  0.032393  1
  F  F7  1  0.691054  0.242496  0.967607  1
  F  F8  1  0.565594  0.930851  0.844591  1
  F  F9  1  0.434406  0.069149  0.155409  1
  F  F10  1  0.786989  0.548589  0.915781  1
  F  F11  1  0.213011  0.451411  0.084219  1
  F  F12  1  0.136507  0.600908  0.358608  1
  F  F13  1  0.863493  0.399092  0.641392  1
  F  F14  1  0.016685  0.298177  0.236296  1
  F  F15  1  0.983315  0.701823  0.763704  1
  F  F16  1  0.619440  0.093451  0.685433  1
  F  F17  1  0.380560  0.906549  0.314567  1
  F  F18  1  0.345101  0.541095  0.649476  1
  F  F19  1  0.654899  0.458905  0.350524  1
  F  F20  1  0.148490  0.940884  0.640468  1
  F  F21  1  0.851510  0.059116  0.359532  1
  F  F22  1  0.257271  0.262996  0.749211  1
  F  F23  1  0.742729  0.737004  0.250789  1
