# generated using pymatgen
data_Ba2PCl
_symmetry_space_group_name_H-M   'P 1'
_cell_length_a   8.15288738
_cell_length_b   8.15288738
_cell_length_c   8.15288738
_cell_angle_alpha   33.31148697
_cell_angle_beta   33.31148697
_cell_angle_gamma   33.31148697
_symmetry_Int_Tables_number   1
_chemical_formula_structural   Ba2PCl
_chemical_formula_sum   'Ba2 P1 Cl1'
_cell_volume   145.52852185
_cell_formula_units_Z   1
loop_
 _symmetry_equiv_pos_site_id
 _symmetry_equiv_pos_as_xyz
  1  'x, y, z'
loop_
 _atom_site_type_symbol
 _atom_site_label
 _atom_site_symmetry_multiplicity
 _atom_site_fract_x
 _atom_site_fract_y
 _atom_site_fract_z
 _atom_site_occupancy
  Ba  Ba0  1  0.240362  0.240362  0.240362  1
  Ba  Ba1  1  0.759638  0.759638  0.759638  1
  P  P2  1  0.500000  0.500000  0.500000  1
  Cl  Cl3  1  0.000000  1.000000  0.000000  1
