# generated using pymatgen
data_Tl6SCl4
_symmetry_space_group_name_H-M   'P 1'
_cell_length_a   8.70890631
_cell_length_b   8.70890631
_cell_length_c   9.37756185
_cell_angle_alpha   90.00000000
_cell_angle_beta   90.00000000
_cell_angle_gamma   90.00000000
_symmetry_Int_Tables_number   1
_chemical_formula_structural   Tl6SCl4
_chemical_formula_sum   'Tl12 S2 Cl8'
_cell_volume   711.24163910
_cell_formula_units_Z   2
loop_
 _symmetry_equiv_pos_site_id
 _symmetry_equiv_pos_as_xyz
  1  'x, y, z'
loop_
 _atom_site_type_symbol
 _atom_site_label
 _atom_site_symmetry_multiplicity
 _atom_site_fract_x
 _atom_site_fract_y
 _atom_site_fract_z
 _atom_site_occupancy
  Tl  Tl0  1  0.680621  0.889809  0.500000  1
  Tl  Tl1  1  0.319379  0.110191  0.500000  1
  Tl  Tl2  1  0.610191  0.819379  0.000000  1
  Tl  Tl3  1  0.110191  0.680621  0.500000  1
  Tl  Tl4  1  0.889809  0.319379  0.500000  1
  Tl  Tl5  1  0.180621  0.610191  0.000000  1
  Tl  Tl6  1  0.819379  0.389809  0.000000  1
  Tl  Tl7  1  0.389809  0.180621  0.000000  1
  Tl  Tl8  1  0.000000  0.000000  0.803883  1
  Tl  Tl9  1  0.500000  0.500000  0.696117  1
  Tl  Tl10  1  0.000000  0.000000  0.196117  1
  Tl  Tl11  1  0.500000  0.500000  0.303883  1
  S  S12  1  0.000000  0.000000  0.500000  1
  S  S13  1  0.500000  0.500000  0.000000  1
  Cl  Cl14  1  0.175556  0.324444  0.750000  1
  Cl  Cl15  1  0.675556  0.175556  0.750000  1
  Cl  Cl16  1  0.324444  0.824444  0.750000  1
  Cl  Cl17  1  0.824444  0.675556  0.750000  1
  Cl  Cl18  1  0.824444  0.675556  0.250000  1
  Cl  Cl19  1  0.324444  0.824444  0.250000  1
  Cl  Cl20  1  0.675556  0.175556  0.250000  1
  Cl  Cl21  1  0.175556  0.324444  0.250000  1
