# generated using pymatgen
data_KBiO3
_symmetry_space_group_name_H-M   'P 1'
_cell_length_a   10.21523612
_cell_length_b   10.21523612
_cell_length_c   10.21523612
_cell_angle_alpha   90.00000000
_cell_angle_beta   90.00000000
_cell_angle_gamma   90.00000000
_symmetry_Int_Tables_number   1
_chemical_formula_structural   KBiO3
_chemical_formula_sum   'K12 Bi12 O36'
_cell_volume   1065.97060478
_cell_formula_units_Z   12
loop_
 _symmetry_equiv_pos_site_id
 _symmetry_equiv_pos_as_xyz
  1  'x, y, z'
loop_
 _atom_site_type_symbol
 _atom_site_label
 _atom_site_symmetry_multiplicity
 _atom_site_fract_x
 _atom_site_fract_y
 _atom_site_fract_z
 _atom_site_occupancy
  K  K0  1  0.750000  0.750000  0.750000  1
  K  K1  1  0.250000  0.250000  0.750000  1
  K  K2  1  0.750000  0.250000  0.250000  1
  K  K3  1  0.250000  0.750000  0.250000  1
  K  K4  1  0.155581  0.155581  0.155581  1
  K  K5  1  0.844419  0.844419  0.155581  1
  K  K6  1  0.155581  0.844419  0.844419  1
  K  K7  1  0.844419  0.155581  0.844419  1
  K  K8  1  0.344419  0.344419  0.344419  1
  K  K9  1  0.655581  0.655581  0.344419  1
  K  K10  1  0.344419  0.655581  0.655581  1
  K  K11  1  0.655581  0.344419  0.655581  1
  Bi  Bi12  1  0.340524  0.500000  0.000000  1
  Bi  Bi13  1  0.000000  0.340524  0.500000  1
  Bi  Bi14  1  0.500000  0.000000  0.340524  1
  Bi  Bi15  1  0.000000  0.659476  0.500000  1
  Bi  Bi16  1  0.500000  0.000000  0.659476  1
  Bi  Bi17  1  0.659476  0.500000  0.000000  1
  Bi  Bi18  1  0.159476  0.000000  0.500000  1
  Bi  Bi19  1  0.500000  0.159476  0.000000  1
  Bi  Bi20  1  0.000000  0.500000  0.159476  1
  Bi  Bi21  1  0.500000  0.840524  0.000000  1
  Bi  Bi22  1  0.000000  0.500000  0.840524  1
  Bi  Bi23  1  0.840524  0.000000  0.500000  1
  O  O24  1  0.786662  0.502868  0.165554  1
  O  O25  1  0.786662  0.497132  0.834446  1
  O  O26  1  0.213338  0.502868  0.834446  1
  O  O27  1  0.497132  0.834446  0.786662  1
  O  O28  1  0.834446  0.213338  0.502868  1
  O  O29  1  0.834446  0.786662  0.497132  1
  O  O30  1  0.502868  0.165554  0.786662  1
  O  O31  1  0.165554  0.786662  0.502868  1
  O  O32  1  0.502868  0.834446  0.213338  1
  O  O33  1  0.497132  0.165554  0.213338  1
  O  O34  1  0.165554  0.213338  0.497132  1
  O  O35  1  0.213338  0.497132  0.165554  1
  O  O36  1  0.713338  0.997132  0.334446  1
  O  O37  1  0.713338  0.002868  0.665554  1
  O  O38  1  0.859487  0.500000  0.500000  1
  O  O39  1  0.286662  0.997132  0.665554  1
  O  O40  1  0.665554  0.286662  0.997132  1
  O  O41  1  0.665554  0.713338  0.002868  1
  O  O42  1  0.997132  0.334446  0.713338  1
  O  O43  1  0.334446  0.713338  0.997132  1
  O  O44  1  0.997132  0.665554  0.286662  1
  O  O45  1  0.002868  0.334446  0.286662  1
  O  O46  1  0.334446  0.286662  0.002868  1
  O  O47  1  0.286662  0.002868  0.334446  1
  O  O48  1  0.359487  0.000000  0.000000  1
  O  O49  1  0.000000  0.359487  0.000000  1
  O  O50  1  0.000000  0.000000  0.359487  1
  O  O51  1  0.000000  0.640513  0.000000  1
  O  O52  1  0.000000  0.000000  0.640513  1
  O  O53  1  0.640513  0.000000  0.000000  1
  O  O54  1  0.140513  0.500000  0.500000  1
  O  O55  1  0.500000  0.140513  0.500000  1
  O  O56  1  0.500000  0.500000  0.140513  1
  O  O57  1  0.500000  0.859487  0.500000  1
  O  O58  1  0.500000  0.500000  0.859487  1
  O  O59  1  0.002868  0.665554  0.713338  1
