# generated using pymatgen
data_Ca2Fe2O5
_symmetry_space_group_name_H-M   'P 1'
_cell_length_a   5.52288631
_cell_length_b   5.66701256
_cell_length_c   14.88538496
_cell_angle_alpha   90.00000000
_cell_angle_beta   90.00000000
_cell_angle_gamma   90.00000000
_symmetry_Int_Tables_number   1
_chemical_formula_structural   Ca2Fe2O5
_chemical_formula_sum   'Ca8 Fe8 O20'
_cell_volume   465.88673927
_cell_formula_units_Z   4
loop_
 _symmetry_equiv_pos_site_id
 _symmetry_equiv_pos_as_xyz
  1  'x, y, z'
loop_
 _atom_site_type_symbol
 _atom_site_label
 _atom_site_symmetry_multiplicity
 _atom_site_fract_x
 _atom_site_fract_y
 _atom_site_fract_z
 _atom_site_occupancy
  Ca  Ca0  1  0.972908  0.524057  0.891732  1
  Ca  Ca1  1  0.472908  0.975943  0.608268  1
  Ca  Ca2  1  0.027092  0.475943  0.391732  1
  Ca  Ca3  1  0.527092  0.024057  0.108268  1
  Ca  Ca4  1  0.027092  0.475943  0.108268  1
  Ca  Ca5  1  0.527092  0.024057  0.391732  1
  Ca  Ca6  1  0.972908  0.524057  0.608268  1
  Ca  Ca7  1  0.472908  0.975943  0.891732  1
  Fe  Fe8  1  0.500000  0.500000  0.000000  1
  Fe  Fe9  1  0.000000  0.000000  0.500000  1
  Fe  Fe10  1  0.500000  0.500000  0.500000  1
  Fe  Fe11  1  0.000000  0.000000  0.000000  1
  Fe  Fe12  1  0.445291  0.435740  0.750000  1
  Fe  Fe13  1  0.945291  0.064260  0.750000  1
  Fe  Fe14  1  0.554709  0.564260  0.250000  1
  Fe  Fe15  1  0.054709  0.935740  0.250000  1
  O  O16  1  0.771968  0.727977  0.018019  1
  O  O17  1  0.271968  0.772023  0.481981  1
  O  O18  1  0.228032  0.272023  0.518019  1
  O  O19  1  0.728032  0.227977  0.981981  1
  O  O20  1  0.228032  0.272023  0.981981  1
  O  O21  1  0.728032  0.227977  0.518019  1
  O  O22  1  0.771968  0.727977  0.481981  1
  O  O23  1  0.271968  0.772023  0.018019  1
  O  O24  1  0.531474  0.578502  0.858841  1
  O  O25  1  0.031474  0.921498  0.641159  1
  O  O26  1  0.468526  0.421498  0.358841  1
  O  O27  1  0.968526  0.078502  0.141159  1
  O  O28  1  0.468526  0.421498  0.141159  1
  O  O29  1  0.968526  0.078502  0.358841  1
  O  O30  1  0.531474  0.578502  0.641159  1
  O  O31  1  0.031474  0.921498  0.858841  1
  O  O32  1  0.096893  0.378027  0.750000  1
  O  O33  1  0.596893  0.121973  0.750000  1
  O  O34  1  0.903107  0.621973  0.250000  1
  O  O35  1  0.403107  0.878027  0.250000  1
