# generated using pymatgen
data_Pt(SCl3)2
_symmetry_space_group_name_H-M   'P 1'
_cell_length_a   4.89485062
_cell_length_b   6.94917983
_cell_length_c   8.39910157
_cell_angle_alpha   104.09874810
_cell_angle_beta   96.99605128
_cell_angle_gamma   92.98101834
_symmetry_Int_Tables_number   1
_chemical_formula_structural   Pt(SCl3)2
_chemical_formula_sum   'Pt1 S2 Cl6'
_cell_volume   274.03640033
_cell_formula_units_Z   1
loop_
 _symmetry_equiv_pos_site_id
 _symmetry_equiv_pos_as_xyz
  1  'x, y, z'
loop_
 _atom_site_type_symbol
 _atom_site_label
 _atom_site_symmetry_multiplicity
 _atom_site_fract_x
 _atom_site_fract_y
 _atom_site_fract_z
 _atom_site_occupancy
  Pt  Pt0  1  0.500000  0.500000  0.500000  1
  S  S1  1  0.216888  0.273797  0.295921  1
  S  S2  1  0.783112  0.726203  0.704079  1
  Cl  Cl3  1  0.592704  0.985473  0.718601  1
  Cl  Cl4  1  0.223310  0.373079  0.663405  1
  Cl  Cl5  1  0.776690  0.626921  0.336595  1
  Cl  Cl6  1  0.250525  0.321485  0.069112  1
  Cl  Cl7  1  0.749475  0.678515  0.930888  1
  Cl  Cl8  1  0.407296  0.014527  0.281399  1
