# generated using pymatgen
data_TmCrO4
_symmetry_space_group_name_H-M   'P 1'
_cell_length_a   5.92039336
_cell_length_b   5.92039336
_cell_length_c   5.92039336
_cell_angle_alpha   106.08826603
_cell_angle_beta   106.08826603
_cell_angle_gamma   116.47224455
_symmetry_Int_Tables_number   1
_chemical_formula_structural   TmCrO4
_chemical_formula_sum   'Tm2 Cr2 O8'
_cell_volume   157.93611133
_cell_formula_units_Z   2
loop_
 _symmetry_equiv_pos_site_id
 _symmetry_equiv_pos_as_xyz
  1  'x, y, z'
loop_
 _atom_site_type_symbol
 _atom_site_label
 _atom_site_symmetry_multiplicity
 _atom_site_fract_x
 _atom_site_fract_y
 _atom_site_fract_z
 _atom_site_occupancy
  Tm  Tm0  1  0.000000  0.000000  0.000000  1
  Tm  Tm1  1  0.250000  0.750000  0.500000  1
  Cr  Cr2  1  0.750000  0.250000  0.500000  1
  Cr  Cr3  1  0.500000  0.500000  0.000000  1
  O  O4  1  0.862876  0.677101  0.185774  1
  O  O5  1  0.927101  0.241327  0.314226  1
  O  O6  1  0.927101  0.612876  0.685774  1
  O  O7  1  0.491327  0.677101  0.814226  1
  O  O8  1  0.322899  0.508673  0.185774  1
  O  O9  1  0.387124  0.072899  0.314226  1
  O  O10  1  0.758673  0.072899  0.685774  1
  O  O11  1  0.322899  0.137124  0.814226  1
