# generated using pymatgen
data_BaTa2Bi2O9
_symmetry_space_group_name_H-M   'P 1'
_cell_length_a   12.93976167
_cell_length_b   12.93976167
_cell_length_c   12.93976167
_cell_angle_alpha   162.35729762
_cell_angle_beta   162.35729762
_cell_angle_gamma   25.05115597
_symmetry_Int_Tables_number   1
_chemical_formula_structural   BaTa2Bi2O9
_chemical_formula_sum   'Ba1 Ta2 Bi2 O9'
_cell_volume   198.96103059
_cell_formula_units_Z   1
loop_
 _symmetry_equiv_pos_site_id
 _symmetry_equiv_pos_as_xyz
  1  'x, y, z'
loop_
 _atom_site_type_symbol
 _atom_site_label
 _atom_site_symmetry_multiplicity
 _atom_site_fract_x
 _atom_site_fract_y
 _atom_site_fract_z
 _atom_site_occupancy
  Ba  Ba0  1  0.000000  0.000000  0.000000  1
  Ta  Ta1  1  0.411997  0.411997  0.000000  1
  Ta  Ta2  1  0.588003  0.588003  0.000000  1
  Bi  Bi3  1  0.201343  0.201343  0.000000  1
  Bi  Bi4  1  0.798657  0.798657  0.000000  1
  O  O5  1  0.080794  0.580794  0.500000  1
  O  O6  1  0.580794  0.080794  0.500000  1
  O  O7  1  0.919206  0.419206  0.500000  1
  O  O8  1  0.419206  0.919206  0.500000  1
  O  O9  1  0.750000  0.250000  0.500000  1
  O  O10  1  0.500000  0.500000  0.000000  1
  O  O11  1  0.337204  0.337204  0.000000  1
  O  O12  1  0.662796  0.662796  0.000000  1
  O  O13  1  0.250000  0.750000  0.500000  1
