# generated using pymatgen
data_PrClO
_symmetry_space_group_name_H-M   'P 1'
_cell_length_a   4.10759953
_cell_length_b   4.10759953
_cell_length_c   6.88123350
_cell_angle_alpha   90.00000000
_cell_angle_beta   90.00000000
_cell_angle_gamma   90.00000000
_symmetry_Int_Tables_number   1
_chemical_formula_structural   PrClO
_chemical_formula_sum   'Pr2 Cl2 O2'
_cell_volume   116.10274450
_cell_formula_units_Z   2
loop_
 _symmetry_equiv_pos_site_id
 _symmetry_equiv_pos_as_xyz
  1  'x, y, z'
loop_
 _atom_site_type_symbol
 _atom_site_label
 _atom_site_symmetry_multiplicity
 _atom_site_fract_x
 _atom_site_fract_y
 _atom_site_fract_z
 _atom_site_occupancy
  Pr  Pr0  1  0.500000  0.000000  0.826324  1
  Pr  Pr1  1  0.000000  0.500000  0.173676  1
  Cl  Cl2  1  0.000000  0.500000  0.627467  1
  Cl  Cl3  1  0.500000  0.000000  0.372533  1
  O  O4  1  0.000000  0.000000  0.000000  1
  O  O5  1  0.500000  0.500000  0.000000  1
