# generated using pymatgen
data_SnS
_symmetry_space_group_name_H-M   'P 1'
_cell_length_a   4.02397220
_cell_length_b   4.44251066
_cell_length_c   11.43265210
_cell_angle_alpha   90.00000000
_cell_angle_beta   90.00000000
_cell_angle_gamma   90.00000000
_symmetry_Int_Tables_number   1
_chemical_formula_structural   SnS
_chemical_formula_sum   'Sn4 S4'
_cell_volume   204.37625564
_cell_formula_units_Z   4
loop_
 _symmetry_equiv_pos_site_id
 _symmetry_equiv_pos_as_xyz
  1  'x, y, z'
loop_
 _atom_site_type_symbol
 _atom_site_label
 _atom_site_symmetry_multiplicity
 _atom_site_fract_x
 _atom_site_fract_y
 _atom_site_fract_z
 _atom_site_occupancy
  Sn  Sn0  1  0.250000  0.373976  0.621238  1
  Sn  Sn1  1  0.750000  0.626024  0.378762  1
  Sn  Sn2  1  0.750000  0.873976  0.878762  1
  Sn  Sn3  1  0.250000  0.126024  0.121238  1
  S  S4  1  0.250000  0.019867  0.349830  1
  S  S5  1  0.750000  0.980133  0.650170  1
  S  S6  1  0.750000  0.519867  0.150170  1
  S  S7  1  0.250000  0.480133  0.849830  1
