# generated using pymatgen
data_Rb2ZnH12(SeO7)2
_symmetry_space_group_name_H-M   'P 1'
_cell_length_a   6.45603788
_cell_length_b   12.80854129
_cell_length_c   9.41547832
_cell_angle_alpha   90.00000000
_cell_angle_beta   104.72586458
_cell_angle_gamma   90.00000000
_symmetry_Int_Tables_number   1
_chemical_formula_structural   Rb2ZnH12(SeO7)2
_chemical_formula_sum   'Rb4 Zn2 H24 Se4 O28'
_cell_volume   753.01453544
_cell_formula_units_Z   2
loop_
 _symmetry_equiv_pos_site_id
 _symmetry_equiv_pos_as_xyz
  1  'x, y, z'
loop_
 _atom_site_type_symbol
 _atom_site_label
 _atom_site_symmetry_multiplicity
 _atom_site_fract_x
 _atom_site_fract_y
 _atom_site_fract_z
 _atom_site_occupancy
  Rb  Rb0  1  0.656203  0.346348  0.866421  1
  Rb  Rb1  1  0.343797  0.846348  0.633579  1
  Rb  Rb2  1  0.343797  0.653652  0.133579  1
  Rb  Rb3  1  0.656203  0.153652  0.366421  1
  Zn  Zn4  1  0.000000  0.000000  0.000000  1
  Zn  Zn5  1  0.000000  0.500000  0.500000  1
  H  H6  1  0.676378  0.638349  0.471646  1
  H  H7  1  0.323622  0.138349  0.028354  1
  H  H8  1  0.323622  0.361651  0.528354  1
  H  H9  1  0.676378  0.861651  0.971646  1
  H  H10  1  0.665824  0.557771  0.597450  1
  H  H11  1  0.334176  0.057771  0.902550  1
  H  H12  1  0.071438  0.404190  0.769895  1
  H  H13  1  0.928562  0.904190  0.730105  1
  H  H14  1  0.928562  0.595810  0.230105  1
  H  H15  1  0.071438  0.095810  0.269895  1
  H  H16  1  0.902801  0.372600  0.258549  1
  H  H17  1  0.097199  0.872600  0.241451  1
  H  H18  1  0.097199  0.627400  0.741451  1
  H  H19  1  0.902801  0.127400  0.758549  1
  H  H20  1  0.682025  0.409326  0.293333  1
  H  H21  1  0.317975  0.909326  0.206667  1
  H  H22  1  0.317975  0.590674  0.706667  1
  H  H23  1  0.682025  0.090674  0.793333  1
  H  H24  1  0.998866  0.816593  0.852580  1
  H  H25  1  0.001134  0.316593  0.647420  1
  H  H26  1  0.665824  0.942229  0.097450  1
  H  H27  1  0.334176  0.442229  0.402550  1
  H  H28  1  0.998866  0.683407  0.352580  1
  H  H29  1  0.001134  0.183407  0.147420  1
  Se  Se30  1  0.266968  0.140163  0.596423  1
  Se  Se31  1  0.733032  0.640163  0.903577  1
  Se  Se32  1  0.266968  0.359837  0.096423  1
  Se  Se33  1  0.733032  0.859837  0.403577  1
  O  O34  1  0.167560  0.612388  0.661375  1
  O  O35  1  0.167560  0.887612  0.161375  1
  O  O36  1  0.972980  0.109762  0.171220  1
  O  O37  1  0.027020  0.609762  0.328780  1
  O  O38  1  0.027020  0.890238  0.828780  1
  O  O39  1  0.972980  0.390238  0.671220  1
  O  O40  1  0.706888  0.935858  0.002788  1
  O  O41  1  0.832440  0.112388  0.838625  1
  O  O42  1  0.293112  0.064142  0.997212  1
  O  O43  1  0.706888  0.564142  0.502788  1
  O  O44  1  0.033531  0.318224  0.125858  1
  O  O45  1  0.966469  0.818224  0.374142  1
  O  O46  1  0.966469  0.681776  0.874142  1
  O  O47  1  0.033531  0.181776  0.625858  1
  O  O48  1  0.400109  0.435422  0.236174  1
  O  O49  1  0.599891  0.935422  0.263826  1
  O  O50  1  0.599891  0.564578  0.763826  1
  O  O51  1  0.400109  0.064578  0.736174  1
  O  O52  1  0.224773  0.430428  0.942502  1
  O  O53  1  0.775227  0.930428  0.557498  1
  O  O54  1  0.775227  0.569572  0.057498  1
  O  O55  1  0.224773  0.069572  0.442502  1
  O  O56  1  0.293112  0.435858  0.497212  1
  O  O57  1  0.577024  0.756842  0.414236  1
  O  O58  1  0.577024  0.743158  0.914236  1
  O  O59  1  0.422976  0.243158  0.585764  1
  O  O60  1  0.832440  0.387612  0.338625  1
  O  O61  1  0.422976  0.256842  0.085764  1
