# generated using pymatgen
data_AlICl6
_symmetry_space_group_name_H-M   'P 1'
_cell_length_a   6.35432717
_cell_length_b   11.86251825
_cell_length_c   7.43599929
_cell_angle_alpha   90.00000000
_cell_angle_beta   98.49745402
_cell_angle_gamma   90.00000000
_symmetry_Int_Tables_number   1
_chemical_formula_structural   AlICl6
_chemical_formula_sum   'Al2 I2 Cl12'
_cell_volume   554.36007649
_cell_formula_units_Z   2
loop_
 _symmetry_equiv_pos_site_id
 _symmetry_equiv_pos_as_xyz
  1  'x, y, z'
loop_
 _atom_site_type_symbol
 _atom_site_label
 _atom_site_symmetry_multiplicity
 _atom_site_fract_x
 _atom_site_fract_y
 _atom_site_fract_z
 _atom_site_occupancy
  Al  Al0  1  0.412026  0.091750  0.489433  1
  Al  Al1  1  0.587974  0.591750  0.510567  1
  I  I2  1  0.006904  0.742308  0.201013  1
  I  I3  1  0.993096  0.242308  0.798987  1
  Cl  Cl4  1  0.708415  0.761451  0.451813  1
  Cl  Cl5  1  0.291585  0.261451  0.548187  1
  Cl  Cl6  1  0.734142  0.211076  0.990549  1
  Cl  Cl7  1  0.265858  0.711076  0.009451  1
  Cl  Cl8  1  0.208162  0.363206  0.000206  1
  Cl  Cl9  1  0.791838  0.863206  0.999794  1
  Cl  Cl10  1  0.318137  0.053562  0.210307  1
  Cl  Cl11  1  0.681863  0.553562  0.789693  1
  Cl  Cl12  1  0.764093  0.104033  0.523919  1
  Cl  Cl13  1  0.235907  0.604033  0.476081  1
  Cl  Cl14  1  0.681038  0.473616  0.323725  1
  Cl  Cl15  1  0.318962  0.973616  0.676275  1
