# generated using pymatgen
data_Rb2AgI3
_symmetry_space_group_name_H-M   'P 1'
_cell_length_a   4.98677123
_cell_length_b   10.55360740
_cell_length_c   20.38396329
_cell_angle_alpha   90.00000000
_cell_angle_beta   90.00000000
_cell_angle_gamma   90.00000000
_symmetry_Int_Tables_number   1
_chemical_formula_structural   Rb2AgI3
_chemical_formula_sum   'Rb8 Ag4 I12'
_cell_volume   1072.77589860
_cell_formula_units_Z   4
loop_
 _symmetry_equiv_pos_site_id
 _symmetry_equiv_pos_as_xyz
  1  'x, y, z'
loop_
 _atom_site_type_symbol
 _atom_site_label
 _atom_site_symmetry_multiplicity
 _atom_site_fract_x
 _atom_site_fract_y
 _atom_site_fract_z
 _atom_site_occupancy
  Rb  Rb0  1  0.750000  0.420759  0.787382  1
  Rb  Rb1  1  0.250000  0.579241  0.212618  1
  Rb  Rb2  1  0.750000  0.920759  0.712618  1
  Rb  Rb3  1  0.250000  0.079241  0.287382  1
  Rb  Rb4  1  0.750000  0.744680  0.458178  1
  Rb  Rb5  1  0.250000  0.255320  0.541822  1
  Rb  Rb6  1  0.750000  0.244680  0.041822  1
  Rb  Rb7  1  0.250000  0.755320  0.958178  1
  Ag  Ag8  1  0.750000  0.862279  0.135902  1
  Ag  Ag9  1  0.250000  0.137721  0.864098  1
  Ag  Ag10  1  0.750000  0.362279  0.364098  1
  Ag  Ag11  1  0.250000  0.637721  0.635902  1
  I  I12  1  0.750000  0.814975  0.275366  1
  I  I13  1  0.250000  0.185025  0.724634  1
  I  I14  1  0.750000  0.314975  0.224634  1
  I  I15  1  0.250000  0.685025  0.775366  1
  I  I16  1  0.750000  0.622499  0.070665  1
  I  I17  1  0.250000  0.377501  0.929335  1
  I  I18  1  0.750000  0.122499  0.429335  1
  I  I19  1  0.250000  0.877501  0.570665  1
  I  I20  1  0.750000  0.505632  0.602959  1
  I  I21  1  0.250000  0.494368  0.397041  1
  I  I22  1  0.750000  0.005632  0.897041  1
  I  I23  1  0.250000  0.994368  0.102959  1
