# generated using pymatgen
data_Hf(Te2Cl3)2
_symmetry_space_group_name_H-M   'P 1'
_cell_length_a   7.34054057
_cell_length_b   7.38830144
_cell_length_c   7.87229470
_cell_angle_alpha   76.19763175
_cell_angle_beta   75.10464257
_cell_angle_gamma   79.21042139
_symmetry_Int_Tables_number   1
_chemical_formula_structural   Hf(Te2Cl3)2
_chemical_formula_sum   'Hf1 Te4 Cl6'
_cell_volume   397.06572280
_cell_formula_units_Z   1
loop_
 _symmetry_equiv_pos_site_id
 _symmetry_equiv_pos_as_xyz
  1  'x, y, z'
loop_
 _atom_site_type_symbol
 _atom_site_label
 _atom_site_symmetry_multiplicity
 _atom_site_fract_x
 _atom_site_fract_y
 _atom_site_fract_z
 _atom_site_occupancy
  Hf  Hf0  1  0.000000  0.000000  0.000000  1
  Te  Te1  1  0.391490  0.500241  0.303286  1
  Te  Te2  1  0.608510  0.499759  0.696714  1
  Te  Te3  1  0.689793  0.293552  0.437673  1
  Te  Te4  1  0.310207  0.706448  0.562327  1
  Cl  Cl5  1  0.997252  0.214776  0.703862  1
  Cl  Cl6  1  0.002748  0.785224  0.296138  1
  Cl  Cl7  1  0.111245  0.238001  0.099470  1
  Cl  Cl8  1  0.888755  0.761999  0.900530  1
  Cl  Cl9  1  0.664291  0.125088  0.119223  1
  Cl  Cl10  1  0.335709  0.874912  0.880777  1
