# generated using pymatgen
data_Ta(TeBr3)2
_symmetry_space_group_name_H-M   'P 1'
_cell_length_a   7.66791274
_cell_length_b   7.75839398
_cell_length_c   13.49609406
_cell_angle_alpha   80.93524598
_cell_angle_beta   77.94033118
_cell_angle_gamma   77.62697282
_symmetry_Int_Tables_number   1
_chemical_formula_structural   Ta(TeBr3)2
_chemical_formula_sum   'Ta2 Te4 Br12'
_cell_volume   761.57107396
_cell_formula_units_Z   2
loop_
 _symmetry_equiv_pos_site_id
 _symmetry_equiv_pos_as_xyz
  1  'x, y, z'
loop_
 _atom_site_type_symbol
 _atom_site_label
 _atom_site_symmetry_multiplicity
 _atom_site_fract_x
 _atom_site_fract_y
 _atom_site_fract_z
 _atom_site_occupancy
  Ta  Ta0  1  0.798561  0.342484  0.805171  1
  Ta  Ta1  1  0.201439  0.657516  0.194829  1
  Te  Te2  1  0.271568  0.159593  0.540925  1
  Te  Te3  1  0.728432  0.840407  0.459075  1
  Te  Te4  1  0.433595  0.825445  0.613545  1
  Te  Te5  1  0.566405  0.174555  0.386455  1
  Br  Br6  1  0.903387  0.247279  0.968462  1
  Br  Br7  1  0.096613  0.752721  0.031538  1
  Br  Br8  1  0.973818  0.046940  0.728772  1
  Br  Br9  1  0.026182  0.953060  0.271228  1
  Br  Br10  1  0.080793  0.470814  0.726670  1
  Br  Br11  1  0.919207  0.529186  0.273330  1
  Br  Br12  1  0.300634  0.563243  0.377954  1
  Br  Br13  1  0.699366  0.436757  0.622046  1
  Br  Br14  1  0.466518  0.809500  0.143525  1
  Br  Br15  1  0.533482  0.190500  0.856475  1
  Br  Br16  1  0.375064  0.367053  0.145440  1
  Br  Br17  1  0.624936  0.632947  0.854560  1
