# generated using pymatgen
data_As(BrF2)3
_symmetry_space_group_name_H-M   'P 1'
_cell_length_a   5.78724240
_cell_length_b   7.87574438
_cell_length_c   9.95886956
_cell_angle_alpha   88.02712526
_cell_angle_beta   82.19539164
_cell_angle_gamma   82.50773718
_symmetry_Int_Tables_number   1
_chemical_formula_structural   As(BrF2)3
_chemical_formula_sum   'As2 Br6 F12'
_cell_volume   445.80510588
_cell_formula_units_Z   2
loop_
 _symmetry_equiv_pos_site_id
 _symmetry_equiv_pos_as_xyz
  1  'x, y, z'
loop_
 _atom_site_type_symbol
 _atom_site_label
 _atom_site_symmetry_multiplicity
 _atom_site_fract_x
 _atom_site_fract_y
 _atom_site_fract_z
 _atom_site_occupancy
  As  As0  1  0.434047  0.785319  0.798829  1
  As  As1  1  0.565953  0.214681  0.201171  1
  Br  Br2  1  0.090879  0.388921  0.819989  1
  Br  Br3  1  0.909121  0.611079  0.180011  1
  Br  Br4  1  0.822062  0.205451  0.782664  1
  Br  Br5  1  0.177938  0.794549  0.217336  1
  Br  Br6  1  0.196790  0.771878  0.450069  1
  Br  Br7  1  0.803210  0.228122  0.549931  1
  F  F8  1  0.344839  0.207779  0.098136  1
  F  F9  1  0.655161  0.792221  0.901864  1
  F  F10  1  0.361421  0.296591  0.337617  1
  F  F11  1  0.638579  0.703409  0.662383  1
  F  F12  1  0.599797  0.430951  0.142193  1
  F  F13  1  0.400203  0.569049  0.857807  1
  F  F14  1  0.543896  0.001585  0.259979  1
  F  F15  1  0.456104  0.998415  0.740021  1
  F  F16  1  0.199405  0.775426  0.697426  1
  F  F17  1  0.800595  0.224574  0.302574  1
  F  F18  1  0.214967  0.862147  0.932878  1
  F  F19  1  0.785033  0.137853  0.067122  1
