# generated using pymatgen
data_AgBi3S5
_symmetry_space_group_name_H-M   'P 1'
_cell_length_a   7.12510473
_cell_length_b   7.12510473
_cell_length_c   16.69662827
_cell_angle_alpha   84.71927404
_cell_angle_beta   95.28072596
_cell_angle_gamma   146.88727320
_symmetry_Int_Tables_number   1
_chemical_formula_structural   AgBi3S5
_chemical_formula_sum   'Ag2 Bi6 S10'
_cell_volume   460.91597733
_cell_formula_units_Z   2
loop_
 _symmetry_equiv_pos_site_id
 _symmetry_equiv_pos_as_xyz
  1  'x, y, z'
loop_
 _atom_site_type_symbol
 _atom_site_label
 _atom_site_symmetry_multiplicity
 _atom_site_fract_x
 _atom_site_fract_y
 _atom_site_fract_z
 _atom_site_occupancy
  Ag  Ag0  1  0.500000  0.500000  0.500000  1
  Ag  Ag1  1  0.000000  0.000000  0.000000  1
  Bi  Bi2  1  0.219773  0.780227  0.393947  1
  Bi  Bi3  1  0.780227  0.219773  0.606053  1
  Bi  Bi4  1  0.474453  0.525547  0.217021  1
  Bi  Bi5  1  0.525547  0.474453  0.782979  1
  Bi  Bi6  1  0.736524  0.263476  0.108828  1
  Bi  Bi7  1  0.263476  0.736524  0.891172  1
  S  S8  1  0.848783  0.151217  0.465417  1
  S  S9  1  0.151217  0.848783  0.534583  1
  S  S10  1  0.575866  0.424134  0.364166  1
  S  S11  1  0.424134  0.575866  0.635834  1
  S  S12  1  0.846217  0.153783  0.255769  1
  S  S13  1  0.153783  0.846217  0.744231  1
  S  S14  1  0.089190  0.910810  0.140593  1
  S  S15  1  0.910810  0.089190  0.859407  1
  S  S16  1  0.646371  0.353629  0.942468  1
  S  S17  1  0.353629  0.646371  0.057532  1
