# generated using pymatgen
data_PdSe2
_symmetry_space_group_name_H-M   'P 1'
_cell_length_a   5.79441832
_cell_length_b   5.94542204
_cell_length_c   8.58506072
_cell_angle_alpha   90.00000000
_cell_angle_beta   90.00000000
_cell_angle_gamma   90.00000000
_symmetry_Int_Tables_number   1
_chemical_formula_structural   PdSe2
_chemical_formula_sum   'Pd4 Se8'
_cell_volume   295.75759443
_cell_formula_units_Z   4
loop_
 _symmetry_equiv_pos_site_id
 _symmetry_equiv_pos_as_xyz
  1  'x, y, z'
loop_
 _atom_site_type_symbol
 _atom_site_label
 _atom_site_symmetry_multiplicity
 _atom_site_fract_x
 _atom_site_fract_y
 _atom_site_fract_z
 _atom_site_occupancy
  Pd  Pd0  1  0.500000  0.000000  0.000000  1
  Pd  Pd1  1  0.000000  0.500000  0.000000  1
  Pd  Pd2  1  0.500000  0.500000  0.500000  1
  Pd  Pd3  1  0.000000  0.000000  0.500000  1
  Se  Se4  1  0.611300  0.119356  0.585891  1
  Se  Se5  1  0.111300  0.380644  0.414109  1
  Se  Se6  1  0.388700  0.619356  0.914109  1
  Se  Se7  1  0.888700  0.880644  0.085891  1
  Se  Se8  1  0.111300  0.119356  0.914109  1
  Se  Se9  1  0.611300  0.380644  0.085891  1
  Se  Se10  1  0.888700  0.619356  0.585891  1
  Se  Se11  1  0.388700  0.880644  0.414109  1
