# generated using pymatgen
data_Bi3Se4Br
_symmetry_space_group_name_H-M   'P 1'
_cell_length_a   10.77301392
_cell_length_b   10.77301392
_cell_length_c   12.20323118
_cell_angle_alpha   66.50671806
_cell_angle_beta   113.49328194
_cell_angle_gamma   157.92254655
_symmetry_Int_Tables_number   1
_chemical_formula_structural   Bi3Se4Br
_chemical_formula_sum   'Bi6 Se8 Br2'
_cell_volume   486.43840311
_cell_formula_units_Z   2
loop_
 _symmetry_equiv_pos_site_id
 _symmetry_equiv_pos_as_xyz
  1  'x, y, z'
loop_
 _atom_site_type_symbol
 _atom_site_label
 _atom_site_symmetry_multiplicity
 _atom_site_fract_x
 _atom_site_fract_y
 _atom_site_fract_z
 _atom_site_occupancy
  Bi  Bi0  1  0.089055  0.910945  0.962682  1
  Bi  Bi1  1  0.910945  0.089055  0.037318  1
  Bi  Bi2  1  0.672692  0.327308  0.737257  1
  Bi  Bi3  1  0.327308  0.672692  0.262743  1
  Bi  Bi4  1  0.151564  0.848436  0.414588  1
  Bi  Bi5  1  0.848436  0.151564  0.585412  1
  Se  Se6  1  0.414431  0.585569  0.508003  1
  Se  Se7  1  0.585569  0.414431  0.491997  1
  Se  Se8  1  0.686533  0.313467  0.018352  1
  Se  Se9  1  0.313467  0.686533  0.981648  1
  Se  Se10  1  0.077028  0.922972  0.727005  1
  Se  Se11  1  0.922972  0.077028  0.272995  1
  Se  Se12  1  0.253503  0.746497  0.642596  1
  Se  Se13  1  0.746497  0.253503  0.357404  1
  Br  Br14  1  0.456705  0.543295  0.834606  1
  Br  Br15  1  0.543295  0.456705  0.165394  1
