# generated using pymatgen
data_Na2H10SO5
_symmetry_space_group_name_H-M   'P 1'
_cell_length_a   7.10100769
_cell_length_b   7.10100769
_cell_length_c   8.70982690
_cell_angle_alpha   90.00000000
_cell_angle_beta   90.00000000
_cell_angle_gamma   125.67035613
_symmetry_Int_Tables_number   1
_chemical_formula_structural   Na2H10SO5
_chemical_formula_sum   'Na4 H20 S2 O10'
_cell_volume   356.78908762
_cell_formula_units_Z   2
loop_
 _symmetry_equiv_pos_site_id
 _symmetry_equiv_pos_as_xyz
  1  'x, y, z'
loop_
 _atom_site_type_symbol
 _atom_site_label
 _atom_site_symmetry_multiplicity
 _atom_site_fract_x
 _atom_site_fract_y
 _atom_site_fract_z
 _atom_site_occupancy
  Na  Na0  1  0.000000  0.000000  0.000000  1
  Na  Na1  1  0.543255  0.456745  0.750000  1
  Na  Na2  1  0.456745  0.543255  0.250000  1
  Na  Na3  1  0.000000  0.000000  0.500000  1
  H  H4  1  0.626722  0.994676  0.379156  1
  H  H5  1  0.819003  0.521057  0.020965  1
  H  H6  1  0.521057  0.819003  0.979035  1
  H  H7  1  0.180997  0.478943  0.520965  1
  H  H8  1  0.180997  0.478943  0.979035  1
  H  H9  1  0.478943  0.180997  0.020965  1
  H  H10  1  0.819003  0.521057  0.479035  1
  H  H11  1  0.521057  0.819003  0.520965  1
  H  H12  1  0.994676  0.626722  0.879156  1
  H  H13  1  0.626722  0.994676  0.120844  1
  H  H14  1  0.005324  0.373278  0.379156  1
  H  H15  1  0.373278  0.005324  0.620844  1
  H  H16  1  0.005324  0.373278  0.120844  1
  H  H17  1  0.373278  0.005324  0.879156  1
  H  H18  1  0.738962  0.015128  0.750000  1
  H  H19  1  0.994676  0.626722  0.620844  1
  H  H20  1  0.261038  0.984872  0.250000  1
  H  H21  1  0.984872  0.261038  0.750000  1
  H  H22  1  0.015128  0.738962  0.250000  1
  H  H23  1  0.478943  0.180997  0.479035  1
  S  S24  1  0.689900  0.310100  0.250000  1
  S  S25  1  0.310100  0.689900  0.750000  1
  O  O26  1  0.861035  0.616113  0.926441  1
  O  O27  1  0.616113  0.861035  0.073559  1
  O  O28  1  0.138965  0.383887  0.426441  1
  O  O29  1  0.383887  0.138965  0.573559  1
  O  O30  1  0.138965  0.383887  0.073559  1
  O  O31  1  0.383887  0.138965  0.926441  1
  O  O32  1  0.861035  0.616113  0.573559  1
  O  O33  1  0.616113  0.861035  0.426441  1
  O  O34  1  0.908047  0.091953  0.750000  1
  O  O35  1  0.091953  0.908047  0.250000  1
