# generated using pymatgen
data_LiMnAsO4
_symmetry_space_group_name_H-M   'P 1'
_cell_length_a   4.99929510
_cell_length_b   6.24638934
_cell_length_c   10.91589838
_cell_angle_alpha   90.00000000
_cell_angle_beta   90.00000000
_cell_angle_gamma   90.00000000
_symmetry_Int_Tables_number   1
_chemical_formula_structural   LiMnAsO4
_chemical_formula_sum   'Li4 Mn4 As4 O16'
_cell_volume   340.87669281
_cell_formula_units_Z   4
loop_
 _symmetry_equiv_pos_site_id
 _symmetry_equiv_pos_as_xyz
  1  'x, y, z'
loop_
 _atom_site_type_symbol
 _atom_site_label
 _atom_site_symmetry_multiplicity
 _atom_site_fract_x
 _atom_site_fract_y
 _atom_site_fract_z
 _atom_site_occupancy
  Li  Li0  1  0.500000  0.000000  0.500000  1
  Li  Li1  1  0.000000  0.000000  0.000000  1
  Li  Li2  1  0.500000  0.500000  0.500000  1
  Li  Li3  1  0.000000  0.500000  0.000000  1
  Mn  Mn4  1  0.510188  0.750000  0.776641  1
  Mn  Mn5  1  0.489812  0.250000  0.223359  1
  Mn  Mn6  1  0.989812  0.750000  0.276641  1
  Mn  Mn7  1  0.010188  0.250000  0.723359  1
  As  As8  1  0.570966  0.250000  0.909131  1
  As  As9  1  0.929034  0.250000  0.409131  1
  As  As10  1  0.429034  0.750000  0.090869  1
  As  As11  1  0.070966  0.750000  0.590869  1
  O  O12  1  0.271045  0.250000  0.406488  1
  O  O13  1  0.721778  0.464614  0.834487  1
  O  O14  1  0.221778  0.535386  0.665513  1
  O  O15  1  0.278222  0.964614  0.165513  1
  O  O16  1  0.778222  0.035386  0.334487  1
  O  O17  1  0.278222  0.535386  0.165513  1
  O  O18  1  0.778222  0.464614  0.334487  1
  O  O19  1  0.721778  0.035386  0.834487  1
  O  O20  1  0.728955  0.750000  0.593512  1
  O  O21  1  0.228955  0.250000  0.906488  1
  O  O22  1  0.221778  0.964614  0.665513  1
  O  O23  1  0.771045  0.750000  0.093512  1
  O  O24  1  0.214993  0.750000  0.447283  1
  O  O25  1  0.785007  0.250000  0.552717  1
  O  O26  1  0.714993  0.250000  0.052717  1
  O  O27  1  0.285007  0.750000  0.947283  1
