# generated using pymatgen
data_CsBe2F5
_symmetry_space_group_name_H-M   'P 1'
_cell_length_a   8.06084124
_cell_length_b   8.06084124
_cell_length_c   8.06084124
_cell_angle_alpha   90.00000000
_cell_angle_beta   90.00000000
_cell_angle_gamma   90.00000000
_symmetry_Int_Tables_number   1
_chemical_formula_structural   CsBe2F5
_chemical_formula_sum   'Cs4 Be8 F20'
_cell_volume   523.77058305
_cell_formula_units_Z   4
loop_
 _symmetry_equiv_pos_site_id
 _symmetry_equiv_pos_as_xyz
  1  'x, y, z'
loop_
 _atom_site_type_symbol
 _atom_site_label
 _atom_site_symmetry_multiplicity
 _atom_site_fract_x
 _atom_site_fract_y
 _atom_site_fract_z
 _atom_site_occupancy
  Cs  Cs0  1  0.875000  0.125000  0.625000  1
  Cs  Cs1  1  0.125000  0.625000  0.875000  1
  Cs  Cs2  1  0.625000  0.875000  0.125000  1
  Cs  Cs3  1  0.375000  0.375000  0.375000  1
  Be  Be4  1  0.099726  0.099726  0.099726  1
  Be  Be5  1  0.650274  0.650274  0.650274  1
  Be  Be6  1  0.900274  0.599726  0.400274  1
  Be  Be7  1  0.599726  0.400274  0.900274  1
  Be  Be8  1  0.400274  0.900274  0.599726  1
  Be  Be9  1  0.349726  0.150274  0.849726  1
  Be  Be10  1  0.849726  0.349726  0.150274  1
  Be  Be11  1  0.150274  0.849726  0.349726  1
  F  F12  1  0.625000  0.466696  0.716696  1
  F  F13  1  0.783304  0.375000  0.966696  1
  F  F14  1  0.716696  0.625000  0.466696  1
  F  F15  1  0.533304  0.216696  0.875000  1
  F  F16  1  0.992561  0.992561  0.992561  1
  F  F17  1  0.242561  0.257439  0.742561  1
  F  F18  1  0.742561  0.242561  0.257439  1
  F  F19  1  0.257439  0.742561  0.242561  1
  F  F20  1  0.507439  0.007439  0.492561  1
  F  F21  1  0.492561  0.507439  0.007439  1
  F  F22  1  0.007439  0.492561  0.507439  1
  F  F23  1  0.757439  0.757439  0.757439  1
  F  F24  1  0.125000  0.033304  0.283304  1
  F  F25  1  0.375000  0.966696  0.783304  1
  F  F26  1  0.875000  0.533304  0.216696  1
  F  F27  1  0.033304  0.283304  0.125000  1
  F  F28  1  0.966696  0.783304  0.375000  1
  F  F29  1  0.216696  0.875000  0.533304  1
  F  F30  1  0.283304  0.125000  0.033304  1
  F  F31  1  0.466696  0.716696  0.625000  1
