# generated using pymatgen
data_SO3
_symmetry_space_group_name_H-M   'P 1'
_cell_length_a   5.50829185
_cell_length_b   11.36220121
_cell_length_c   12.92133967
_cell_angle_alpha   90.00000000
_cell_angle_beta   90.00000000
_cell_angle_gamma   90.00000000
_symmetry_Int_Tables_number   1
_chemical_formula_structural   SO3
_chemical_formula_sum   'S12 O36'
_cell_volume   808.69910359
_cell_formula_units_Z   12
loop_
 _symmetry_equiv_pos_site_id
 _symmetry_equiv_pos_as_xyz
  1  'x, y, z'
loop_
 _atom_site_type_symbol
 _atom_site_label
 _atom_site_symmetry_multiplicity
 _atom_site_fract_x
 _atom_site_fract_y
 _atom_site_fract_z
 _atom_site_occupancy
  S  S0  1  0.200547  0.133556  0.081497  1
  S  S1  1  0.700547  0.866444  0.918503  1
  S  S2  1  0.700547  0.366444  0.581497  1
  S  S3  1  0.200547  0.633556  0.418503  1
  S  S4  1  0.040590  0.303696  0.928466  1
  S  S5  1  0.540590  0.696304  0.071534  1
  S  S6  1  0.540590  0.196304  0.428466  1
  S  S7  1  0.040590  0.803696  0.571534  1
  S  S8  1  0.998233  0.356946  0.146722  1
  S  S9  1  0.498233  0.643053  0.853278  1
  S  S10  1  0.498233  0.143054  0.646722  1
  S  S11  1  0.998233  0.856947  0.353278  1
  O  O12  1  0.130929  0.015508  0.100355  1
  O  O13  1  0.630929  0.984492  0.899645  1
  O  O14  1  0.630929  0.484492  0.600355  1
  O  O15  1  0.130929  0.515508  0.399645  1
  O  O16  1  0.442762  0.175965  0.082658  1
  O  O17  1  0.942762  0.824035  0.917342  1
  O  O18  1  0.942762  0.324035  0.582658  1
  O  O19  1  0.442762  0.675965  0.417342  1
  O  O20  1  0.067399  0.166846  0.970294  1
  O  O21  1  0.567399  0.833154  0.029706  1
  O  O22  1  0.567399  0.333154  0.470294  1
  O  O23  1  0.067399  0.666846  0.529706  1
  O  O24  1  0.868538  0.296913  0.847392  1
  O  O25  1  0.368538  0.703087  0.152608  1
  O  O26  1  0.368538  0.203087  0.347392  1
  O  O27  1  0.868538  0.796913  0.652608  1
  O  O28  1  0.272750  0.357260  0.920765  1
  O  O29  1  0.772750  0.642740  0.079235  1
  O  O30  1  0.772750  0.142740  0.420765  1
  O  O31  1  0.272750  0.857260  0.579235  1
  O  O32  1  0.887827  0.358908  0.027362  1
  O  O33  1  0.387827  0.641092  0.972638  1
  O  O34  1  0.387827  0.141092  0.527362  1
  O  O35  1  0.887827  0.858908  0.472638  1
  O  O36  1  0.228854  0.412399  0.149222  1
  O  O37  1  0.728854  0.587601  0.850778  1
  O  O38  1  0.728854  0.087601  0.649222  1
  O  O39  1  0.228854  0.912399  0.350778  1
  O  O40  1  0.798713  0.385392  0.210949  1
  O  O41  1  0.298713  0.614608  0.789051  1
  O  O42  1  0.298713  0.114608  0.710949  1
  O  O43  1  0.798713  0.885392  0.289051  1
  O  O44  1  0.027158  0.212316  0.159028  1
  O  O45  1  0.527158  0.787684  0.840972  1
  O  O46  1  0.527158  0.287684  0.659028  1
  O  O47  1  0.027158  0.712316  0.340972  1
