# generated using pymatgen
data_ErSeI
_symmetry_space_group_name_H-M   'P 1'
_cell_length_a   4.20281371
_cell_length_b   5.61327995
_cell_length_c   9.81979822
_cell_angle_alpha   90.00000000
_cell_angle_beta   90.00000000
_cell_angle_gamma   90.00000000
_symmetry_Int_Tables_number   1
_chemical_formula_structural   ErSeI
_chemical_formula_sum   'Er2 Se2 I2'
_cell_volume   231.66445642
_cell_formula_units_Z   2
loop_
 _symmetry_equiv_pos_site_id
 _symmetry_equiv_pos_as_xyz
  1  'x, y, z'
loop_
 _atom_site_type_symbol
 _atom_site_label
 _atom_site_symmetry_multiplicity
 _atom_site_fract_x
 _atom_site_fract_y
 _atom_site_fract_z
 _atom_site_occupancy
  Er  Er0  1  0.500000  0.000000  0.883647  1
  Er  Er1  1  0.000000  0.500000  0.116353  1
  Se  Se2  1  0.500000  0.500000  0.920745  1
  Se  Se3  1  0.000000  0.000000  0.079255  1
  I  I4  1  0.000000  0.000000  0.661441  1
  I  I5  1  0.500000  0.500000  0.338559  1
