# generated using pymatgen
data_LiZnPH2O5
_symmetry_space_group_name_H-M   'P 1'
_cell_length_a   5.06622563
_cell_length_b   8.16470829
_cell_length_c   10.80387485
_cell_angle_alpha   90.00000000
_cell_angle_beta   90.00000000
_cell_angle_gamma   90.00000000
_symmetry_Int_Tables_number   1
_chemical_formula_structural   LiZnPH2O5
_chemical_formula_sum   'Li4 Zn4 P4 H8 O20'
_cell_volume   446.89422780
_cell_formula_units_Z   4
loop_
 _symmetry_equiv_pos_site_id
 _symmetry_equiv_pos_as_xyz
  1  'x, y, z'
loop_
 _atom_site_type_symbol
 _atom_site_label
 _atom_site_symmetry_multiplicity
 _atom_site_fract_x
 _atom_site_fract_y
 _atom_site_fract_z
 _atom_site_occupancy
  Li  Li0  1  0.797655  0.186926  0.315997  1
  Li  Li1  1  0.297655  0.813074  0.684003  1
  Li  Li2  1  0.797655  0.313074  0.815997  1
  Li  Li3  1  0.297655  0.686926  0.184003  1
  Zn  Zn4  1  0.299336  0.379864  0.372516  1
  Zn  Zn5  1  0.799336  0.620136  0.627484  1
  Zn  Zn6  1  0.299336  0.120136  0.872516  1
  Zn  Zn7  1  0.799336  0.879864  0.127484  1
  P  P8  1  0.301478  0.089992  0.166423  1
  P  P9  1  0.801478  0.910008  0.833577  1
  P  P10  1  0.301478  0.410008  0.666423  1
  P  P11  1  0.801478  0.589992  0.333577  1
  H  H12  1  0.830003  0.323313  0.046227  1
  H  H13  1  0.330003  0.676687  0.953773  1
  H  H14  1  0.830003  0.176687  0.546227  1
  H  H15  1  0.330003  0.823313  0.453773  1
  H  H16  1  0.666096  0.473222  0.000672  1
  H  H17  1  0.166096  0.526778  0.999328  1
  H  H18  1  0.666096  0.026778  0.500672  1
  H  H19  1  0.166096  0.973222  0.499328  1
  O  O20  1  0.923016  0.688679  0.224783  1
  O  O21  1  0.423016  0.311321  0.775217  1
  O  O22  1  0.923016  0.811321  0.724783  1
  O  O23  1  0.423016  0.188679  0.275217  1
  O  O24  1  0.421987  0.913552  0.166796  1
  O  O25  1  0.921987  0.086448  0.833204  1
  O  O26  1  0.421987  0.586448  0.666796  1
  O  O27  1  0.921987  0.413552  0.333204  1
  O  O28  1  0.997098  0.074907  0.186712  1
  O  O29  1  0.497098  0.925093  0.813288  1
  O  O30  1  0.997098  0.425093  0.686712  1
  O  O31  1  0.497098  0.574907  0.313288  1
  O  O32  1  0.364971  0.321740  0.543943  1
  O  O33  1  0.864971  0.678260  0.456057  1
  O  O34  1  0.364971  0.178260  0.043943  1
  O  O35  1  0.864971  0.821740  0.956057  1
  O  O36  1  0.332760  0.912454  0.514137  1
  O  O37  1  0.832760  0.087546  0.485863  1
  O  O38  1  0.332760  0.587546  0.014137  1
  O  O39  1  0.832760  0.412454  0.985863  1
