# generated using pymatgen
data_Si(Bi3O5)4
_symmetry_space_group_name_H-M   'P 1'
_cell_length_a   8.87330014
_cell_length_b   8.87330014
_cell_length_c   8.87330014
_cell_angle_alpha   109.47122063
_cell_angle_beta   109.47122063
_cell_angle_gamma   109.47122063
_symmetry_Int_Tables_number   1
_chemical_formula_structural   Si(Bi3O5)4
_chemical_formula_sum   'Si1 Bi12 O20'
_cell_volume   537.81588445
_cell_formula_units_Z   1
loop_
 _symmetry_equiv_pos_site_id
 _symmetry_equiv_pos_as_xyz
  1  'x, y, z'
loop_
 _atom_site_type_symbol
 _atom_site_label
 _atom_site_symmetry_multiplicity
 _atom_site_fract_x
 _atom_site_fract_y
 _atom_site_fract_z
 _atom_site_occupancy
  Si  Si0  1  0.000000  0.000000  0.000000  1
  Bi  Bi1  1  0.667385  0.161472  0.858935  1
  Bi  Bi2  1  0.302537  0.808450  0.141065  1
  Bi  Bi3  1  0.697463  0.838528  0.505913  1
  Bi  Bi4  1  0.191550  0.494087  0.332615  1
  Bi  Bi5  1  0.494087  0.332615  0.191550  1
  Bi  Bi6  1  0.858935  0.667385  0.161472  1
  Bi  Bi7  1  0.808450  0.141065  0.302537  1
  Bi  Bi8  1  0.505913  0.697463  0.838528  1
  Bi  Bi9  1  0.161472  0.858935  0.667385  1
  Bi  Bi10  1  0.141065  0.302537  0.808450  1
  Bi  Bi11  1  0.838528  0.505913  0.697463  1
  Bi  Bi12  1  0.332615  0.191550  0.494087  1
  O  O13  1  0.188230  1.000000  1.000000  1
  O  O14  1  0.000000  0.000000  0.188230  1
  O  O15  1  0.000000  0.188230  0.000000  1
  O  O16  1  0.811770  0.811770  0.811770  1
  O  O17  1  0.605583  1.000000  1.000000  1
  O  O18  1  0.000000  0.000000  0.605583  1
  O  O19  1  0.000000  0.605583  0.000000  1
  O  O20  1  0.394417  0.394417  0.394417  1
  O  O21  1  0.259663  0.643467  0.878740  1
  O  O22  1  0.764727  0.380923  0.121260  1
  O  O23  1  0.235273  0.356533  0.616196  1
  O  O24  1  0.619077  0.383804  0.740337  1
  O  O25  1  0.383804  0.740337  0.619077  1
  O  O26  1  0.740337  0.619077  0.383804  1
  O  O27  1  0.356533  0.616196  0.235273  1
  O  O28  1  0.121260  0.764727  0.380923  1
  O  O29  1  0.643467  0.878740  0.259663  1
  O  O30  1  0.616196  0.235273  0.356533  1
  O  O31  1  0.380923  0.121260  0.764727  1
  O  O32  1  0.878740  0.259663  0.643467  1
