# generated using pymatgen
data_Cu4SiP8
_symmetry_space_group_name_H-M   'P 1'
_cell_length_a   9.09865986
_cell_length_b   9.09865986
_cell_length_c   9.09865986
_cell_angle_alpha   95.69353455
_cell_angle_beta   95.69353455
_cell_angle_gamma   143.28173336
_symmetry_Int_Tables_number   1
_chemical_formula_structural   Cu4SiP8
_chemical_formula_sum   'Cu8 Si2 P16'
_cell_volume   427.42432732
_cell_formula_units_Z   2
loop_
 _symmetry_equiv_pos_site_id
 _symmetry_equiv_pos_as_xyz
  1  'x, y, z'
loop_
 _atom_site_type_symbol
 _atom_site_label
 _atom_site_symmetry_multiplicity
 _atom_site_fract_x
 _atom_site_fract_y
 _atom_site_fract_z
 _atom_site_occupancy
  Cu  Cu0  1  0.827280  0.518142  0.712459  1
  Cu  Cu1  1  0.364821  0.577280  0.809138  1
  Cu  Cu2  1  0.768142  0.555683  0.190862  1
  Cu  Cu3  1  0.805683  0.114821  0.287541  1
  Cu  Cu4  1  0.422720  0.231858  0.787541  1
  Cu  Cu5  1  0.885179  0.172720  0.690862  1
  Cu  Cu6  1  0.481858  0.194317  0.309138  1
  Cu  Cu7  1  0.444317  0.635179  0.212459  1
  Si  Si8  1  0.000000  0.000000  0.000000  1
  Si  Si9  1  0.250000  0.750000  0.500000  1
  P  P10  1  0.407538  0.879835  0.296686  1
  P  P11  1  0.129835  0.333149  0.972297  1
  P  P12  1  0.889148  0.592462  0.472297  1
  P  P13  1  0.666851  0.639148  0.796686  1
  P  P14  1  0.842462  0.870165  0.203314  1
  P  P15  1  0.120165  0.416851  0.527703  1
  P  P16  1  0.360852  0.157538  0.027703  1
  P  P17  1  0.583149  0.110852  0.703314  1
  P  P18  1  0.205901  0.131798  0.381243  1
  P  P19  1  0.074658  0.955901  0.574103  1
  P  P20  1  0.381798  0.500555  0.425897  1
  P  P21  1  0.750555  0.824658  0.618757  1
  P  P22  1  0.044099  0.618202  0.118757  1
  P  P23  1  0.175342  0.794099  0.925897  1
  P  P24  1  0.868202  0.249445  0.074103  1
  P  P25  1  0.499445  0.925342  0.881243  1
