# generated using pymatgen
data_Na2CoGeO4
_symmetry_space_group_name_H-M   'P 1'
_cell_length_a   5.46189140
_cell_length_b   6.25640637
_cell_length_c   6.47556387
_cell_angle_alpha   90.00000000
_cell_angle_beta   90.00000000
_cell_angle_gamma   90.00000000
_symmetry_Int_Tables_number   1
_chemical_formula_structural   Na2CoGeO4
_chemical_formula_sum   'Na4 Co2 Ge2 O8'
_cell_volume   221.28175216
_cell_formula_units_Z   2
loop_
 _symmetry_equiv_pos_site_id
 _symmetry_equiv_pos_as_xyz
  1  'x, y, z'
loop_
 _atom_site_type_symbol
 _atom_site_label
 _atom_site_symmetry_multiplicity
 _atom_site_fract_x
 _atom_site_fract_y
 _atom_site_fract_z
 _atom_site_occupancy
  Na  Na0  1  0.508893  0.334504  0.250739  1
  Na  Na1  1  0.508893  0.334504  0.749261  1
  Na  Na2  1  0.008893  0.665496  0.750739  1
  Na  Na3  1  0.008893  0.665496  0.249261  1
  Co  Co4  1  0.003022  0.148589  0.500000  1
  Co  Co5  1  0.503022  0.851411  0.000000  1
  Ge  Ge6  1  0.499640  0.848304  0.500000  1
  Ge  Ge7  1  0.999640  0.151696  0.000000  1
  O  O8  1  0.581598  0.699383  0.728398  1
  O  O9  1  0.675359  0.126847  0.000000  1
  O  O10  1  0.641013  0.104235  0.500000  1
  O  O11  1  0.081598  0.300617  0.228398  1
  O  O12  1  0.141013  0.895765  0.000000  1
  O  O13  1  0.081598  0.300617  0.771602  1
  O  O14  1  0.581598  0.699383  0.271602  1
  O  O15  1  0.175359  0.873153  0.500000  1
