# generated using pymatgen
data_P2Pd
_symmetry_space_group_name_H-M   'P 1'
_cell_length_a   4.55519125
_cell_length_b   4.55519125
_cell_length_c   5.91973827
_cell_angle_alpha   66.27831833
_cell_angle_beta   113.72168167
_cell_angle_gamma   99.27005061
_symmetry_Int_Tables_number   1
_chemical_formula_structural   P2Pd
_chemical_formula_sum   'P4 Pd2'
_cell_volume   102.95374490
_cell_formula_units_Z   2
loop_
 _symmetry_equiv_pos_site_id
 _symmetry_equiv_pos_as_xyz
  1  'x, y, z'
loop_
 _atom_site_type_symbol
 _atom_site_label
 _atom_site_symmetry_multiplicity
 _atom_site_fract_x
 _atom_site_fract_y
 _atom_site_fract_z
 _atom_site_occupancy
  P  P0  1  0.689830  0.061764  0.666286  1
  P  P1  1  0.061764  0.689830  0.833714  1
  P  P2  1  0.938236  0.310170  0.166286  1
  P  P3  1  0.310170  0.938236  0.333714  1
  Pd  Pd4  1  1.000000  0.500000  0.500000  1
  Pd  Pd5  1  0.500000  1.000000  0.000000  1
