# generated using pymatgen
data_K3W2Cl9
_symmetry_space_group_name_H-M   'P 1'
_cell_length_a   7.43332761
_cell_length_b   7.43332761
_cell_length_c   16.30520950
_cell_angle_alpha   90.00000000
_cell_angle_beta   90.00000000
_cell_angle_gamma   120.00000000
_symmetry_Int_Tables_number   1
_chemical_formula_structural   K3W2Cl9
_chemical_formula_sum   'K6 W4 Cl18'
_cell_volume   780.23164898
_cell_formula_units_Z   2
loop_
 _symmetry_equiv_pos_site_id
 _symmetry_equiv_pos_as_xyz
  1  'x, y, z'
loop_
 _atom_site_type_symbol
 _atom_site_label
 _atom_site_symmetry_multiplicity
 _atom_site_fract_x
 _atom_site_fract_y
 _atom_site_fract_z
 _atom_site_occupancy
  K  K0  1  0.000000  0.000000  0.250000  1
  K  K1  1  0.000000  0.000000  0.750000  1
  K  K2  1  0.333333  0.666667  0.571090  1
  K  K3  1  0.666667  0.333333  0.071090  1
  K  K4  1  0.333333  0.666667  0.928910  1
  K  K5  1  0.666667  0.333333  0.428910  1
  W  W6  1  0.333333  0.666667  0.322895  1
  W  W7  1  0.666667  0.333333  0.822895  1
  W  W8  1  0.666667  0.333333  0.677105  1
  W  W9  1  0.333333  0.666667  0.177105  1
  Cl  Cl10  1  0.121397  0.359331  0.096380  1
  Cl  Cl11  1  0.762066  0.121397  0.596380  1
  Cl  Cl12  1  0.359331  0.237934  0.596380  1
  Cl  Cl13  1  0.640669  0.762066  0.096380  1
  Cl  Cl14  1  0.237934  0.878603  0.096380  1
  Cl  Cl15  1  0.878603  0.640669  0.596380  1
  Cl  Cl16  1  0.878603  0.640669  0.903620  1
  Cl  Cl17  1  0.237934  0.878603  0.403620  1
  Cl  Cl18  1  0.640669  0.762066  0.403620  1
  Cl  Cl19  1  0.359331  0.237934  0.903620  1
  Cl  Cl20  1  0.439069  0.431837  0.250000  1
  Cl  Cl21  1  0.007232  0.439069  0.750000  1
  Cl  Cl22  1  0.431837  0.992768  0.750000  1
  Cl  Cl23  1  0.568163  0.007232  0.250000  1
  Cl  Cl24  1  0.992768  0.560931  0.250000  1
  Cl  Cl25  1  0.560931  0.568163  0.750000  1
  Cl  Cl26  1  0.121397  0.359331  0.403620  1
  Cl  Cl27  1  0.762066  0.121397  0.903620  1
