# generated using pymatgen
data_K2SeBr6
_symmetry_space_group_name_H-M   'P 1'
_cell_length_a   7.57782610
_cell_length_b   7.57782610
_cell_length_c   7.57782610
_cell_angle_alpha   60.00000000
_cell_angle_beta   60.00000000
_cell_angle_gamma   60.00000000
_symmetry_Int_Tables_number   1
_chemical_formula_structural   K2SeBr6
_chemical_formula_sum   'K2 Se1 Br6'
_cell_volume   307.69391388
_cell_formula_units_Z   1
loop_
 _symmetry_equiv_pos_site_id
 _symmetry_equiv_pos_as_xyz
  1  'x, y, z'
loop_
 _atom_site_type_symbol
 _atom_site_label
 _atom_site_symmetry_multiplicity
 _atom_site_fract_x
 _atom_site_fract_y
 _atom_site_fract_z
 _atom_site_occupancy
  K  K0  1  0.750000  0.750000  0.750000  1
  K  K1  1  0.250000  0.250000  0.250000  1
  Se  Se2  1  0.000000  0.000000  0.000000  1
  Br  Br3  1  0.757427  0.242573  0.242573  1
  Br  Br4  1  0.242573  0.757427  0.242573  1
  Br  Br5  1  0.757427  0.242573  0.757427  1
  Br  Br6  1  0.757427  0.757427  0.242573  1
  Br  Br7  1  0.242573  0.242573  0.757427  1
  Br  Br8  1  0.242573  0.757427  0.757427  1
