# generated using pymatgen
data_Li2TiO3
_symmetry_space_group_name_H-M   'P 1'
_cell_length_a   5.10832765
_cell_length_b   5.10832765
_cell_length_c   9.83459499
_cell_angle_alpha   84.92581849
_cell_angle_beta   95.07418151
_cell_angle_gamma   59.89170352
_symmetry_Int_Tables_number   1
_chemical_formula_structural   Li2TiO3
_chemical_formula_sum   'Li8 Ti4 O12'
_cell_volume   218.49596020
_cell_formula_units_Z   4
loop_
 _symmetry_equiv_pos_site_id
 _symmetry_equiv_pos_as_xyz
  1  'x, y, z'
loop_
 _atom_site_type_symbol
 _atom_site_label
 _atom_site_symmetry_multiplicity
 _atom_site_fract_x
 _atom_site_fract_y
 _atom_site_fract_z
 _atom_site_occupancy
  Li  Li0  1  0.680335  0.160009  0.000377  1
  Li  Li1  1  0.160009  0.680335  0.499623  1
  Li  Li2  1  0.319665  0.839991  0.999623  1
  Li  Li3  1  0.839991  0.319665  0.500377  1
  Li  Li4  1  0.500000  0.000000  0.500000  1
  Li  Li5  1  0.000000  0.500000  0.000000  1
  Li  Li6  1  0.915658  0.915658  0.750000  1
  Li  Li7  1  0.084342  0.084342  0.250000  1
  Ti  Ti8  1  0.582585  0.582585  0.750000  1
  Ti  Ti9  1  0.749606  0.749606  0.250000  1
  Ti  Ti10  1  0.250394  0.250394  0.750000  1
  Ti  Ti11  1  0.417415  0.417415  0.250000  1
  O  O12  1  0.766767  0.045340  0.365564  1
  O  O13  1  0.595923  0.877049  0.863097  1
  O  O14  1  0.045340  0.766767  0.134436  1
  O  O15  1  0.233233  0.954660  0.634436  1
  O  O16  1  0.310242  0.520764  0.863038  1
  O  O17  1  0.877049  0.595923  0.636903  1
  O  O18  1  0.404077  0.122951  0.136903  1
  O  O19  1  0.122951  0.404077  0.363097  1
  O  O20  1  0.479236  0.689758  0.363038  1
  O  O21  1  0.520764  0.310242  0.636962  1
  O  O22  1  0.689758  0.479236  0.136962  1
  O  O23  1  0.954660  0.233233  0.865564  1
