# generated using pymatgen
data_K3BiTe3
_symmetry_space_group_name_H-M   'P 1'
_cell_length_a   10.53869599
_cell_length_b   10.53869599
_cell_length_c   10.53869599
_cell_angle_alpha   90.00000000
_cell_angle_beta   90.00000000
_cell_angle_gamma   90.00000000
_symmetry_Int_Tables_number   1
_chemical_formula_structural   K3BiTe3
_chemical_formula_sum   'K12 Bi4 Te12'
_cell_volume   1170.47092409
_cell_formula_units_Z   4
loop_
 _symmetry_equiv_pos_site_id
 _symmetry_equiv_pos_as_xyz
  1  'x, y, z'
loop_
 _atom_site_type_symbol
 _atom_site_label
 _atom_site_symmetry_multiplicity
 _atom_site_fract_x
 _atom_site_fract_y
 _atom_site_fract_z
 _atom_site_occupancy
  K  K0  1  0.574950  0.574950  0.574950  1
  K  K1  1  0.925050  0.425050  0.074950  1
  K  K2  1  0.074950  0.925050  0.425050  1
  K  K3  1  0.425050  0.074950  0.925050  1
  K  K4  1  0.325959  0.325959  0.325959  1
  K  K5  1  0.174041  0.674041  0.825959  1
  K  K6  1  0.825959  0.174041  0.674041  1
  K  K7  1  0.674041  0.825959  0.174041  1
  K  K8  1  0.817336  0.817336  0.817336  1
  K  K9  1  0.682664  0.182664  0.317336  1
  K  K10  1  0.317336  0.682664  0.182664  1
  K  K11  1  0.182664  0.317336  0.682664  1
  Bi  Bi12  1  0.964998  0.535002  0.464998  1
  Bi  Bi13  1  0.464998  0.964998  0.535002  1
  Bi  Bi14  1  0.035002  0.035002  0.035002  1
  Bi  Bi15  1  0.535002  0.464998  0.964998  1
  Te  Te16  1  0.772876  0.117281  0.999990  1
  Te  Te17  1  0.727124  0.882719  0.499990  1
  Te  Te18  1  0.272876  0.382719  0.000010  1
  Te  Te19  1  0.117281  0.999990  0.772876  1
  Te  Te20  1  0.227124  0.617281  0.500010  1
  Te  Te21  1  0.500010  0.227124  0.617281  1
  Te  Te22  1  0.617281  0.500010  0.227124  1
  Te  Te23  1  0.882719  0.499990  0.727124  1
  Te  Te24  1  0.000010  0.272876  0.382719  1
  Te  Te25  1  0.382719  0.000010  0.272876  1
  Te  Te26  1  0.999990  0.772876  0.117281  1
  Te  Te27  1  0.499990  0.727124  0.882719  1
