# generated using pymatgen
data_Na3InP2
_symmetry_space_group_name_H-M   'P 1'
_cell_length_a   9.48477717
_cell_length_b   7.40029695
_cell_length_c   15.44965435
_cell_angle_alpha   90.00000000
_cell_angle_beta   92.63358027
_cell_angle_gamma   90.00000000
_symmetry_Int_Tables_number   1
_chemical_formula_structural   Na3InP2
_chemical_formula_sum   'Na24 In8 P16'
_cell_volume   1083.26848276
_cell_formula_units_Z   8
loop_
 _symmetry_equiv_pos_site_id
 _symmetry_equiv_pos_as_xyz
  1  'x, y, z'
loop_
 _atom_site_type_symbol
 _atom_site_label
 _atom_site_symmetry_multiplicity
 _atom_site_fract_x
 _atom_site_fract_y
 _atom_site_fract_z
 _atom_site_occupancy
  Na  Na0  1  0.875894  0.152029  0.296483  1
  Na  Na1  1  0.124106  0.652029  0.203517  1
  Na  Na2  1  0.124106  0.847971  0.703517  1
  Na  Na3  1  0.875894  0.347971  0.796483  1
  Na  Na4  1  0.560063  0.489109  0.895670  1
  Na  Na5  1  0.439937  0.989109  0.604330  1
  Na  Na6  1  0.439937  0.510891  0.104330  1
  Na  Na7  1  0.560063  0.010891  0.395670  1
  Na  Na8  1  0.188274  0.965544  0.349506  1
  Na  Na9  1  0.811726  0.465544  0.150494  1
  Na  Na10  1  0.811726  0.034456  0.650494  1
  Na  Na11  1  0.188274  0.534456  0.849506  1
  Na  Na12  1  0.382904  0.847051  0.953710  1
  Na  Na13  1  0.617096  0.347051  0.546290  1
  Na  Na14  1  0.617096  0.152949  0.046290  1
  Na  Na15  1  0.382904  0.652949  0.453710  1
  Na  Na16  1  0.934632  0.976711  0.105389  1
  Na  Na17  1  0.065368  0.476711  0.394611  1
  Na  Na18  1  0.065368  0.023289  0.894611  1
  Na  Na19  1  0.934632  0.523289  0.605389  1
  Na  Na20  1  0.319795  0.004255  0.136747  1
  Na  Na21  1  0.680205  0.504255  0.363253  1
  Na  Na22  1  0.680205  0.995745  0.863253  1
  Na  Na23  1  0.319795  0.495745  0.636747  1
  In  In24  1  0.873726  0.641392  0.959041  1
  In  In25  1  0.126274  0.141392  0.540959  1
  In  In26  1  0.126274  0.358608  0.040959  1
  In  In27  1  0.873726  0.858608  0.459041  1
  In  In28  1  0.636523  0.655637  0.710378  1
  In  In29  1  0.363477  0.155637  0.789622  1
  In  In30  1  0.363477  0.344363  0.289622  1
  In  In31  1  0.636523  0.844363  0.210378  1
  P  P32  1  0.873530  0.218089  0.476863  1
  P  P33  1  0.126470  0.718089  0.023137  1
  P  P34  1  0.126470  0.781911  0.523137  1
  P  P35  1  0.873530  0.281911  0.976863  1
  P  P36  1  0.407047  0.705071  0.273927  1
  P  P37  1  0.592953  0.205071  0.226073  1
  P  P38  1  0.592953  0.294929  0.726073  1
  P  P39  1  0.407047  0.794929  0.773927  1
  P  P40  1  0.652447  0.762762  0.041866  1
  P  P41  1  0.347553  0.262762  0.458134  1
  P  P42  1  0.347553  0.237238  0.958134  1
  P  P43  1  0.652447  0.737238  0.541866  1
  P  P44  1  0.874886  0.759339  0.294243  1
  P  P45  1  0.125114  0.259339  0.205757  1
  P  P46  1  0.125114  0.240661  0.705757  1
  P  P47  1  0.874886  0.740661  0.794243  1
