# generated using pymatgen
data_MgP(HO)7
_symmetry_space_group_name_H-M   'P 1'
_cell_length_a   10.03047378
_cell_length_b   10.36838993
_cell_length_c   10.69290070
_cell_angle_alpha   90.00000000
_cell_angle_beta   90.00000000
_cell_angle_gamma   90.00000000
_symmetry_Int_Tables_number   1
_chemical_formula_structural   MgP(HO)7
_chemical_formula_sum   'Mg8 P8 H56 O56'
_cell_volume   1112.06021144
_cell_formula_units_Z   8
loop_
 _symmetry_equiv_pos_site_id
 _symmetry_equiv_pos_as_xyz
  1  'x, y, z'
loop_
 _atom_site_type_symbol
 _atom_site_label
 _atom_site_symmetry_multiplicity
 _atom_site_fract_x
 _atom_site_fract_y
 _atom_site_fract_z
 _atom_site_occupancy
  Mg  Mg0  1  0.586889  0.297547  0.254540  1
  Mg  Mg1  1  0.086889  0.202453  0.745460  1
  Mg  Mg2  1  0.413111  0.797547  0.245460  1
  Mg  Mg3  1  0.913111  0.702453  0.754540  1
  Mg  Mg4  1  0.413111  0.702453  0.745460  1
  Mg  Mg5  1  0.913111  0.797547  0.254540  1
  Mg  Mg6  1  0.586889  0.202453  0.754540  1
  Mg  Mg7  1  0.086889  0.297547  0.245460  1
  P  P8  1  0.655689  0.991848  0.369414  1
  P  P9  1  0.155689  0.508152  0.630586  1
  P  P10  1  0.344311  0.491848  0.130586  1
  P  P11  1  0.844311  0.008152  0.869414  1
  P  P12  1  0.344311  0.008152  0.630586  1
  P  P13  1  0.844311  0.491848  0.369414  1
  P  P14  1  0.655689  0.508152  0.869414  1
  P  P15  1  0.155689  0.991848  0.130586  1
  H  H16  1  0.600164  0.994661  0.574059  1
  H  H17  1  0.100164  0.505339  0.425941  1
  H  H18  1  0.399836  0.494661  0.925941  1
  H  H19  1  0.899836  0.005339  0.074059  1
  H  H20  1  0.399836  0.005339  0.425941  1
  H  H21  1  0.899836  0.494661  0.574059  1
  H  H22  1  0.600164  0.505339  0.074059  1
  H  H23  1  0.100164  0.994661  0.925941  1
  H  H24  1  0.480486  0.345083  0.498805  1
  H  H25  1  0.980486  0.154917  0.501195  1
  H  H26  1  0.519514  0.845083  0.001195  1
  H  H27  1  0.019514  0.654917  0.998805  1
  H  H28  1  0.519514  0.654917  0.501195  1
  H  H29  1  0.019514  0.845083  0.498805  1
  H  H30  1  0.480486  0.154917  0.998805  1
  H  H31  1  0.980486  0.345083  0.001195  1
  H  H32  1  0.368583  0.327537  0.397618  1
  H  H33  1  0.868583  0.172463  0.602382  1
  H  H34  1  0.631417  0.827537  0.102382  1
  H  H35  1  0.131417  0.672463  0.897618  1
  H  H36  1  0.631417  0.672463  0.602382  1
  H  H37  1  0.131417  0.827537  0.397618  1
  H  H38  1  0.368583  0.172463  0.897618  1
  H  H39  1  0.868583  0.327537  0.102382  1
  H  H40  1  0.737580  0.167206  0.067801  1
  H  H41  1  0.237580  0.332794  0.932199  1
  H  H42  1  0.262420  0.667206  0.432199  1
  H  H43  1  0.762420  0.832794  0.567801  1
  H  H44  1  0.262420  0.832794  0.932199  1
  H  H45  1  0.762420  0.667206  0.067801  1
  H  H46  1  0.737580  0.332794  0.567801  1
  H  H47  1  0.237580  0.167206  0.432199  1
  H  H48  1  0.682584  0.293915  0.004566  1
  H  H49  1  0.182584  0.206085  0.995434  1
  H  H50  1  0.317416  0.793915  0.495434  1
  H  H51  1  0.817416  0.706085  0.504566  1
  H  H52  1  0.317416  0.706085  0.995434  1
  H  H53  1  0.817416  0.793915  0.004566  1
  H  H54  1  0.682584  0.206085  0.504566  1
  H  H55  1  0.182584  0.293915  0.495434  1
  H  H56  1  0.462649  0.078216  0.219262  1
  H  H57  1  0.962649  0.421784  0.780738  1
  H  H58  1  0.537351  0.578216  0.280738  1
  H  H59  1  0.037351  0.921784  0.719262  1
  H  H60  1  0.537351  0.921784  0.780738  1
  H  H61  1  0.037351  0.578216  0.219262  1
  H  H62  1  0.462649  0.421784  0.719262  1
  H  H63  1  0.962649  0.078216  0.280738  1
  H  H64  1  0.347416  0.169536  0.173620  1
  H  H65  1  0.847416  0.330464  0.826380  1
  H  H66  1  0.652584  0.669536  0.326380  1
  H  H67  1  0.152584  0.830464  0.673620  1
  H  H68  1  0.652584  0.830464  0.826380  1
  H  H69  1  0.152584  0.669536  0.173620  1
  H  H70  1  0.347416  0.330464  0.673620  1
  H  H71  1  0.847416  0.169536  0.326380  1
  O  O72  1  0.465111  0.344740  0.407855  1
  O  O73  1  0.965111  0.155260  0.592145  1
  O  O74  1  0.534889  0.844740  0.092145  1
  O  O75  1  0.034889  0.655260  0.907855  1
  O  O76  1  0.534889  0.655260  0.592145  1
  O  O77  1  0.034889  0.844740  0.407855  1
  O  O78  1  0.465111  0.155260  0.907855  1
  O  O79  1  0.965111  0.344740  0.092145  1
  O  O80  1  0.701333  0.254395  0.087743  1
  O  O81  1  0.201333  0.245605  0.912257  1
  O  O82  1  0.298667  0.754395  0.412257  1
  O  O83  1  0.798667  0.745605  0.587743  1
  O  O84  1  0.298667  0.745605  0.912257  1
  O  O85  1  0.798667  0.754395  0.087743  1
  O  O86  1  0.701333  0.245605  0.587743  1
  O  O87  1  0.201333  0.254395  0.412257  1
  O  O88  1  0.446444  0.163248  0.179246  1
  O  O89  1  0.946444  0.336752  0.820754  1
  O  O90  1  0.553556  0.663248  0.320754  1
  O  O91  1  0.053556  0.836752  0.679246  1
  O  O92  1  0.553556  0.836752  0.820754  1
  O  O93  1  0.053556  0.663248  0.179246  1
  O  O94  1  0.446444  0.336752  0.679246  1
  O  O95  1  0.946444  0.163248  0.320754  1
  O  O96  1  0.674742  0.962862  0.516318  1
  O  O97  1  0.174742  0.537138  0.483682  1
  O  O98  1  0.325258  0.462862  0.983682  1
  O  O99  1  0.825258  0.037138  0.016318  1
  O  O100  1  0.325258  0.037138  0.483682  1
  O  O101  1  0.825258  0.462862  0.516318  1
  O  O102  1  0.674742  0.537138  0.016318  1
  O  O103  1  0.174742  0.962862  0.983682  1
  O  O104  1  0.674647  0.139525  0.351579  1
  O  O105  1  0.174647  0.360475  0.648421  1
  O  O106  1  0.325353  0.639525  0.148421  1
  O  O107  1  0.825353  0.860475  0.851579  1
  O  O108  1  0.325353  0.860475  0.648421  1
  O  O109  1  0.825353  0.639525  0.351579  1
  O  O110  1  0.674647  0.360475  0.851579  1
  O  O111  1  0.174647  0.139525  0.148421  1
  O  O112  1  0.509689  0.954848  0.334874  1
  O  O113  1  0.009689  0.545152  0.665126  1
  O  O114  1  0.490311  0.454848  0.165126  1
  O  O115  1  0.990311  0.045152  0.834874  1
  O  O116  1  0.490311  0.045152  0.665126  1
  O  O117  1  0.990311  0.454848  0.334874  1
  O  O118  1  0.509689  0.545152  0.834874  1
  O  O119  1  0.009689  0.954848  0.165126  1
  O  O120  1  0.759701  0.911983  0.303978  1
  O  O121  1  0.259701  0.588017  0.696022  1
  O  O122  1  0.240299  0.411983  0.196022  1
  O  O123  1  0.740299  0.088017  0.803978  1
  O  O124  1  0.240299  0.088017  0.696022  1
  O  O125  1  0.740299  0.411983  0.303978  1
  O  O126  1  0.759701  0.588017  0.803978  1
  O  O127  1  0.259701  0.911983  0.196022  1
