# generated using pymatgen
data_NaNbCl6
_symmetry_space_group_name_H-M   'P 1'
_cell_length_a   6.65664956
_cell_length_b   7.07771968
_cell_length_c   19.92670257
_cell_angle_alpha   90.00000000
_cell_angle_beta   90.50509778
_cell_angle_gamma   90.00000000
_symmetry_Int_Tables_number   1
_chemical_formula_structural   NaNbCl6
_chemical_formula_sum   'Na4 Nb4 Cl24'
_cell_volume   938.78818453
_cell_formula_units_Z   4
loop_
 _symmetry_equiv_pos_site_id
 _symmetry_equiv_pos_as_xyz
  1  'x, y, z'
loop_
 _atom_site_type_symbol
 _atom_site_label
 _atom_site_symmetry_multiplicity
 _atom_site_fract_x
 _atom_site_fract_y
 _atom_site_fract_z
 _atom_site_occupancy
  Na  Na0  1  0.211162  0.811212  0.252521  1
  Na  Na1  1  0.788838  0.311212  0.247479  1
  Na  Na2  1  0.788838  0.188788  0.747479  1
  Na  Na3  1  0.211162  0.688788  0.752521  1
  Nb  Nb4  1  0.742878  0.717066  0.383402  1
  Nb  Nb5  1  0.257122  0.217066  0.116598  1
  Nb  Nb6  1  0.257122  0.282934  0.616598  1
  Nb  Nb7  1  0.742878  0.782934  0.883402  1
  Cl  Cl8  1  0.613858  0.820401  0.765460  1
  Cl  Cl9  1  0.386142  0.320401  0.734540  1
  Cl  Cl10  1  0.386142  0.179599  0.234540  1
  Cl  Cl11  1  0.613858  0.679599  0.265460  1
  Cl  Cl12  1  0.459691  0.602775  0.905759  1
  Cl  Cl13  1  0.540309  0.102775  0.594241  1
  Cl  Cl14  1  0.540309  0.397225  0.094241  1
  Cl  Cl15  1  0.459691  0.897225  0.405759  1
  Cl  Cl16  1  0.917621  0.502255  0.842184  1
  Cl  Cl17  1  0.082379  0.002255  0.657816  1
  Cl  Cl18  1  0.082379  0.497745  0.157816  1
  Cl  Cl19  1  0.917621  0.997745  0.342184  1
  Cl  Cl20  1  0.886448  0.746667  0.987988  1
  Cl  Cl21  1  0.113552  0.246667  0.512012  1
  Cl  Cl22  1  0.113552  0.253333  0.012012  1
  Cl  Cl23  1  0.886448  0.753333  0.487988  1
  Cl  Cl24  1  0.034596  0.959028  0.841845  1
  Cl  Cl25  1  0.965404  0.459028  0.658155  1
  Cl  Cl26  1  0.965404  0.040972  0.158155  1
  Cl  Cl27  1  0.034596  0.540972  0.341845  1
  Cl  Cl28  1  0.592607  0.070404  0.908891  1
  Cl  Cl29  1  0.407393  0.570404  0.591109  1
  Cl  Cl30  1  0.407393  0.929596  0.091109  1
  Cl  Cl31  1  0.592607  0.429596  0.408891  1
