# generated using pymatgen
data_Li10BrN3
_symmetry_space_group_name_H-M   'P 1'
_cell_length_a   7.44113875
_cell_length_b   7.44113875
_cell_length_c   3.87810144
_cell_angle_alpha   90.00000000
_cell_angle_beta   90.00000000
_cell_angle_gamma   120.00000000
_symmetry_Int_Tables_number   1
_chemical_formula_structural   Li10BrN3
_chemical_formula_sum   'Li10 Br1 N3'
_cell_volume   185.96388128
_cell_formula_units_Z   1
loop_
 _symmetry_equiv_pos_site_id
 _symmetry_equiv_pos_as_xyz
  1  'x, y, z'
loop_
 _atom_site_type_symbol
 _atom_site_label
 _atom_site_symmetry_multiplicity
 _atom_site_fract_x
 _atom_site_fract_y
 _atom_site_fract_z
 _atom_site_occupancy
  Li  Li0  1  0.778332  0.556664  0.000000  1
  Li  Li1  1  0.443336  0.221668  0.000000  1
  Li  Li2  1  0.778332  0.221668  0.000000  1
  Li  Li3  1  0.167176  0.334351  0.000000  1
  Li  Li4  1  0.491649  0.508351  0.500000  1
  Li  Li5  1  0.016703  0.508351  0.500000  1
  Li  Li6  1  0.491649  0.983297  0.500000  1
  Li  Li7  1  0.333333  0.666667  0.000000  1
  Li  Li8  1  0.167176  0.832824  0.000000  1
  Li  Li9  1  0.665649  0.832824  0.000000  1
  Br  Br10  1  0.000000  0.000000  0.500000  1
  N  N11  1  0.491375  0.508625  0.000000  1
  N  N12  1  0.491375  0.982749  0.000000  1
  N  N13  1  0.017251  0.508625  0.000000  1
