# generated using pymatgen
data_Ga2TeS2
_symmetry_space_group_name_H-M   'P 1'
_cell_length_a   7.26434902
_cell_length_b   7.26434902
_cell_length_c   7.26434902
_cell_angle_alpha   120.41913969
_cell_angle_beta   120.41913969
_cell_angle_gamma   89.27554901
_symmetry_Int_Tables_number   1
_chemical_formula_structural   Ga2TeS2
_chemical_formula_sum   'Ga4 Te2 S4'
_cell_volume   269.32541570
_cell_formula_units_Z   2
loop_
 _symmetry_equiv_pos_site_id
 _symmetry_equiv_pos_as_xyz
  1  'x, y, z'
loop_
 _atom_site_type_symbol
 _atom_site_label
 _atom_site_symmetry_multiplicity
 _atom_site_fract_x
 _atom_site_fract_y
 _atom_site_fract_z
 _atom_site_occupancy
  Ga  Ga0  1  0.160728  0.882827  0.722098  1
  Ga  Ga1  1  0.188630  0.410728  0.777902  1
  Ga  Ga2  1  0.160728  0.438630  0.277902  1
  Ga  Ga3  1  0.632826  0.410728  0.222098  1
  Te  Te4  1  0.752559  0.252559  0.500000  1
  Te  Te5  1  0.002559  0.002559  0.000000  1
  S  S6  1  0.373007  0.633792  0.739214  1
  S  S7  1  0.383792  0.144578  0.760786  1
  S  S8  1  0.383792  0.623007  0.239214  1
  S  S9  1  0.894578  0.633792  0.260786  1
