# generated using pymatgen
data_Ge(SF6)2
_symmetry_space_group_name_H-M   'P 1'
_cell_length_a   6.12883243
_cell_length_b   7.65118998
_cell_length_c   9.66646815
_cell_angle_alpha   90.00000000
_cell_angle_beta   90.00000000
_cell_angle_gamma   90.00000000
_symmetry_Int_Tables_number   1
_chemical_formula_structural   Ge(SF6)2
_chemical_formula_sum   'Ge2 S4 F24'
_cell_volume   453.28835000
_cell_formula_units_Z   2
loop_
 _symmetry_equiv_pos_site_id
 _symmetry_equiv_pos_as_xyz
  1  'x, y, z'
loop_
 _atom_site_type_symbol
 _atom_site_label
 _atom_site_symmetry_multiplicity
 _atom_site_fract_x
 _atom_site_fract_y
 _atom_site_fract_z
 _atom_site_occupancy
  Ge  Ge0  1  0.000000  0.500000  0.000000  1
  Ge  Ge1  1  0.500000  0.000000  0.500000  1
  S  S2  1  0.500000  0.568443  0.242824  1
  S  S3  1  0.500000  0.431557  0.757176  1
  S  S4  1  0.000000  0.068443  0.257176  1
  S  S5  1  0.000000  0.931557  0.742824  1
  F  F6  1  0.212128  0.369140  0.913641  1
  F  F7  1  0.212128  0.630860  0.086359  1
  F  F8  1  0.287872  0.869140  0.586359  1
  F  F9  1  0.287872  0.130860  0.413641  1
  F  F10  1  0.787872  0.630860  0.086359  1
  F  F11  1  0.787872  0.369140  0.913641  1
  F  F12  1  0.811297  0.972504  0.847421  1
  F  F13  1  0.811297  0.027496  0.152579  1
  F  F14  1  0.688703  0.472504  0.652579  1
  F  F15  1  0.688703  0.527496  0.347421  1
  F  F16  1  0.188703  0.027496  0.152579  1
  F  F17  1  0.188703  0.972504  0.847421  1
  F  F18  1  0.311297  0.527496  0.347421  1
  F  F19  1  0.311297  0.472504  0.652579  1
  F  F20  1  0.000000  0.652177  0.853494  1
  F  F21  1  0.000000  0.347823  0.146506  1
  F  F22  1  0.500000  0.152177  0.646506  1
  F  F23  1  0.500000  0.847823  0.353494  1
  F  F24  1  0.500000  0.616530  0.825964  1
  F  F25  1  0.500000  0.383470  0.174036  1
  F  F26  1  0.000000  0.116530  0.674036  1
  F  F27  1  0.000000  0.883470  0.325964  1
  F  F28  1  0.712128  0.869140  0.586359  1
  F  F29  1  0.712128  0.130860  0.413641  1
