# generated using pymatgen
data_BSF7
_symmetry_space_group_name_H-M   'P 1'
_cell_length_a   5.81523185
_cell_length_b   9.08927640
_cell_length_c   9.76384108
_cell_angle_alpha   90.00000000
_cell_angle_beta   90.00000000
_cell_angle_gamma   90.00000000
_symmetry_Int_Tables_number   1
_chemical_formula_structural   BSF7
_chemical_formula_sum   'B4 S4 F28'
_cell_volume   516.08002132
_cell_formula_units_Z   4
loop_
 _symmetry_equiv_pos_site_id
 _symmetry_equiv_pos_as_xyz
  1  'x, y, z'
loop_
 _atom_site_type_symbol
 _atom_site_label
 _atom_site_symmetry_multiplicity
 _atom_site_fract_x
 _atom_site_fract_y
 _atom_site_fract_z
 _atom_site_occupancy
  B  B0  1  0.750000  0.160143  0.480186  1
  B  B1  1  0.750000  0.339857  0.980186  1
  B  B2  1  0.250000  0.660143  0.019814  1
  B  B3  1  0.250000  0.839857  0.519814  1
  S  S4  1  0.250000  0.384540  0.789253  1
  S  S5  1  0.750000  0.615460  0.210747  1
  S  S6  1  0.750000  0.884540  0.710747  1
  S  S7  1  0.250000  0.115460  0.289253  1
  F  F8  1  0.050467  0.738228  0.064770  1
  F  F9  1  0.449533  0.761772  0.564770  1
  F  F10  1  0.949533  0.238228  0.435230  1
  F  F11  1  0.550467  0.261772  0.935230  1
  F  F12  1  0.050979  0.055754  0.198108  1
  F  F13  1  0.550979  0.944246  0.801892  1
  F  F14  1  0.949021  0.555754  0.301892  1
  F  F15  1  0.449021  0.444246  0.698108  1
  F  F16  1  0.949021  0.944246  0.801892  1
  F  F17  1  0.449021  0.055754  0.198108  1
  F  F18  1  0.050979  0.444246  0.698108  1
  F  F19  1  0.550979  0.555754  0.301892  1
  F  F20  1  0.250000  0.273515  0.229850  1
  F  F21  1  0.750000  0.726485  0.770150  1
  F  F22  1  0.750000  0.773515  0.270150  1
  F  F23  1  0.250000  0.226485  0.729850  1
  F  F24  1  0.750000  0.152010  0.625863  1
  F  F25  1  0.250000  0.847990  0.374137  1
  F  F26  1  0.250000  0.652010  0.874137  1
  F  F27  1  0.750000  0.347990  0.125863  1
  F  F28  1  0.750000  0.018265  0.425151  1
  F  F29  1  0.250000  0.981735  0.574849  1
  F  F30  1  0.250000  0.518265  0.074849  1
  F  F31  1  0.750000  0.481735  0.925151  1
  F  F32  1  0.550467  0.238228  0.435230  1
  F  F33  1  0.050467  0.761772  0.564770  1
  F  F34  1  0.449533  0.738228  0.064770  1
  F  F35  1  0.949533  0.261772  0.935230  1
