# generated using pymatgen
data_WS9Cl4
_symmetry_space_group_name_H-M   'P 1'
_cell_length_a   18.24022523
_cell_length_b   18.24022523
_cell_length_c   11.34687585
_cell_angle_alpha   90.00000000
_cell_angle_beta   90.00000000
_cell_angle_gamma   90.00000000
_symmetry_Int_Tables_number   1
_chemical_formula_structural   WS9Cl4
_chemical_formula_sum   'W8 S72 Cl32'
_cell_volume   3775.17159373
_cell_formula_units_Z   8
loop_
 _symmetry_equiv_pos_site_id
 _symmetry_equiv_pos_as_xyz
  1  'x, y, z'
loop_
 _atom_site_type_symbol
 _atom_site_label
 _atom_site_symmetry_multiplicity
 _atom_site_fract_x
 _atom_site_fract_y
 _atom_site_fract_z
 _atom_site_occupancy
  W  W0  1  0.141904  0.783714  0.087720  1
  W  W1  1  0.216286  0.141904  0.912280  1
  W  W2  1  0.783714  0.858096  0.912280  1
  W  W3  1  0.858096  0.216286  0.087720  1
  W  W4  1  0.641904  0.716286  0.412280  1
  W  W5  1  0.358096  0.283714  0.412280  1
  W  W6  1  0.283714  0.641904  0.587720  1
  W  W7  1  0.716286  0.358096  0.587720  1
  S  S8  1  0.208071  0.798714  0.237581  1
  S  S9  1  0.201286  0.208071  0.762419  1
  S  S10  1  0.798714  0.791929  0.762419  1
  S  S11  1  0.791929  0.201286  0.237581  1
  S  S12  1  0.708071  0.701286  0.262419  1
  S  S13  1  0.291929  0.298714  0.262419  1
  S  S14  1  0.298714  0.708071  0.737581  1
  S  S15  1  0.701286  0.291929  0.737581  1
  S  S16  1  0.018444  0.762219  0.837711  1
  S  S17  1  0.237781  0.018444  0.162289  1
  S  S18  1  0.762219  0.981556  0.162289  1
  S  S19  1  0.981556  0.237781  0.837711  1
  S  S20  1  0.518444  0.737781  0.662289  1
  S  S21  1  0.481556  0.262219  0.662289  1
  S  S22  1  0.262219  0.518444  0.337711  1
  S  S23  1  0.737781  0.481556  0.337711  1
  S  S24  1  0.037915  0.655948  0.782137  1
  S  S25  1  0.344052  0.037915  0.217863  1
  S  S26  1  0.655948  0.962085  0.217863  1
  S  S27  1  0.962085  0.344052  0.782137  1
  S  S28  1  0.537915  0.844052  0.717863  1
  S  S29  1  0.462085  0.155948  0.717863  1
  S  S30  1  0.155948  0.537915  0.282137  1
  S  S31  1  0.844052  0.462085  0.282137  1
  S  S32  1  0.945794  0.618177  0.696791  1
  S  S33  1  0.381823  0.945794  0.303209  1
  S  S34  1  0.618177  0.054206  0.303209  1
  S  S35  1  0.054206  0.381823  0.696791  1
  S  S36  1  0.445794  0.881823  0.803209  1
  S  S37  1  0.554206  0.118177  0.803209  1
  S  S38  1  0.118177  0.445794  0.196791  1
  S  S39  1  0.881823  0.554206  0.196791  1
  S  S40  1  0.958896  0.630867  0.517088  1
  S  S41  1  0.369133  0.958896  0.482912  1
  S  S42  1  0.630867  0.041104  0.482912  1
  S  S43  1  0.041104  0.369133  0.517088  1
  S  S44  1  0.458896  0.869133  0.982912  1
  S  S45  1  0.541104  0.130867  0.982912  1
  S  S46  1  0.130867  0.458896  0.017088  1
  S  S47  1  0.869133  0.541104  0.017088  1
  S  S48  1  0.907944  0.726243  0.464295  1
  S  S49  1  0.273757  0.907944  0.535705  1
  S  S50  1  0.726243  0.092056  0.535705  1
  S  S51  1  0.092056  0.273757  0.464295  1
  S  S52  1  0.407944  0.773757  0.035705  1
  S  S53  1  0.592056  0.226243  0.035705  1
  S  S54  1  0.226243  0.407944  0.964295  1
  S  S55  1  0.773757  0.592056  0.964295  1
  S  S56  1  0.984451  0.809204  0.453053  1
  S  S57  1  0.190796  0.984451  0.546947  1
  S  S58  1  0.809204  0.015549  0.546947  1
  S  S59  1  0.015549  0.190796  0.453053  1
  S  S60  1  0.484451  0.690796  0.046947  1
  S  S61  1  0.515549  0.309204  0.046947  1
  S  S62  1  0.309204  0.484451  0.953053  1
  S  S63  1  0.690796  0.515549  0.953053  1
  S  S64  1  0.981681  0.870375  0.606327  1
  S  S65  1  0.129625  0.981681  0.393673  1
  S  S66  1  0.870375  0.018319  0.393673  1
  S  S67  1  0.018319  0.129625  0.606327  1
  S  S68  1  0.481681  0.629625  0.893673  1
  S  S69  1  0.518319  0.370375  0.893673  1
  S  S70  1  0.370375  0.481681  0.106327  1
  S  S71  1  0.629625  0.518319  0.106327  1
  S  S72  1  0.063274  0.835273  0.718144  1
  S  S73  1  0.164727  0.063274  0.281856  1
  S  S74  1  0.835273  0.936726  0.281856  1
  S  S75  1  0.936726  0.164727  0.718144  1
  S  S76  1  0.563274  0.664727  0.781856  1
  S  S77  1  0.436726  0.335273  0.781856  1
  S  S78  1  0.335273  0.563274  0.218144  1
  S  S79  1  0.664727  0.436726  0.218144  1
  Cl  Cl80  1  0.061680  0.881117  0.097488  1
  Cl  Cl81  1  0.118883  0.061680  0.902512  1
  Cl  Cl82  1  0.881117  0.938320  0.902512  1
  Cl  Cl83  1  0.938320  0.118883  0.097488  1
  Cl  Cl84  1  0.561680  0.618883  0.402512  1
  Cl  Cl85  1  0.438320  0.381117  0.402512  1
  Cl  Cl86  1  0.381117  0.561680  0.597488  1
  Cl  Cl87  1  0.618883  0.438320  0.597488  1
  Cl  Cl88  1  0.047147  0.711284  0.156144  1
  Cl  Cl89  1  0.288716  0.047147  0.843856  1
  Cl  Cl90  1  0.711284  0.952853  0.843856  1
  Cl  Cl91  1  0.952853  0.288716  0.156144  1
  Cl  Cl92  1  0.547147  0.788716  0.343856  1
  Cl  Cl93  1  0.452853  0.211284  0.343856  1
  Cl  Cl94  1  0.211284  0.547147  0.656144  1
  Cl  Cl95  1  0.788716  0.452853  0.656144  1
  Cl  Cl96  1  0.188980  0.678954  0.002768  1
  Cl  Cl97  1  0.321046  0.188980  0.997232  1
  Cl  Cl98  1  0.678954  0.811020  0.997232  1
  Cl  Cl99  1  0.811020  0.321046  0.002768  1
  Cl  Cl100  1  0.688980  0.821046  0.497232  1
  Cl  Cl101  1  0.311020  0.178954  0.497232  1
  Cl  Cl102  1  0.178954  0.688980  0.502768  1
  Cl  Cl103  1  0.821046  0.311020  0.502768  1
  Cl  Cl104  1  0.203948  0.848737  0.944227  1
  Cl  Cl105  1  0.151263  0.203948  0.055773  1
  Cl  Cl106  1  0.848737  0.796052  0.055773  1
  Cl  Cl107  1  0.796052  0.151263  0.944227  1
  Cl  Cl108  1  0.703948  0.651263  0.555773  1
  Cl  Cl109  1  0.296052  0.348737  0.555773  1
  Cl  Cl110  1  0.348737  0.703948  0.444227  1
  Cl  Cl111  1  0.651263  0.296052  0.444227  1
