# generated using pymatgen
data_Cu6As4S9
_symmetry_space_group_name_H-M   'P 1'
_cell_length_a   9.13661987
_cell_length_b   9.14343592
_cell_length_c   9.89847633
_cell_angle_alpha   107.73607452
_cell_angle_beta   90.07916927
_cell_angle_gamma   109.43125844
_symmetry_Int_Tables_number   1
_chemical_formula_structural   Cu6As4S9
_chemical_formula_sum   'Cu12 As8 S18'
_cell_volume   737.88104548
_cell_formula_units_Z   2
loop_
 _symmetry_equiv_pos_site_id
 _symmetry_equiv_pos_as_xyz
  1  'x, y, z'
loop_
 _atom_site_type_symbol
 _atom_site_label
 _atom_site_symmetry_multiplicity
 _atom_site_fract_x
 _atom_site_fract_y
 _atom_site_fract_z
 _atom_site_occupancy
  Cu  Cu0  1  0.510894  0.605015  0.985666  1
  Cu  Cu1  1  0.204675  0.721784  0.602472  1
  Cu  Cu2  1  0.333530  0.032204  0.389025  1
  Cu  Cu3  1  0.659911  0.075453  0.194562  1
  Cu  Cu4  1  0.609624  0.911663  0.797809  1
  Cu  Cu5  1  0.938680  0.833652  0.191177  1
  Cu  Cu6  1  0.058796  0.279627  0.397951  1
  Cu  Cu7  1  0.169735  0.557560  0.182684  1
  Cu  Cu8  1  0.104536  0.410834  0.793826  1
  Cu  Cu9  1  0.964216  0.963498  0.602997  1
  Cu  Cu10  1  0.755485  0.366170  0.986580  1
  Cu  Cu11  1  0.581518  0.761791  0.406737  1
  As  As12  1  0.822875  0.538974  0.421377  1
  As  As13  1  0.717426  0.234751  0.576730  1
  As  As14  1  0.852702  0.654537  0.791421  1
  As  As15  1  0.498675  0.482757  0.590156  1
  As  As16  1  0.352001  0.154244  0.795552  1
  As  As17  1  0.276927  0.902584  0.009870  1
  As  As18  1  0.408918  0.318137  0.180188  1
  As  As19  1  0.044078  0.130281  0.012267  1
  S  S20  1  0.455223  0.712238  0.596426  1
  S  S21  1  0.771621  0.627077  0.998918  1
  S  S22  1  0.834242  0.776375  0.388901  1
  S  S23  1  0.575953  0.008889  0.396323  1
  S  S24  1  0.912473  0.075373  0.195150  1
  S  S25  1  0.004078  0.356643  0.993393  1
  S  S26  1  0.864825  0.922688  0.805324  1
  S  S27  1  0.182128  0.817389  0.194764  1
  S  S28  1  0.358299  0.414482  0.782921  1
  S  S29  1  0.221356  0.974327  0.587022  1
  S  S30  1  0.066927  0.531907  0.392019  1
  S  S31  1  0.956711  0.209446  0.592017  1
  S  S32  1  0.119492  0.670794  0.806871  1
  S  S33  1  0.614797  0.160191  0.784960  1
  S  S34  1  0.425138  0.573369  0.197776  1
  S  S35  1  0.510738  0.862426  0.999643  1
  S  S36  1  0.670311  0.329789  0.196087  1
  S  S37  1  0.312484  0.279079  0.400436  1
