# generated using pymatgen
data_VBiO4
_symmetry_space_group_name_H-M   'P 1'
_cell_length_a   6.91957626
_cell_length_b   6.91957626
_cell_length_c   6.91957626
_cell_angle_alpha   135.96604653
_cell_angle_beta   135.96604653
_cell_angle_gamma   64.03283218
_symmetry_Int_Tables_number   1
_chemical_formula_structural   VBiO4
_chemical_formula_sum   'V2 Bi2 O8'
_cell_volume   157.91695246
_cell_formula_units_Z   2
loop_
 _symmetry_equiv_pos_site_id
 _symmetry_equiv_pos_as_xyz
  1  'x, y, z'
loop_
 _atom_site_type_symbol
 _atom_site_label
 _atom_site_symmetry_multiplicity
 _atom_site_fract_x
 _atom_site_fract_y
 _atom_site_fract_z
 _atom_site_occupancy
  V  V0  1  0.500000  0.500000  0.000000  1
  V  V1  1  0.250000  0.750000  0.500000  1
  Bi  Bi2  1  0.000000  0.000000  0.000000  1
  Bi  Bi3  1  0.750000  0.250000  0.500000  1
  O  O4  1  0.170125  0.562675  0.890939  1
  O  O5  1  0.312675  0.921736  0.892550  1
  O  O6  1  0.029186  0.420125  0.107450  1
  O  O7  1  0.671736  0.279186  0.109061  1
  O  O8  1  0.078264  0.970814  0.390939  1
  O  O9  1  0.720814  0.829875  0.392550  1
  O  O10  1  0.579875  0.687325  0.609061  1
  O  O11  1  0.437325  0.328264  0.607450  1
