# generated using pymatgen
data_LiInTe2
_symmetry_space_group_name_H-M   'P 1'
_cell_length_a   7.87941501
_cell_length_b   7.87941501
_cell_length_c   7.87941501
_cell_angle_alpha   130.95089043
_cell_angle_beta   130.95089043
_cell_angle_gamma   71.89111546
_symmetry_Int_Tables_number   1
_chemical_formula_structural   LiInTe2
_chemical_formula_sum   'Li2 In2 Te4'
_cell_volume   272.94135990
_cell_formula_units_Z   2
loop_
 _symmetry_equiv_pos_site_id
 _symmetry_equiv_pos_as_xyz
  1  'x, y, z'
loop_
 _atom_site_type_symbol
 _atom_site_label
 _atom_site_symmetry_multiplicity
 _atom_site_fract_x
 _atom_site_fract_y
 _atom_site_fract_z
 _atom_site_occupancy
  Li  Li0  1  0.500000  0.500000  0.000000  1
  Li  Li1  1  0.250000  0.750000  0.500000  1
  In  In2  1  0.000000  0.000000  0.000000  1
  In  In3  1  0.750000  0.250000  0.500000  1
  Te  Te4  1  0.617391  0.625000  0.492391  1
  Te  Te5  1  0.375000  0.867391  0.992391  1
  Te  Te6  1  0.875000  0.382609  0.007609  1
  Te  Te7  1  0.132609  0.125000  0.507609  1
