# generated using pymatgen
data_Ba4Ga2S7
_symmetry_space_group_name_H-M   'P 1'
_cell_length_a   9.14572332
_cell_length_b   7.22175185
_cell_length_c   11.97078981
_cell_angle_alpha   90.00000000
_cell_angle_beta   108.99653544
_cell_angle_gamma   90.00000000
_symmetry_Int_Tables_number   1
_chemical_formula_structural   Ba4Ga2S7
_chemical_formula_sum   'Ba8 Ga4 S14'
_cell_volume   747.58836269
_cell_formula_units_Z   2
loop_
 _symmetry_equiv_pos_site_id
 _symmetry_equiv_pos_as_xyz
  1  'x, y, z'
loop_
 _atom_site_type_symbol
 _atom_site_label
 _atom_site_symmetry_multiplicity
 _atom_site_fract_x
 _atom_site_fract_y
 _atom_site_fract_z
 _atom_site_occupancy
  Ba  Ba0  1  0.990647  0.750000  0.612127  1
  Ba  Ba1  1  0.009353  0.250000  0.387873  1
  Ba  Ba2  1  0.923985  0.750000  0.067293  1
  Ba  Ba3  1  0.076015  0.250000  0.932707  1
  Ba  Ba4  1  0.468774  0.750000  0.816756  1
  Ba  Ba5  1  0.531226  0.250000  0.183244  1
  Ba  Ba6  1  0.370090  0.750000  0.390767  1
  Ba  Ba7  1  0.629910  0.250000  0.609233  1
  Ga  Ga8  1  0.731540  0.750000  0.311877  1
  Ga  Ga9  1  0.268460  0.250000  0.688123  1
  Ga  Ga10  1  0.312747  0.750000  0.079949  1
  Ga  Ga11  1  0.687253  0.250000  0.920051  1
  S  S12  1  0.989896  0.750000  0.343286  1
  S  S13  1  0.010104  0.250000  0.656714  1
  S  S14  1  0.163818  0.750000  0.886623  1
  S  S15  1  0.836182  0.250000  0.113377  1
  S  S16  1  0.582444  0.750000  0.110970  1
  S  S17  1  0.417556  0.250000  0.889030  1
  S  S18  1  0.315027  0.499842  0.588266  1
  S  S19  1  0.684973  0.999842  0.411734  1
  S  S20  1  0.684973  0.500158  0.411734  1
  S  S21  1  0.315027  0.000158  0.588266  1
  S  S22  1  0.758506  0.502667  0.834580  1
  S  S23  1  0.241494  0.002667  0.165420  1
  S  S24  1  0.758506  0.997333  0.834580  1
  S  S25  1  0.241494  0.497333  0.165420  1
