# generated using pymatgen
data_Si2Pb3O7
_symmetry_space_group_name_H-M   'P 1'
_cell_length_a   14.40499348
_cell_length_b   14.40499348
_cell_length_c   14.40499348
_cell_angle_alpha   41.93963829
_cell_angle_beta   41.93963829
_cell_angle_gamma   41.93963829
_symmetry_Int_Tables_number   1
_chemical_formula_structural   Si2Pb3O7
_chemical_formula_sum   'Si12 Pb18 O42'
_cell_volume   1207.62904938
_cell_formula_units_Z   6
loop_
 _symmetry_equiv_pos_site_id
 _symmetry_equiv_pos_as_xyz
  1  'x, y, z'
loop_
 _atom_site_type_symbol
 _atom_site_label
 _atom_site_symmetry_multiplicity
 _atom_site_fract_x
 _atom_site_fract_y
 _atom_site_fract_z
 _atom_site_occupancy
  Si  Si0  1  0.442816  0.648285  0.054475  1
  Si  Si1  1  0.648285  0.054475  0.442816  1
  Si  Si2  1  0.054475  0.442816  0.648285  1
  Si  Si3  1  0.057184  0.445525  0.851715  1
  Si  Si4  1  0.445525  0.851715  0.057184  1
  Si  Si5  1  0.851715  0.057184  0.445525  1
  Si  Si6  1  0.557184  0.351715  0.945525  1
  Si  Si7  1  0.351715  0.945525  0.557184  1
  Si  Si8  1  0.945525  0.557184  0.351715  1
  Si  Si9  1  0.942816  0.554475  0.148285  1
  Si  Si10  1  0.554475  0.148285  0.942816  1
  Si  Si11  1  0.148285  0.942816  0.554475  1
  Pb  Pb12  1  0.250000  0.250000  0.250000  1
  Pb  Pb13  1  0.750000  0.750000  0.750000  1
  Pb  Pb14  1  0.340366  0.340366  0.340366  1
  Pb  Pb15  1  0.159634  0.159634  0.159634  1
  Pb  Pb16  1  0.659634  0.659634  0.659634  1
  Pb  Pb17  1  0.840366  0.840366  0.840366  1
  Pb  Pb18  1  0.709256  0.490810  0.186928  1
  Pb  Pb19  1  0.490810  0.186928  0.709256  1
  Pb  Pb20  1  0.186928  0.709256  0.490810  1
  Pb  Pb21  1  0.790744  0.313072  0.009190  1
  Pb  Pb22  1  0.313072  0.009190  0.790744  1
  Pb  Pb23  1  0.009190  0.790744  0.313072  1
  Pb  Pb24  1  0.290744  0.509190  0.813072  1
  Pb  Pb25  1  0.509190  0.813072  0.290744  1
  Pb  Pb26  1  0.813072  0.290744  0.509190  1
  Pb  Pb27  1  0.209256  0.686928  0.990810  1
  Pb  Pb28  1  0.686928  0.990810  0.209256  1
  Pb  Pb29  1  0.990810  0.209256  0.686928  1
  O  O30  1  0.581625  0.484826  0.105867  1
  O  O31  1  0.484826  0.105867  0.581625  1
  O  O32  1  0.105867  0.581625  0.484826  1
  O  O33  1  0.918375  0.394133  0.015174  1
  O  O34  1  0.394133  0.015174  0.918375  1
  O  O35  1  0.015174  0.918375  0.394133  1
  O  O36  1  0.418375  0.515174  0.894133  1
  O  O37  1  0.515174  0.894133  0.418375  1
  O  O38  1  0.894133  0.418375  0.515174  1
  O  O39  1  0.081625  0.605867  0.984826  1
  O  O40  1  0.605867  0.984826  0.081625  1
  O  O41  1  0.984826  0.081625  0.605867  1
  O  O42  1  0.492107  0.251849  0.134349  1
  O  O43  1  0.251849  0.134349  0.492107  1
  O  O44  1  0.134349  0.492107  0.251849  1
  O  O45  1  0.007893  0.365651  0.248151  1
  O  O46  1  0.365651  0.248151  0.007893  1
  O  O47  1  0.374701  0.877212  0.696718  1
  O  O48  1  0.248151  0.007893  0.365651  1
  O  O49  1  0.748151  0.865651  0.507893  1
  O  O50  1  0.865651  0.507893  0.748151  1
  O  O51  1  0.992107  0.634349  0.751849  1
  O  O52  1  0.634349  0.751849  0.992107  1
  O  O53  1  0.751849  0.992107  0.634349  1
  O  O54  1  0.625299  0.122788  0.303282  1
  O  O55  1  0.122788  0.303282  0.625299  1
  O  O56  1  0.303282  0.625299  0.122788  1
  O  O57  1  0.874701  0.196718  0.377212  1
  O  O58  1  0.196718  0.377212  0.874701  1
  O  O59  1  0.377212  0.874701  0.196718  1
  O  O60  1  0.370456  0.750000  0.129544  1
  O  O61  1  0.129544  0.370456  0.750000  1
  O  O62  1  0.750000  0.129544  0.370456  1
  O  O63  1  0.629544  0.250000  0.870456  1
  O  O64  1  0.870456  0.629544  0.250000  1
  O  O65  1  0.250000  0.870456  0.629544  1
  O  O66  1  0.622788  0.125299  0.803282  1
  O  O67  1  0.803282  0.622788  0.125299  1
  O  O68  1  0.125299  0.803282  0.622788  1
  O  O69  1  0.696718  0.374701  0.877212  1
  O  O70  1  0.877212  0.696718  0.374701  1
  O  O71  1  0.507893  0.748151  0.865651  1
