# generated using pymatgen
data_NdBr3
_symmetry_space_group_name_H-M   'P 1'
_cell_length_a   7.47985586
_cell_length_b   7.47985586
_cell_length_c   9.28026143
_cell_angle_alpha   90.00000000
_cell_angle_beta   90.00000000
_cell_angle_gamma   147.98223419
_symmetry_Int_Tables_number   1
_chemical_formula_structural   NdBr3
_chemical_formula_sum   'Nd2 Br6'
_cell_volume   275.27819182
_cell_formula_units_Z   2
loop_
 _symmetry_equiv_pos_site_id
 _symmetry_equiv_pos_as_xyz
  1  'x, y, z'
loop_
 _atom_site_type_symbol
 _atom_site_label
 _atom_site_symmetry_multiplicity
 _atom_site_fract_x
 _atom_site_fract_y
 _atom_site_fract_z
 _atom_site_occupancy
  Nd  Nd0  1  0.259061  0.740939  0.250000  1
  Nd  Nd1  1  0.740939  0.259061  0.750000  1
  Br  Br2  1  0.656734  0.343266  0.432632  1
  Br  Br3  1  0.343266  0.656734  0.567368  1
  Br  Br4  1  0.097389  0.902611  0.750000  1
  Br  Br5  1  0.902611  0.097389  0.250000  1
  Br  Br6  1  0.656734  0.343266  0.067368  1
  Br  Br7  1  0.343266  0.656734  0.932632  1
