# generated using pymatgen
data_CS14
_symmetry_space_group_name_H-M   'P 1'
_cell_length_a   7.96415881
_cell_length_b   7.96415881
_cell_length_c   7.96415881
_cell_angle_alpha   93.43348424
_cell_angle_beta   93.43348424
_cell_angle_gamma   93.43348424
_symmetry_Int_Tables_number   1
_chemical_formula_structural   CS14
_chemical_formula_sum   'C1 S14'
_cell_volume   502.31502279
_cell_formula_units_Z   1
loop_
 _symmetry_equiv_pos_site_id
 _symmetry_equiv_pos_as_xyz
  1  'x, y, z'
loop_
 _atom_site_type_symbol
 _atom_site_label
 _atom_site_symmetry_multiplicity
 _atom_site_fract_x
 _atom_site_fract_y
 _atom_site_fract_z
 _atom_site_occupancy
  C  C0  1  0.500000  0.500000  0.500000  1
  S  S1  1  0.839829  0.210188  0.210188  1
  S  S2  1  0.210188  0.210188  0.839829  1
  S  S3  1  0.789812  0.789812  0.160171  1
  S  S4  1  0.789812  0.160171  0.789812  1
  S  S5  1  0.160171  0.789812  0.789812  1
  S  S6  1  0.000000  0.710191  0.289809  1
  S  S7  1  0.710191  0.289809  0.000000  1
  S  S8  1  0.289809  0.000000  0.710191  1
  S  S9  1  0.000000  0.289809  0.710191  1
  S  S10  1  0.289809  0.710191  0.000000  1
  S  S11  1  0.710191  0.000000  0.289809  1
  S  S12  1  0.379758  0.379758  0.379758  1
  S  S13  1  0.620242  0.620242  0.620242  1
  S  S14  1  0.210188  0.839829  0.210188  1
