# generated using pymatgen
data_AsH8CN3O4
_symmetry_space_group_name_H-M   'P 1'
_cell_length_a   6.29838587
_cell_length_b   14.09135023
_cell_length_c   7.74940984
_cell_angle_alpha   90.00000000
_cell_angle_beta   91.93078264
_cell_angle_gamma   90.00000000
_symmetry_Int_Tables_number   1
_chemical_formula_structural   AsH8CN3O4
_chemical_formula_sum   'As4 H32 C4 N12 O16'
_cell_volume   687.39103883
_cell_formula_units_Z   4
loop_
 _symmetry_equiv_pos_site_id
 _symmetry_equiv_pos_as_xyz
  1  'x, y, z'
loop_
 _atom_site_type_symbol
 _atom_site_label
 _atom_site_symmetry_multiplicity
 _atom_site_fract_x
 _atom_site_fract_y
 _atom_site_fract_z
 _atom_site_occupancy
  As  As0  1  0.041183  0.866846  0.103930  1
  As  As1  1  0.958817  0.366846  0.396070  1
  As  As2  1  0.958817  0.133154  0.896070  1
  As  As3  1  0.041183  0.633154  0.603930  1
  H  H4  1  0.873195  0.931614  0.673489  1
  H  H5  1  0.126805  0.431614  0.826511  1
  H  H6  1  0.126805  0.068386  0.326511  1
  H  H7  1  0.873195  0.568386  0.173489  1
  H  H8  1  0.869614  0.937636  0.444445  1
  H  H9  1  0.130386  0.437636  0.055555  1
  H  H10  1  0.130386  0.062364  0.555555  1
  H  H11  1  0.869614  0.562364  0.944445  1
  H  H12  1  0.594799  0.849081  0.800179  1
  H  H13  1  0.405201  0.349081  0.699821  1
  H  H14  1  0.405201  0.150919  0.199821  1
  H  H15  1  0.594799  0.650919  0.300179  1
  H  H16  1  0.371844  0.811813  0.678746  1
  H  H17  1  0.628156  0.311813  0.821254  1
  H  H18  1  0.628156  0.188187  0.321254  1
  H  H19  1  0.371844  0.688187  0.178746  1
  H  H20  1  0.218095  0.527334  0.436346  1
  H  H21  1  0.373404  0.664728  0.864087  1
  H  H22  1  0.781905  0.472666  0.563654  1
  H  H23  1  0.218095  0.972666  0.936346  1
  H  H24  1  0.595653  0.894076  0.284437  1
  H  H25  1  0.404347  0.394076  0.215563  1
  H  H26  1  0.404347  0.105924  0.715563  1
  H  H27  1  0.595653  0.605924  0.784437  1
  H  H28  1  0.986396  0.722408  0.352126  1
  H  H29  1  0.013604  0.222408  0.147874  1
  H  H30  1  0.013604  0.277592  0.647874  1
  H  H31  1  0.986396  0.777592  0.852126  1
  H  H32  1  0.373404  0.835272  0.364087  1
  H  H33  1  0.626596  0.335272  0.135913  1
  H  H34  1  0.626596  0.164728  0.635913  1
  H  H35  1  0.781905  0.027334  0.063654  1
  C  C36  1  0.607282  0.621164  0.044286  1
  C  C37  1  0.392718  0.121164  0.455714  1
  C  C38  1  0.392718  0.378836  0.955714  1
  C  C39  1  0.607282  0.878836  0.544286  1
  N  N40  1  0.516450  0.631598  0.887226  1
  N  N41  1  0.483550  0.368402  0.112774  1
  N  N42  1  0.483550  0.131598  0.612774  1
  N  N43  1  0.516450  0.868402  0.387226  1
  N  N44  1  0.797523  0.921467  0.557285  1
  N  N45  1  0.202477  0.421467  0.942715  1
  N  N46  1  0.202477  0.078533  0.442715  1
  N  N47  1  0.797523  0.578533  0.057285  1
  N  N48  1  0.510294  0.650128  0.185942  1
  N  N49  1  0.489706  0.150128  0.314058  1
  N  N50  1  0.489706  0.349872  0.814058  1
  N  N51  1  0.510294  0.849872  0.685942  1
  O  O52  1  0.268024  0.920637  0.020260  1
  O  O53  1  0.731976  0.420637  0.479740  1
  O  O54  1  0.881562  0.551876  0.696535  1
  O  O55  1  0.268024  0.579363  0.520260  1
  O  O56  1  0.138068  0.780239  0.237158  1
  O  O57  1  0.861932  0.280239  0.262842  1
  O  O58  1  0.861932  0.219761  0.762842  1
  O  O59  1  0.138068  0.719761  0.737158  1
  O  O60  1  0.892529  0.679039  0.425617  1
  O  O61  1  0.107471  0.179039  0.074383  1
  O  O62  1  0.107471  0.320961  0.574383  1
  O  O63  1  0.892529  0.820961  0.925617  1
  O  O64  1  0.881562  0.948124  0.196535  1
  O  O65  1  0.118438  0.448124  0.303465  1
  O  O66  1  0.118438  0.051876  0.803465  1
  O  O67  1  0.731976  0.079363  0.979740  1
