# generated using pymatgen
data_Li3BiO3
_symmetry_space_group_name_H-M   'P 1'
_cell_length_a   9.15823116
_cell_length_b   9.37687036
_cell_length_c   9.86621983
_cell_angle_alpha   114.16401814
_cell_angle_beta   107.58130358
_cell_angle_gamma   89.17615915
_symmetry_Int_Tables_number   1
_chemical_formula_structural   Li3BiO3
_chemical_formula_sum   'Li24 Bi8 O24'
_cell_volume   731.07993101
_cell_formula_units_Z   8
loop_
 _symmetry_equiv_pos_site_id
 _symmetry_equiv_pos_as_xyz
  1  'x, y, z'
loop_
 _atom_site_type_symbol
 _atom_site_label
 _atom_site_symmetry_multiplicity
 _atom_site_fract_x
 _atom_site_fract_y
 _atom_site_fract_z
 _atom_site_occupancy
  Li  Li0  1  0.651951  0.107925  0.343833  1
  Li  Li1  1  0.348049  0.892075  0.656167  1
  Li  Li2  1  0.476450  0.277379  0.943707  1
  Li  Li3  1  0.523550  0.722621  0.056293  1
  Li  Li4  1  0.315361  0.149382  0.595972  1
  Li  Li5  1  0.684639  0.850618  0.404028  1
  Li  Li6  1  0.100079  0.914056  0.498376  1
  Li  Li7  1  0.899921  0.085944  0.501624  1
  Li  Li8  1  0.326112  0.533407  0.160024  1
  Li  Li9  1  0.673888  0.466593  0.839976  1
  Li  Li10  1  0.523516  0.279214  0.554421  1
  Li  Li11  1  0.476484  0.720786  0.445579  1
  Li  Li12  1  0.154870  0.617980  0.355070  1
  Li  Li13  1  0.845130  0.382020  0.644930  1
  Li  Li14  1  0.496283  0.127907  0.109405  1
  Li  Li15  1  0.503717  0.872093  0.890595  1
  Li  Li16  1  0.919224  0.512567  0.082788  1
  Li  Li17  1  0.080776  0.487433  0.917212  1
  Li  Li18  1  0.579381  0.425011  0.372817  1
  Li  Li19  1  0.420619  0.574989  0.627183  1
  Li  Li20  1  0.076263  0.327416  0.560130  1
  Li  Li21  1  0.923737  0.672584  0.439870  1
  Li  Li22  1  0.684366  0.554165  0.213271  1
  Li  Li23  1  0.315634  0.445835  0.786729  1
  Bi  Bi24  1  0.161238  0.743316  0.797957  1
  Bi  Bi25  1  0.838762  0.256684  0.202043  1
  Bi  Bi26  1  0.278078  0.857995  0.230027  1
  Bi  Bi27  1  0.748121  0.709231  0.692742  1
  Bi  Bi28  1  0.251879  0.290769  0.307258  1
  Bi  Bi29  1  0.156826  0.157929  0.858841  1
  Bi  Bi30  1  0.843174  0.842071  0.141159  1
  Bi  Bi31  1  0.721922  0.142005  0.769973  1
  O  O32  1  0.299474  0.919053  0.463129  1
  O  O33  1  0.049033  0.517557  0.727587  1
  O  O34  1  0.950967  0.482443  0.272413  1
  O  O35  1  0.528578  0.267379  0.760410  1
  O  O36  1  0.700526  0.080947  0.536871  1
  O  O37  1  0.471422  0.732621  0.239590  1
  O  O38  1  0.113657  0.138035  0.631782  1
  O  O39  1  0.886343  0.861965  0.368218  1
  O  O40  1  0.860004  0.246975  0.417593  1
  O  O41  1  0.139996  0.753025  0.582407  1
  O  O42  1  0.122641  0.647851  0.141462  1
  O  O43  1  0.877359  0.352149  0.858538  1
  O  O44  1  0.535638  0.797295  0.683403  1
  O  O45  1  0.464362  0.202705  0.316597  1
  O  O46  1  0.718344  0.619326  0.051505  1
  O  O47  1  0.281656  0.380674  0.948495  1
  O  O48  1  0.633222  0.950724  0.116962  1
  O  O49  1  0.366778  0.049276  0.883038  1
  O  O50  1  0.350775  0.515562  0.361095  1
  O  O51  1  0.649225  0.484438  0.638905  1
  O  O52  1  0.618067  0.331701  0.157274  1
  O  O53  1  0.381933  0.668299  0.842726  1
  O  O54  1  0.288053  0.338679  0.542844  1
  O  O55  1  0.711947  0.661321  0.457156  1
