# generated using pymatgen
data_SrH2
_symmetry_space_group_name_H-M   'P 1'
_cell_length_a   3.86119213
_cell_length_b   6.36503325
_cell_length_c   7.30165277
_cell_angle_alpha   90.00000000
_cell_angle_beta   90.00000000
_cell_angle_gamma   90.00000000
_symmetry_Int_Tables_number   1
_chemical_formula_structural   SrH2
_chemical_formula_sum   'Sr4 H8'
_cell_volume   179.44991843
_cell_formula_units_Z   4
loop_
 _symmetry_equiv_pos_site_id
 _symmetry_equiv_pos_as_xyz
  1  'x, y, z'
loop_
 _atom_site_type_symbol
 _atom_site_label
 _atom_site_symmetry_multiplicity
 _atom_site_fract_x
 _atom_site_fract_y
 _atom_site_fract_z
 _atom_site_occupancy
  Sr  Sr0  1  0.250000  0.760804  0.389255  1
  Sr  Sr1  1  0.750000  0.239196  0.610745  1
  Sr  Sr2  1  0.250000  0.260804  0.110745  1
  Sr  Sr3  1  0.750000  0.739196  0.889255  1
  H  H4  1  0.250000  0.526351  0.678221  1
  H  H5  1  0.750000  0.473649  0.321779  1
  H  H6  1  0.250000  0.026351  0.821779  1
  H  H7  1  0.750000  0.973649  0.178221  1
  H  H8  1  0.750000  0.355148  0.927578  1
  H  H9  1  0.250000  0.644852  0.072422  1
  H  H10  1  0.750000  0.855148  0.572422  1
  H  H11  1  0.250000  0.144852  0.427578  1
