# generated using pymatgen
data_Sc2PbS4
_symmetry_space_group_name_H-M   'P 1'
_cell_length_a   3.78118426
_cell_length_b   11.77159425
_cell_length_c   13.77146492
_cell_angle_alpha   90.00000000
_cell_angle_beta   90.00000000
_cell_angle_gamma   90.00000000
_symmetry_Int_Tables_number   1
_chemical_formula_structural   Sc2PbS4
_chemical_formula_sum   'Sc8 Pb4 S16'
_cell_volume   612.97571054
_cell_formula_units_Z   4
loop_
 _symmetry_equiv_pos_site_id
 _symmetry_equiv_pos_as_xyz
  1  'x, y, z'
loop_
 _atom_site_type_symbol
 _atom_site_label
 _atom_site_symmetry_multiplicity
 _atom_site_fract_x
 _atom_site_fract_y
 _atom_site_fract_z
 _atom_site_occupancy
  Sc  Sc0  1  0.750000  0.057492  0.389203  1
  Sc  Sc1  1  0.250000  0.942508  0.610797  1
  Sc  Sc2  1  0.750000  0.557492  0.110797  1
  Sc  Sc3  1  0.250000  0.442508  0.889203  1
  Sc  Sc4  1  0.250000  0.418168  0.403030  1
  Sc  Sc5  1  0.750000  0.581832  0.596970  1
  Sc  Sc6  1  0.250000  0.918168  0.096970  1
  Sc  Sc7  1  0.750000  0.081832  0.903030  1
  Pb  Pb8  1  0.750000  0.739803  0.329468  1
  Pb  Pb9  1  0.250000  0.260197  0.670532  1
  Pb  Pb10  1  0.750000  0.239803  0.170532  1
  Pb  Pb11  1  0.250000  0.760197  0.829468  1
  S  S12  1  0.250000  0.413389  0.073053  1
  S  S13  1  0.750000  0.586611  0.926947  1
  S  S14  1  0.250000  0.913389  0.426947  1
  S  S15  1  0.750000  0.086611  0.573053  1
  S  S16  1  0.250000  0.530837  0.715629  1
  S  S17  1  0.750000  0.469163  0.284371  1
  S  S18  1  0.250000  0.030837  0.784371  1
  S  S19  1  0.750000  0.969163  0.215629  1
  S  S20  1  0.250000  0.121384  0.028332  1
  S  S21  1  0.750000  0.878616  0.971668  1
  S  S22  1  0.250000  0.621384  0.471668  1
  S  S23  1  0.750000  0.378616  0.528332  1
  S  S24  1  0.750000  0.296576  0.841938  1
  S  S25  1  0.250000  0.703424  0.158062  1
  S  S26  1  0.750000  0.796576  0.658062  1
  S  S27  1  0.250000  0.203424  0.341938  1
