# generated using pymatgen
data_Bi(TeBr2)2
_symmetry_space_group_name_H-M   'P 1'
_cell_length_a   7.51445879
_cell_length_b   8.04406014
_cell_length_c   9.36347185
_cell_angle_alpha   91.57138099
_cell_angle_beta   102.75868947
_cell_angle_gamma   94.76176305
_symmetry_Int_Tables_number   1
_chemical_formula_structural   Bi(TeBr2)2
_chemical_formula_sum   'Bi2 Te4 Br8'
_cell_volume   549.50133019
_cell_formula_units_Z   2
loop_
 _symmetry_equiv_pos_site_id
 _symmetry_equiv_pos_as_xyz
  1  'x, y, z'
loop_
 _atom_site_type_symbol
 _atom_site_label
 _atom_site_symmetry_multiplicity
 _atom_site_fract_x
 _atom_site_fract_y
 _atom_site_fract_z
 _atom_site_occupancy
  Bi  Bi0  1  0.287461  0.084813  0.612836  1
  Bi  Bi1  1  0.712539  0.915187  0.387164  1
  Te  Te2  1  0.884069  0.547282  0.801923  1
  Te  Te3  1  0.115931  0.452718  0.198077  1
  Te  Te4  1  0.781797  0.358869  0.011519  1
  Te  Te5  1  0.218203  0.641131  0.988481  1
  Br  Br6  1  0.542309  0.589262  0.311176  1
  Br  Br7  1  0.457691  0.410738  0.688824  1
  Br  Br8  1  0.791042  0.929448  0.118616  1
  Br  Br9  1  0.208958  0.070552  0.881384  1
  Br  Br10  1  0.617944  0.933816  0.697295  1
  Br  Br11  1  0.382056  0.066184  0.302705  1
  Br  Br12  1  0.052958  0.756794  0.540262  1
  Br  Br13  1  0.947042  0.243206  0.459738  1
