# generated using pymatgen
data_BaBiSe3
_symmetry_space_group_name_H-M   'P 1'
_cell_length_a   4.40284557
_cell_length_b   16.60386026
_cell_length_c   17.17848414
_cell_angle_alpha   90.00000000
_cell_angle_beta   90.00000000
_cell_angle_gamma   90.00000000
_symmetry_Int_Tables_number   1
_chemical_formula_structural   BaBiSe3
_chemical_formula_sum   'Ba8 Bi8 Se24'
_cell_volume   1255.81990013
_cell_formula_units_Z   8
loop_
 _symmetry_equiv_pos_site_id
 _symmetry_equiv_pos_as_xyz
  1  'x, y, z'
loop_
 _atom_site_type_symbol
 _atom_site_label
 _atom_site_symmetry_multiplicity
 _atom_site_fract_x
 _atom_site_fract_y
 _atom_site_fract_z
 _atom_site_occupancy
  Ba  Ba0  1  0.228124  0.602477  0.406954  1
  Ba  Ba1  1  0.728124  0.897523  0.593046  1
  Ba  Ba2  1  0.771876  0.102477  0.093046  1
  Ba  Ba3  1  0.271876  0.397523  0.906954  1
  Ba  Ba4  1  0.245524  0.460125  0.167711  1
  Ba  Ba5  1  0.745524  0.039875  0.832289  1
  Ba  Ba6  1  0.754476  0.960125  0.332289  1
  Ba  Ba7  1  0.254476  0.539875  0.667711  1
  Bi  Bi8  1  0.757639  0.368761  0.469741  1
  Bi  Bi9  1  0.257639  0.131239  0.530259  1
  Bi  Bi10  1  0.242361  0.868761  0.030259  1
  Bi  Bi11  1  0.742361  0.631239  0.969741  1
  Bi  Bi12  1  0.737089  0.719431  0.206439  1
  Bi  Bi13  1  0.237089  0.780569  0.793561  1
  Bi  Bi14  1  0.262911  0.219431  0.293561  1
  Bi  Bi15  1  0.762911  0.280569  0.706439  1
  Se  Se16  1  0.823521  0.711964  0.680765  1
  Se  Se17  1  0.323521  0.788036  0.319235  1
  Se  Se18  1  0.176479  0.211964  0.819235  1
  Se  Se19  1  0.676479  0.288036  0.180765  1
  Se  Se20  1  0.740713  0.524079  0.527328  1
  Se  Se21  1  0.240713  0.975921  0.472672  1
  Se  Se22  1  0.259287  0.024079  0.972672  1
  Se  Se23  1  0.759287  0.475921  0.027328  1
  Se  Se24  1  0.761325  0.433596  0.768477  1
  Se  Se25  1  0.261325  0.066404  0.231523  1
  Se  Se26  1  0.238675  0.933596  0.731523  1
  Se  Se27  1  0.738675  0.566404  0.268477  1
  Se  Se28  1  0.266287  0.602179  0.865694  1
  Se  Se29  1  0.766287  0.897821  0.134306  1
  Se  Se30  1  0.733713  0.102179  0.634306  1
  Se  Se31  1  0.233713  0.397821  0.365694  1
  Se  Se32  1  0.288744  0.683247  0.094724  1
  Se  Se33  1  0.788744  0.816753  0.905276  1
  Se  Se34  1  0.711256  0.183247  0.405276  1
  Se  Se35  1  0.211256  0.316753  0.594724  1
  Se  Se36  1  0.167503  0.738533  0.557024  1
  Se  Se37  1  0.667503  0.761467  0.442976  1
  Se  Se38  1  0.832497  0.238533  0.942976  1
  Se  Se39  1  0.332497  0.261467  0.057024  1
