# generated using pymatgen
data_Nd3PO7
_symmetry_space_group_name_H-M   'P 1'
_cell_length_a   9.35939125
_cell_length_b   9.35939125
_cell_length_c   12.40000040
_cell_angle_alpha   77.21771124
_cell_angle_beta   102.78228876
_cell_angle_gamma   88.92268202
_symmetry_Int_Tables_number   1
_chemical_formula_structural   Nd3PO7
_chemical_formula_sum   'Nd18 P6 O42'
_cell_volume   1030.42243871
_cell_formula_units_Z   6
loop_
 _symmetry_equiv_pos_site_id
 _symmetry_equiv_pos_as_xyz
  1  'x, y, z'
loop_
 _atom_site_type_symbol
 _atom_site_label
 _atom_site_symmetry_multiplicity
 _atom_site_fract_x
 _atom_site_fract_y
 _atom_site_fract_z
 _atom_site_occupancy
  Nd  Nd0  1  0.832227  0.477332  0.728579  1
  Nd  Nd1  1  0.522668  0.167773  0.728579  1
  Nd  Nd2  1  0.820319  0.834010  0.188522  1
  Nd  Nd3  1  0.165990  0.179681  0.188522  1
  Nd  Nd4  1  0.809541  0.809541  0.500000  1
  Nd  Nd5  1  0.190460  0.190460  0.500000  1
  Nd  Nd6  1  0.476185  0.838262  0.612354  1
  Nd  Nd7  1  0.161738  0.523815  0.612354  1
  Nd  Nd8  1  0.523815  0.161738  0.387646  1
  Nd  Nd9  1  0.838262  0.476185  0.387646  1
  Nd  Nd10  1  0.477220  0.176774  0.054310  1
  Nd  Nd11  1  0.823226  0.522780  0.054310  1
  Nd  Nd12  1  0.522780  0.823226  0.945690  1
  Nd  Nd13  1  0.176774  0.477220  0.945690  1
  Nd  Nd14  1  0.834010  0.820319  0.811478  1
  Nd  Nd15  1  0.179681  0.165990  0.811478  1
  Nd  Nd16  1  0.477332  0.832227  0.271421  1
  Nd  Nd17  1  0.167773  0.522668  0.271421  1
  P  P18  1  0.163605  0.836395  0.388467  1
  P  P19  1  0.836395  0.163605  0.611533  1
  P  P20  1  0.831967  0.168033  0.233662  1
  P  P21  1  0.503714  0.496286  0.819670  1
  P  P22  1  0.168033  0.831967  0.766338  1
  P  P23  1  0.496286  0.503714  0.180330  1
  O  O24  1  0.796881  0.203119  0.718616  1
  O  O25  1  0.611414  0.388586  0.789073  1
  O  O26  1  0.927368  0.072632  0.180938  1
  O  O27  1  0.743427  0.063776  0.305713  1
  O  O28  1  0.936224  0.256573  0.305713  1
  O  O29  1  0.808088  0.001040  0.612532  1
  O  O30  1  0.998960  0.191912  0.612532  1
  O  O31  1  0.266716  0.733284  0.494629  1
  O  O32  1  0.191912  0.998960  0.387468  1
  O  O33  1  0.001040  0.808088  0.387468  1
  O  O34  1  0.256573  0.936224  0.694287  1
  O  O35  1  0.063776  0.743427  0.694287  1
  O  O36  1  0.715829  0.713474  0.663747  1
  O  O37  1  0.286526  0.284171  0.663747  1
  O  O38  1  0.406638  0.593362  0.708509  1
  O  O39  1  0.284171  0.286526  0.336253  1
  O  O40  1  0.713474  0.715829  0.336253  1
  O  O41  1  0.593362  0.406638  0.291492  1
  O  O42  1  0.733284  0.266716  0.505371  1
  O  O43  1  0.441955  0.104780  0.555915  1
  O  O44  1  0.895220  0.558045  0.555915  1
  O  O45  1  0.426307  0.079655  0.888899  1
  O  O46  1  0.920345  0.573693  0.888899  1
  O  O47  1  0.725987  0.274013  0.128875  1
  O  O48  1  0.104780  0.441955  0.444085  1
  O  O49  1  0.558045  0.895220  0.444085  1
  O  O50  1  0.916964  0.594846  0.222628  1
  O  O51  1  0.405154  0.083036  0.222628  1
  O  O52  1  0.079655  0.426307  0.111101  1
  O  O53  1  0.573693  0.920345  0.111101  1
  O  O54  1  0.388586  0.611414  0.210927  1
  O  O55  1  0.203119  0.796881  0.281384  1
  O  O56  1  0.072632  0.927368  0.819062  1
  O  O57  1  0.083036  0.405154  0.777372  1
  O  O58  1  0.594846  0.916964  0.777372  1
  O  O59  1  0.213788  0.213788  0.000000  1
  O  O60  1  0.786212  0.786212  0.000000  1
  O  O61  1  0.274013  0.725987  0.871125  1
  O  O62  1  0.400065  0.408122  0.111798  1
  O  O63  1  0.591878  0.599935  0.111798  1
  O  O64  1  0.408122  0.400065  0.888202  1
  O  O65  1  0.599935  0.591878  0.888202  1
