# generated using pymatgen
data_Rb3B12H12Br
_symmetry_space_group_name_H-M   'P 1'
_cell_length_a   7.13287717
_cell_length_b   7.13287717
_cell_length_c   7.13287717
_cell_angle_alpha   93.11222651
_cell_angle_beta   93.11222651
_cell_angle_gamma   93.11222651
_symmetry_Int_Tables_number   1
_chemical_formula_structural   Rb3B12H12Br
_chemical_formula_sum   'Rb3 B12 H12 Br1'
_cell_volume   361.23961297
_cell_formula_units_Z   1
loop_
 _symmetry_equiv_pos_site_id
 _symmetry_equiv_pos_as_xyz
  1  'x, y, z'
loop_
 _atom_site_type_symbol
 _atom_site_label
 _atom_site_symmetry_multiplicity
 _atom_site_fract_x
 _atom_site_fract_y
 _atom_site_fract_z
 _atom_site_occupancy
  Rb  Rb0  1  0.500000  0.000000  0.500000  1
  Rb  Rb1  1  0.500000  0.500000  0.000000  1
  Rb  Rb2  1  0.000000  0.500000  0.500000  1
  B  B3  1  0.119973  0.119973  0.841999  1
  B  B4  1  0.880027  0.880027  0.158001  1
  B  B5  1  0.880027  0.158001  0.880027  1
  B  B6  1  0.158001  0.880027  0.880027  1
  B  B7  1  0.229516  0.058112  0.058112  1
  B  B8  1  0.058112  0.229516  0.058112  1
  B  B9  1  0.058112  0.058112  0.229516  1
  B  B10  1  0.941888  0.941888  0.770484  1
  B  B11  1  0.770484  0.941888  0.941888  1
  B  B12  1  0.941888  0.770484  0.941888  1
  B  B13  1  0.841999  0.119973  0.119973  1
  B  B14  1  0.119973  0.841999  0.119973  1
  H  H15  1  0.269396  0.793690  0.793690  1
  H  H16  1  0.793690  0.269396  0.793690  1
  H  H17  1  0.793690  0.793690  0.269396  1
  H  H18  1  0.206310  0.206310  0.730604  1
  H  H19  1  0.607353  0.900510  0.900510  1
  H  H20  1  0.900510  0.607353  0.900510  1
  H  H21  1  0.900510  0.900510  0.607353  1
  H  H22  1  0.099490  0.099490  0.392647  1
  H  H23  1  0.392647  0.099490  0.099490  1
  H  H24  1  0.099490  0.392647  0.099490  1
  H  H25  1  0.730604  0.206310  0.206310  1
  H  H26  1  0.206310  0.730604  0.206310  1
  Br  Br27  1  0.500000  0.500000  0.500000  1
