# generated using pymatgen
data_MgH2
_symmetry_space_group_name_H-M   'P 1'
_cell_length_a   4.51143332
_cell_length_b   4.92307826
_cell_length_c   5.42824526
_cell_angle_alpha   90.00000000
_cell_angle_beta   90.00000000
_cell_angle_gamma   90.00000000
_symmetry_Int_Tables_number   1
_chemical_formula_structural   MgH2
_chemical_formula_sum   'Mg4 H8'
_cell_volume   120.56208337
_cell_formula_units_Z   4
loop_
 _symmetry_equiv_pos_site_id
 _symmetry_equiv_pos_as_xyz
  1  'x, y, z'
loop_
 _atom_site_type_symbol
 _atom_site_label
 _atom_site_symmetry_multiplicity
 _atom_site_fract_x
 _atom_site_fract_y
 _atom_site_fract_z
 _atom_site_occupancy
  Mg  Mg0  1  0.500000  0.750000  0.329735  1
  Mg  Mg1  1  0.000000  0.250000  0.170265  1
  Mg  Mg2  1  0.500000  0.250000  0.670265  1
  Mg  Mg3  1  0.000000  0.750000  0.829735  1
  H  H4  1  0.727306  0.420474  0.391306  1
  H  H5  1  0.227306  0.579526  0.108694  1
  H  H6  1  0.772694  0.920474  0.108694  1
  H  H7  1  0.272694  0.079526  0.391306  1
  H  H8  1  0.727306  0.920474  0.608694  1
  H  H9  1  0.227306  0.079526  0.891306  1
  H  H10  1  0.772694  0.420474  0.891306  1
  H  H11  1  0.272694  0.579526  0.608694  1
