# generated using pymatgen
data_BCl3
_symmetry_space_group_name_H-M   'P 1'
_cell_length_a   6.47779052
_cell_length_b   6.47779052
_cell_length_c   7.65588168
_cell_angle_alpha   90.00000000
_cell_angle_beta   90.00000000
_cell_angle_gamma   120.00000000
_symmetry_Int_Tables_number   1
_chemical_formula_structural   BCl3
_chemical_formula_sum   'B2 Cl6'
_cell_volume   278.21442513
_cell_formula_units_Z   2
loop_
 _symmetry_equiv_pos_site_id
 _symmetry_equiv_pos_as_xyz
  1  'x, y, z'
loop_
 _atom_site_type_symbol
 _atom_site_label
 _atom_site_symmetry_multiplicity
 _atom_site_fract_x
 _atom_site_fract_y
 _atom_site_fract_z
 _atom_site_occupancy
  B  B0  1  0.333333  0.666667  0.250000  1
  B  B1  1  0.666667  0.333333  0.750000  1
  Cl  Cl2  1  0.068786  0.393166  0.250000  1
  Cl  Cl3  1  0.675620  0.068786  0.750000  1
  Cl  Cl4  1  0.393166  0.324380  0.750000  1
  Cl  Cl5  1  0.606834  0.675620  0.250000  1
  Cl  Cl6  1  0.324380  0.931214  0.250000  1
  Cl  Cl7  1  0.931214  0.606834  0.750000  1
