# generated using pymatgen
data_ScCl3
_symmetry_space_group_name_H-M   'P 1'
_cell_length_a   7.45305531
_cell_length_b   7.45305531
_cell_length_c   7.45305531
_cell_angle_alpha   51.64808710
_cell_angle_beta   51.64808710
_cell_angle_gamma   51.64808710
_symmetry_Int_Tables_number   1
_chemical_formula_structural   ScCl3
_chemical_formula_sum   'Sc2 Cl6'
_cell_volume   235.20438430
_cell_formula_units_Z   2
loop_
 _symmetry_equiv_pos_site_id
 _symmetry_equiv_pos_as_xyz
  1  'x, y, z'
loop_
 _atom_site_type_symbol
 _atom_site_label
 _atom_site_symmetry_multiplicity
 _atom_site_fract_x
 _atom_site_fract_y
 _atom_site_fract_z
 _atom_site_occupancy
  Sc  Sc0  1  0.333936  0.333936  0.333936  1
  Sc  Sc1  1  0.666064  0.666064  0.666064  1
  Cl  Cl2  1  0.705264  0.073735  0.443934  1
  Cl  Cl3  1  0.073735  0.443934  0.705264  1
  Cl  Cl4  1  0.556066  0.294736  0.926265  1
  Cl  Cl5  1  0.926265  0.556066  0.294736  1
  Cl  Cl6  1  0.294736  0.926265  0.556066  1
  Cl  Cl7  1  0.443934  0.705264  0.073735  1
