# generated using pymatgen
data_Hg5(SbI3)2
_symmetry_space_group_name_H-M   'P 1'
_cell_length_a   8.43244006
_cell_length_b   11.28353120
_cell_length_c   21.89602836
_cell_angle_alpha   90.00000000
_cell_angle_beta   90.00000000
_cell_angle_gamma   90.00000000
_symmetry_Int_Tables_number   1
_chemical_formula_structural   Hg5(SbI3)2
_chemical_formula_sum   'Hg20 Sb8 I24'
_cell_volume   2083.35674874
_cell_formula_units_Z   4
loop_
 _symmetry_equiv_pos_site_id
 _symmetry_equiv_pos_as_xyz
  1  'x, y, z'
loop_
 _atom_site_type_symbol
 _atom_site_label
 _atom_site_symmetry_multiplicity
 _atom_site_fract_x
 _atom_site_fract_y
 _atom_site_fract_z
 _atom_site_occupancy
  Hg  Hg0  1  0.907694  0.771975  0.175280  1
  Hg  Hg1  1  0.092306  0.271975  0.824720  1
  Hg  Hg2  1  0.592306  0.771975  0.675280  1
  Hg  Hg3  1  0.407694  0.271975  0.324720  1
  Hg  Hg4  1  0.156765  0.659056  0.769719  1
  Hg  Hg5  1  0.843235  0.159056  0.230281  1
  Hg  Hg6  1  0.343235  0.659056  0.269719  1
  Hg  Hg7  1  0.656765  0.159056  0.730281  1
  Hg  Hg8  1  0.949733  0.504606  0.602671  1
  Hg  Hg9  1  0.050267  0.004606  0.397329  1
  Hg  Hg10  1  0.550267  0.504606  0.102671  1
  Hg  Hg11  1  0.449733  0.004606  0.897329  1
  Hg  Hg12  1  0.236699  0.641526  0.479299  1
  Hg  Hg13  1  0.763301  0.141526  0.520701  1
  Hg  Hg14  1  0.263301  0.641526  0.979299  1
  Hg  Hg15  1  0.736699  0.141526  0.020701  1
  Hg  Hg16  1  0.082045  0.900311  0.611032  1
  Hg  Hg17  1  0.917955  0.400311  0.388968  1
  Hg  Hg18  1  0.417955  0.900311  0.111032  1
  Hg  Hg19  1  0.582045  0.400311  0.888968  1
  Sb  Sb20  1  0.229286  0.512051  0.085059  1
  Sb  Sb21  1  0.770714  0.012051  0.914941  1
  Sb  Sb22  1  0.270714  0.512051  0.585059  1
  Sb  Sb23  1  0.729286  0.012051  0.414941  1
  Sb  Sb24  1  0.224540  0.724068  0.158910  1
  Sb  Sb25  1  0.775460  0.224068  0.841090  1
  Sb  Sb26  1  0.275460  0.724068  0.658910  1
  Sb  Sb27  1  0.724540  0.224068  0.341090  1
  I  I28  1  0.793300  0.783922  0.559066  1
  I  I29  1  0.206700  0.283922  0.440934  1
  I  I30  1  0.706700  0.783922  0.059066  1
  I  I31  1  0.293300  0.283922  0.940934  1
  I  I32  1  0.260957  0.008325  0.295914  1
  I  I33  1  0.739043  0.508325  0.704086  1
  I  I34  1  0.239043  0.008325  0.795914  1
  I  I35  1  0.760957  0.508325  0.204086  1
  I  I36  1  0.004636  0.612824  0.877269  1
  I  I37  1  0.995364  0.112824  0.122731  1
  I  I38  1  0.495364  0.612824  0.377269  1
  I  I39  1  0.504636  0.112824  0.622731  1
  I  I40  1  0.492015  0.144542  0.119169  1
  I  I41  1  0.507985  0.644542  0.880831  1
  I  I42  1  0.007985  0.144542  0.619169  1
  I  I43  1  0.992015  0.644542  0.380831  1
  I  I44  1  0.714900  0.411019  0.511551  1
  I  I45  1  0.285100  0.911019  0.488449  1
  I  I46  1  0.785100  0.411019  0.011551  1
  I  I47  1  0.214900  0.911019  0.988449  1
  I  I48  1  0.308204  0.382274  0.747447  1
  I  I49  1  0.691796  0.882274  0.252553  1
  I  I50  1  0.191796  0.382274  0.247447  1
  I  I51  1  0.808204  0.882274  0.752553  1
