# generated using pymatgen
data_Ta2Zn3O8
_symmetry_space_group_name_H-M   'P 1'
_cell_length_a   6.18578285
_cell_length_b   6.18578285
_cell_length_c   9.65011459
_cell_angle_alpha   71.64292617
_cell_angle_beta   108.35707383
_cell_angle_gamma   92.93973565
_symmetry_Int_Tables_number   1
_chemical_formula_structural   Ta2Zn3O8
_chemical_formula_sum   'Ta4 Zn6 O16'
_cell_volume   332.15598997
_cell_formula_units_Z   2
loop_
 _symmetry_equiv_pos_site_id
 _symmetry_equiv_pos_as_xyz
  1  'x, y, z'
loop_
 _atom_site_type_symbol
 _atom_site_label
 _atom_site_symmetry_multiplicity
 _atom_site_fract_x
 _atom_site_fract_y
 _atom_site_fract_z
 _atom_site_occupancy
  Ta  Ta0  1  0.060820  0.221557  0.373102  1
  Ta  Ta1  1  0.221557  0.060820  0.126898  1
  Ta  Ta2  1  0.939180  0.778443  0.626898  1
  Ta  Ta3  1  0.778443  0.939180  0.873102  1
  Zn  Zn4  1  0.761583  0.761583  0.250000  1
  Zn  Zn5  1  0.238417  0.238417  0.750000  1
  Zn  Zn6  1  0.680244  0.362527  0.996979  1
  Zn  Zn7  1  0.362527  0.680244  0.503021  1
  Zn  Zn8  1  0.319756  0.637473  0.003021  1
  Zn  Zn9  1  0.637473  0.319756  0.496979  1
  O  O10  1  0.179191  0.574931  0.645494  1
  O  O11  1  0.574931  0.179191  0.854506  1
  O  O12  1  0.820809  0.425069  0.354506  1
  O  O13  1  0.425069  0.820809  0.145494  1
  O  O14  1  0.309542  0.414054  0.411410  1
  O  O15  1  0.414054  0.309542  0.088590  1
  O  O16  1  0.690458  0.585946  0.588590  1
  O  O17  1  0.585947  0.690458  0.911410  1
  O  O18  1  0.984152  0.282724  0.146682  1
  O  O19  1  0.282724  0.984152  0.353318  1
  O  O20  1  0.063073  0.137836  0.896925  1
  O  O21  1  0.137836  0.063073  0.603075  1
  O  O22  1  0.936927  0.862164  0.103075  1
  O  O23  1  0.862164  0.936927  0.396925  1
  O  O24  1  0.717276  0.015848  0.646682  1
  O  O25  1  0.015848  0.717276  0.853318  1
