# generated using pymatgen
data_NbAlCl8
_symmetry_space_group_name_H-M   'P 1'
_cell_length_a   9.92948516
_cell_length_b   9.92948516
_cell_length_c   8.74168923
_cell_angle_alpha   90.00000000
_cell_angle_beta   90.00000000
_cell_angle_gamma   128.38549080
_symmetry_Int_Tables_number   1
_chemical_formula_structural   NbAlCl8
_chemical_formula_sum   'Nb2 Al2 Cl16'
_cell_volume   675.58841074
_cell_formula_units_Z   2
loop_
 _symmetry_equiv_pos_site_id
 _symmetry_equiv_pos_as_xyz
  1  'x, y, z'
loop_
 _atom_site_type_symbol
 _atom_site_label
 _atom_site_symmetry_multiplicity
 _atom_site_fract_x
 _atom_site_fract_y
 _atom_site_fract_z
 _atom_site_occupancy
  Nb  Nb0  1  0.886659  0.113341  0.250000  1
  Nb  Nb1  1  0.113341  0.886659  0.750000  1
  Al  Al2  1  0.313987  0.686013  0.750000  1
  Al  Al3  1  0.686013  0.313987  0.250000  1
  Cl  Cl4  1  0.376563  0.623437  0.545620  1
  Cl  Cl5  1  0.623437  0.376563  0.454380  1
  Cl  Cl6  1  0.422638  0.961337  0.750000  1
  Cl  Cl7  1  0.961337  0.422638  0.250000  1
  Cl  Cl8  1  0.577362  0.038663  0.250000  1
  Cl  Cl9  1  0.038663  0.577362  0.750000  1
  Cl  Cl10  1  0.239692  0.170517  0.750000  1
  Cl  Cl11  1  0.170517  0.239692  0.250000  1
  Cl  Cl12  1  0.760308  0.829483  0.250000  1
  Cl  Cl13  1  0.829483  0.760308  0.750000  1
  Cl  Cl14  1  0.133454  0.866546  0.487383  1
  Cl  Cl15  1  0.866546  0.133454  0.512617  1
  Cl  Cl16  1  0.866546  0.133454  0.987383  1
  Cl  Cl17  1  0.133454  0.866546  0.012617  1
  Cl  Cl18  1  0.376563  0.623437  0.954380  1
  Cl  Cl19  1  0.623437  0.376563  0.045620  1
