# generated using pymatgen
data_LiVPCO7
_symmetry_space_group_name_H-M   'P 1'
_cell_length_a   5.38450828
_cell_length_b   6.24462775
_cell_length_c   8.74155187
_cell_angle_alpha   90.00000000
_cell_angle_beta   93.19926747
_cell_angle_gamma   90.00000000
_symmetry_Int_Tables_number   1
_chemical_formula_structural   LiVPCO7
_chemical_formula_sum   'Li2 V2 P2 C2 O14'
_cell_volume   293.47003057
_cell_formula_units_Z   2
loop_
 _symmetry_equiv_pos_site_id
 _symmetry_equiv_pos_as_xyz
  1  'x, y, z'
loop_
 _atom_site_type_symbol
 _atom_site_label
 _atom_site_symmetry_multiplicity
 _atom_site_fract_x
 _atom_site_fract_y
 _atom_site_fract_z
 _atom_site_occupancy
  Li  Li0  1  0.239916  0.944838  0.315730  1
  Li  Li1  1  0.760084  0.444838  0.684270  1
  V  V2  1  0.789029  0.751416  0.167692  1
  V  V3  1  0.210971  0.251416  0.832308  1
  P  P4  1  0.721850  0.256189  0.058158  1
  P  P5  1  0.278150  0.756189  0.941842  1
  C  C6  1  0.732647  0.752318  0.440688  1
  C  C7  1  0.267353  0.252318  0.559312  1
  O  O8  1  0.788203  0.456201  0.161052  1
  O  O9  1  0.951953  0.766785  0.376240  1
  O  O10  1  0.451049  0.274059  0.668301  1
  O  O11  1  0.548951  0.774059  0.331699  1
  O  O12  1  0.201999  0.562218  0.840960  1
  O  O13  1  0.131856  0.768495  0.088124  1
  O  O14  1  0.211797  0.956201  0.838948  1
  O  O15  1  0.048047  0.266785  0.623760  1
  O  O16  1  0.798001  0.062218  0.159040  1
  O  O17  1  0.440071  0.256560  0.018169  1
  O  O18  1  0.703559  0.714122  0.576458  1
  O  O19  1  0.296441  0.214122  0.423542  1
  O  O20  1  0.559929  0.756560  0.981831  1
  O  O21  1  0.868144  0.268495  0.911876  1
