# generated using pymatgen
data_In3SnI5
_symmetry_space_group_name_H-M   'P 1'
_cell_length_a   9.08662914
_cell_length_b   9.08662914
_cell_length_c   17.83981381
_cell_angle_alpha   82.53458064
_cell_angle_beta   97.46541936
_cell_angle_gamma   89.79196009
_symmetry_Int_Tables_number   1
_chemical_formula_structural   In3SnI5
_chemical_formula_sum   'In12 Sn4 I20'
_cell_volume   1447.79596562
_cell_formula_units_Z   4
loop_
 _symmetry_equiv_pos_site_id
 _symmetry_equiv_pos_as_xyz
  1  'x, y, z'
loop_
 _atom_site_type_symbol
 _atom_site_label
 _atom_site_symmetry_multiplicity
 _atom_site_fract_x
 _atom_site_fract_y
 _atom_site_fract_z
 _atom_site_occupancy
  In  In0  1  0.960802  0.960802  0.250000  1
  In  In1  1  0.039198  0.039198  0.750000  1
  In  In2  1  0.744051  0.466393  0.251093  1
  In  In3  1  0.466393  0.744051  0.248907  1
  In  In4  1  0.255949  0.533607  0.748907  1
  In  In5  1  0.533607  0.255949  0.751093  1
  In  In6  1  0.244402  0.244402  0.250000  1
  In  In7  1  0.755598  0.755598  0.750000  1
  In  In8  1  0.205483  0.556242  0.472688  1
  In  In9  1  0.556242  0.205483  0.027312  1
  In  In10  1  0.794517  0.443758  0.527312  1
  In  In11  1  0.443758  0.794517  0.972688  1
  Sn  Sn12  1  0.653857  0.059465  0.414140  1
  Sn  Sn13  1  0.059465  0.653857  0.085860  1
  Sn  Sn14  1  0.346143  0.940535  0.585860  1
  Sn  Sn15  1  0.940535  0.346143  0.914140  1
  I  I16  1  0.803702  0.751363  0.386599  1
  I  I17  1  0.751363  0.803702  0.113401  1
  I  I18  1  0.196298  0.248637  0.613401  1
  I  I19  1  0.248637  0.196298  0.886599  1
  I  I20  1  0.595777  0.107871  0.238536  1
  I  I21  1  0.107871  0.595777  0.261464  1
  I  I22  1  0.404223  0.892129  0.761464  1
  I  I23  1  0.892129  0.404223  0.738536  1
  I  I24  1  0.942724  0.235818  0.394706  1
  I  I25  1  0.235818  0.942724  0.105294  1
  I  I26  1  0.057276  0.764182  0.605294  1
  I  I27  1  0.764182  0.057276  0.894706  1
  I  I28  1  0.322094  0.906732  0.396389  1
  I  I29  1  0.906732  0.322094  0.103611  1
  I  I30  1  0.677906  0.093268  0.603611  1
  I  I31  1  0.093268  0.677906  0.896389  1
  I  I32  1  0.484918  0.376295  0.397079  1
  I  I33  1  0.376295  0.484918  0.102921  1
  I  I34  1  0.515082  0.623705  0.602921  1
  I  I35  1  0.623705  0.515082  0.897079  1
