# generated using pymatgen
data_Na4PbO4
_symmetry_space_group_name_H-M   'P 1'
_cell_length_a   6.02939216
_cell_length_b   6.03318458
_cell_length_c   9.10142480
_cell_angle_alpha   82.83317199
_cell_angle_beta   70.99816541
_cell_angle_gamma   68.93518642
_symmetry_Int_Tables_number   1
_chemical_formula_structural   Na4PbO4
_chemical_formula_sum   'Na8 Pb2 O8'
_cell_volume   292.10633084
_cell_formula_units_Z   2
loop_
 _symmetry_equiv_pos_site_id
 _symmetry_equiv_pos_as_xyz
  1  'x, y, z'
loop_
 _atom_site_type_symbol
 _atom_site_label
 _atom_site_symmetry_multiplicity
 _atom_site_fract_x
 _atom_site_fract_y
 _atom_site_fract_z
 _atom_site_occupancy
  Na  Na0  1  0.747973  0.751950  0.994646  1
  Na  Na1  1  0.252027  0.248050  0.005354  1
  Na  Na2  1  0.436001  0.254832  0.590361  1
  Na  Na3  1  0.563999  0.745168  0.409639  1
  Na  Na4  1  0.017499  0.263439  0.432424  1
  Na  Na5  1  0.982501  0.736561  0.567576  1
  Na  Na6  1  0.887454  0.278465  0.795049  1
  Na  Na7  1  0.112546  0.721535  0.204951  1
  Pb  Pb8  1  0.340467  0.727165  0.771699  1
  Pb  Pb9  1  0.659533  0.272835  0.228301  1
  O  O10  1  0.118825  0.511234  0.805130  1
  O  O11  1  0.881175  0.488766  0.194870  1
  O  O12  1  0.313343  0.481665  0.376445  1
  O  O13  1  0.686657  0.518335  0.623555  1
  O  O14  1  0.199774  0.990216  0.616210  1
  O  O15  1  0.800226  0.009784  0.383790  1
  O  O16  1  0.348283  0.842556  0.974359  1
  O  O17  1  0.651717  0.157444  0.025641  1
