# generated using pymatgen
data_SrCuSeF
_symmetry_space_group_name_H-M   'P 1'
_cell_length_a   4.09381264
_cell_length_b   4.09381264
_cell_length_c   8.90120575
_cell_angle_alpha   90.00000000
_cell_angle_beta   90.00000000
_cell_angle_gamma   90.00000000
_symmetry_Int_Tables_number   1
_chemical_formula_structural   SrCuSeF
_chemical_formula_sum   'Sr2 Cu2 Se2 F2'
_cell_volume   149.17799472
_cell_formula_units_Z   2
loop_
 _symmetry_equiv_pos_site_id
 _symmetry_equiv_pos_as_xyz
  1  'x, y, z'
loop_
 _atom_site_type_symbol
 _atom_site_label
 _atom_site_symmetry_multiplicity
 _atom_site_fract_x
 _atom_site_fract_y
 _atom_site_fract_z
 _atom_site_occupancy
  Sr  Sr0  1  0.000000  0.500000  0.661848  1
  Sr  Sr1  1  0.500000  0.000000  0.338152  1
  Cu  Cu2  1  0.500000  0.500000  0.000000  1
  Cu  Cu3  1  0.000000  0.000000  0.000000  1
  Se  Se4  1  0.500000  0.000000  0.831171  1
  Se  Se5  1  0.000000  0.500000  0.168829  1
  F  F6  1  0.000000  0.000000  0.500000  1
  F  F7  1  0.500000  0.500000  0.500000  1
