# generated using pymatgen
data_K2O2
_symmetry_space_group_name_H-M   'P 1'
_cell_length_a   4.91158831
_cell_length_b   4.91158831
_cell_length_c   6.56505995
_cell_angle_alpha   90.00000000
_cell_angle_beta   90.00000000
_cell_angle_gamma   91.95440367
_symmetry_Int_Tables_number   1
_chemical_formula_structural   K2O2
_chemical_formula_sum   'K4 O4'
_cell_volume   158.28140646
_cell_formula_units_Z   2
loop_
 _symmetry_equiv_pos_site_id
 _symmetry_equiv_pos_as_xyz
  1  'x, y, z'
loop_
 _atom_site_type_symbol
 _atom_site_label
 _atom_site_symmetry_multiplicity
 _atom_site_fract_x
 _atom_site_fract_y
 _atom_site_fract_z
 _atom_site_occupancy
  K  K0  1  0.591004  0.908996  0.250000  1
  K  K1  1  0.908996  0.591004  0.750000  1
  K  K2  1  0.408996  0.091004  0.750000  1
  K  K3  1  0.091004  0.408996  0.250000  1
  O  O4  1  0.413120  0.586880  0.569099  1
  O  O5  1  0.086880  0.913120  0.069099  1
  O  O6  1  0.586880  0.413120  0.430901  1
  O  O7  1  0.913120  0.086880  0.930901  1
