# generated using pymatgen
data_Sn5BF13
_symmetry_space_group_name_H-M   'P 1'
_cell_length_a   13.97232903
_cell_length_b   7.77187216
_cell_length_c   14.53479856
_cell_angle_alpha   90.00000000
_cell_angle_beta   119.07883348
_cell_angle_gamma   90.00000000
_symmetry_Int_Tables_number   1
_chemical_formula_structural   Sn5BF13
_chemical_formula_sum   'Sn20 B4 F52'
_cell_volume   1379.40236012
_cell_formula_units_Z   4
loop_
 _symmetry_equiv_pos_site_id
 _symmetry_equiv_pos_as_xyz
  1  'x, y, z'
loop_
 _atom_site_type_symbol
 _atom_site_label
 _atom_site_symmetry_multiplicity
 _atom_site_fract_x
 _atom_site_fract_y
 _atom_site_fract_z
 _atom_site_occupancy
  Sn  Sn0  1  0.556725  0.601766  0.352308  1
  Sn  Sn1  1  0.443275  0.101766  0.147692  1
  Sn  Sn2  1  0.443275  0.398234  0.647692  1
  Sn  Sn3  1  0.556725  0.898234  0.852308  1
  Sn  Sn4  1  0.369164  0.907779  0.480406  1
  Sn  Sn5  1  0.630836  0.407779  0.019594  1
  Sn  Sn6  1  0.630836  0.092221  0.519594  1
  Sn  Sn7  1  0.369164  0.592221  0.980406  1
  Sn  Sn8  1  0.731062  0.918684  0.183456  1
  Sn  Sn9  1  0.268938  0.418684  0.316544  1
  Sn  Sn10  1  0.268938  0.081316  0.816544  1
  Sn  Sn11  1  0.731062  0.581316  0.683456  1
  Sn  Sn12  1  0.875861  0.665729  0.993801  1
  Sn  Sn13  1  0.124139  0.165729  0.506199  1
  Sn  Sn14  1  0.124139  0.334271  0.006199  1
  Sn  Sn15  1  0.875861  0.834271  0.493801  1
  Sn  Sn16  1  0.210362  0.883069  0.178109  1
  Sn  Sn17  1  0.789638  0.383069  0.321891  1
  Sn  Sn18  1  0.789638  0.116931  0.821891  1
  Sn  Sn19  1  0.210362  0.616931  0.678109  1
  B  B20  1  0.062734  0.687401  0.360918  1
  B  B21  1  0.937266  0.187401  0.139082  1
  B  B22  1  0.937266  0.312599  0.639082  1
  B  B23  1  0.062734  0.812599  0.860918  1
  F  F24  1  0.197204  0.508817  0.134813  1
  F  F25  1  0.802796  0.008817  0.365187  1
  F  F26  1  0.802796  0.491183  0.865187  1
  F  F27  1  0.197204  0.991183  0.634813  1
  F  F28  1  0.300005  0.695438  0.318298  1
  F  F29  1  0.699995  0.195438  0.181702  1
  F  F30  1  0.699995  0.304562  0.681702  1
  F  F31  1  0.300005  0.804562  0.818298  1
  F  F32  1  0.362441  0.867268  0.174746  1
  F  F33  1  0.637559  0.367268  0.325254  1
  F  F34  1  0.637559  0.132732  0.825254  1
  F  F35  1  0.362441  0.632732  0.674746  1
  F  F36  1  0.375123  0.490951  0.492687  1
  F  F37  1  0.624877  0.990951  0.007313  1
  F  F38  1  0.624877  0.509049  0.507313  1
  F  F39  1  0.375123  0.009049  0.992687  1
  F  F40  1  0.516412  0.866893  0.454132  1
  F  F41  1  0.483588  0.366893  0.045868  1
  F  F42  1  0.483588  0.133107  0.545868  1
  F  F43  1  0.516412  0.633107  0.954132  1
  F  F44  1  0.574235  0.907102  0.180666  1
  F  F45  1  0.425765  0.407102  0.319334  1
  F  F46  1  0.425765  0.092898  0.819334  1
  F  F47  1  0.574235  0.592898  0.680666  1
  F  F48  1  0.698894  0.531430  0.174357  1
  F  F49  1  0.301106  0.031430  0.325643  1
  F  F50  1  0.301106  0.468570  0.825643  1
  F  F51  1  0.698894  0.968570  0.674357  1
  F  F52  1  0.735919  0.643127  0.012136  1
  F  F53  1  0.264081  0.143127  0.487864  1
  F  F54  1  0.264081  0.356873  0.987864  1
  F  F55  1  0.735919  0.856873  0.512136  1
  F  F56  1  0.765037  0.654830  0.376007  1
  F  F57  1  0.234963  0.154830  0.123993  1
  F  F58  1  0.234963  0.345170  0.623993  1
  F  F59  1  0.765037  0.845170  0.876007  1
  F  F60  1  0.115734  0.542170  0.425371  1
  F  F61  1  0.884266  0.042170  0.074629  1
  F  F62  1  0.884266  0.457830  0.574629  1
  F  F63  1  0.115734  0.957830  0.925371  1
  F  F64  1  0.123761  0.838448  0.412728  1
  F  F65  1  0.876239  0.338448  0.087272  1
  F  F66  1  0.876239  0.161552  0.587272  1
  F  F67  1  0.123761  0.661552  0.912728  1
  F  F68  1  0.955356  0.702027  0.347715  1
  F  F69  1  0.044644  0.202027  0.152285  1
  F  F70  1  0.044644  0.297973  0.652285  1
  F  F71  1  0.955356  0.797973  0.847715  1
  F  F72  1  0.058738  0.669077  0.262710  1
  F  F73  1  0.941262  0.169077  0.237290  1
  F  F74  1  0.941262  0.330923  0.737290  1
  F  F75  1  0.058738  0.830923  0.762710  1
