# generated using pymatgen
data_BaGe2
_symmetry_space_group_name_H-M   'P 1'
_cell_length_a   6.87704527
_cell_length_b   9.26992876
_cell_length_c   11.72916875
_cell_angle_alpha   90.00000000
_cell_angle_beta   90.00000000
_cell_angle_gamma   90.00000000
_symmetry_Int_Tables_number   1
_chemical_formula_structural   BaGe2
_chemical_formula_sum   'Ba8 Ge16'
_cell_volume   747.73122050
_cell_formula_units_Z   8
loop_
 _symmetry_equiv_pos_site_id
 _symmetry_equiv_pos_as_xyz
  1  'x, y, z'
loop_
 _atom_site_type_symbol
 _atom_site_label
 _atom_site_symmetry_multiplicity
 _atom_site_fract_x
 _atom_site_fract_y
 _atom_site_fract_z
 _atom_site_occupancy
  Ba  Ba0  1  0.250000  0.847479  0.593291  1
  Ba  Ba1  1  0.750000  0.152521  0.406709  1
  Ba  Ba2  1  0.250000  0.347479  0.906709  1
  Ba  Ba3  1  0.750000  0.652521  0.093291  1
  Ba  Ba4  1  0.250000  0.014300  0.190602  1
  Ba  Ba5  1  0.750000  0.985700  0.809398  1
  Ba  Ba6  1  0.250000  0.514300  0.309398  1
  Ba  Ba7  1  0.750000  0.485700  0.690602  1
  Ge  Ge8  1  0.937479  0.808024  0.350309  1
  Ge  Ge9  1  0.437479  0.191976  0.649691  1
  Ge  Ge10  1  0.562521  0.308024  0.149691  1
  Ge  Ge11  1  0.062521  0.691976  0.850309  1
  Ge  Ge12  1  0.062521  0.191976  0.649691  1
  Ge  Ge13  1  0.562521  0.808024  0.350309  1
  Ge  Ge14  1  0.437479  0.691976  0.850309  1
  Ge  Ge15  1  0.937479  0.308024  0.149691  1
  Ge  Ge16  1  0.750000  0.076889  0.092845  1
  Ge  Ge17  1  0.250000  0.923111  0.907155  1
  Ge  Ge18  1  0.750000  0.576889  0.407155  1
  Ge  Ge19  1  0.250000  0.423111  0.592845  1
  Ge  Ge20  1  0.750000  0.304893  0.959329  1
  Ge  Ge21  1  0.250000  0.695107  0.040671  1
  Ge  Ge22  1  0.750000  0.804893  0.540671  1
  Ge  Ge23  1  0.250000  0.195107  0.459329  1
