# generated using pymatgen
data_GaP2I9
_symmetry_space_group_name_H-M   'P 1'
_cell_length_a   11.47863558
_cell_length_b   18.88767700
_cell_length_c   21.71349674
_cell_angle_alpha   90.00000000
_cell_angle_beta   90.00000000
_cell_angle_gamma   90.00000000
_symmetry_Int_Tables_number   1
_chemical_formula_structural   GaP2I9
_chemical_formula_sum   'Ga8 P16 I72'
_cell_volume   4707.58947631
_cell_formula_units_Z   8
loop_
 _symmetry_equiv_pos_site_id
 _symmetry_equiv_pos_as_xyz
  1  'x, y, z'
loop_
 _atom_site_type_symbol
 _atom_site_label
 _atom_site_symmetry_multiplicity
 _atom_site_fract_x
 _atom_site_fract_y
 _atom_site_fract_z
 _atom_site_occupancy
  Ga  Ga0  1  0.626946  0.221272  0.120717  1
  Ga  Ga1  1  0.126946  0.278728  0.879283  1
  Ga  Ga2  1  0.373054  0.721272  0.379283  1
  Ga  Ga3  1  0.873054  0.778728  0.620717  1
  Ga  Ga4  1  0.373054  0.778728  0.879283  1
  Ga  Ga5  1  0.873054  0.721272  0.120717  1
  Ga  Ga6  1  0.626946  0.278728  0.620717  1
  Ga  Ga7  1  0.126946  0.221272  0.379283  1
  P  P8  1  0.306768  0.495580  0.133708  1
  P  P9  1  0.806768  0.004420  0.866292  1
  P  P10  1  0.693232  0.995580  0.366292  1
  P  P11  1  0.193232  0.504420  0.633708  1
  P  P12  1  0.693232  0.504420  0.866292  1
  P  P13  1  0.193232  0.995580  0.133708  1
  P  P14  1  0.306768  0.004420  0.633708  1
  P  P15  1  0.806768  0.495580  0.366292  1
  P  P16  1  0.171296  0.424990  0.087990  1
  P  P17  1  0.671296  0.075010  0.912010  1
  P  P18  1  0.828704  0.924990  0.412010  1
  P  P19  1  0.328704  0.575010  0.587990  1
  P  P20  1  0.828704  0.575010  0.912010  1
  P  P21  1  0.328704  0.924990  0.087990  1
  P  P22  1  0.171296  0.075010  0.587990  1
  P  P23  1  0.671296  0.424990  0.412010  1
  I  I24  1  0.493848  0.211892  0.214931  1
  I  I25  1  0.993848  0.288108  0.785069  1
  I  I26  1  0.506152  0.711892  0.285069  1
  I  I27  1  0.006152  0.788108  0.714931  1
  I  I28  1  0.506152  0.788108  0.785069  1
  I  I29  1  0.006152  0.711892  0.214931  1
  I  I30  1  0.493848  0.288108  0.714931  1
  I  I31  1  0.993848  0.211892  0.285069  1
  I  I32  1  0.772514  0.112998  0.121217  1
  I  I33  1  0.272514  0.387002  0.878783  1
  I  I34  1  0.227486  0.612998  0.378783  1
  I  I35  1  0.727486  0.887002  0.621217  1
  I  I36  1  0.227486  0.887002  0.878783  1
  I  I37  1  0.727486  0.612998  0.121217  1
  I  I38  1  0.772514  0.387002  0.621217  1
  I  I39  1  0.272514  0.112998  0.378783  1
  I  I40  1  0.523225  0.222964  0.015860  1
  I  I41  1  0.023225  0.277036  0.984140  1
  I  I42  1  0.476775  0.722964  0.484140  1
  I  I43  1  0.976775  0.777036  0.515860  1
  I  I44  1  0.476775  0.777036  0.984140  1
  I  I45  1  0.976775  0.722964  0.015860  1
  I  I46  1  0.523225  0.277036  0.515860  1
  I  I47  1  0.023225  0.222964  0.484140  1
  I  I48  1  0.746717  0.338576  0.129540  1
  I  I49  1  0.246717  0.161424  0.870460  1
  I  I50  1  0.253283  0.838576  0.370460  1
  I  I51  1  0.753283  0.661424  0.629540  1
  I  I52  1  0.253283  0.661424  0.870460  1
  I  I53  1  0.753283  0.838576  0.129540  1
  I  I54  1  0.746717  0.161424  0.629540  1
  I  I55  1  0.246717  0.338576  0.370460  1
  I  I56  1  0.265962  0.542641  0.237424  1
  I  I57  1  0.765962  0.957359  0.762576  1
  I  I58  1  0.734038  0.042641  0.262576  1
  I  I59  1  0.234038  0.457359  0.737424  1
  I  I60  1  0.734038  0.457359  0.762576  1
  I  I61  1  0.234038  0.042641  0.237424  1
  I  I62  1  0.265962  0.957359  0.737424  1
  I  I63  1  0.765962  0.542641  0.262576  1
  I  I64  1  0.490753  0.427361  0.132617  1
  I  I65  1  0.990753  0.072639  0.867383  1
  I  I66  1  0.509247  0.927361  0.367383  1
  I  I67  1  0.009247  0.572639  0.632617  1
  I  I68  1  0.509247  0.572639  0.867383  1
  I  I69  1  0.009247  0.927361  0.132617  1
  I  I70  1  0.490753  0.072639  0.632617  1
  I  I71  1  0.990753  0.427361  0.367383  1
  I  I72  1  0.327994  0.594292  0.062337  1
  I  I73  1  0.827994  0.905708  0.937663  1
  I  I74  1  0.672006  0.094292  0.437663  1
  I  I75  1  0.172006  0.405708  0.562337  1
  I  I76  1  0.672006  0.405708  0.937663  1
  I  I77  1  0.172006  0.094292  0.062337  1
  I  I78  1  0.327994  0.905708  0.562337  1
  I  I79  1  0.827994  0.594292  0.437663  1
  I  I80  1  0.150125  0.338597  0.171669  1
  I  I81  1  0.650125  0.161403  0.828331  1
  I  I82  1  0.849875  0.838597  0.328331  1
  I  I83  1  0.349875  0.661403  0.671669  1
  I  I84  1  0.849875  0.661403  0.828331  1
  I  I85  1  0.349875  0.838597  0.171669  1
  I  I86  1  0.150125  0.161403  0.671669  1
  I  I87  1  0.650125  0.338597  0.328331  1
  I  I88  1  0.001695  0.503372  0.101369  1
  I  I89  1  0.501695  0.996628  0.898631  1
  I  I90  1  0.998305  0.003372  0.398631  1
  I  I91  1  0.498305  0.496628  0.601369  1
  I  I92  1  0.998305  0.496628  0.898631  1
  I  I93  1  0.498305  0.003372  0.101369  1
  I  I94  1  0.001695  0.996628  0.601369  1
  I  I95  1  0.501695  0.503372  0.398631  1
