# generated using pymatgen
data_CsB3H8
_symmetry_space_group_name_H-M   'P 1'
_cell_length_a   5.75552683
_cell_length_b   5.75552683
_cell_length_c   9.12136655
_cell_angle_alpha   90.00000000
_cell_angle_beta   90.00000000
_cell_angle_gamma   98.76869365
_symmetry_Int_Tables_number   1
_chemical_formula_structural   CsB3H8
_chemical_formula_sum   'Cs2 B6 H16'
_cell_volume   298.62355821
_cell_formula_units_Z   2
loop_
 _symmetry_equiv_pos_site_id
 _symmetry_equiv_pos_as_xyz
  1  'x, y, z'
loop_
 _atom_site_type_symbol
 _atom_site_label
 _atom_site_symmetry_multiplicity
 _atom_site_fract_x
 _atom_site_fract_y
 _atom_site_fract_z
 _atom_site_occupancy
  Cs  Cs0  1  0.177922  0.822078  0.750000  1
  Cs  Cs1  1  0.822078  0.177922  0.250000  1
  B  B2  1  0.602607  0.397393  0.750000  1
  B  B3  1  0.397393  0.602607  0.250000  1
  B  B4  1  0.777628  0.222372  0.848743  1
  B  B5  1  0.222372  0.777628  0.151257  1
  B  B6  1  0.777628  0.222372  0.651257  1
  B  B7  1  0.222372  0.777628  0.348743  1
  H  H8  1  0.645165  0.354835  0.594213  1
  H  H9  1  0.354835  0.645165  0.405787  1
  H  H10  1  0.645165  0.354835  0.905787  1
  H  H11  1  0.354835  0.645165  0.094213  1
  H  H12  1  0.663078  0.607850  0.750000  1
  H  H13  1  0.607850  0.663078  0.250000  1
  H  H14  1  0.392150  0.336922  0.750000  1
  H  H15  1  0.336922  0.392150  0.250000  1
  H  H16  1  0.295788  0.968746  0.105553  1
  H  H17  1  0.968746  0.295788  0.894447  1
  H  H18  1  0.295788  0.968746  0.394447  1
  H  H19  1  0.968746  0.295788  0.605553  1
  H  H20  1  0.031254  0.704212  0.105553  1
  H  H21  1  0.704212  0.031254  0.894447  1
  H  H22  1  0.031254  0.704212  0.394447  1
  H  H23  1  0.704212  0.031254  0.605553  1
