# generated using pymatgen
data_ZnH8(NO5)2
_symmetry_space_group_name_H-M   'P 1'
_cell_length_a   5.38794594
_cell_length_b   27.32356755
_cell_length_c   6.23831517
_cell_angle_alpha   90.00000000
_cell_angle_beta   121.04387738
_cell_angle_gamma   90.00000000
_symmetry_Int_Tables_number   1
_chemical_formula_structural   ZnH8(NO5)2
_chemical_formula_sum   'Zn4 H32 N8 O40'
_cell_volume   786.85286422
_cell_formula_units_Z   4
loop_
 _symmetry_equiv_pos_site_id
 _symmetry_equiv_pos_as_xyz
  1  'x, y, z'
loop_
 _atom_site_type_symbol
 _atom_site_label
 _atom_site_symmetry_multiplicity
 _atom_site_fract_x
 _atom_site_fract_y
 _atom_site_fract_z
 _atom_site_occupancy
  Zn  Zn0  1  0.689596  0.374902  0.216848  1
  Zn  Zn1  1  0.310404  0.874902  0.283152  1
  Zn  Zn2  1  0.310404  0.625098  0.783152  1
  Zn  Zn3  1  0.689596  0.125098  0.716848  1
  H  H4  1  0.174319  0.331167  0.076242  1
  H  H5  1  0.825681  0.831167  0.423758  1
  H  H6  1  0.825681  0.668833  0.923758  1
  H  H7  1  0.174319  0.168833  0.576242  1
  H  H8  1  0.403453  0.287538  0.168767  1
  H  H9  1  0.596547  0.787538  0.331233  1
  H  H10  1  0.596547  0.712462  0.831233  1
  H  H11  1  0.403453  0.212462  0.668767  1
  H  H12  1  0.706653  0.440917  0.566835  1
  H  H13  1  0.293347  0.940917  0.933165  1
  H  H14  1  0.293347  0.559083  0.433165  1
  H  H15  1  0.706653  0.059083  0.066835  1
  H  H16  1  0.408635  0.413789  0.418555  1
  H  H17  1  0.591365  0.913789  0.081445  1
  H  H18  1  0.591365  0.586211  0.581445  1
  H  H19  1  0.408635  0.086211  0.918555  1
  H  H20  1  0.248137  0.391174  0.770308  1
  H  H21  1  0.751863  0.891174  0.729692  1
  H  H22  1  0.751863  0.608826  0.229692  1
  H  H23  1  0.248137  0.108826  0.270308  1
  H  H24  1  0.314766  0.446221  0.880984  1
  H  H25  1  0.685234  0.946221  0.619016  1
  H  H26  1  0.685234  0.553779  0.119016  1
  H  H27  1  0.314766  0.053779  0.380984  1
  H  H28  1  0.648995  0.319299  0.847576  1
  H  H29  1  0.351005  0.819299  0.652424  1
  H  H30  1  0.351005  0.680701  0.152424  1
  H  H31  1  0.648995  0.180701  0.347576  1
  H  H32  1  0.740643  0.370677  0.798826  1
  H  H33  1  0.259357  0.870677  0.701174  1
  H  H34  1  0.259357  0.629323  0.201174  1
  H  H35  1  0.740643  0.129323  0.298826  1
  N  N36  1  0.118082  0.295355  0.508009  1
  N  N37  1  0.881918  0.795355  0.991991  1
  N  N38  1  0.881918  0.704645  0.491991  1
  N  N39  1  0.118082  0.204645  0.008009  1
  N  N40  1  0.997584  0.474736  0.262405  1
  N  N41  1  0.002416  0.974736  0.237595  1
  N  N42  1  0.002416  0.525264  0.737595  1
  N  N43  1  0.997584  0.025264  0.762405  1
  O  O44  1  0.383780  0.323417  0.176147  1
  O  O45  1  0.616220  0.823417  0.323853  1
  O  O46  1  0.616220  0.676583  0.823853  1
  O  O47  1  0.383780  0.176583  0.676147  1
  O  O48  1  0.621847  0.407986  0.504278  1
  O  O49  1  0.378153  0.907986  0.995722  1
  O  O50  1  0.378153  0.592014  0.495722  1
  O  O51  1  0.621847  0.092014  0.004278  1
  O  O52  1  0.335023  0.410858  0.924233  1
  O  O53  1  0.664977  0.910858  0.575767  1
  O  O54  1  0.664977  0.589142  0.075767  1
  O  O55  1  0.335023  0.089142  0.424233  1
  O  O56  1  0.786551  0.346915  0.935032  1
  O  O57  1  0.213449  0.846915  0.564968  1
  O  O58  1  0.213449  0.653085  0.064968  1
  O  O59  1  0.786551  0.153085  0.435032  1
  O  O60  1  0.931879  0.269008  0.341397  1
  O  O61  1  0.068121  0.769008  0.158603  1
  O  O62  1  0.068121  0.730992  0.658603  1
  O  O63  1  0.931879  0.230992  0.841397  1
  O  O64  1  0.363417  0.278999  0.673865  1
  O  O65  1  0.636583  0.778999  0.826135  1
  O  O66  1  0.636583  0.721001  0.326135  1
  O  O67  1  0.363417  0.221001  0.173865  1
  O  O68  1  0.066516  0.341732  0.517100  1
  O  O69  1  0.933484  0.841732  0.982900  1
  O  O70  1  0.933484  0.658268  0.482900  1
  O  O71  1  0.066516  0.158268  0.017100  1
  O  O72  1  0.199406  0.500145  0.278698  1
  O  O73  1  0.800594  0.000145  0.221302  1
  O  O74  1  0.800594  0.499855  0.721302  1
  O  O75  1  0.199406  0.999855  0.778698  1
  O  O76  1  0.762460  0.492412  0.222251  1
  O  O77  1  0.237540  0.992412  0.277749  1
  O  O78  1  0.237540  0.507588  0.777749  1
  O  O79  1  0.762460  0.007588  0.722251  1
  O  O80  1  0.035336  0.427627  0.291007  1
  O  O81  1  0.964664  0.927627  0.208993  1
  O  O82  1  0.964664  0.572373  0.708993  1
  O  O83  1  0.035336  0.072373  0.791007  1
