# generated using pymatgen
data_Li4NCl
_symmetry_space_group_name_H-M   'P 1'
_cell_length_a   6.97121541
_cell_length_b   6.97121541
_cell_length_c   6.97121541
_cell_angle_alpha   30.43269888
_cell_angle_beta   30.43269888
_cell_angle_gamma   30.43269888
_symmetry_Int_Tables_number   1
_chemical_formula_structural   Li4NCl
_chemical_formula_sum   'Li4 N1 Cl1'
_cell_volume   77.04352511
_cell_formula_units_Z   1
loop_
 _symmetry_equiv_pos_site_id
 _symmetry_equiv_pos_as_xyz
  1  'x, y, z'
loop_
 _atom_site_type_symbol
 _atom_site_label
 _atom_site_symmetry_multiplicity
 _atom_site_fract_x
 _atom_site_fract_y
 _atom_site_fract_z
 _atom_site_occupancy
  Li  Li0  1  0.097173  0.097173  0.097173  1
  Li  Li1  1  0.902827  0.902827  0.902827  1
  Li  Li2  1  0.345096  0.345096  0.345096  1
  Li  Li3  1  0.654904  0.654904  0.654904  1
  N  N4  1  0.000000  0.000000  0.000000  1
  Cl  Cl5  1  0.500000  0.500000  0.500000  1
