# generated using pymatgen
data_CaPH5O6
_symmetry_space_group_name_H-M   'P 1'
_cell_length_a   8.22536241
_cell_length_b   8.22536241
_cell_length_c   5.89979574
_cell_angle_alpha   78.92750349
_cell_angle_beta   101.07249651
_cell_angle_gamma   46.07473269
_symmetry_Int_Tables_number   1
_chemical_formula_structural   CaPH5O6
_chemical_formula_sum   'Ca2 P2 H10 O12'
_cell_volume   250.49080237
_cell_formula_units_Z   2
loop_
 _symmetry_equiv_pos_site_id
 _symmetry_equiv_pos_as_xyz
  1  'x, y, z'
loop_
 _atom_site_type_symbol
 _atom_site_label
 _atom_site_symmetry_multiplicity
 _atom_site_fract_x
 _atom_site_fract_y
 _atom_site_fract_z
 _atom_site_occupancy
  Ca  Ca0  1  0.834515  0.822395  0.249444  1
  Ca  Ca1  1  0.177605  0.165485  0.749444  1
  P  P2  1  0.308852  0.336220  0.234055  1
  P  P3  1  0.663780  0.691148  0.734055  1
  H  H4  1  0.539815  0.326572  0.853594  1
  H  H5  1  0.673428  0.460185  0.353594  1
  H  H6  1  0.785585  0.239948  0.003085  1
  H  H7  1  0.760052  0.214415  0.503085  1
  H  H8  1  0.246980  0.736542  0.611785  1
  H  H9  1  0.263458  0.753020  0.111785  1
  H  H10  1  0.617131  0.037936  0.634704  1
  H  H11  1  0.962064  0.382869  0.134704  1
  H  H12  1  0.161512  0.664316  0.787241  1
  H  H13  1  0.335684  0.838489  0.287241  1
  O  O14  1  0.189715  0.598300  0.098234  1
  O  O15  1  0.138671  0.365194  0.347443  1
  O  O16  1  0.323092  0.824393  0.121548  1
  O  O17  1  0.175607  0.676908  0.621548  1
  O  O18  1  0.822318  0.281878  0.488298  1
  O  O19  1  0.718122  0.177682  0.988298  1
  O  O20  1  0.363829  0.199327  0.066503  1
  O  O21  1  0.800673  0.636171  0.566503  1
  O  O22  1  0.583418  0.153212  0.476965  1
  O  O23  1  0.846788  0.416582  0.976965  1
  O  O24  1  0.634806  0.861329  0.847443  1
  O  O25  1  0.401700  0.810285  0.598234  1
