# generated using pymatgen
data_Li2SnP2O7
_symmetry_space_group_name_H-M   'P 1'
_cell_length_a   5.21176994
_cell_length_b   7.57588756
_cell_length_c   8.66329532
_cell_angle_alpha   113.48572341
_cell_angle_beta   91.07936641
_cell_angle_gamma   90.23651420
_symmetry_Int_Tables_number   1
_chemical_formula_structural   Li2SnP2O7
_chemical_formula_sum   'Li4 Sn2 P4 O14'
_cell_volume   313.64232929
_cell_formula_units_Z   2
loop_
 _symmetry_equiv_pos_site_id
 _symmetry_equiv_pos_as_xyz
  1  'x, y, z'
loop_
 _atom_site_type_symbol
 _atom_site_label
 _atom_site_symmetry_multiplicity
 _atom_site_fract_x
 _atom_site_fract_y
 _atom_site_fract_z
 _atom_site_occupancy
  Li  Li0  1  0.691458  0.162446  0.590880  1
  Li  Li1  1  0.698507  0.135397  0.998226  1
  Li  Li2  1  0.301493  0.864603  0.001774  1
  Li  Li3  1  0.308542  0.837554  0.409120  1
  Sn  Sn4  1  0.767789  0.728277  0.690743  1
  Sn  Sn5  1  0.232211  0.271723  0.309257  1
  P  P6  1  0.803873  0.877943  0.196404  1
  P  P7  1  0.774699  0.558187  0.291402  1
  P  P8  1  0.225301  0.441813  0.708598  1
  P  P9  1  0.196127  0.122057  0.803596  1
  O  O10  1  0.969335  0.665125  0.437174  1
  O  O11  1  0.907281  0.062979  0.781675  1
  O  O12  1  0.849155  0.343599  0.202318  1
  O  O13  1  0.807663  0.645437  0.150300  1
  O  O14  1  0.682588  0.892857  0.039655  1
  O  O15  1  0.649515  0.974374  0.354752  1
  O  O16  1  0.501825  0.413080  0.650515  1
  O  O17  1  0.498175  0.586920  0.349485  1
  O  O18  1  0.350485  0.025626  0.645248  1
  O  O19  1  0.317412  0.107143  0.960345  1
  O  O20  1  0.192337  0.354563  0.849700  1
  O  O21  1  0.150845  0.656401  0.797682  1
  O  O22  1  0.092719  0.937021  0.218325  1
  O  O23  1  0.030665  0.334875  0.562826  1
