# generated using pymatgen
data_Ca4GeN4
_symmetry_space_group_name_H-M   'P 1'
_cell_length_a   9.30557836
_cell_length_b   6.07214412
_cell_length_c   11.21541489
_cell_angle_alpha   90.00000000
_cell_angle_beta   116.41307278
_cell_angle_gamma   90.00000000
_symmetry_Int_Tables_number   1
_chemical_formula_structural   Ca4GeN4
_chemical_formula_sum   'Ca16 Ge4 N16'
_cell_volume   567.57055810
_cell_formula_units_Z   4
loop_
 _symmetry_equiv_pos_site_id
 _symmetry_equiv_pos_as_xyz
  1  'x, y, z'
loop_
 _atom_site_type_symbol
 _atom_site_label
 _atom_site_symmetry_multiplicity
 _atom_site_fract_x
 _atom_site_fract_y
 _atom_site_fract_z
 _atom_site_occupancy
  Ca  Ca0  1  0.654967  0.583547  0.154029  1
  Ca  Ca1  1  0.345033  0.083547  0.345971  1
  Ca  Ca2  1  0.345033  0.416453  0.845971  1
  Ca  Ca3  1  0.654967  0.916453  0.654029  1
  Ca  Ca4  1  0.453529  0.076260  0.120905  1
  Ca  Ca5  1  0.546471  0.576260  0.379095  1
  Ca  Ca6  1  0.145232  0.843237  0.769051  1
  Ca  Ca7  1  0.854768  0.343237  0.730949  1
  Ca  Ca8  1  0.854768  0.156763  0.230949  1
  Ca  Ca9  1  0.145232  0.656763  0.269051  1
  Ca  Ca10  1  0.078612  0.255598  0.544322  1
  Ca  Ca11  1  0.921388  0.755598  0.955678  1
  Ca  Ca12  1  0.921388  0.744402  0.455678  1
  Ca  Ca13  1  0.078612  0.244402  0.044322  1
  Ca  Ca14  1  0.546471  0.923740  0.879095  1
  Ca  Ca15  1  0.453529  0.423740  0.620905  1
  Ge  Ge16  1  0.269422  0.858816  0.552965  1
  Ge  Ge17  1  0.730578  0.358816  0.947035  1
  Ge  Ge18  1  0.730578  0.141184  0.447035  1
  Ge  Ge19  1  0.269422  0.641184  0.052965  1
  N  N20  1  0.411595  0.746892  0.985520  1
  N  N21  1  0.588405  0.246892  0.514480  1
  N  N22  1  0.588405  0.253108  0.014480  1
  N  N23  1  0.411595  0.753108  0.485520  1
  N  N24  1  0.663743  0.914599  0.313546  1
  N  N25  1  0.336257  0.414599  0.186454  1
  N  N26  1  0.197341  0.611454  0.616928  1
  N  N27  1  0.802659  0.111454  0.883072  1
  N  N28  1  0.802659  0.388546  0.383072  1
  N  N29  1  0.197341  0.888546  0.116928  1
  N  N30  1  0.095553  0.519581  0.890056  1
  N  N31  1  0.904447  0.019581  0.609944  1
  N  N32  1  0.904447  0.480419  0.109944  1
  N  N33  1  0.095553  0.980419  0.390056  1
  N  N34  1  0.336257  0.085401  0.686454  1
  N  N35  1  0.663743  0.585401  0.813546  1
