# generated using pymatgen
data_MnSO4
_symmetry_space_group_name_H-M   'P 1'
_cell_length_a   4.88998609
_cell_length_b   4.88998609
_cell_length_c   6.94293964
_cell_angle_alpha   90.00000000
_cell_angle_beta   90.00000000
_cell_angle_gamma   114.05347186
_symmetry_Int_Tables_number   1
_chemical_formula_structural   MnSO4
_chemical_formula_sum   'Mn2 S2 O8'
_cell_volume   151.60311263
_cell_formula_units_Z   2
loop_
 _symmetry_equiv_pos_site_id
 _symmetry_equiv_pos_as_xyz
  1  'x, y, z'
loop_
 _atom_site_type_symbol
 _atom_site_label
 _atom_site_symmetry_multiplicity
 _atom_site_fract_x
 _atom_site_fract_y
 _atom_site_fract_z
 _atom_site_occupancy
  Mn  Mn0  1  0.000000  0.000000  0.500000  1
  Mn  Mn1  1  0.000000  0.000000  0.000000  1
  S  S2  1  0.350852  0.649148  0.750000  1
  S  S3  1  0.649148  0.350852  0.250000  1
  O  O4  1  0.311019  0.228574  0.250000  1
  O  O5  1  0.688981  0.771426  0.750000  1
  O  O6  1  0.228574  0.311019  0.750000  1
  O  O7  1  0.771426  0.688981  0.250000  1
  O  O8  1  0.747326  0.252674  0.072896  1
  O  O9  1  0.252674  0.747326  0.572896  1
  O  O10  1  0.252674  0.747326  0.927104  1
  O  O11  1  0.747326  0.252674  0.427104  1
