# generated using pymatgen
data_SbCl2F3
_symmetry_space_group_name_H-M   'P 1'
_cell_length_a   11.93147981
_cell_length_b   10.82246371
_cell_length_c   17.59915197
_cell_angle_alpha   90.00000000
_cell_angle_beta   128.65937520
_cell_angle_gamma   90.00000000
_symmetry_Int_Tables_number   1
_chemical_formula_structural   SbCl2F3
_chemical_formula_sum   'Sb12 Cl24 F36'
_cell_volume   1774.56900693
_cell_formula_units_Z   12
loop_
 _symmetry_equiv_pos_site_id
 _symmetry_equiv_pos_as_xyz
  1  'x, y, z'
loop_
 _atom_site_type_symbol
 _atom_site_label
 _atom_site_symmetry_multiplicity
 _atom_site_fract_x
 _atom_site_fract_y
 _atom_site_fract_z
 _atom_site_occupancy
  Sb  Sb0  1  0.246289  0.450429  0.470813  1
  Sb  Sb1  1  0.753711  0.950429  0.029187  1
  Sb  Sb2  1  0.753711  0.549571  0.529187  1
  Sb  Sb3  1  0.246289  0.049571  0.970813  1
  Sb  Sb4  1  0.298183  0.117032  0.603562  1
  Sb  Sb5  1  0.701817  0.617032  0.896438  1
  Sb  Sb6  1  0.701817  0.882968  0.396438  1
  Sb  Sb7  1  0.298183  0.382968  0.103562  1
  Sb  Sb8  1  0.781228  0.349805  0.168442  1
  Sb  Sb9  1  0.218772  0.849805  0.331558  1
  Sb  Sb10  1  0.218772  0.650195  0.831558  1
  Sb  Sb11  1  0.781228  0.150195  0.668442  1
  Cl  Cl12  1  0.807460  0.066683  0.945124  1
  Cl  Cl13  1  0.192540  0.566683  0.554876  1
  Cl  Cl14  1  0.192540  0.933317  0.054876  1
  Cl  Cl15  1  0.807460  0.433317  0.445124  1
  Cl  Cl16  1  0.373987  0.200370  0.750512  1
  Cl  Cl17  1  0.626013  0.700370  0.749488  1
  Cl  Cl18  1  0.626013  0.799630  0.249488  1
  Cl  Cl19  1  0.373987  0.299630  0.250512  1
  Cl  Cl20  1  0.233094  0.044615  0.289131  1
  Cl  Cl21  1  0.766906  0.544615  0.210869  1
  Cl  Cl22  1  0.766906  0.955385  0.710869  1
  Cl  Cl23  1  0.233094  0.455385  0.789131  1
  Cl  Cl24  1  0.972834  0.338636  0.169969  1
  Cl  Cl25  1  0.027166  0.838636  0.330031  1
  Cl  Cl26  1  0.027166  0.661364  0.830031  1
  Cl  Cl27  1  0.972834  0.161364  0.669969  1
  Cl  Cl28  1  0.581776  0.320232  0.011994  1
  Cl  Cl29  1  0.418224  0.820232  0.488006  1
  Cl  Cl30  1  0.787714  0.286258  0.769107  1
  Cl  Cl31  1  0.581776  0.179768  0.511994  1
  Cl  Cl32  1  0.787714  0.213742  0.269107  1
  Cl  Cl33  1  0.212286  0.713742  0.230893  1
  Cl  Cl34  1  0.212286  0.786258  0.730893  1
  Cl  Cl35  1  0.418224  0.679768  0.988006  1
  F  F36  1  0.273422  0.299147  0.554296  1
  F  F37  1  0.726578  0.799147  0.945704  1
  F  F38  1  0.726578  0.700853  0.445704  1
  F  F39  1  0.273422  0.200853  0.054296  1
  F  F40  1  0.287089  0.339318  0.407281  1
  F  F41  1  0.712911  0.839318  0.092719  1
  F  F42  1  0.712911  0.660682  0.592719  1
  F  F43  1  0.287089  0.160682  0.907281  1
  F  F44  1  0.446932  0.478609  0.566884  1
  F  F45  1  0.553068  0.978609  0.933116  1
  F  F46  1  0.553068  0.521391  0.433116  1
  F  F47  1  0.446932  0.021391  0.066884  1
  F  F48  1  0.785487  0.085015  0.112119  1
  F  F49  1  0.214513  0.585015  0.387881  1
  F  F50  1  0.214513  0.914985  0.887881  1
  F  F51  1  0.785487  0.414985  0.612119  1
  F  F52  1  0.048601  0.397973  0.378605  1
  F  F53  1  0.101602  0.371698  0.050288  1
  F  F54  1  0.951399  0.602027  0.621395  1
  F  F55  1  0.048601  0.102027  0.878605  1
  F  F56  1  0.235981  0.071580  0.477646  1
  F  F57  1  0.764019  0.571580  0.022354  1
  F  F58  1  0.764019  0.928420  0.522354  1
  F  F59  1  0.235981  0.428420  0.977646  1
  F  F60  1  0.489720  0.127267  0.644354  1
  F  F61  1  0.510280  0.627267  0.855646  1
  F  F62  1  0.510280  0.872733  0.355646  1
  F  F63  1  0.489720  0.372733  0.144354  1
  F  F64  1  0.680652  0.448577  0.857938  1
  F  F65  1  0.319348  0.948577  0.642062  1
  F  F66  1  0.319348  0.551423  0.142062  1
  F  F67  1  0.680652  0.051423  0.357938  1
  F  F68  1  0.101602  0.128302  0.550288  1
  F  F69  1  0.898398  0.628302  0.949712  1
  F  F70  1  0.898398  0.871698  0.449712  1
  F  F71  1  0.951399  0.897973  0.121395  1
