# generated using pymatgen
data_NaAlCl4
_symmetry_space_group_name_H-M   'P 1'
_cell_length_a   6.28047135
_cell_length_b   10.03256963
_cell_length_c   10.61341548
_cell_angle_alpha   90.00000000
_cell_angle_beta   90.00000000
_cell_angle_gamma   90.00000000
_symmetry_Int_Tables_number   1
_chemical_formula_structural   NaAlCl4
_chemical_formula_sum   'Na4 Al4 Cl16'
_cell_volume   668.74352051
_cell_formula_units_Z   4
loop_
 _symmetry_equiv_pos_site_id
 _symmetry_equiv_pos_as_xyz
  1  'x, y, z'
loop_
 _atom_site_type_symbol
 _atom_site_label
 _atom_site_symmetry_multiplicity
 _atom_site_fract_x
 _atom_site_fract_y
 _atom_site_fract_z
 _atom_site_occupancy
  Na  Na0  1  0.065827  0.533571  0.626784  1
  Na  Na1  1  0.565827  0.966429  0.373216  1
  Na  Na2  1  0.934173  0.033571  0.873216  1
  Na  Na3  1  0.434173  0.466429  0.126784  1
  Al  Al4  1  0.545363  0.263891  0.712553  1
  Al  Al5  1  0.045363  0.236109  0.287447  1
  Al  Al6  1  0.454637  0.763891  0.787447  1
  Al  Al7  1  0.954637  0.736109  0.212553  1
  Cl  Cl8  1  0.201256  0.261376  0.716689  1
  Cl  Cl9  1  0.701256  0.238624  0.283311  1
  Cl  Cl10  1  0.798744  0.761376  0.783311  1
  Cl  Cl11  1  0.298744  0.738624  0.216689  1
  Cl  Cl12  1  0.645900  0.434825  0.604276  1
  Cl  Cl13  1  0.145900  0.065175  0.395724  1
  Cl  Cl14  1  0.354100  0.934825  0.895724  1
  Cl  Cl15  1  0.854100  0.565175  0.104276  1
  Cl  Cl16  1  0.823417  0.730594  0.401081  1
  Cl  Cl17  1  0.323417  0.769406  0.598919  1
  Cl  Cl18  1  0.176583  0.230594  0.098919  1
  Cl  Cl19  1  0.676583  0.269406  0.901081  1
  Cl  Cl20  1  0.176112  0.415307  0.371923  1
  Cl  Cl21  1  0.676112  0.084693  0.628077  1
  Cl  Cl22  1  0.823888  0.915307  0.128077  1
  Cl  Cl23  1  0.323888  0.584693  0.871923  1
