# generated using pymatgen
data_CsNaGe2
_symmetry_space_group_name_H-M   'P 1'
_cell_length_a   8.62040152
_cell_length_b   9.85665442
_cell_length_c   13.47834029
_cell_angle_alpha   90.00000000
_cell_angle_beta   111.23442668
_cell_angle_gamma   90.00000000
_symmetry_Int_Tables_number   1
_chemical_formula_structural   CsNaGe2
_chemical_formula_sum   'Cs8 Na8 Ge16'
_cell_volume   1067.47793674
_cell_formula_units_Z   8
loop_
 _symmetry_equiv_pos_site_id
 _symmetry_equiv_pos_as_xyz
  1  'x, y, z'
loop_
 _atom_site_type_symbol
 _atom_site_label
 _atom_site_symmetry_multiplicity
 _atom_site_fract_x
 _atom_site_fract_y
 _atom_site_fract_z
 _atom_site_occupancy
  Cs  Cs0  1  0.491740  0.981575  0.721709  1
  Cs  Cs1  1  0.508260  0.481575  0.778291  1
  Cs  Cs2  1  0.508260  0.018425  0.278291  1
  Cs  Cs3  1  0.491740  0.518425  0.221709  1
  Cs  Cs4  1  0.653878  0.204028  0.034265  1
  Cs  Cs5  1  0.346122  0.704028  0.465735  1
  Cs  Cs6  1  0.346122  0.795972  0.965735  1
  Cs  Cs7  1  0.653878  0.295972  0.534265  1
  Na  Na8  1  0.053890  0.099670  0.603824  1
  Na  Na9  1  0.950845  0.535622  0.315950  1
  Na  Na10  1  0.049155  0.035622  0.184050  1
  Na  Na11  1  0.053890  0.400330  0.103824  1
  Na  Na12  1  0.946110  0.900330  0.396176  1
  Na  Na13  1  0.946110  0.599670  0.896176  1
  Na  Na14  1  0.049155  0.464378  0.684050  1
  Na  Na15  1  0.950845  0.964378  0.815950  1
  Ge  Ge16  1  0.763357  0.597783  0.058813  1
  Ge  Ge17  1  0.188310  0.164830  0.012139  1
  Ge  Ge18  1  0.188310  0.335170  0.512139  1
  Ge  Ge19  1  0.811690  0.664830  0.487861  1
  Ge  Ge20  1  0.781519  0.689656  0.671065  1
  Ge  Ge21  1  0.218481  0.189656  0.828935  1
  Ge  Ge22  1  0.218481  0.310344  0.328935  1
  Ge  Ge23  1  0.781519  0.810344  0.171065  1
  Ge  Ge24  1  0.055294  0.776829  0.645561  1
  Ge  Ge25  1  0.236643  0.402217  0.941187  1
  Ge  Ge26  1  0.763357  0.902217  0.558813  1
  Ge  Ge27  1  0.055294  0.723171  0.145561  1
  Ge  Ge28  1  0.944706  0.223171  0.354439  1
  Ge  Ge29  1  0.944706  0.276829  0.854439  1
  Ge  Ge30  1  0.811690  0.835170  0.987861  1
  Ge  Ge31  1  0.236643  0.097783  0.441187  1
