# generated using pymatgen
data_ClO3
_symmetry_space_group_name_H-M   'P 1'
_cell_length_a   5.38460705
_cell_length_b   5.38460705
_cell_length_c   10.28609722
_cell_angle_alpha   82.22993376
_cell_angle_beta   97.77006624
_cell_angle_gamma   64.88929963
_symmetry_Int_Tables_number   1
_chemical_formula_structural   ClO3
_chemical_formula_sum   'Cl4 O12'
_cell_volume   261.33298828
_cell_formula_units_Z   4
loop_
 _symmetry_equiv_pos_site_id
 _symmetry_equiv_pos_as_xyz
  1  'x, y, z'
loop_
 _atom_site_type_symbol
 _atom_site_label
 _atom_site_symmetry_multiplicity
 _atom_site_fract_x
 _atom_site_fract_y
 _atom_site_fract_z
 _atom_site_occupancy
  Cl  Cl0  1  0.322375  0.813605  0.858204  1
  Cl  Cl1  1  0.186395  0.677625  0.358204  1
  Cl  Cl2  1  0.685857  0.190930  0.623424  1
  Cl  Cl3  1  0.809070  0.314143  0.123424  1
  O  O4  1  0.531821  0.581234  0.817166  1
  O  O5  1  0.418766  0.468179  0.317166  1
  O  O6  1  0.040392  0.829195  0.815508  1
  O  O7  1  0.170805  0.959608  0.315508  1
  O  O8  1  0.010902  0.354672  0.056300  1
  O  O9  1  0.645328  0.989098  0.556300  1
  O  O10  1  0.697662  0.133188  0.078142  1
  O  O11  1  0.866812  0.302338  0.578142  1
  O  O12  1  0.237954  0.615981  0.507006  1
  O  O13  1  0.384019  0.762046  0.007006  1
  O  O14  1  0.922038  0.683997  0.302650  1
  O  O15  1  0.316003  0.077962  0.802650  1
