# generated using pymatgen
data_P2Pb2O7
_symmetry_space_group_name_H-M   'P 1'
_cell_length_a   7.08867565
_cell_length_b   7.16108287
_cell_length_c   12.97486561
_cell_angle_alpha   95.94984634
_cell_angle_beta   90.69641049
_cell_angle_gamma   90.60886070
_symmetry_Int_Tables_number   1
_chemical_formula_structural   P2Pb2O7
_chemical_formula_sum   'P8 Pb8 O28'
_cell_volume   654.99458421
_cell_formula_units_Z   4
loop_
 _symmetry_equiv_pos_site_id
 _symmetry_equiv_pos_as_xyz
  1  'x, y, z'
loop_
 _atom_site_type_symbol
 _atom_site_label
 _atom_site_symmetry_multiplicity
 _atom_site_fract_x
 _atom_site_fract_y
 _atom_site_fract_z
 _atom_site_occupancy
  P  P0  1  0.410930  0.713235  0.900280  1
  P  P1  1  0.589070  0.286765  0.099720  1
  P  P2  1  0.168878  0.698060  0.087761  1
  P  P3  1  0.831122  0.301940  0.912239  1
  P  P4  1  0.818709  0.694564  0.592054  1
  P  P5  1  0.181291  0.305436  0.407946  1
  P  P6  1  0.766887  0.887561  0.400453  1
  P  P7  1  0.233113  0.112439  0.599547  1
  Pb  Pb8  1  0.352373  0.622774  0.631621  1
  Pb  Pb9  1  0.647627  0.377226  0.368379  1
  Pb  Pb10  1  0.907374  0.806871  0.857606  1
  Pb  Pb11  1  0.092626  0.193129  0.142394  1
  Pb  Pb12  1  0.325327  0.213289  0.859248  1
  Pb  Pb13  1  0.674673  0.786711  0.140752  1
  Pb  Pb14  1  0.752355  0.188916  0.645911  1
  Pb  Pb15  1  0.247645  0.811084  0.354089  1
  O  O16  1  0.445888  0.549556  0.817674  1
  O  O17  1  0.554112  0.450444  0.182326  1
  O  O18  1  0.592635  0.795000  0.954035  1
  O  O19  1  0.407365  0.205000  0.045965  1
  O  O20  1  0.284070  0.862713  0.858688  1
  O  O21  1  0.715930  0.137287  0.141312  1
  O  O22  1  0.290307  0.613529  0.987522  1
  O  O23  1  0.709693  0.386471  0.012478  1
  O  O24  1  0.305650  0.826489  0.157655  1
  O  O25  1  0.694350  0.173511  0.842345  1
  O  O26  1  0.094092  0.530483  0.137967  1
  O  O27  1  0.905908  0.469517  0.862033  1
  O  O28  1  0.007732  0.816444  0.046607  1
  O  O29  1  0.992268  0.183556  0.953393  1
  O  O30  1  0.689782  0.523460  0.555863  1
  O  O31  1  0.310218  0.476540  0.444137  1
  O  O32  1  0.092041  0.095382  0.686583  1
  O  O33  1  0.907959  0.904618  0.313417  1
  O  O34  1  0.398823  0.243776  0.638409  1
  O  O35  1  0.601177  0.756224  0.361591  1
  O  O36  1  0.296821  0.924994  0.543940  1
  O  O37  1  0.703179  0.075006  0.456060  1
  O  O38  1  0.112845  0.219094  0.513795  1
  O  O39  1  0.887155  0.780906  0.486205  1
  O  O40  1  0.003665  0.359160  0.351942  1
  O  O41  1  0.996335  0.640840  0.648058  1
  O  O42  1  0.298298  0.154447  0.344318  1
  O  O43  1  0.701702  0.845553  0.655682  1
