# generated using pymatgen
data_Na4Ge2Se5
_symmetry_space_group_name_H-M   'P 1'
_cell_length_a   7.16730121
_cell_length_b   8.22953534
_cell_length_c   10.81907687
_cell_angle_alpha   73.50704206
_cell_angle_beta   70.76698694
_cell_angle_gamma   81.72918416
_symmetry_Int_Tables_number   1
_chemical_formula_structural   Na4Ge2Se5
_chemical_formula_sum   'Na8 Ge4 Se10'
_cell_volume   576.84563839
_cell_formula_units_Z   2
loop_
 _symmetry_equiv_pos_site_id
 _symmetry_equiv_pos_as_xyz
  1  'x, y, z'
loop_
 _atom_site_type_symbol
 _atom_site_label
 _atom_site_symmetry_multiplicity
 _atom_site_fract_x
 _atom_site_fract_y
 _atom_site_fract_z
 _atom_site_occupancy
  Na  Na0  1  0.205761  0.000888  0.594157  1
  Na  Na1  1  0.794239  0.999112  0.405843  1
  Na  Na2  1  0.909641  0.521342  0.683189  1
  Na  Na3  1  0.090359  0.478658  0.316811  1
  Na  Na4  1  0.500000  0.500000  0.500000  1
  Na  Na5  1  0.000000  0.000000  0.000000  1
  Na  Na6  1  0.272871  0.490695  0.896493  1
  Na  Na7  1  0.727129  0.509305  0.103507  1
  Ge  Ge8  1  0.425234  0.844916  0.229768  1
  Ge  Ge9  1  0.574766  0.155084  0.770232  1
  Ge  Ge10  1  0.382676  0.158047  0.166166  1
  Ge  Ge11  1  0.617324  0.841953  0.833834  1
  Se  Se12  1  0.059643  0.246671  0.154791  1
  Se  Se13  1  0.940357  0.753329  0.845209  1
  Se  Se14  1  0.643143  0.254854  0.947311  1
  Se  Se15  1  0.356857  0.745146  0.052689  1
  Se  Se16  1  0.836735  0.249866  0.571216  1
  Se  Se17  1  0.163265  0.750134  0.428784  1
  Se  Se18  1  0.535965  0.745316  0.673814  1
  Se  Se19  1  0.464035  0.254684  0.326186  1
  Se  Se20  1  0.259643  0.246489  0.744628  1
  Se  Se21  1  0.740357  0.753511  0.255372  1
