# generated using pymatgen
data_Ba(YS2)2
_symmetry_space_group_name_H-M   'P 1'
_cell_length_a   4.06147963
_cell_length_b   12.33171943
_cell_length_c   14.60256593
_cell_angle_alpha   90.00000000
_cell_angle_beta   90.00000000
_cell_angle_gamma   90.00000000
_symmetry_Int_Tables_number   1
_chemical_formula_structural   Ba(YS2)2
_chemical_formula_sum   'Ba4 Y8 S16'
_cell_volume   731.36991278
_cell_formula_units_Z   4
loop_
 _symmetry_equiv_pos_site_id
 _symmetry_equiv_pos_as_xyz
  1  'x, y, z'
loop_
 _atom_site_type_symbol
 _atom_site_label
 _atom_site_symmetry_multiplicity
 _atom_site_fract_x
 _atom_site_fract_y
 _atom_site_fract_z
 _atom_site_occupancy
  Ba  Ba0  1  0.250000  0.257796  0.161845  1
  Ba  Ba1  1  0.750000  0.742204  0.838155  1
  Ba  Ba2  1  0.250000  0.757796  0.338155  1
  Ba  Ba3  1  0.750000  0.242204  0.661845  1
  Y  Y4  1  0.250000  0.421417  0.898389  1
  Y  Y5  1  0.750000  0.578583  0.101611  1
  Y  Y6  1  0.250000  0.921417  0.601611  1
  Y  Y7  1  0.750000  0.078583  0.398389  1
  Y  Y8  1  0.250000  0.432731  0.391411  1
  Y  Y9  1  0.750000  0.567269  0.608589  1
  Y  Y10  1  0.250000  0.932731  0.108589  1
  Y  Y11  1  0.750000  0.067269  0.891411  1
  S  S12  1  0.750000  0.292810  0.336181  1
  S  S13  1  0.250000  0.707190  0.663819  1
  S  S14  1  0.750000  0.792810  0.163819  1
  S  S15  1  0.250000  0.207190  0.836181  1
  S  S16  1  0.750000  0.375647  0.023212  1
  S  S17  1  0.250000  0.624353  0.976788  1
  S  S18  1  0.750000  0.875647  0.476788  1
  S  S19  1  0.250000  0.124353  0.523212  1
  S  S20  1  0.250000  0.418850  0.576964  1
  S  S21  1  0.750000  0.581150  0.423036  1
  S  S22  1  0.250000  0.918850  0.923036  1
  S  S23  1  0.750000  0.081150  0.076964  1
  S  S24  1  0.250000  0.022269  0.283210  1
  S  S25  1  0.750000  0.977731  0.716790  1
  S  S26  1  0.250000  0.522269  0.216790  1
  S  S27  1  0.750000  0.477731  0.783210  1
