# generated using pymatgen
data_CsBrO4
_symmetry_space_group_name_H-M   'P 1'
_cell_length_a   8.64300598
_cell_length_b   8.64300598
_cell_length_c   8.64300598
_cell_angle_alpha   140.27634872
_cell_angle_beta   140.27634872
_cell_angle_gamma   57.43394202
_symmetry_Int_Tables_number   1
_chemical_formula_structural   CsBrO4
_chemical_formula_sum   'Cs2 Br2 O8'
_cell_volume   261.44631456
_cell_formula_units_Z   2
loop_
 _symmetry_equiv_pos_site_id
 _symmetry_equiv_pos_as_xyz
  1  'x, y, z'
loop_
 _atom_site_type_symbol
 _atom_site_label
 _atom_site_symmetry_multiplicity
 _atom_site_fract_x
 _atom_site_fract_y
 _atom_site_fract_z
 _atom_site_occupancy
  Cs  Cs0  1  0.000000  0.000000  0.000000  1
  Cs  Cs1  1  0.750000  0.250000  0.500000  1
  Br  Br2  1  0.500000  0.500000  0.000000  1
  Br  Br3  1  0.250000  0.750000  0.500000  1
  O  O4  1  0.561691  0.329849  0.768158  1
  O  O5  1  0.079849  0.811691  0.268158  1
  O  O6  1  0.543533  0.811691  0.731842  1
  O  O7  1  0.561691  0.793533  0.231842  1
  O  O8  1  0.188309  0.456467  0.268158  1
  O  O9  1  0.206467  0.438309  0.768158  1
  O  O10  1  0.670151  0.438309  0.231842  1
  O  O11  1  0.188309  0.920151  0.731842  1
