# generated using pymatgen
data_HgTeO3
_symmetry_space_group_name_H-M   'P 1'
_cell_length_a   6.31405151
_cell_length_b   7.62245892
_cell_length_c   7.68384284
_cell_angle_alpha   94.18603673
_cell_angle_beta   113.69548614
_cell_angle_gamma   92.18243528
_symmetry_Int_Tables_number   1
_chemical_formula_structural   HgTeO3
_chemical_formula_sum   'Hg4 Te4 O12'
_cell_volume   336.81040163
_cell_formula_units_Z   4
loop_
 _symmetry_equiv_pos_site_id
 _symmetry_equiv_pos_as_xyz
  1  'x, y, z'
loop_
 _atom_site_type_symbol
 _atom_site_label
 _atom_site_symmetry_multiplicity
 _atom_site_fract_x
 _atom_site_fract_y
 _atom_site_fract_z
 _atom_site_occupancy
  Hg  Hg0  1  0.054812  0.719355  0.848561  1
  Hg  Hg1  1  0.945188  0.280645  0.151439  1
  Hg  Hg2  1  0.562779  0.940857  0.766376  1
  Hg  Hg3  1  0.437221  0.059143  0.233624  1
  Te  Te4  1  0.468549  0.515685  0.238825  1
  Te  Te5  1  0.531451  0.484315  0.761175  1
  Te  Te6  1  0.005038  0.852131  0.321585  1
  Te  Te7  1  0.994962  0.147869  0.678415  1
  O  O8  1  0.745660  0.543473  0.018125  1
  O  O9  1  0.254340  0.456527  0.981875  1
  O  O10  1  0.736272  0.561016  0.650030  1
  O  O11  1  0.263728  0.438984  0.349970  1
  O  O12  1  0.365136  0.698859  0.724086  1
  O  O13  1  0.634864  0.301141  0.275914  1
  O  O14  1  0.227160  0.821236  0.197190  1
  O  O15  1  0.772840  0.178764  0.802810  1
  O  O16  1  0.196694  0.008948  0.863512  1
  O  O17  1  0.803306  0.991052  0.136488  1
  O  O18  1  0.202763  0.045393  0.485027  1
  O  O19  1  0.797237  0.954607  0.514973  1
