# generated using pymatgen
data_Na3CuO3
_symmetry_space_group_name_H-M   'P 1'
_cell_length_a   8.22557136
_cell_length_b   8.22557136
_cell_length_c   16.49822854
_cell_angle_alpha   90.00000000
_cell_angle_beta   90.00000000
_cell_angle_gamma   95.73050800
_symmetry_Int_Tables_number   1
_chemical_formula_structural   Na3CuO3
_chemical_formula_sum   'Na36 Cu12 O36'
_cell_volume   1110.69202978
_cell_formula_units_Z   12
loop_
 _symmetry_equiv_pos_site_id
 _symmetry_equiv_pos_as_xyz
  1  'x, y, z'
loop_
 _atom_site_type_symbol
 _atom_site_label
 _atom_site_symmetry_multiplicity
 _atom_site_fract_x
 _atom_site_fract_y
 _atom_site_fract_z
 _atom_site_occupancy
  Na  Na0  1  0.975233  0.024767  0.220019  1
  Na  Na1  1  0.524767  0.475233  0.720019  1
  Na  Na2  1  0.024767  0.975233  0.779981  1
  Na  Na3  1  0.475233  0.524767  0.279981  1
  Na  Na4  1  0.832556  0.667444  0.250000  1
  Na  Na5  1  0.667444  0.832556  0.750000  1
  Na  Na6  1  0.167444  0.332556  0.750000  1
  Na  Na7  1  0.332556  0.167444  0.250000  1
  Na  Na8  1  0.172142  0.827858  0.280325  1
  Na  Na9  1  0.327858  0.672142  0.780325  1
  Na  Na10  1  0.827858  0.172142  0.719675  1
  Na  Na11  1  0.672142  0.327858  0.219675  1
  Na  Na12  1  0.979654  0.626078  0.429495  1
  Na  Na13  1  0.520346  0.873922  0.929495  1
  Na  Na14  1  0.626078  0.979654  0.570505  1
  Na  Na15  1  0.873922  0.520346  0.070505  1
  Na  Na16  1  0.020346  0.373922  0.570505  1
  Na  Na17  1  0.479654  0.126078  0.070505  1
  Na  Na18  1  0.373922  0.020346  0.429495  1
  Na  Na19  1  0.126078  0.479654  0.929495  1
  Na  Na20  1  0.730041  0.677550  0.587165  1
  Na  Na21  1  0.769959  0.822450  0.087165  1
  Na  Na22  1  0.677550  0.730041  0.412835  1
  Na  Na23  1  0.822450  0.769959  0.912835  1
  Na  Na24  1  0.269959  0.322450  0.412835  1
  Na  Na25  1  0.230041  0.177550  0.912835  1
  Na  Na26  1  0.322450  0.269959  0.587165  1
  Na  Na27  1  0.177550  0.230041  0.087165  1
  Na  Na28  1  0.017382  0.662658  0.685416  1
  Na  Na29  1  0.482618  0.837342  0.185416  1
  Na  Na30  1  0.662658  0.017382  0.314584  1
  Na  Na31  1  0.837342  0.482618  0.814584  1
  Na  Na32  1  0.982618  0.337342  0.314584  1
  Na  Na33  1  0.517382  0.162658  0.814584  1
  Na  Na34  1  0.337342  0.982618  0.685416  1
  Na  Na35  1  0.162658  0.517382  0.185416  1
  Cu  Cu36  1  0.652214  0.347786  0.421705  1
  Cu  Cu37  1  0.847786  0.152214  0.921705  1
  Cu  Cu38  1  0.347786  0.652214  0.578295  1
  Cu  Cu39  1  0.152214  0.847786  0.078295  1
  Cu  Cu40  1  0.671639  0.328361  0.591054  1
  Cu  Cu41  1  0.828361  0.171639  0.091054  1
  Cu  Cu42  1  0.328361  0.671639  0.408946  1
  Cu  Cu43  1  0.171639  0.828361  0.908946  1
  Cu  Cu44  1  0.000866  0.999134  0.415854  1
  Cu  Cu45  1  0.499134  0.500866  0.915854  1
  Cu  Cu46  1  0.999134  0.000866  0.584146  1
  Cu  Cu47  1  0.500866  0.499134  0.084146  1
  O  O48  1  0.759088  0.481267  0.345794  1
  O  O49  1  0.740912  0.018733  0.845794  1
  O  O50  1  0.481267  0.759088  0.654206  1
  O  O51  1  0.018733  0.740912  0.154206  1
  O  O52  1  0.240912  0.518733  0.654206  1
  O  O53  1  0.259088  0.981267  0.154206  1
  O  O54  1  0.518733  0.240912  0.345794  1
  O  O55  1  0.981267  0.259088  0.845794  1
  O  O56  1  0.775543  0.451230  0.506322  1
  O  O57  1  0.724457  0.048770  0.006322  1
  O  O58  1  0.451230  0.775543  0.493678  1
  O  O59  1  0.048770  0.724457  0.993678  1
  O  O60  1  0.224457  0.548770  0.493678  1
  O  O61  1  0.275543  0.951230  0.993678  1
  O  O62  1  0.548770  0.224457  0.506322  1
  O  O63  1  0.951230  0.275543  0.006322  1
  O  O64  1  0.802393  0.444856  0.667998  1
  O  O65  1  0.697607  0.055144  0.167998  1
  O  O66  1  0.444856  0.802393  0.332002  1
  O  O67  1  0.055144  0.697607  0.832002  1
  O  O68  1  0.197607  0.555144  0.332002  1
  O  O69  1  0.302393  0.944856  0.832002  1
  O  O70  1  0.555144  0.197607  0.667998  1
  O  O71  1  0.944856  0.302393  0.167998  1
  O  O72  1  0.884514  0.884514  0.500000  1
  O  O73  1  0.615486  0.615486  1.000000  1
  O  O74  1  0.115486  0.115486  0.500000  1
  O  O75  1  0.384514  0.384514  1.000000  1
  O  O76  1  0.888685  0.872035  0.338849  1
  O  O77  1  0.611315  0.627965  0.838849  1
  O  O78  1  0.872035  0.888685  0.661151  1
  O  O79  1  0.627965  0.611315  0.161151  1
  O  O80  1  0.111315  0.127965  0.661151  1
  O  O81  1  0.388685  0.372035  0.161151  1
  O  O82  1  0.127965  0.111315  0.338849  1
  O  O83  1  0.372035  0.388685  0.838849  1
