# generated using pymatgen
data_Ba3(Si2P3)2
_symmetry_space_group_name_H-M   'P 1'
_cell_length_a   7.59289596
_cell_length_b   7.37054213
_cell_length_c   11.64204366
_cell_angle_alpha   90.00000000
_cell_angle_beta   99.38075421
_cell_angle_gamma   90.00000000
_symmetry_Int_Tables_number   1
_chemical_formula_structural   Ba3(Si2P3)2
_chemical_formula_sum   'Ba6 Si8 P12'
_cell_volume   642.81956657
_cell_formula_units_Z   2
loop_
 _symmetry_equiv_pos_site_id
 _symmetry_equiv_pos_as_xyz
  1  'x, y, z'
loop_
 _atom_site_type_symbol
 _atom_site_label
 _atom_site_symmetry_multiplicity
 _atom_site_fract_x
 _atom_site_fract_y
 _atom_site_fract_z
 _atom_site_occupancy
  Ba  Ba0  1  0.501802  0.750000  0.507476  1
  Ba  Ba1  1  0.498198  0.250000  0.492524  1
  Ba  Ba2  1  0.912278  0.750000  0.148071  1
  Ba  Ba3  1  0.087722  0.250000  0.851929  1
  Ba  Ba4  1  0.407923  0.750000  0.135838  1
  Ba  Ba5  1  0.592077  0.250000  0.864162  1
  Si  Si6  1  0.977170  0.421456  0.409348  1
  Si  Si7  1  0.022830  0.921456  0.590652  1
  Si  Si8  1  0.022830  0.578544  0.590652  1
  Si  Si9  1  0.977170  0.078544  0.409348  1
  Si  Si10  1  0.325561  0.750000  0.796712  1
  Si  Si11  1  0.177274  0.250000  0.203402  1
  Si  Si12  1  0.674439  0.250000  0.203288  1
  Si  Si13  1  0.822726  0.750000  0.796598  1
  P  P14  1  0.206732  0.001299  0.317885  1
  P  P15  1  0.793268  0.501299  0.682115  1
  P  P16  1  0.396465  0.250000  0.087413  1
  P  P17  1  0.603535  0.750000  0.912587  1
  P  P18  1  0.897300  0.250000  0.087293  1
  P  P19  1  0.102700  0.750000  0.912707  1
  P  P20  1  0.702132  0.498816  0.317804  1
  P  P21  1  0.297868  0.998816  0.682196  1
  P  P22  1  0.297868  0.501184  0.682196  1
  P  P23  1  0.702132  0.001184  0.317804  1
  P  P24  1  0.206732  0.498701  0.317885  1
  P  P25  1  0.793268  0.998701  0.682115  1
