# generated using pymatgen
data_KGe
_symmetry_space_group_name_H-M   'P 1'
_cell_length_a   12.92490944
_cell_length_b   12.92490944
_cell_length_c   12.92490944
_cell_angle_alpha   90.00000000
_cell_angle_beta   90.00000000
_cell_angle_gamma   90.00000000
_symmetry_Int_Tables_number   1
_chemical_formula_structural   KGe
_chemical_formula_sum   'K32 Ge32'
_cell_volume   2159.14856777
_cell_formula_units_Z   32
loop_
 _symmetry_equiv_pos_site_id
 _symmetry_equiv_pos_as_xyz
  1  'x, y, z'
loop_
 _atom_site_type_symbol
 _atom_site_label
 _atom_site_symmetry_multiplicity
 _atom_site_fract_x
 _atom_site_fract_y
 _atom_site_fract_z
 _atom_site_occupancy
  K  K0  1  0.837633  0.567107  0.639196  1
  K  K1  1  0.837633  0.432893  0.360804  1
  K  K2  1  0.567107  0.639196  0.837633  1
  K  K3  1  0.432893  0.639196  0.162367  1
  K  K4  1  0.639196  0.837633  0.567107  1
  K  K5  1  0.360804  0.162367  0.567107  1
  K  K6  1  0.662367  0.860804  0.067107  1
  K  K7  1  0.662367  0.139196  0.932893  1
  K  K8  1  0.337633  0.860804  0.932893  1
  K  K9  1  0.139196  0.932893  0.662367  1
  K  K10  1  0.932893  0.337633  0.860804  1
  K  K11  1  0.932893  0.662367  0.139196  1
  K  K12  1  0.860804  0.067107  0.662367  1
  K  K13  1  0.067107  0.662367  0.860804  1
  K  K14  1  0.860804  0.932893  0.337633  1
  K  K15  1  0.334861  0.334861  0.334861  1
  K  K16  1  0.067107  0.337633  0.139196  1
  K  K17  1  0.360804  0.837633  0.432893  1
  K  K18  1  0.639196  0.162367  0.432893  1
  K  K19  1  0.567107  0.360804  0.162367  1
  K  K20  1  0.432893  0.360804  0.837633  1
  K  K21  1  0.162367  0.432893  0.639196  1
  K  K22  1  0.162367  0.567107  0.360804  1
  K  K23  1  0.337633  0.139196  0.067107  1
  K  K24  1  0.834861  0.834861  0.834861  1
  K  K25  1  0.665139  0.334861  0.665139  1
  K  K26  1  0.334861  0.665139  0.665139  1
  K  K27  1  0.665139  0.665139  0.334861  1
  K  K28  1  0.834861  0.165139  0.165139  1
  K  K29  1  0.165139  0.165139  0.834861  1
  K  K30  1  0.165139  0.834861  0.165139  1
  K  K31  1  0.139196  0.067107  0.337633  1
  Ge  Ge32  1  0.422300  0.065206  0.320308  1
  Ge  Ge33  1  0.565206  0.077700  0.179692  1
  Ge  Ge34  1  0.922300  0.820308  0.565206  1
  Ge  Ge35  1  0.077700  0.820308  0.434794  1
  Ge  Ge36  1  0.820308  0.565206  0.922300  1
  Ge  Ge37  1  0.179692  0.434794  0.922300  1
  Ge  Ge38  1  0.934794  0.679692  0.422300  1
  Ge  Ge39  1  0.934794  0.320308  0.577700  1
  Ge  Ge40  1  0.065206  0.679692  0.577700  1
  Ge  Ge41  1  0.320308  0.577700  0.934794  1
  Ge  Ge42  1  0.577700  0.065206  0.679692  1
  Ge  Ge43  1  0.577700  0.934794  0.320308  1
  Ge  Ge44  1  0.679692  0.422300  0.934794  1
  Ge  Ge45  1  0.422300  0.934794  0.679692  1
  Ge  Ge46  1  0.679692  0.577700  0.065206  1
  Ge  Ge47  1  0.320308  0.422300  0.065206  1
  Ge  Ge48  1  0.565206  0.922300  0.820308  1
  Ge  Ge49  1  0.179692  0.565206  0.077700  1
  Ge  Ge50  1  0.820308  0.434794  0.077700  1
  Ge  Ge51  1  0.922300  0.179692  0.434794  1
  Ge  Ge52  1  0.077700  0.179692  0.565206  1
  Ge  Ge53  1  0.434794  0.077700  0.820308  1
  Ge  Ge54  1  0.434794  0.922300  0.179692  1
  Ge  Ge55  1  0.065206  0.320308  0.422300  1
  Ge  Ge56  1  0.571228  0.571228  0.571228  1
  Ge  Ge57  1  0.928772  0.071228  0.928772  1
  Ge  Ge58  1  0.071228  0.928772  0.928772  1
  Ge  Ge59  1  0.928772  0.928772  0.071228  1
  Ge  Ge60  1  0.571228  0.428772  0.428772  1
  Ge  Ge61  1  0.428772  0.428772  0.571228  1
  Ge  Ge62  1  0.428772  0.571228  0.428772  1
  Ge  Ge63  1  0.071228  0.071228  0.071228  1
