# generated using pymatgen
data_ReCl3
_symmetry_space_group_name_H-M   'P 1'
_cell_length_a   9.39364006
_cell_length_b   9.39364006
_cell_length_c   9.39364006
_cell_angle_alpha   67.63900940
_cell_angle_beta   67.63900940
_cell_angle_gamma   67.63900940
_symmetry_Int_Tables_number   1
_chemical_formula_structural   ReCl3
_chemical_formula_sum   'Re6 Cl18'
_cell_volume   681.47452432
_cell_formula_units_Z   6
loop_
 _symmetry_equiv_pos_site_id
 _symmetry_equiv_pos_as_xyz
  1  'x, y, z'
loop_
 _atom_site_type_symbol
 _atom_site_label
 _atom_site_symmetry_multiplicity
 _atom_site_fract_x
 _atom_site_fract_y
 _atom_site_fract_z
 _atom_site_occupancy
  Re  Re0  1  0.879061  0.644657  0.644657  1
  Re  Re1  1  0.644657  0.644657  0.879061  1
  Re  Re2  1  0.644657  0.879061  0.644657  1
  Re  Re3  1  0.355343  0.120939  0.355343  1
  Re  Re4  1  0.120939  0.355343  0.355343  1
  Re  Re5  1  0.355343  0.355343  0.120939  1
  Cl  Cl6  1  0.413282  0.875965  0.875965  1
  Cl  Cl7  1  0.875965  0.875965  0.413282  1
  Cl  Cl8  1  0.875965  0.413282  0.875965  1
  Cl  Cl9  1  0.124035  0.586718  0.124035  1
  Cl  Cl10  1  0.586718  0.124035  0.124035  1
  Cl  Cl11  1  0.124035  0.124035  0.586718  1
  Cl  Cl12  1  0.492371  0.492371  0.171691  1
  Cl  Cl13  1  0.171691  0.492371  0.492371  1
  Cl  Cl14  1  0.492371  0.171691  0.492371  1
  Cl  Cl15  1  0.507629  0.828309  0.507629  1
  Cl  Cl16  1  0.507629  0.507629  0.828309  1
  Cl  Cl17  1  0.828309  0.507629  0.507629  1
  Cl  Cl18  1  0.277861  0.277861  0.967949  1
  Cl  Cl19  1  0.967949  0.277861  0.277861  1
  Cl  Cl20  1  0.277861  0.967949  0.277861  1
  Cl  Cl21  1  0.722139  0.032051  0.722139  1
  Cl  Cl22  1  0.722139  0.722139  0.032051  1
  Cl  Cl23  1  0.032051  0.722139  0.722139  1
