# generated using pymatgen
data_NaFe(GeO3)2
_symmetry_space_group_name_H-M   'P 1'
_cell_length_a   6.81122341
_cell_length_b   6.81122341
_cell_length_c   5.59431607
_cell_angle_alpha   76.76729711
_cell_angle_beta   103.23270289
_cell_angle_gamma   96.91003999
_symmetry_Int_Tables_number   1
_chemical_formula_structural   NaFe(GeO3)2
_chemical_formula_sum   'Na2 Fe2 Ge4 O12'
_cell_volume   245.30416689
_cell_formula_units_Z   2
loop_
 _symmetry_equiv_pos_site_id
 _symmetry_equiv_pos_as_xyz
  1  'x, y, z'
loop_
 _atom_site_type_symbol
 _atom_site_label
 _atom_site_symmetry_multiplicity
 _atom_site_fract_x
 _atom_site_fract_y
 _atom_site_fract_z
 _atom_site_occupancy
  Na  Na0  1  0.299978  0.299978  0.250000  1
  Na  Na1  1  0.700022  0.700022  0.750000  1
  Fe  Fe2  1  0.902850  0.902850  0.250000  1
  Fe  Fe3  1  0.097150  0.097150  0.750000  1
  Ge  Ge4  1  0.806140  0.379947  0.273777  1
  Ge  Ge5  1  0.379947  0.806140  0.226223  1
  Ge  Ge6  1  0.193860  0.620053  0.726223  1
  Ge  Ge7  1  0.620053  0.193860  0.773777  1
  O  O8  1  0.910435  0.627967  0.202107  1
  O  O9  1  0.627967  0.910435  0.297893  1
  O  O10  1  0.089565  0.372033  0.797893  1
  O  O11  1  0.372033  0.089565  0.702107  1
  O  O12  1  0.974762  0.184962  0.370967  1
  O  O13  1  0.184962  0.974762  0.129033  1
  O  O14  1  0.025238  0.815038  0.629033  1
  O  O15  1  0.815038  0.025238  0.870967  1
  O  O16  1  0.644291  0.365661  0.485436  1
  O  O17  1  0.365661  0.644291  0.014564  1
  O  O18  1  0.355709  0.634339  0.514564  1
  O  O19  1  0.634339  0.355709  0.985436  1
