# generated using pymatgen
data_CuSe3Br
_symmetry_space_group_name_H-M   'P 1'
_cell_length_a   4.98798061
_cell_length_b   7.58663837
_cell_length_c   14.47831713
_cell_angle_alpha   90.00000000
_cell_angle_beta   90.00000000
_cell_angle_gamma   90.00000000
_symmetry_Int_Tables_number   1
_chemical_formula_structural   CuSe3Br
_chemical_formula_sum   'Cu4 Se12 Br4'
_cell_volume   547.88855045
_cell_formula_units_Z   4
loop_
 _symmetry_equiv_pos_site_id
 _symmetry_equiv_pos_as_xyz
  1  'x, y, z'
loop_
 _atom_site_type_symbol
 _atom_site_label
 _atom_site_symmetry_multiplicity
 _atom_site_fract_x
 _atom_site_fract_y
 _atom_site_fract_z
 _atom_site_occupancy
  Cu  Cu0  1  0.791728  0.750000  0.750000  1
  Cu  Cu1  1  0.208272  0.250000  0.750000  1
  Cu  Cu2  1  0.208272  0.250000  0.250000  1
  Cu  Cu3  1  0.791728  0.750000  0.250000  1
  Se  Se4  1  0.073667  0.655001  0.126351  1
  Se  Se5  1  0.926333  0.155001  0.626351  1
  Se  Se6  1  0.073667  0.844999  0.626351  1
  Se  Se7  1  0.817304  0.734557  0.500000  1
  Se  Se8  1  0.182696  0.234557  0.000000  1
  Se  Se9  1  0.817304  0.765443  0.000000  1
  Se  Se10  1  0.926333  0.155001  0.373649  1
  Se  Se11  1  0.182696  0.265443  0.500000  1
  Se  Se12  1  0.926333  0.344999  0.873649  1
  Se  Se13  1  0.073667  0.844999  0.373649  1
  Se  Se14  1  0.073667  0.655001  0.873649  1
  Se  Se15  1  0.926333  0.344999  0.126351  1
  Br  Br16  1  0.500000  0.000000  0.191508  1
  Br  Br17  1  0.500000  0.500000  0.308492  1
  Br  Br18  1  0.500000  0.000000  0.808492  1
  Br  Br19  1  0.500000  0.500000  0.691508  1
