# generated using pymatgen
data_Al2PdCl8
_symmetry_space_group_name_H-M   'P 1'
_cell_length_a   6.90793527
_cell_length_b   7.64163794
_cell_length_c   14.04285005
_cell_angle_alpha   90.00000000
_cell_angle_beta   99.17471638
_cell_angle_gamma   90.00000000
_symmetry_Int_Tables_number   1
_chemical_formula_structural   Al2PdCl8
_chemical_formula_sum   'Al4 Pd2 Cl16'
_cell_volume   731.80956040
_cell_formula_units_Z   2
loop_
 _symmetry_equiv_pos_site_id
 _symmetry_equiv_pos_as_xyz
  1  'x, y, z'
loop_
 _atom_site_type_symbol
 _atom_site_label
 _atom_site_symmetry_multiplicity
 _atom_site_fract_x
 _atom_site_fract_y
 _atom_site_fract_z
 _atom_site_occupancy
  Al  Al0  1  0.667402  0.275933  0.899467  1
  Al  Al1  1  0.667402  0.224067  0.399467  1
  Al  Al2  1  0.332598  0.724067  0.100533  1
  Al  Al3  1  0.332598  0.775933  0.600533  1
  Pd  Pd4  1  0.000000  0.500000  0.500000  1
  Pd  Pd5  1  0.000000  0.000000  0.000000  1
  Cl  Cl6  1  0.372809  0.219917  0.421640  1
  Cl  Cl7  1  0.627191  0.719917  0.078360  1
  Cl  Cl8  1  0.868816  0.266375  0.041497  1
  Cl  Cl9  1  0.131184  0.766375  0.458503  1
  Cl  Cl10  1  0.131184  0.733625  0.958503  1
  Cl  Cl11  1  0.868816  0.233625  0.541497  1
  Cl  Cl12  1  0.767760  0.010355  0.859072  1
  Cl  Cl13  1  0.232240  0.510355  0.640928  1
  Cl  Cl14  1  0.232240  0.989645  0.140928  1
  Cl  Cl15  1  0.767760  0.489645  0.359072  1
  Cl  Cl16  1  0.747882  0.466651  0.805229  1
  Cl  Cl17  1  0.252118  0.966651  0.694771  1
  Cl  Cl18  1  0.252118  0.533349  0.194771  1
  Cl  Cl19  1  0.747882  0.033349  0.305229  1
  Cl  Cl20  1  0.372809  0.280083  0.921640  1
  Cl  Cl21  1  0.627191  0.780083  0.578360  1
