# generated using pymatgen
data_SiCl2O
_symmetry_space_group_name_H-M   'P 1'
_cell_length_a   6.43486970
_cell_length_b   8.53550728
_cell_length_c   8.57305793
_cell_angle_alpha   77.12556893
_cell_angle_beta   81.95786492
_cell_angle_gamma   74.01536550
_symmetry_Int_Tables_number   1
_chemical_formula_structural   SiCl2O
_chemical_formula_sum   'Si4 Cl8 O4'
_cell_volume   439.73582909
_cell_formula_units_Z   4
loop_
 _symmetry_equiv_pos_site_id
 _symmetry_equiv_pos_as_xyz
  1  'x, y, z'
loop_
 _atom_site_type_symbol
 _atom_site_label
 _atom_site_symmetry_multiplicity
 _atom_site_fract_x
 _atom_site_fract_y
 _atom_site_fract_z
 _atom_site_occupancy
  Si  Si0  1  0.103715  0.680768  0.107183  1
  Si  Si1  1  0.896285  0.319232  0.892817  1
  Si  Si2  1  0.979960  0.671688  0.757930  1
  Si  Si3  1  0.020040  0.328312  0.242070  1
  Cl  Cl4  1  0.759756  0.336282  0.406731  1
  Cl  Cl5  1  0.240244  0.663718  0.593269  1
  Cl  Cl6  1  0.731187  0.865494  0.678345  1
  Cl  Cl7  1  0.268813  0.134506  0.321655  1
  Cl  Cl8  1  0.115638  0.139939  0.792962  1
  Cl  Cl9  1  0.884362  0.860061  0.207038  1
  Cl  Cl10  1  0.594464  0.286421  0.898316  1
  Cl  Cl11  1  0.405536  0.713579  0.101684  1
  O  O12  1  0.953680  0.306639  0.073918  1
  O  O13  1  0.046320  0.693361  0.926082  1
  O  O14  1  0.903519  0.500383  0.784400  1
  O  O15  1  0.096481  0.499617  0.215600  1
