# generated using pymatgen
data_Ba5(SiN3)2
_symmetry_space_group_name_H-M   'P 1'
_cell_length_a   6.22596100
_cell_length_b   10.53724400
_cell_length_c   15.51737600
_cell_angle_alpha   90.00000000
_cell_angle_beta   90.00000000
_cell_angle_gamma   90.00000000
_symmetry_Int_Tables_number   1
_chemical_formula_structural   Ba5(SiN3)2
_chemical_formula_sum   'Ba20 Si8 N24'
_cell_volume   1018.00923124
_cell_formula_units_Z   4
loop_
 _symmetry_equiv_pos_site_id
 _symmetry_equiv_pos_as_xyz
  1  'x, y, z'
loop_
 _atom_site_type_symbol
 _atom_site_label
 _atom_site_symmetry_multiplicity
 _atom_site_fract_x
 _atom_site_fract_y
 _atom_site_fract_z
 _atom_site_occupancy
  Ba  Ba0  1  0.343137  0.537241  0.818419  1
  Ba  Ba1  1  0.843137  0.962759  0.181581  1
  Ba  Ba2  1  0.656863  0.037241  0.681581  1
  Ba  Ba3  1  0.156863  0.462759  0.318419  1
  Ba  Ba4  1  0.408026  0.865769  0.009254  1
  Ba  Ba5  1  0.908026  0.634231  0.990746  1
  Ba  Ba6  1  0.591974  0.365769  0.490746  1
  Ba  Ba7  1  0.091974  0.134231  0.509254  1
  Ba  Ba8  1  0.426037  0.473893  0.099567  1
  Ba  Ba9  1  0.926037  0.026107  0.900433  1
  Ba  Ba10  1  0.573963  0.973893  0.400433  1
  Ba  Ba11  1  0.073963  0.526107  0.599567  1
  Ba  Ba12  1  0.422629  0.206948  0.934812  1
  Ba  Ba13  1  0.922629  0.293052  0.065188  1
  Ba  Ba14  1  0.577371  0.706948  0.565188  1
  Ba  Ba15  1  0.077371  0.793052  0.434812  1
  Ba  Ba16  1  0.669398  0.258798  0.268782  1
  Ba  Ba17  1  0.169398  0.241202  0.731218  1
  Ba  Ba18  1  0.330602  0.758798  0.231218  1
  Ba  Ba19  1  0.830602  0.741202  0.768782  1
  Si  Si20  1  0.191956  0.135270  0.305283  1
  Si  Si21  1  0.691956  0.364730  0.694717  1
  Si  Si22  1  0.808044  0.635270  0.194717  1
  Si  Si23  1  0.308044  0.864730  0.805283  1
  Si  Si24  1  0.309051  0.120265  0.147071  1
  Si  Si25  1  0.809051  0.379735  0.852929  1
  Si  Si26  1  0.690949  0.620265  0.352929  1
  Si  Si27  1  0.190949  0.879735  0.647071  1
  N  N28  1  0.048174  0.573773  0.150669  1
  N  N29  1  0.548174  0.926227  0.849331  1
  N  N30  1  0.951826  0.073773  0.349331  1
  N  N31  1  0.451826  0.426227  0.650669  1
  N  N32  1  0.945935  0.819319  0.607161  1
  N  N33  1  0.445935  0.680681  0.392839  1
  N  N34  1  0.054065  0.319319  0.892839  1
  N  N35  1  0.554065  0.180681  0.107161  1
  N  N36  1  0.145510  0.978799  0.742835  1
  N  N37  1  0.645510  0.521201  0.257165  1
  N  N38  1  0.854490  0.478799  0.757165  1
  N  N39  1  0.354490  0.021201  0.242835  1
  N  N40  1  0.147898  0.057823  0.063619  1
  N  N41  1  0.647898  0.442177  0.936381  1
  N  N42  1  0.852102  0.557823  0.436381  1
  N  N43  1  0.352102  0.942177  0.563619  1
  N  N44  1  0.156384  0.235166  0.212249  1
  N  N45  1  0.656384  0.264834  0.787751  1
  N  N46  1  0.843616  0.735166  0.287751  1
  N  N47  1  0.343616  0.764834  0.712249  1
  N  N48  1  0.148341  0.790464  0.885230  1
  N  N49  1  0.648341  0.709536  0.114770  1
  N  N50  1  0.851659  0.290464  0.614770  1
  N  N51  1  0.351659  0.209536  0.385230  1
