# generated using pymatgen
data_TlP5
_symmetry_space_group_name_H-M   'P 1'
_cell_length_a   6.52119738
_cell_length_b   7.26356480
_cell_length_c   12.39594578
_cell_angle_alpha   90.00000000
_cell_angle_beta   90.00000000
_cell_angle_gamma   90.00000000
_symmetry_Int_Tables_number   1
_chemical_formula_structural   TlP5
_chemical_formula_sum   'Tl4 P20'
_cell_volume   587.16049601
_cell_formula_units_Z   4
loop_
 _symmetry_equiv_pos_site_id
 _symmetry_equiv_pos_as_xyz
  1  'x, y, z'
loop_
 _atom_site_type_symbol
 _atom_site_label
 _atom_site_symmetry_multiplicity
 _atom_site_fract_x
 _atom_site_fract_y
 _atom_site_fract_z
 _atom_site_occupancy
  Tl  Tl0  1  0.500000  0.031439  0.339857  1
  Tl  Tl1  1  0.500000  0.968561  0.839857  1
  Tl  Tl2  1  0.000000  0.775203  0.501132  1
  Tl  Tl3  1  0.000000  0.224797  0.001132  1
  P  P4  1  0.500000  0.357414  0.041940  1
  P  P5  1  0.500000  0.642586  0.541940  1
  P  P6  1  0.500000  0.390138  0.214788  1
  P  P7  1  0.500000  0.609862  0.714788  1
  P  P8  1  0.249269  0.228537  0.610408  1
  P  P9  1  0.750731  0.771463  0.110408  1
  P  P10  1  0.750731  0.228537  0.610408  1
  P  P11  1  0.249269  0.771463  0.110408  1
  P  P12  1  0.254092  0.411283  0.759571  1
  P  P13  1  0.745908  0.588717  0.259571  1
  P  P14  1  0.745908  0.411283  0.759571  1
  P  P15  1  0.254092  0.588717  0.259571  1
  P  P16  1  0.000000  0.612687  0.730390  1
  P  P17  1  0.000000  0.387313  0.230390  1
  P  P18  1  0.000000  0.812336  0.862446  1
  P  P19  1  0.000000  0.187664  0.362446  1
  P  P20  1  0.000000  0.642994  0.009851  1
  P  P21  1  0.000000  0.357006  0.509851  1
  P  P22  1  0.500000  0.347643  0.511338  1
  P  P23  1  0.500000  0.652357  0.011338  1
