# generated using pymatgen
data_CuAs2PbO7
_symmetry_space_group_name_H-M   'P 1'
_cell_length_a   5.70385671
_cell_length_b   8.51009662
_cell_length_c   14.19540659
_cell_angle_alpha   90.00000000
_cell_angle_beta   111.47745914
_cell_angle_gamma   90.00000000
_symmetry_Int_Tables_number   1
_chemical_formula_structural   CuAs2PbO7
_chemical_formula_sum   'Cu4 As8 Pb4 O28'
_cell_volume   641.20381807
_cell_formula_units_Z   4
loop_
 _symmetry_equiv_pos_site_id
 _symmetry_equiv_pos_as_xyz
  1  'x, y, z'
loop_
 _atom_site_type_symbol
 _atom_site_label
 _atom_site_symmetry_multiplicity
 _atom_site_fract_x
 _atom_site_fract_y
 _atom_site_fract_z
 _atom_site_occupancy
  Cu  Cu0  1  0.676090  0.365243  0.382399  1
  Cu  Cu1  1  0.323910  0.865243  0.117601  1
  Cu  Cu2  1  0.323910  0.634757  0.617601  1
  Cu  Cu3  1  0.676090  0.134757  0.882399  1
  As  As4  1  0.665555  0.689342  0.492737  1
  As  As5  1  0.334445  0.189342  0.007263  1
  As  As6  1  0.334445  0.310658  0.507263  1
  As  As7  1  0.665555  0.810658  0.992737  1
  As  As8  1  0.592419  0.973661  0.340638  1
  As  As9  1  0.407581  0.473661  0.159362  1
  As  As10  1  0.407581  0.026339  0.659362  1
  As  As11  1  0.592419  0.526339  0.840638  1
  Pb  Pb12  1  0.021296  0.182966  0.226413  1
  Pb  Pb13  1  0.978704  0.682966  0.273587  1
  Pb  Pb14  1  0.978704  0.817034  0.773587  1
  Pb  Pb15  1  0.021296  0.317034  0.726413  1
  O  O16  1  0.502857  0.663325  0.154148  1
  O  O17  1  0.497143  0.163325  0.345852  1
  O  O18  1  0.497143  0.336675  0.845852  1
  O  O19  1  0.502857  0.836675  0.654148  1
  O  O20  1  0.155306  0.453579  0.194862  1
  O  O21  1  0.844694  0.953579  0.305138  1
  O  O22  1  0.844694  0.546421  0.805138  1
  O  O23  1  0.155306  0.046421  0.694862  1
  O  O24  1  0.674006  0.379625  0.239376  1
  O  O25  1  0.325994  0.879625  0.260624  1
  O  O26  1  0.325994  0.620375  0.760624  1
  O  O27  1  0.674006  0.120375  0.739376  1
  O  O28  1  0.638475  0.150020  0.014987  1
  O  O29  1  0.361525  0.650020  0.485013  1
  O  O30  1  0.361525  0.849980  0.985013  1
  O  O31  1  0.638475  0.349980  0.514987  1
  O  O32  1  0.327747  0.103665  0.535569  1
  O  O33  1  0.672253  0.603665  0.964431  1
  O  O34  1  0.672253  0.896335  0.464431  1
  O  O35  1  0.327747  0.396335  0.035569  1
  O  O36  1  0.280477  0.403528  0.605616  1
  O  O37  1  0.719523  0.903528  0.894384  1
  O  O38  1  0.719523  0.596472  0.394384  1
  O  O39  1  0.280477  0.096472  0.105616  1
  O  O40  1  0.094521  0.175105  0.893819  1
  O  O41  1  0.905479  0.675105  0.606181  1
  O  O42  1  0.905479  0.824895  0.106181  1
  O  O43  1  0.094521  0.324895  0.393819  1
