# generated using pymatgen
data_Ba3AlF9
_symmetry_space_group_name_H-M   'P 1'
_cell_length_a   5.67584186
_cell_length_b   15.40702414
_cell_length_c   20.09377817
_cell_angle_alpha   90.00000000
_cell_angle_beta   90.00000000
_cell_angle_gamma   90.00000000
_symmetry_Int_Tables_number   1
_chemical_formula_structural   Ba3AlF9
_chemical_formula_sum   'Ba24 Al8 F72'
_cell_volume   1757.15734874
_cell_formula_units_Z   8
loop_
 _symmetry_equiv_pos_site_id
 _symmetry_equiv_pos_as_xyz
  1  'x, y, z'
loop_
 _atom_site_type_symbol
 _atom_site_label
 _atom_site_symmetry_multiplicity
 _atom_site_fract_x
 _atom_site_fract_y
 _atom_site_fract_z
 _atom_site_occupancy
  Ba  Ba0  1  0.250000  0.190787  0.107909  1
  Ba  Ba1  1  0.750000  0.809213  0.892091  1
  Ba  Ba2  1  0.750000  0.690787  0.392091  1
  Ba  Ba3  1  0.250000  0.309213  0.607909  1
  Ba  Ba4  1  0.250000  0.789630  0.243359  1
  Ba  Ba5  1  0.750000  0.210370  0.756641  1
  Ba  Ba6  1  0.750000  0.289630  0.256641  1
  Ba  Ba7  1  0.250000  0.710370  0.743359  1
  Ba  Ba8  1  0.250000  0.506742  0.322387  1
  Ba  Ba9  1  0.750000  0.493258  0.677613  1
  Ba  Ba10  1  0.750000  0.006742  0.177613  1
  Ba  Ba11  1  0.250000  0.993258  0.822387  1
  Ba  Ba12  1  0.250000  0.907567  0.030462  1
  Ba  Ba13  1  0.750000  0.092433  0.969538  1
  Ba  Ba14  1  0.750000  0.407567  0.469538  1
  Ba  Ba15  1  0.250000  0.592433  0.530462  1
  Ba  Ba16  1  0.250000  0.075454  0.316405  1
  Ba  Ba17  1  0.750000  0.924546  0.683595  1
  Ba  Ba18  1  0.750000  0.575454  0.183595  1
  Ba  Ba19  1  0.250000  0.424546  0.816405  1
  Ba  Ba20  1  0.250000  0.622024  0.998028  1
  Ba  Ba21  1  0.750000  0.377976  0.001972  1
  Ba  Ba22  1  0.750000  0.122024  0.501972  1
  Ba  Ba23  1  0.250000  0.877976  0.498028  1
  Al  Al24  1  0.250000  0.425846  0.119756  1
  Al  Al25  1  0.750000  0.574154  0.880244  1
  Al  Al26  1  0.750000  0.925846  0.380244  1
  Al  Al27  1  0.250000  0.074154  0.619756  1
  Al  Al28  1  0.250000  0.278222  0.388375  1
  Al  Al29  1  0.750000  0.721778  0.611625  1
  Al  Al30  1  0.750000  0.778222  0.111625  1
  Al  Al31  1  0.250000  0.221778  0.888375  1
  F  F32  1  0.250000  0.320292  0.472341  1
  F  F33  1  0.750000  0.679708  0.527659  1
  F  F34  1  0.750000  0.820292  0.027659  1
  F  F35  1  0.250000  0.179708  0.972341  1
  F  F36  1  0.250000  0.249625  0.300148  1
  F  F37  1  0.750000  0.750375  0.699852  1
  F  F38  1  0.750000  0.749625  0.199852  1
  F  F39  1  0.250000  0.250375  0.800148  1
  F  F40  1  0.250000  0.503662  0.188445  1
  F  F41  1  0.750000  0.496338  0.811555  1
  F  F42  1  0.750000  0.003662  0.311555  1
  F  F43  1  0.250000  0.996338  0.688445  1
  F  F44  1  0.250000  0.355657  0.045999  1
  F  F45  1  0.750000  0.644343  0.954001  1
  F  F46  1  0.750000  0.855657  0.454001  1
  F  F47  1  0.250000  0.144343  0.545999  1
  F  F48  1  0.250000  0.961182  0.226245  1
  F  F49  1  0.750000  0.038818  0.773755  1
  F  F50  1  0.750000  0.461182  0.273755  1
  F  F51  1  0.250000  0.538818  0.726245  1
  F  F52  1  0.250000  0.725792  0.446129  1
  F  F53  1  0.750000  0.274208  0.553871  1
  F  F54  1  0.750000  0.225792  0.053871  1
  F  F55  1  0.250000  0.774208  0.946129  1
  F  F56  1  0.992627  0.145928  0.213571  1
  F  F57  1  0.492627  0.854072  0.786429  1
  F  F58  1  0.007373  0.645928  0.286429  1
  F  F59  1  0.507373  0.354072  0.713571  1
  F  F60  1  0.007373  0.854072  0.786429  1
  F  F61  1  0.507373  0.145928  0.213571  1
  F  F62  1  0.992627  0.354072  0.713571  1
  F  F63  1  0.492627  0.645928  0.286429  1
  F  F64  1  0.005551  0.045449  0.072656  1
  F  F65  1  0.505551  0.954551  0.927344  1
  F  F66  1  0.994449  0.545449  0.427344  1
  F  F67  1  0.494449  0.454551  0.572656  1
  F  F68  1  0.994449  0.954551  0.927344  1
  F  F69  1  0.494449  0.045449  0.072656  1
  F  F70  1  0.005551  0.454551  0.572656  1
  F  F71  1  0.505551  0.545449  0.427344  1
  F  F72  1  0.020013  0.357528  0.366237  1
  F  F73  1  0.520013  0.642472  0.633763  1
  F  F74  1  0.979987  0.857528  0.133763  1
  F  F75  1  0.479987  0.142472  0.866237  1
  F  F76  1  0.979987  0.642472  0.633763  1
  F  F77  1  0.479987  0.357528  0.366237  1
  F  F78  1  0.020013  0.142472  0.866237  1
  F  F79  1  0.520013  0.857528  0.133763  1
  F  F80  1  0.019667  0.493452  0.079035  1
  F  F81  1  0.519667  0.506548  0.920965  1
  F  F82  1  0.980333  0.993452  0.420965  1
  F  F83  1  0.480333  0.006548  0.579035  1
  F  F84  1  0.980333  0.506548  0.920965  1
  F  F85  1  0.480333  0.493452  0.079035  1
  F  F86  1  0.019667  0.006548  0.579035  1
  F  F87  1  0.519667  0.993452  0.420965  1
  F  F88  1  0.024002  0.357323  0.157265  1
  F  F89  1  0.524002  0.642677  0.842735  1
  F  F90  1  0.975998  0.857323  0.342735  1
  F  F91  1  0.475998  0.142677  0.657265  1
  F  F92  1  0.975998  0.642677  0.842735  1
  F  F93  1  0.475998  0.357323  0.157265  1
  F  F94  1  0.024002  0.142677  0.657265  1
  F  F95  1  0.524002  0.857323  0.342735  1
  F  F96  1  0.021446  0.196508  0.403408  1
  F  F97  1  0.521446  0.803492  0.596592  1
  F  F98  1  0.978554  0.696508  0.096592  1
  F  F99  1  0.478554  0.303492  0.903408  1
  F  F100  1  0.978554  0.803492  0.596592  1
  F  F101  1  0.478554  0.196508  0.403408  1
  F  F102  1  0.021446  0.303492  0.903408  1
  F  F103  1  0.521446  0.696508  0.096592  1
