# generated using pymatgen
data_Ge5(Te4As)2
_symmetry_space_group_name_H-M   'P 1'
_cell_length_a   4.20025501
_cell_length_b   4.20025501
_cell_length_c   27.23070042
_cell_angle_alpha   90.00000000
_cell_angle_beta   90.00000000
_cell_angle_gamma   120.00000000
_symmetry_Int_Tables_number   1
_chemical_formula_structural   Ge5(Te4As)2
_chemical_formula_sum   'Ge5 Te8 As2'
_cell_volume   416.04543502
_cell_formula_units_Z   1
loop_
 _symmetry_equiv_pos_site_id
 _symmetry_equiv_pos_as_xyz
  1  'x, y, z'
loop_
 _atom_site_type_symbol
 _atom_site_label
 _atom_site_symmetry_multiplicity
 _atom_site_fract_x
 _atom_site_fract_y
 _atom_site_fract_z
 _atom_site_occupancy
  Ge  Ge0  1  0.000000  0.000000  0.000000  1
  Ge  Ge1  1  0.333333  0.666667  0.741382  1
  Ge  Ge2  1  0.666667  0.333333  0.871078  1
  Ge  Ge3  1  0.666667  0.333333  0.258618  1
  Ge  Ge4  1  0.333333  0.666667  0.128922  1
  Te  Te5  1  0.666667  0.333333  0.678393  1
  Te  Te6  1  0.666667  0.333333  0.064146  1
  Te  Te7  1  0.333333  0.666667  0.321607  1
  Te  Te8  1  0.333333  0.666667  0.935854  1
  Te  Te9  1  0.000000  0.000000  0.192719  1
  Te  Te10  1  0.000000  0.000000  0.807281  1
  Te  Te11  1  0.666667  0.333333  0.445726  1
  Te  Te12  1  0.333333  0.666667  0.554274  1
  As  As13  1  0.000000  0.000000  0.389771  1
  As  As14  1  0.000000  0.000000  0.610229  1
