# generated using pymatgen
data_Sb6S2O15
_symmetry_space_group_name_H-M   'P 1'
_cell_length_a   11.41810240
_cell_length_b   11.41810240
_cell_length_c   5.96384656
_cell_angle_alpha   90.00000000
_cell_angle_beta   90.00000000
_cell_angle_gamma   114.14645270
_symmetry_Int_Tables_number   1
_chemical_formula_structural   Sb6S2O15
_chemical_formula_sum   'Sb12 S4 O30'
_cell_volume   709.49370240
_cell_formula_units_Z   2
loop_
 _symmetry_equiv_pos_site_id
 _symmetry_equiv_pos_as_xyz
  1  'x, y, z'
loop_
 _atom_site_type_symbol
 _atom_site_label
 _atom_site_symmetry_multiplicity
 _atom_site_fract_x
 _atom_site_fract_y
 _atom_site_fract_z
 _atom_site_occupancy
  Sb  Sb0  1  0.297098  0.880670  0.124784  1
  Sb  Sb1  1  0.702902  0.119330  0.124784  1
  Sb  Sb2  1  0.119330  0.702902  0.624784  1
  Sb  Sb3  1  0.880670  0.297098  0.624784  1
  Sb  Sb4  1  0.756921  0.624584  0.603422  1
  Sb  Sb5  1  0.243079  0.375416  0.603422  1
  Sb  Sb6  1  0.375416  0.243079  0.103422  1
  Sb  Sb7  1  0.624584  0.756921  0.103422  1
  Sb  Sb8  1  0.173291  0.042613  0.490188  1
  Sb  Sb9  1  0.826709  0.957387  0.490188  1
  Sb  Sb10  1  0.957387  0.826709  0.990188  1
  Sb  Sb11  1  0.042613  0.173291  0.990188  1
  S  S12  1  0.524541  0.215188  0.662667  1
  S  S13  1  0.475459  0.784812  0.662667  1
  S  S14  1  0.784812  0.475459  0.162667  1
  S  S15  1  0.215188  0.524541  0.162667  1
  O  O16  1  0.515304  0.339687  0.670843  1
  O  O17  1  0.484696  0.660313  0.670843  1
  O  O18  1  0.660313  0.484696  0.170843  1
  O  O19  1  0.339687  0.515304  0.170843  1
  O  O20  1  0.657864  0.227095  0.717748  1
  O  O21  1  0.342136  0.772905  0.717748  1
  O  O22  1  0.772905  0.342136  0.217748  1
  O  O23  1  0.227095  0.657864  0.217748  1
  O  O24  1  0.438259  0.130167  0.849829  1
  O  O25  1  0.561741  0.869833  0.849829  1
  O  O26  1  0.869833  0.561741  0.349829  1
  O  O27  1  0.130167  0.438259  0.349829  1
  O  O28  1  0.000000  0.000000  0.841368  1
  O  O29  1  0.000000  0.000000  0.341368  1
  O  O30  1  0.238894  0.241101  0.879598  1
  O  O31  1  0.761106  0.758899  0.879598  1
  O  O32  1  0.758899  0.761106  0.379598  1
  O  O33  1  0.241101  0.238894  0.379598  1
  O  O34  1  0.742804  0.949208  0.171188  1
  O  O35  1  0.257196  0.050792  0.171188  1
  O  O36  1  0.050792  0.257196  0.671188  1
  O  O37  1  0.949208  0.742804  0.671188  1
  O  O38  1  0.843883  0.172133  0.892516  1
  O  O39  1  0.156117  0.827867  0.892516  1
  O  O40  1  0.827867  0.156117  0.392516  1
  O  O41  1  0.172133  0.843883  0.392516  1
  O  O42  1  0.481507  0.147625  0.446704  1
  O  O43  1  0.518493  0.852375  0.446704  1
  O  O44  1  0.852375  0.518493  0.946704  1
  O  O45  1  0.147625  0.481507  0.946704  1
