# generated using pymatgen
data_NaAuO2
_symmetry_space_group_name_H-M   'P 1'
_cell_length_a   5.97282356
_cell_length_b   5.97282356
_cell_length_c   5.98051283
_cell_angle_alpha   90.00000000
_cell_angle_beta   90.00000000
_cell_angle_gamma   143.10892235
_symmetry_Int_Tables_number   1
_chemical_formula_structural   NaAuO2
_chemical_formula_sum   'Na2 Au2 O4'
_cell_volume   128.07460371
_cell_formula_units_Z   2
loop_
 _symmetry_equiv_pos_site_id
 _symmetry_equiv_pos_as_xyz
  1  'x, y, z'
loop_
 _atom_site_type_symbol
 _atom_site_label
 _atom_site_symmetry_multiplicity
 _atom_site_fract_x
 _atom_site_fract_y
 _atom_site_fract_z
 _atom_site_occupancy
  Na  Na0  1  0.712619  0.287381  0.250000  1
  Na  Na1  1  0.287381  0.712619  0.750000  1
  Au  Au2  1  0.003300  0.996700  0.750000  1
  Au  Au3  1  0.996700  0.003300  0.250000  1
  O  O4  1  0.122199  0.877801  0.493257  1
  O  O5  1  0.877801  0.122199  0.506743  1
  O  O6  1  0.122199  0.877801  0.006743  1
  O  O7  1  0.877801  0.122199  0.993257  1
