# generated using pymatgen
data_Pr3Sb5O12
_symmetry_space_group_name_H-M   'P 1'
_cell_length_a   9.70559924
_cell_length_b   9.70559924
_cell_length_c   9.70559924
_cell_angle_alpha   109.47122063
_cell_angle_beta   109.47122063
_cell_angle_gamma   109.47122063
_symmetry_Int_Tables_number   1
_chemical_formula_structural   Pr3Sb5O12
_chemical_formula_sum   'Pr6 Sb10 O24'
_cell_volume   703.79337267
_cell_formula_units_Z   2
loop_
 _symmetry_equiv_pos_site_id
 _symmetry_equiv_pos_as_xyz
  1  'x, y, z'
loop_
 _atom_site_type_symbol
 _atom_site_label
 _atom_site_symmetry_multiplicity
 _atom_site_fract_x
 _atom_site_fract_y
 _atom_site_fract_z
 _atom_site_occupancy
  Pr  Pr0  1  0.500000  0.750000  0.250000  1
  Pr  Pr1  1  0.250000  0.750000  0.500000  1
  Pr  Pr2  1  0.750000  0.250000  0.500000  1
  Pr  Pr3  1  0.250000  0.500000  0.750000  1
  Pr  Pr4  1  0.750000  0.500000  0.250000  1
  Pr  Pr5  1  0.500000  0.250000  0.750000  1
  Sb  Sb6  1  1.000000  0.000000  0.495960  1
  Sb  Sb7  1  0.000000  0.495960  0.000000  1
  Sb  Sb8  1  0.495960  0.000000  0.000000  1
  Sb  Sb9  1  0.504040  0.504040  0.504040  1
  Sb  Sb10  1  0.718840  0.000000  0.718840  1
  Sb  Sb11  1  0.281160  0.000000  0.281160  1
  Sb  Sb12  1  0.000000  0.281160  0.281160  1
  Sb  Sb13  1  0.000000  0.718840  0.718840  1
  Sb  Sb14  1  0.718840  0.718840  0.000000  1
  Sb  Sb15  1  0.281160  0.281160  0.000000  1
  O  O16  1  0.196594  0.196594  0.725498  1
  O  O17  1  0.471096  0.274502  0.471096  1
  O  O18  1  0.274502  0.471096  0.471096  1
  O  O19  1  0.000000  0.528904  0.803406  1
  O  O20  1  0.528904  0.000000  0.803406  1
  O  O21  1  0.803406  0.000000  0.528904  1
  O  O22  1  0.196594  0.725498  0.196594  1
  O  O23  1  0.725498  0.196594  0.196594  1
  O  O24  1  0.000000  0.803406  0.528904  1
  O  O25  1  0.803406  0.528904  0.000000  1
  O  O26  1  0.528904  0.803406  0.000000  1
  O  O27  1  0.471096  0.471096  0.274502  1
  O  O28  1  0.197094  0.708031  0.708031  1
  O  O29  1  0.510937  0.510937  0.802906  1
  O  O30  1  0.510937  0.802906  0.510937  1
  O  O31  1  0.291969  0.000000  0.489063  1
  O  O32  1  0.802906  0.510937  0.510937  1
  O  O33  1  0.489063  0.000000  0.291969  1
  O  O34  1  0.708031  0.197094  0.708031  1
  O  O35  1  0.708031  0.708031  0.197094  1
  O  O36  1  0.489063  0.291969  0.000000  1
  O  O37  1  1.000000  0.489063  0.291969  1
  O  O38  1  0.000000  0.291969  0.489063  1
  O  O39  1  0.291969  0.489063  0.000000  1
