# generated using pymatgen
data_MgH10SO9
_symmetry_space_group_name_H-M   'P 1'
_cell_length_a   6.25933001
_cell_length_b   6.43293489
_cell_length_c   10.52360112
_cell_angle_alpha   73.23339045
_cell_angle_beta   85.81194952
_cell_angle_gamma   75.78310031
_symmetry_Int_Tables_number   1
_chemical_formula_structural   MgH10SO9
_chemical_formula_sum   'Mg2 H20 S2 O18'
_cell_volume   393.30033646
_cell_formula_units_Z   2
loop_
 _symmetry_equiv_pos_site_id
 _symmetry_equiv_pos_as_xyz
  1  'x, y, z'
loop_
 _atom_site_type_symbol
 _atom_site_label
 _atom_site_symmetry_multiplicity
 _atom_site_fract_x
 _atom_site_fract_y
 _atom_site_fract_z
 _atom_site_occupancy
  Mg  Mg0  1  0.000000  0.000000  0.000000  1
  Mg  Mg1  1  0.000000  0.000000  0.500000  1
  H  H2  1  0.317074  0.221104  0.215468  1
  H  H3  1  0.682926  0.778896  0.784532  1
  H  H4  1  0.304050  0.476005  0.142685  1
  H  H5  1  0.695950  0.523995  0.857315  1
  H  H6  1  0.000350  0.393438  0.341219  1
  H  H7  1  0.999650  0.606562  0.658781  1
  H  H8  1  0.695180  0.811518  0.395366  1
  H  H9  1  0.304820  0.188482  0.604634  1
  H  H10  1  0.952470  0.716163  0.398309  1
  H  H11  1  0.047530  0.283837  0.601691  1
  H  H12  1  0.651274  0.232541  0.120543  1
  H  H13  1  0.348726  0.767459  0.879457  1
  H  H14  1  0.862489  0.209441  0.201006  1
  H  H15  1  0.137511  0.790559  0.798994  1
  H  H16  1  0.769696  0.704418  0.001372  1
  H  H17  1  0.230304  0.295582  0.998628  1
  H  H18  1  0.727047  0.743945  0.143326  1
  H  H19  1  0.272953  0.256055  0.856674  1
  H  H20  1  0.256361  0.574815  0.654195  1
  H  H21  1  0.743639  0.425185  0.345805  1
  S  S22  1  0.687027  0.239095  0.714674  1
  S  S23  1  0.312973  0.760905  0.285326  1
  O  O24  1  0.639453  0.675781  0.865821  1
  O  O25  1  0.360547  0.324219  0.134179  1
  O  O26  1  0.832865  0.828620  0.425797  1
  O  O27  1  0.167135  0.171380  0.574203  1
  O  O28  1  0.813931  0.178521  0.122858  1
  O  O29  1  0.186069  0.821479  0.877142  1
  O  O30  1  0.837623  0.741625  0.071838  1
  O  O31  1  0.162377  0.258375  0.928162  1
  O  O32  1  0.558242  0.681508  0.297835  1
  O  O33  1  0.441758  0.318492  0.702165  1
  O  O34  1  0.205088  0.577348  0.355470  1
  O  O35  1  0.794912  0.422652  0.644530  1
  O  O36  1  0.242150  0.951836  0.346461  1
  O  O37  1  0.757850  0.048164  0.653539  1
  O  O38  1  0.256539  0.836888  0.141979  1
  O  O39  1  0.743461  0.163112  0.858021  1
  O  O40  1  0.115283  0.690478  0.647600  1
  O  O41  1  0.884717  0.309522  0.352400  1
