# generated using pymatgen
data_Nb2SiTe4
_symmetry_space_group_name_H-M   'P 1'
_cell_length_a   6.40375548
_cell_length_b   7.96872176
_cell_length_c   15.95338336
_cell_angle_alpha   90.00000000
_cell_angle_beta   105.97724996
_cell_angle_gamma   90.00000000
_symmetry_Int_Tables_number   1
_chemical_formula_structural   Nb2SiTe4
_chemical_formula_sum   'Nb8 Si4 Te16'
_cell_volume   782.64939171
_cell_formula_units_Z   4
loop_
 _symmetry_equiv_pos_site_id
 _symmetry_equiv_pos_as_xyz
  1  'x, y, z'
loop_
 _atom_site_type_symbol
 _atom_site_label
 _atom_site_symmetry_multiplicity
 _atom_site_fract_x
 _atom_site_fract_y
 _atom_site_fract_z
 _atom_site_occupancy
  Nb  Nb0  1  0.645953  0.037378  0.749942  1
  Nb  Nb1  1  0.354047  0.537378  0.750058  1
  Nb  Nb2  1  0.354047  0.962622  0.250058  1
  Nb  Nb3  1  0.645953  0.462622  0.249942  1
  Nb  Nb4  1  0.854170  0.788024  0.250022  1
  Nb  Nb5  1  0.145830  0.288024  0.249978  1
  Nb  Nb6  1  0.145830  0.211976  0.749978  1
  Nb  Nb7  1  0.854170  0.711976  0.750022  1
  Si  Si8  1  0.249916  0.625364  0.249926  1
  Si  Si9  1  0.750084  0.125364  0.250074  1
  Si  Si10  1  0.750084  0.374636  0.750074  1
  Si  Si11  1  0.249916  0.874636  0.749926  1
  Te  Te12  1  0.887143  0.983033  0.626580  1
  Te  Te13  1  0.112857  0.483033  0.873420  1
  Te  Te14  1  0.112857  0.016967  0.373420  1
  Te  Te15  1  0.887143  0.516967  0.126580  1
  Te  Te16  1  0.612810  0.766490  0.873354  1
  Te  Te17  1  0.387190  0.266490  0.626646  1
  Te  Te18  1  0.387190  0.233510  0.126646  1
  Te  Te19  1  0.612810  0.733510  0.373354  1
  Te  Te20  1  0.943545  0.483099  0.626618  1
  Te  Te21  1  0.056455  0.983099  0.873382  1
  Te  Te22  1  0.056455  0.516901  0.373382  1
  Te  Te23  1  0.943545  0.016901  0.126618  1
  Te  Te24  1  0.556150  0.265987  0.873377  1
  Te  Te25  1  0.443850  0.765987  0.626623  1
  Te  Te26  1  0.443850  0.734013  0.126623  1
  Te  Te27  1  0.556150  0.234013  0.373377  1
