# generated using pymatgen
data_InSe
_symmetry_space_group_name_H-M   'P 1'
_cell_length_a   9.26979842
_cell_length_b   9.26979842
_cell_length_c   9.26979842
_cell_angle_alpha   25.52074377
_cell_angle_beta   25.52074377
_cell_angle_gamma   25.52074377
_symmetry_Int_Tables_number   1
_chemical_formula_structural   InSe
_chemical_formula_sum   'In2 Se2'
_cell_volume   130.16239183
_cell_formula_units_Z   2
loop_
 _symmetry_equiv_pos_site_id
 _symmetry_equiv_pos_as_xyz
  1  'x, y, z'
loop_
 _atom_site_type_symbol
 _atom_site_label
 _atom_site_symmetry_multiplicity
 _atom_site_fract_x
 _atom_site_fract_y
 _atom_site_fract_z
 _atom_site_occupancy
  In  In0  1  0.891278  0.891278  0.891278  1
  In  In1  1  0.996564  0.996564  0.996564  1
  Se  Se2  1  0.377026  0.377026  0.377026  1
  Se  Se3  1  0.177432  0.177432  0.177432  1
