# generated using pymatgen
data_K2SnTe5
_symmetry_space_group_name_H-M   'P 1'
_cell_length_a   9.89736898
_cell_length_b   9.89736898
_cell_length_c   9.89736898
_cell_angle_alpha   128.04590340
_cell_angle_beta   128.04590340
_cell_angle_gamma   76.55067823
_symmetry_Int_Tables_number   1
_chemical_formula_structural   K2SnTe5
_chemical_formula_sum   'K4 Sn2 Te10'
_cell_volume   584.09424509
_cell_formula_units_Z   2
loop_
 _symmetry_equiv_pos_site_id
 _symmetry_equiv_pos_as_xyz
  1  'x, y, z'
loop_
 _atom_site_type_symbol
 _atom_site_label
 _atom_site_symmetry_multiplicity
 _atom_site_fract_x
 _atom_site_fract_y
 _atom_site_fract_z
 _atom_site_occupancy
  K  K0  1  0.000000  0.000000  0.000000  1
  K  K1  1  0.500000  0.500000  0.000000  1
  K  K2  1  0.250000  0.250000  0.000000  1
  K  K3  1  0.750000  0.750000  0.000000  1
  Sn  Sn4  1  0.250000  0.750000  0.500000  1
  Sn  Sn5  1  0.750000  0.250000  0.500000  1
  Te  Te6  1  0.043362  0.185286  0.500000  1
  Te  Te7  1  0.543362  0.043362  0.858075  1
  Te  Te8  1  0.500000  0.000000  0.500000  1
  Te  Te9  1  0.000000  0.500000  0.500000  1
  Te  Te10  1  0.685286  0.543362  0.500000  1
  Te  Te11  1  0.185286  0.685286  0.141925  1
  Te  Te12  1  0.814714  0.314714  0.858075  1
  Te  Te13  1  0.314714  0.456638  0.500000  1
  Te  Te14  1  0.956638  0.814714  0.500000  1
  Te  Te15  1  0.456638  0.956638  0.141925  1
