# generated using pymatgen
data_Mn2GeO4
_symmetry_space_group_name_H-M   'P 1'
_cell_length_a   8.17833844
_cell_length_b   8.17833844
_cell_length_c   8.17833844
_cell_angle_alpha   136.07068563
_cell_angle_beta   114.18746849
_cell_angle_gamma   82.53504330
_symmetry_Int_Tables_number   1
_chemical_formula_structural   Mn2GeO4
_chemical_formula_sum   'Mn8 Ge4 O16'
_cell_volume   334.18622257
_cell_formula_units_Z   4
loop_
 _symmetry_equiv_pos_site_id
 _symmetry_equiv_pos_as_xyz
  1  'x, y, z'
loop_
 _atom_site_type_symbol
 _atom_site_label
 _atom_site_symmetry_multiplicity
 _atom_site_fract_x
 _atom_site_fract_y
 _atom_site_fract_z
 _atom_site_occupancy
  Mn  Mn0  1  1.000000  0.000000  0.000000  1
  Mn  Mn1  1  0.500000  0.500000  0.000000  1
  Mn  Mn2  1  0.282062  0.250000  0.032062  1
  Mn  Mn3  1  0.717938  0.750000  0.967938  1
  Mn  Mn4  1  0.877005  0.377005  0.000000  1
  Mn  Mn5  1  0.122995  0.122995  0.500000  1
  Mn  Mn6  1  0.877005  0.877005  0.500000  1
  Mn  Mn7  1  0.122995  0.622995  0.000000  1
  Ge  Ge8  1  0.502898  0.118968  0.383929  1
  Ge  Ge9  1  0.497102  0.881032  0.616071  1
  Ge  Ge10  1  0.764961  0.381032  0.383929  1
  Ge  Ge11  1  0.235039  0.618968  0.616071  1
  O  O12  1  0.381566  0.119217  0.746898  1
  O  O13  1  0.618434  0.365332  0.737651  1
  O  O14  1  0.127681  0.380783  0.262349  1
  O  O15  1  0.872319  0.134668  0.253102  1
  O  O16  1  0.618434  0.880783  0.253102  1
  O  O17  1  0.381566  0.634668  0.262349  1
  O  O18  1  0.872319  0.619217  0.737651  1
  O  O19  1  0.127681  0.865332  0.746898  1
  O  O20  1  0.746071  0.492022  0.254049  1
  O  O21  1  0.253929  0.507978  0.745951  1
  O  O22  1  0.262026  0.007978  0.254049  1
  O  O23  1  0.737974  0.992022  0.745951  1
  O  O24  1  0.036140  0.250000  0.786140  1
  O  O25  1  0.963860  0.750000  0.213860  1
  O  O26  1  0.469550  0.750000  0.719550  1
  O  O27  1  0.530450  0.250000  0.280450  1
