# generated using pymatgen
data_K3Na(SO4)2
_symmetry_space_group_name_H-M   'P 1'
_cell_length_a   5.76536838
_cell_length_b   5.76536838
_cell_length_c   7.41233127
_cell_angle_alpha   90.00000000
_cell_angle_beta   90.00000000
_cell_angle_gamma   120.00000000
_symmetry_Int_Tables_number   1
_chemical_formula_structural   K3Na(SO4)2
_chemical_formula_sum   'K3 Na1 S2 O8'
_cell_volume   213.37305533
_cell_formula_units_Z   1
loop_
 _symmetry_equiv_pos_site_id
 _symmetry_equiv_pos_as_xyz
  1  'x, y, z'
loop_
 _atom_site_type_symbol
 _atom_site_label
 _atom_site_symmetry_multiplicity
 _atom_site_fract_x
 _atom_site_fract_y
 _atom_site_fract_z
 _atom_site_occupancy
  K  K0  1  0.333333  0.666667  0.176333  1
  K  K1  1  0.000000  0.000000  0.500000  1
  K  K2  1  0.666667  0.333333  0.823667  1
  Na  Na3  1  0.000000  0.000000  0.000000  1
  S  S4  1  0.666667  0.333333  0.268306  1
  S  S5  1  0.333333  0.666667  0.731694  1
  O  O6  1  0.192383  0.807617  0.802768  1
  O  O7  1  0.192383  0.384766  0.802768  1
  O  O8  1  0.615234  0.807617  0.802768  1
  O  O9  1  0.384766  0.192383  0.197232  1
  O  O10  1  0.807617  0.615234  0.197232  1
  O  O11  1  0.807617  0.192383  0.197232  1
  O  O12  1  0.666667  0.333333  0.466975  1
  O  O13  1  0.333333  0.666667  0.533025  1
