# generated using pymatgen
data_InAgS2
_symmetry_space_group_name_H-M   'P 1'
_cell_length_a   6.80573841
_cell_length_b   7.15301657
_cell_length_c   8.35362098
_cell_angle_alpha   90.00000000
_cell_angle_beta   90.00000000
_cell_angle_gamma   90.00000000
_symmetry_Int_Tables_number   1
_chemical_formula_structural   InAgS2
_chemical_formula_sum   'In4 Ag4 S8'
_cell_volume   406.66729776
_cell_formula_units_Z   4
loop_
 _symmetry_equiv_pos_site_id
 _symmetry_equiv_pos_as_xyz
  1  'x, y, z'
loop_
 _atom_site_type_symbol
 _atom_site_label
 _atom_site_symmetry_multiplicity
 _atom_site_fract_x
 _atom_site_fract_y
 _atom_site_fract_z
 _atom_site_occupancy
  In  In0  1  0.612927  0.072853  0.128970  1
  In  In1  1  0.112927  0.927147  0.871030  1
  In  In2  1  0.112927  0.427147  0.628970  1
  In  In3  1  0.612927  0.572853  0.371030  1
  Ag  Ag4  1  0.120636  0.912147  0.369276  1
  Ag  Ag5  1  0.620636  0.587853  0.869276  1
  Ag  Ag6  1  0.620636  0.087853  0.630724  1
  Ag  Ag7  1  0.120636  0.412147  0.130724  1
  S  S8  1  0.982638  0.576261  0.380081  1
  S  S9  1  0.482638  0.423739  0.619919  1
  S  S10  1  0.482638  0.923739  0.880081  1
  S  S11  1  0.982638  0.076261  0.119919  1
  S  S12  1  0.998799  0.592917  0.875940  1
  S  S13  1  0.998799  0.092917  0.624060  1
  S  S14  1  0.498799  0.907083  0.375940  1
  S  S15  1  0.498799  0.407083  0.124060  1
