# generated using pymatgen
data_Ga2PbO4
_symmetry_space_group_name_H-M   'P 1'
_cell_length_a   5.45292199
_cell_length_b   5.45292199
_cell_length_c   8.70627272
_cell_angle_alpha   90.00000000
_cell_angle_beta   90.00000000
_cell_angle_gamma   121.49375736
_symmetry_Int_Tables_number   1
_chemical_formula_structural   Ga2PbO4
_chemical_formula_sum   'Ga4 Pb2 O8'
_cell_volume   220.74232729
_cell_formula_units_Z   2
loop_
 _symmetry_equiv_pos_site_id
 _symmetry_equiv_pos_as_xyz
  1  'x, y, z'
loop_
 _atom_site_type_symbol
 _atom_site_label
 _atom_site_symmetry_multiplicity
 _atom_site_fract_x
 _atom_site_fract_y
 _atom_site_fract_z
 _atom_site_occupancy
  Ga  Ga0  1  0.364951  0.709953  0.552478  1
  Ga  Ga1  1  0.709953  0.364951  0.447522  1
  Ga  Ga2  1  0.364951  0.709953  0.947522  1
  Ga  Ga3  1  0.709953  0.364951  0.052478  1
  Pb  Pb4  1  0.970201  0.027529  0.750000  1
  Pb  Pb5  1  0.027529  0.970201  0.250000  1
  O  O6  1  0.486100  0.868615  0.750000  1
  O  O7  1  0.868615  0.486100  0.250000  1
  O  O8  1  0.676592  0.676592  0.500000  1
  O  O9  1  0.676592  0.676592  0.000000  1
  O  O10  1  0.007206  0.373376  0.559040  1
  O  O11  1  0.373376  0.007206  0.440960  1
  O  O12  1  0.373376  0.007206  0.059040  1
  O  O13  1  0.007206  0.373376  0.940960  1
