# generated using pymatgen
data_KInBr3
_symmetry_space_group_name_H-M   'P 1'
_cell_length_a   8.78791722
_cell_length_b   8.78791722
_cell_length_c   11.05620765
_cell_angle_alpha   90.00000000
_cell_angle_beta   90.00000000
_cell_angle_gamma   120.00000000
_symmetry_Int_Tables_number   1
_chemical_formula_structural   KInBr3
_chemical_formula_sum   'K4 In4 Br12'
_cell_volume   739.44986319
_cell_formula_units_Z   4
loop_
 _symmetry_equiv_pos_site_id
 _symmetry_equiv_pos_as_xyz
  1  'x, y, z'
loop_
 _atom_site_type_symbol
 _atom_site_label
 _atom_site_symmetry_multiplicity
 _atom_site_fract_x
 _atom_site_fract_y
 _atom_site_fract_z
 _atom_site_occupancy
  K  K0  1  0.333333  0.666667  0.878417  1
  K  K1  1  0.666667  0.333333  0.121583  1
  K  K2  1  0.000000  0.000000  0.258299  1
  K  K3  1  0.000000  0.000000  0.741701  1
  In  In4  1  0.333333  0.666667  0.251336  1
  In  In5  1  0.666667  0.333333  0.748664  1
  In  In6  1  0.333333  0.666667  0.503835  1
  In  In7  1  0.666667  0.333333  0.496165  1
  Br  Br8  1  0.284571  0.389066  0.126621  1
  Br  Br9  1  0.610934  0.895506  0.126621  1
  Br  Br10  1  0.104494  0.715429  0.126621  1
  Br  Br11  1  0.715429  0.610934  0.873379  1
  Br  Br12  1  0.389066  0.104494  0.873379  1
  Br  Br13  1  0.895506  0.284571  0.873379  1
  Br  Br14  1  0.092784  0.699364  0.624516  1
  Br  Br15  1  0.300636  0.393420  0.624516  1
  Br  Br16  1  0.606580  0.907216  0.624516  1
  Br  Br17  1  0.907216  0.300636  0.375484  1
  Br  Br18  1  0.699364  0.606580  0.375484  1
  Br  Br19  1  0.393420  0.092784  0.375484  1
