# generated using pymatgen
data_Li3CoPCO7
_symmetry_space_group_name_H-M   'P 1'
_cell_length_a   4.99886117
_cell_length_b   6.42673009
_cell_length_c   8.48772746
_cell_angle_alpha   90.00000000
_cell_angle_beta   96.10599653
_cell_angle_gamma   90.00000000
_symmetry_Int_Tables_number   1
_chemical_formula_structural   Li3CoPCO7
_chemical_formula_sum   'Li6 Co2 P2 C2 O14'
_cell_volume   271.13258530
_cell_formula_units_Z   2
loop_
 _symmetry_equiv_pos_site_id
 _symmetry_equiv_pos_as_xyz
  1  'x, y, z'
loop_
 _atom_site_type_symbol
 _atom_site_label
 _atom_site_symmetry_multiplicity
 _atom_site_fract_x
 _atom_site_fract_y
 _atom_site_fract_z
 _atom_site_occupancy
  Li  Li0  1  0.731790  0.984843  0.274253  1
  Li  Li1  1  0.268210  0.015157  0.725747  1
  Li  Li2  1  0.793580  0.250000  0.895031  1
  Li  Li3  1  0.206420  0.750000  0.104969  1
  Li  Li4  1  0.268210  0.484843  0.725747  1
  Li  Li5  1  0.731790  0.515157  0.274253  1
  Co  Co6  1  0.788452  0.750000  0.668122  1
  Co  Co7  1  0.211548  0.250000  0.331878  1
  P  P8  1  0.732490  0.250000  0.588730  1
  P  P9  1  0.267510  0.750000  0.411270  1
  C  C10  1  0.678868  0.750000  0.959087  1
  C  C11  1  0.321132  0.250000  0.040913  1
  O  O12  1  0.502421  0.250000  0.164692  1
  O  O13  1  0.928102  0.750000  0.932054  1
  O  O14  1  0.163803  0.750000  0.575508  1
  O  O15  1  0.497579  0.750000  0.835308  1
  O  O16  1  0.161920  0.562318  0.305617  1
  O  O17  1  0.836197  0.250000  0.424492  1
  O  O18  1  0.161920  0.937682  0.305617  1
  O  O19  1  0.838080  0.437682  0.694383  1
  O  O20  1  0.838080  0.062318  0.694383  1
  O  O21  1  0.418148  0.250000  0.567265  1
  O  O22  1  0.606429  0.750000  0.101194  1
  O  O23  1  0.393571  0.250000  0.898806  1
  O  O24  1  0.581852  0.750000  0.432735  1
  O  O25  1  0.071898  0.250000  0.067946  1
