# generated using pymatgen
data_AlP(H2O3)2
_symmetry_space_group_name_H-M   'P 1'
_cell_length_a   8.61828201
_cell_length_b   9.68436309
_cell_length_c   9.97014633
_cell_angle_alpha   90.00000000
_cell_angle_beta   90.00000000
_cell_angle_gamma   90.00000000
_symmetry_Int_Tables_number   1
_chemical_formula_structural   AlP(H2O3)2
_chemical_formula_sum   'Al8 P8 H32 O48'
_cell_volume   832.13405788
_cell_formula_units_Z   8
loop_
 _symmetry_equiv_pos_site_id
 _symmetry_equiv_pos_as_xyz
  1  'x, y, z'
loop_
 _atom_site_type_symbol
 _atom_site_label
 _atom_site_symmetry_multiplicity
 _atom_site_fract_x
 _atom_site_fract_y
 _atom_site_fract_z
 _atom_site_occupancy
  Al  Al0  1  0.154590  0.170065  0.134110  1
  Al  Al1  1  0.654590  0.329935  0.865890  1
  Al  Al2  1  0.845410  0.670065  0.365890  1
  Al  Al3  1  0.345410  0.829935  0.634110  1
  Al  Al4  1  0.845410  0.829935  0.865890  1
  Al  Al5  1  0.345410  0.670065  0.134110  1
  Al  Al6  1  0.154590  0.329935  0.634110  1
  Al  Al7  1  0.654590  0.170065  0.365890  1
  P  P8  1  0.470560  0.354260  0.147583  1
  P  P9  1  0.970560  0.145740  0.852417  1
  P  P10  1  0.529440  0.854260  0.352417  1
  P  P11  1  0.029440  0.645740  0.647583  1
  P  P12  1  0.529440  0.645740  0.852417  1
  P  P13  1  0.029440  0.854260  0.147583  1
  P  P14  1  0.470560  0.145740  0.647583  1
  P  P15  1  0.970560  0.354260  0.352417  1
  H  H16  1  0.843408  0.086251  0.178795  1
  H  H17  1  0.343408  0.413749  0.821205  1
  H  H18  1  0.156592  0.586251  0.321205  1
  H  H19  1  0.656592  0.913749  0.678795  1
  H  H20  1  0.156592  0.913749  0.821205  1
  H  H21  1  0.656592  0.586251  0.178795  1
  H  H22  1  0.843408  0.413749  0.678795  1
  H  H23  1  0.343408  0.086251  0.321205  1
  H  H24  1  0.697516  0.180473  0.121280  1
  H  H25  1  0.197516  0.319527  0.878720  1
  H  H26  1  0.302484  0.680473  0.378720  1
  H  H27  1  0.802484  0.819527  0.621280  1
  H  H28  1  0.302484  0.819527  0.878720  1
  H  H29  1  0.802484  0.680473  0.121280  1
  H  H30  1  0.697516  0.319527  0.621280  1
  H  H31  1  0.197516  0.180473  0.378720  1
  H  H32  1  0.141518  0.572885  0.971576  1
  H  H33  1  0.641518  0.927115  0.028424  1
  H  H34  1  0.141518  0.927115  0.471576  1
  H  H35  1  0.641518  0.572885  0.528424  1
  H  H36  1  0.858482  0.427115  0.028424  1
  H  H37  1  0.358482  0.072885  0.971576  1
  H  H38  1  0.791510  0.953813  0.428825  1
  H  H39  1  0.291510  0.546187  0.571175  1
  H  H40  1  0.208490  0.453813  0.071175  1
  H  H41  1  0.708490  0.046187  0.928825  1
  H  H42  1  0.208490  0.046187  0.571175  1
  H  H43  1  0.708490  0.453813  0.428825  1
  H  H44  1  0.791510  0.546187  0.928825  1
  H  H45  1  0.291510  0.953813  0.071175  1
  H  H46  1  0.858482  0.072885  0.528424  1
  H  H47  1  0.358482  0.427115  0.471576  1
  O  O48  1  0.513474  0.291631  0.284525  1
  O  O49  1  0.013474  0.208369  0.715475  1
  O  O50  1  0.486526  0.791631  0.215475  1
  O  O51  1  0.986526  0.708369  0.784525  1
  O  O52  1  0.486526  0.708369  0.715475  1
  O  O53  1  0.986526  0.791631  0.284525  1
  O  O54  1  0.513474  0.208369  0.784525  1
  O  O55  1  0.013474  0.291631  0.215475  1
  O  O56  1  0.483881  0.514114  0.148189  1
  O  O57  1  0.983881  0.985886  0.851811  1
  O  O58  1  0.516119  0.014114  0.351811  1
  O  O59  1  0.016119  0.485886  0.648189  1
  O  O60  1  0.516119  0.485886  0.851811  1
  O  O61  1  0.016119  0.014114  0.148189  1
  O  O62  1  0.483881  0.985886  0.648189  1
  O  O63  1  0.983881  0.514114  0.351811  1
  O  O64  1  0.083133  0.292637  0.459184  1
  O  O65  1  0.822330  0.445571  0.937376  1
  O  O66  1  0.677670  0.554429  0.437376  1
  O  O67  1  0.177670  0.945571  0.562624  1
  O  O68  1  0.677670  0.945571  0.937376  1
  O  O69  1  0.177670  0.554429  0.062624  1
  O  O70  1  0.322330  0.445571  0.562624  1
  O  O71  1  0.822330  0.054429  0.437376  1
  O  O72  1  0.233186  0.115753  0.306760  1
  O  O73  1  0.733186  0.384247  0.693240  1
  O  O74  1  0.583133  0.207363  0.540816  1
  O  O75  1  0.266814  0.884247  0.806760  1
  O  O76  1  0.766814  0.884247  0.693240  1
  O  O77  1  0.266814  0.615753  0.306760  1
  O  O78  1  0.233186  0.384247  0.806760  1
  O  O79  1  0.733186  0.115753  0.193240  1
  O  O80  1  0.916867  0.792637  0.040816  1
  O  O81  1  0.416867  0.707363  0.959184  1
  O  O82  1  0.916867  0.707363  0.540816  1
  O  O83  1  0.416867  0.792637  0.459184  1
  O  O84  1  0.083133  0.207363  0.959184  1
  O  O85  1  0.583133  0.292637  0.040816  1
  O  O86  1  0.799063  0.318963  0.388024  1
  O  O87  1  0.299063  0.181037  0.611976  1
  O  O88  1  0.200937  0.818963  0.111976  1
  O  O89  1  0.700937  0.681037  0.888024  1
  O  O90  1  0.200937  0.681037  0.611976  1
  O  O91  1  0.700937  0.818963  0.388024  1
  O  O92  1  0.799063  0.181037  0.888024  1
  O  O93  1  0.299063  0.318963  0.111976  1
  O  O94  1  0.766814  0.615753  0.193240  1
  O  O95  1  0.322330  0.054429  0.062624  1
