# generated using pymatgen
data_BaNb8O14
_symmetry_space_group_name_H-M   'P 1'
_cell_length_a   6.02479162
_cell_length_b   9.50860302
_cell_length_c   10.40682585
_cell_angle_alpha   90.00000000
_cell_angle_beta   90.00000000
_cell_angle_gamma   90.00000000
_symmetry_Int_Tables_number   1
_chemical_formula_structural   BaNb8O14
_chemical_formula_sum   'Ba2 Nb16 O28'
_cell_volume   596.17949352
_cell_formula_units_Z   2
loop_
 _symmetry_equiv_pos_site_id
 _symmetry_equiv_pos_as_xyz
  1  'x, y, z'
loop_
 _atom_site_type_symbol
 _atom_site_label
 _atom_site_symmetry_multiplicity
 _atom_site_fract_x
 _atom_site_fract_y
 _atom_site_fract_z
 _atom_site_occupancy
  Ba  Ba0  1  0.500000  0.500000  0.000000  1
  Ba  Ba1  1  0.500000  0.000000  0.500000  1
  Nb  Nb2  1  0.000000  0.382459  0.164062  1
  Nb  Nb3  1  0.000000  0.617541  0.835938  1
  Nb  Nb4  1  0.000000  0.882459  0.335938  1
  Nb  Nb5  1  0.000000  0.117541  0.664062  1
  Nb  Nb6  1  0.500000  0.380487  0.664356  1
  Nb  Nb7  1  0.500000  0.619513  0.335644  1
  Nb  Nb8  1  0.500000  0.880487  0.835644  1
  Nb  Nb9  1  0.500000  0.119513  0.164356  1
  Nb  Nb10  1  0.731492  0.623703  0.576422  1
  Nb  Nb11  1  0.731492  0.376297  0.423578  1
  Nb  Nb12  1  0.268508  0.123703  0.923578  1
  Nb  Nb13  1  0.268508  0.876297  0.076422  1
  Nb  Nb14  1  0.268508  0.376297  0.423578  1
  Nb  Nb15  1  0.268508  0.623703  0.576422  1
  Nb  Nb16  1  0.731492  0.876297  0.076422  1
  Nb  Nb17  1  0.731492  0.123703  0.923578  1
  O  O18  1  0.746962  0.505282  0.752928  1
  O  O19  1  0.746962  0.494718  0.247072  1
  O  O20  1  0.253038  0.005282  0.747072  1
  O  O21  1  0.253038  0.994718  0.252928  1
  O  O22  1  0.253038  0.494718  0.247072  1
  O  O23  1  0.253038  0.505282  0.752928  1
  O  O24  1  0.746962  0.994718  0.252928  1
  O  O25  1  0.746962  0.005282  0.747072  1
  O  O26  1  0.250217  0.743567  0.912827  1
  O  O27  1  0.250217  0.256433  0.087173  1
  O  O28  1  0.749783  0.243567  0.587173  1
  O  O29  1  0.749783  0.756433  0.412827  1
  O  O30  1  0.749783  0.256433  0.087173  1
  O  O31  1  0.749783  0.743567  0.912827  1
  O  O32  1  0.250217  0.756433  0.412827  1
  O  O33  1  0.250217  0.243567  0.587173  1
  O  O34  1  0.000000  0.500000  0.000000  1
  O  O35  1  0.000000  0.000000  0.500000  1
  O  O36  1  0.000000  0.231843  0.822215  1
  O  O37  1  0.000000  0.768157  0.177785  1
  O  O38  1  0.000000  0.731843  0.677785  1
  O  O39  1  0.000000  0.268157  0.322215  1
  O  O40  1  0.500000  0.243745  0.344182  1
  O  O41  1  0.500000  0.756255  0.655818  1
  O  O42  1  0.500000  0.743745  0.155818  1
  O  O43  1  0.500000  0.256255  0.844182  1
  O  O44  1  0.000000  0.000000  0.000000  1
  O  O45  1  0.000000  0.500000  0.500000  1
