# generated using pymatgen
data_Ca5As4(HO2)10
_symmetry_space_group_name_H-M   'P 1'
_cell_length_a   10.69190756
_cell_length_b   10.69190756
_cell_length_c   10.33726420
_cell_angle_alpha   84.23494405
_cell_angle_beta   95.76505595
_cell_angle_gamma   124.98668477
_symmetry_Int_Tables_number   1
_chemical_formula_structural   Ca5As4(HO2)10
_chemical_formula_sum   'Ca10 As8 H20 O40'
_cell_volume   961.94012143
_cell_formula_units_Z   2
loop_
 _symmetry_equiv_pos_site_id
 _symmetry_equiv_pos_as_xyz
  1  'x, y, z'
loop_
 _atom_site_type_symbol
 _atom_site_label
 _atom_site_symmetry_multiplicity
 _atom_site_fract_x
 _atom_site_fract_y
 _atom_site_fract_z
 _atom_site_occupancy
  Ca  Ca0  1  0.793059  0.143580  0.639048  1
  Ca  Ca1  1  0.143580  0.793059  0.860952  1
  Ca  Ca2  1  0.206941  0.856420  0.360952  1
  Ca  Ca3  1  0.856420  0.206941  0.139048  1
  Ca  Ca4  1  0.400170  0.763943  0.685052  1
  Ca  Ca5  1  0.763943  0.400170  0.814948  1
  Ca  Ca6  1  0.599830  0.236057  0.314948  1
  Ca  Ca7  1  0.236057  0.599830  0.185052  1
  Ca  Ca8  1  0.897475  0.897475  0.250000  1
  Ca  Ca9  1  0.102525  0.102525  0.750000  1
  As  As10  1  0.896084  0.579325  0.123396  1
  As  As11  1  0.579325  0.896084  0.376604  1
  As  As12  1  0.103916  0.420675  0.876604  1
  As  As13  1  0.420675  0.103916  0.623396  1
  As  As14  1  0.731314  0.901353  0.916323  1
  As  As15  1  0.901353  0.731314  0.583677  1
  As  As16  1  0.268686  0.098647  0.083677  1
  As  As17  1  0.098647  0.268686  0.416323  1
  H  H18  1  0.506432  0.446577  0.350959  1
  H  H19  1  0.446577  0.506432  0.149041  1
  H  H20  1  0.493568  0.553423  0.649041  1
  H  H21  1  0.553423  0.493568  0.850959  1
  H  H22  1  0.659945  0.533787  0.267060  1
  H  H23  1  0.533787  0.659945  0.232940  1
  H  H24  1  0.340055  0.466213  0.732940  1
  H  H25  1  0.466213  0.340055  0.767060  1
  H  H26  1  0.566685  0.154700  0.022911  1
  H  H27  1  0.154700  0.566685  0.477089  1
  H  H28  1  0.433316  0.845300  0.977089  1
  H  H29  1  0.845300  0.433315  0.522911  1
  H  H30  1  0.610145  0.079482  0.923849  1
  H  H31  1  0.079482  0.610145  0.576151  1
  H  H32  1  0.389855  0.920518  0.076151  1
  H  H33  1  0.920518  0.389855  0.423849  1
  H  H34  1  0.728571  0.693236  0.012544  1
  H  H35  1  0.693236  0.728571  0.487456  1
  H  H36  1  0.271429  0.306764  0.987456  1
  H  H37  1  0.306764  0.271429  0.512544  1
  O  O38  1  0.594153  0.447459  0.330090  1
  O  O39  1  0.447459  0.594153  0.169910  1
  O  O40  1  0.405847  0.552541  0.669910  1
  O  O41  1  0.552541  0.405847  0.830090  1
  O  O42  1  0.652192  0.172023  0.973197  1
  O  O43  1  0.172023  0.652192  0.526803  1
  O  O44  1  0.347808  0.827977  0.026803  1
  O  O45  1  0.827977  0.347808  0.473197  1
  O  O46  1  0.797173  0.656958  0.152918  1
  O  O47  1  0.656958  0.797173  0.347082  1
  O  O48  1  0.202827  0.343042  0.847082  1
  O  O49  1  0.343042  0.202827  0.652918  1
  O  O50  1  0.074283  0.675739  0.201644  1
  O  O51  1  0.675739  0.074283  0.298356  1
  O  O52  1  0.925717  0.324261  0.798356  1
  O  O53  1  0.324261  0.925717  0.701644  1
  O  O54  1  0.798103  0.389663  0.174682  1
  O  O55  1  0.389663  0.798103  0.325318  1
  O  O56  1  0.201897  0.610337  0.825318  1
  O  O57  1  0.610337  0.201897  0.674682  1
  O  O58  1  0.919047  0.595331  0.958417  1
  O  O59  1  0.595331  0.919047  0.541583  1
  O  O60  1  0.080953  0.404669  0.041583  1
  O  O61  1  0.404669  0.080953  0.458417  1
  O  O62  1  0.808733  0.979631  0.063988  1
  O  O63  1  0.979631  0.808733  0.436012  1
  O  O64  1  0.191267  0.020369  0.936012  1
  O  O65  1  0.020369  0.191267  0.563988  1
  O  O66  1  0.567726  0.893776  0.870152  1
  O  O67  1  0.893776  0.567726  0.629848  1
  O  O68  1  0.432274  0.106224  0.129848  1
  O  O69  1  0.106224  0.432274  0.370152  1
  O  O70  1  0.853048  0.004303  0.794948  1
  O  O71  1  0.004303  0.853048  0.705052  1
  O  O72  1  0.146952  0.995697  0.205052  1
  O  O73  1  0.995697  0.146952  0.294948  1
  O  O74  1  0.681939  0.712059  0.928435  1
  O  O75  1  0.712059  0.681939  0.571565  1
  O  O76  1  0.318061  0.287941  0.071565  1
  O  O77  1  0.287941  0.318061  0.428435  1
