# generated using pymatgen
data_MgH4(ClO)2
_symmetry_space_group_name_H-M   'P 1'
_cell_length_a   5.84716508
_cell_length_b   5.84716508
_cell_length_c   3.70305407
_cell_angle_alpha   79.70064671
_cell_angle_beta   100.29935329
_cell_angle_gamma   87.01742226
_symmetry_Int_Tables_number   1
_chemical_formula_structural   MgH4(ClO)2
_chemical_formula_sum   'Mg1 H4 Cl2 O2'
_cell_volume   122.09561728
_cell_formula_units_Z   1
loop_
 _symmetry_equiv_pos_site_id
 _symmetry_equiv_pos_as_xyz
  1  'x, y, z'
loop_
 _atom_site_type_symbol
 _atom_site_label
 _atom_site_symmetry_multiplicity
 _atom_site_fract_x
 _atom_site_fract_y
 _atom_site_fract_z
 _atom_site_occupancy
  Mg  Mg0  1  0.000000  0.000000  0.000000  1
  H  H1  1  0.220059  0.400964  0.851125  1
  H  H2  1  0.400964  0.220059  0.148875  1
  H  H3  1  0.779941  0.599036  0.148875  1
  H  H4  1  0.599036  0.779941  0.851125  1
  Cl  Cl5  1  0.773239  0.226761  0.382506  1
  Cl  Cl6  1  0.226761  0.773239  0.617494  1
  O  O7  1  0.241097  0.241097  0.000000  1
  O  O8  1  0.758903  0.758903  0.000000  1
