# generated using pymatgen
data_BaHI
_symmetry_space_group_name_H-M   'P 1'
_cell_length_a   4.75247088
_cell_length_b   4.75247088
_cell_length_c   7.93297732
_cell_angle_alpha   90.00000000
_cell_angle_beta   90.00000000
_cell_angle_gamma   90.00000000
_symmetry_Int_Tables_number   1
_chemical_formula_structural   BaHI
_chemical_formula_sum   'Ba2 H2 I2'
_cell_volume   179.17406285
_cell_formula_units_Z   2
loop_
 _symmetry_equiv_pos_site_id
 _symmetry_equiv_pos_as_xyz
  1  'x, y, z'
loop_
 _atom_site_type_symbol
 _atom_site_label
 _atom_site_symmetry_multiplicity
 _atom_site_fract_x
 _atom_site_fract_y
 _atom_site_fract_z
 _atom_site_occupancy
  Ba  Ba0  1  0.500000  0.000000  0.828975  1
  Ba  Ba1  1  0.000000  0.500000  0.171025  1
  H  H2  1  0.500000  0.500000  0.000000  1
  H  H3  1  0.000000  0.000000  0.000000  1
  I  I4  1  0.000000  0.500000  0.661567  1
  I  I5  1  0.500000  0.000000  0.338433  1
