# generated using pymatgen
data_Nb2Te3O11
_symmetry_space_group_name_H-M   'P 1'
_cell_length_a   4.08177594
_cell_length_b   7.94433671
_cell_length_c   15.97215431
_cell_angle_alpha   90.00000000
_cell_angle_beta   90.00000000
_cell_angle_gamma   90.00000000
_symmetry_Int_Tables_number   1
_chemical_formula_structural   Nb2Te3O11
_chemical_formula_sum   'Nb4 Te6 O22'
_cell_volume   517.92908682
_cell_formula_units_Z   2
loop_
 _symmetry_equiv_pos_site_id
 _symmetry_equiv_pos_as_xyz
  1  'x, y, z'
loop_
 _atom_site_type_symbol
 _atom_site_label
 _atom_site_symmetry_multiplicity
 _atom_site_fract_x
 _atom_site_fract_y
 _atom_site_fract_z
 _atom_site_occupancy
  Nb  Nb0  1  0.750121  0.128900  0.601687  1
  Nb  Nb1  1  0.750121  0.871100  0.398313  1
  Nb  Nb2  1  0.249879  0.628900  0.898313  1
  Nb  Nb3  1  0.249879  0.371100  0.101687  1
  Te  Te4  1  0.864304  0.000000  0.000000  1
  Te  Te5  1  0.135696  0.500000  0.500000  1
  Te  Te6  1  0.136867  0.192680  0.797706  1
  Te  Te7  1  0.136867  0.807320  0.202294  1
  Te  Te8  1  0.863133  0.692680  0.702294  1
  Te  Te9  1  0.863133  0.307320  0.297706  1
  O  O10  1  0.834775  0.136338  0.885522  1
  O  O11  1  0.834775  0.863662  0.114478  1
  O  O12  1  0.165225  0.636338  0.614478  1
  O  O13  1  0.165225  0.363662  0.385522  1
  O  O14  1  0.795169  0.919676  0.672079  1
  O  O15  1  0.795169  0.080324  0.327921  1
  O  O16  1  0.204831  0.419676  0.827921  1
  O  O17  1  0.204831  0.580324  0.172079  1
  O  O18  1  0.804038  0.354695  0.543650  1
  O  O19  1  0.804038  0.645305  0.456350  1
  O  O20  1  0.695429  0.351458  0.106749  1
  O  O21  1  0.695429  0.648542  0.893251  1
  O  O22  1  0.304571  0.851458  0.393251  1
  O  O23  1  0.304571  0.148542  0.606749  1
  O  O24  1  0.191118  0.248470  0.218531  1
  O  O25  1  0.191118  0.751530  0.781469  1
  O  O26  1  0.808882  0.748470  0.281469  1
  O  O27  1  0.808882  0.251530  0.718531  1
  O  O28  1  0.197227  0.500000  0.000000  1
  O  O29  1  0.802773  0.000000  0.500000  1
  O  O30  1  0.195962  0.145305  0.043650  1
  O  O31  1  0.195962  0.854695  0.956350  1
