# generated using pymatgen
data_Na2B2S5
_symmetry_space_group_name_H-M   'P 1'
_cell_length_a   7.63228058
_cell_length_b   8.35157028
_cell_length_c   12.66051259
_cell_angle_alpha   90.00000000
_cell_angle_beta   90.00000000
_cell_angle_gamma   90.00000000
_symmetry_Int_Tables_number   1
_chemical_formula_structural   Na2B2S5
_chemical_formula_sum   'Na8 B8 S20'
_cell_volume   807.00041345
_cell_formula_units_Z   4
loop_
 _symmetry_equiv_pos_site_id
 _symmetry_equiv_pos_as_xyz
  1  'x, y, z'
loop_
 _atom_site_type_symbol
 _atom_site_label
 _atom_site_symmetry_multiplicity
 _atom_site_fract_x
 _atom_site_fract_y
 _atom_site_fract_z
 _atom_site_occupancy
  Na  Na0  1  0.496649  0.003274  0.163491  1
  Na  Na1  1  0.996649  0.996726  0.836509  1
  Na  Na2  1  0.503351  0.503274  0.336509  1
  Na  Na3  1  0.003351  0.496726  0.663491  1
  Na  Na4  1  0.503351  0.996726  0.836509  1
  Na  Na5  1  0.003351  0.003274  0.163491  1
  Na  Na6  1  0.496649  0.496726  0.663491  1
  Na  Na7  1  0.996649  0.503274  0.336509  1
  B  B8  1  0.250000  0.594506  0.121216  1
  B  B9  1  0.750000  0.405494  0.878784  1
  B  B10  1  0.750000  0.094506  0.378784  1
  B  B11  1  0.250000  0.905494  0.621216  1
  B  B12  1  0.250000  0.292313  0.014029  1
  B  B13  1  0.750000  0.707687  0.985971  1
  B  B14  1  0.750000  0.792313  0.485971  1
  B  B15  1  0.250000  0.207687  0.514029  1
  S  S16  1  0.250000  0.418371  0.493081  1
  S  S17  1  0.750000  0.581629  0.506919  1
  S  S18  1  0.750000  0.918371  0.006919  1
  S  S19  1  0.250000  0.081629  0.993081  1
  S  S20  1  0.250000  0.736082  0.226267  1
  S  S21  1  0.750000  0.263918  0.773733  1
  S  S22  1  0.750000  0.236082  0.273733  1
  S  S23  1  0.250000  0.763918  0.726267  1
  S  S24  1  0.250000  0.378299  0.147080  1
  S  S25  1  0.750000  0.621701  0.852920  1
  S  S26  1  0.750000  0.878299  0.352920  1
  S  S27  1  0.250000  0.121701  0.647080  1
  S  S28  1  0.250000  0.434442  0.905358  1
  S  S29  1  0.750000  0.565558  0.094642  1
  S  S30  1  0.750000  0.934442  0.594642  1
  S  S31  1  0.250000  0.065558  0.405358  1
  S  S32  1  0.250000  0.654921  0.984011  1
  S  S33  1  0.750000  0.345079  0.015989  1
  S  S34  1  0.750000  0.154921  0.515989  1
  S  S35  1  0.250000  0.845079  0.484011  1
