# generated using pymatgen
data_IrCl3
_symmetry_space_group_name_H-M   'P 1'
_cell_length_a   6.14237210
_cell_length_b   6.14237210
_cell_length_c   6.51518841
_cell_angle_alpha   81.23608524
_cell_angle_beta   98.76391476
_cell_angle_gamma   60.02000543
_symmetry_Int_Tables_number   1
_chemical_formula_structural   IrCl3
_chemical_formula_sum   'Ir2 Cl6'
_cell_volume   202.80018040
_cell_formula_units_Z   2
loop_
 _symmetry_equiv_pos_site_id
 _symmetry_equiv_pos_as_xyz
  1  'x, y, z'
loop_
 _atom_site_type_symbol
 _atom_site_label
 _atom_site_symmetry_multiplicity
 _atom_site_fract_x
 _atom_site_fract_y
 _atom_site_fract_z
 _atom_site_occupancy
  Ir  Ir0  1  0.166678  0.166678  0.000000  1
  Ir  Ir1  1  0.833322  0.833322  0.000000  1
  Cl  Cl2  1  0.432623  0.921369  0.791581  1
  Cl  Cl3  1  0.921369  0.432623  0.208419  1
  Cl  Cl4  1  0.213335  0.786665  0.208691  1
  Cl  Cl5  1  0.786665  0.213335  0.791309  1
  Cl  Cl6  1  0.078631  0.567377  0.791581  1
  Cl  Cl7  1  0.567377  0.078631  0.208419  1
