# generated using pymatgen
data_Tl4S3
_symmetry_space_group_name_H-M   'P 1'
_cell_length_a   8.13926697
_cell_length_b   13.12870685
_cell_length_c   8.35854795
_cell_angle_alpha   90.00000000
_cell_angle_beta   103.32467944
_cell_angle_gamma   90.00000000
_symmetry_Int_Tables_number   1
_chemical_formula_structural   Tl4S3
_chemical_formula_sum   'Tl16 S12'
_cell_volume   869.13350480
_cell_formula_units_Z   4
loop_
 _symmetry_equiv_pos_site_id
 _symmetry_equiv_pos_as_xyz
  1  'x, y, z'
loop_
 _atom_site_type_symbol
 _atom_site_label
 _atom_site_symmetry_multiplicity
 _atom_site_fract_x
 _atom_site_fract_y
 _atom_site_fract_z
 _atom_site_occupancy
  Tl  Tl0  1  0.459920  0.776041  0.292872  1
  Tl  Tl1  1  0.040080  0.276041  0.707128  1
  Tl  Tl2  1  0.540080  0.223959  0.707128  1
  Tl  Tl3  1  0.959920  0.723959  0.292872  1
  Tl  Tl4  1  0.584503  0.790029  0.802688  1
  Tl  Tl5  1  0.915497  0.290029  0.197312  1
  Tl  Tl6  1  0.415497  0.209971  0.197312  1
  Tl  Tl7  1  0.084503  0.709971  0.802688  1
  Tl  Tl8  1  0.723503  0.534141  0.912655  1
  Tl  Tl9  1  0.776497  0.034141  0.087345  1
  Tl  Tl10  1  0.276497  0.465859  0.087345  1
  Tl  Tl11  1  0.223503  0.965859  0.912655  1
  Tl  Tl12  1  0.270840  0.498131  0.528849  1
  Tl  Tl13  1  0.229160  0.998131  0.471151  1
  Tl  Tl14  1  0.729160  0.501869  0.471151  1
  Tl  Tl15  1  0.770840  0.001869  0.528849  1
  S  S16  1  0.915749  0.834380  0.038690  1
  S  S17  1  0.584251  0.334380  0.961310  1
  S  S18  1  0.084251  0.165620  0.961310  1
  S  S19  1  0.415749  0.665620  0.038690  1
  S  S20  1  0.755910  0.747064  0.491685  1
  S  S21  1  0.744090  0.247064  0.508315  1
  S  S22  1  0.244090  0.252936  0.508315  1
  S  S23  1  0.255910  0.752936  0.491685  1
  S  S24  1  0.457173  0.972241  0.240825  1
  S  S25  1  0.042827  0.472241  0.759175  1
  S  S26  1  0.542827  0.027759  0.759175  1
  S  S27  1  0.957173  0.527759  0.240825  1
