# generated using pymatgen
data_Sr5Zr3F22
_symmetry_space_group_name_H-M   'P 1'
_cell_length_a   7.74544809
_cell_length_b   10.46245336
_cell_length_c   10.47596054
_cell_angle_alpha   90.00000000
_cell_angle_beta   90.00000000
_cell_angle_gamma   90.00000000
_symmetry_Int_Tables_number   1
_chemical_formula_structural   Sr5Zr3F22
_chemical_formula_sum   'Sr10 Zr6 F44'
_cell_volume   848.93401759
_cell_formula_units_Z   2
loop_
 _symmetry_equiv_pos_site_id
 _symmetry_equiv_pos_as_xyz
  1  'x, y, z'
loop_
 _atom_site_type_symbol
 _atom_site_label
 _atom_site_symmetry_multiplicity
 _atom_site_fract_x
 _atom_site_fract_y
 _atom_site_fract_z
 _atom_site_occupancy
  Sr  Sr0  1  0.263678  0.253190  0.792614  1
  Sr  Sr1  1  0.763678  0.746810  0.707386  1
  Sr  Sr2  1  0.736322  0.253190  0.207386  1
  Sr  Sr3  1  0.236322  0.746810  0.292614  1
  Sr  Sr4  1  0.000000  0.980150  0.000000  1
  Sr  Sr5  1  0.500000  0.019850  0.500000  1
  Sr  Sr6  1  0.500000  0.937092  0.000000  1
  Sr  Sr7  1  0.000000  0.062908  0.500000  1
  Sr  Sr8  1  0.500000  0.461606  0.500000  1
  Sr  Sr9  1  0.000000  0.538394  0.000000  1
  Zr  Zr10  1  0.752699  0.226685  0.789044  1
  Zr  Zr11  1  0.252699  0.773315  0.710956  1
  Zr  Zr12  1  0.247301  0.226685  0.210956  1
  Zr  Zr13  1  0.747301  0.773315  0.289044  1
  Zr  Zr14  1  0.000000  0.462021  0.500000  1
  Zr  Zr15  1  0.500000  0.537979  0.000000  1
  F  F16  1  0.713863  0.471365  0.105985  1
  F  F17  1  0.213863  0.528635  0.394015  1
  F  F18  1  0.286137  0.471365  0.894015  1
  F  F19  1  0.786137  0.528635  0.605985  1
  F  F20  1  0.736379  0.114280  0.388077  1
  F  F21  1  0.236379  0.885720  0.111923  1
  F  F22  1  0.263621  0.114280  0.611923  1
  F  F23  1  0.763621  0.885720  0.888077  1
  F  F24  1  0.712640  0.600272  0.891878  1
  F  F25  1  0.212640  0.399728  0.608122  1
  F  F26  1  0.287360  0.600272  0.108122  1
  F  F27  1  0.787360  0.399728  0.391878  1
  F  F28  1  0.911894  0.628926  0.389261  1
  F  F29  1  0.411894  0.371074  0.110739  1
  F  F30  1  0.568030  0.635105  0.349151  1
  F  F31  1  0.088106  0.628926  0.610739  1
  F  F32  1  0.740390  0.077641  0.653581  1
  F  F33  1  0.240390  0.922359  0.846419  1
  F  F34  1  0.259610  0.077641  0.346419  1
  F  F35  1  0.759610  0.922359  0.153581  1
  F  F36  1  0.988455  0.126018  0.799666  1
  F  F37  1  0.488455  0.873982  0.700334  1
  F  F38  1  0.011545  0.126018  0.200334  1
  F  F39  1  0.511545  0.873982  0.299666  1
  F  F40  1  0.526824  0.125249  0.842756  1
  F  F41  1  0.026824  0.874751  0.657244  1
  F  F42  1  0.473176  0.125249  0.157244  1
  F  F43  1  0.973176  0.874751  0.342756  1
  F  F44  1  0.782049  0.168655  0.983876  1
  F  F45  1  0.282049  0.831345  0.516124  1
  F  F46  1  0.217951  0.168655  0.016124  1
  F  F47  1  0.717951  0.831345  0.483876  1
  F  F48  1  0.564333  0.295363  0.658928  1
  F  F49  1  0.064333  0.704637  0.841072  1
  F  F50  1  0.435667  0.295363  0.341072  1
  F  F51  1  0.935667  0.704637  0.158928  1
  F  F52  1  0.910248  0.295265  0.611349  1
  F  F53  1  0.410248  0.704735  0.888651  1
  F  F54  1  0.089752  0.295265  0.388651  1
  F  F55  1  0.589752  0.704735  0.111349  1
  F  F56  1  0.931970  0.364895  0.849151  1
  F  F57  1  0.431970  0.635105  0.650849  1
  F  F58  1  0.068030  0.364895  0.150849  1
  F  F59  1  0.588106  0.371074  0.889261  1
