# generated using pymatgen
data_Cs2PbO3
_symmetry_space_group_name_H-M   'P 1'
_cell_length_a   7.00771344
_cell_length_b   7.00771344
_cell_length_c   6.20148185
_cell_angle_alpha   90.00000000
_cell_angle_beta   90.00000000
_cell_angle_gamma   111.15460803
_symmetry_Int_Tables_number   1
_chemical_formula_structural   Cs2PbO3
_chemical_formula_sum   'Cs4 Pb2 O6'
_cell_volume   284.01953619
_cell_formula_units_Z   2
loop_
 _symmetry_equiv_pos_site_id
 _symmetry_equiv_pos_as_xyz
  1  'x, y, z'
loop_
 _atom_site_type_symbol
 _atom_site_label
 _atom_site_symmetry_multiplicity
 _atom_site_fract_x
 _atom_site_fract_y
 _atom_site_fract_z
 _atom_site_occupancy
  Cs  Cs0  1  0.808675  0.483036  0.250000  1
  Cs  Cs1  1  0.483036  0.808675  0.250000  1
  Cs  Cs2  1  0.191325  0.516964  0.750000  1
  Cs  Cs3  1  0.516964  0.191325  0.750000  1
  Pb  Pb4  1  0.911658  0.911658  0.750000  1
  Pb  Pb5  1  0.088342  0.088342  0.250000  1
  O  O6  1  0.650130  0.650130  0.750000  1
  O  O7  1  0.349870  0.349870  0.250000  1
  O  O8  1  0.875442  0.124558  0.500000  1
  O  O9  1  0.124558  0.875442  0.000000  1
  O  O10  1  0.875442  0.124558  0.000000  1
  O  O11  1  0.124558  0.875442  0.500000  1
