# generated using pymatgen
data_Na4B2O5
_symmetry_space_group_name_H-M   'P 1'
_cell_length_a   6.71092541
_cell_length_b   6.71092541
_cell_length_c   6.38000944
_cell_angle_alpha   74.07167143
_cell_angle_beta   105.92832857
_cell_angle_gamma   105.99647216
_symmetry_Int_Tables_number   1
_chemical_formula_structural   Na4B2O5
_chemical_formula_sum   'Na8 B4 O10'
_cell_volume   259.38711390
_cell_formula_units_Z   2
loop_
 _symmetry_equiv_pos_site_id
 _symmetry_equiv_pos_as_xyz
  1  'x, y, z'
loop_
 _atom_site_type_symbol
 _atom_site_label
 _atom_site_symmetry_multiplicity
 _atom_site_fract_x
 _atom_site_fract_y
 _atom_site_fract_z
 _atom_site_occupancy
  Na  Na0  1  0.967888  0.685612  0.272433  1
  Na  Na1  1  0.685612  0.967888  0.227567  1
  Na  Na2  1  0.032112  0.314388  0.727567  1
  Na  Na3  1  0.314388  0.032112  0.772433  1
  Na  Na4  1  0.671145  0.402451  0.927184  1
  Na  Na5  1  0.402451  0.671145  0.572816  1
  Na  Na6  1  0.328855  0.597549  0.072816  1
  Na  Na7  1  0.597549  0.328855  0.427184  1
  B  B8  1  0.072206  0.255296  0.332483  1
  B  B9  1  0.255296  0.072206  0.167517  1
  B  B10  1  0.927794  0.744704  0.667517  1
  B  B11  1  0.744704  0.927794  0.832483  1
  O  O12  1  0.924366  0.924366  0.750000  1
  O  O13  1  0.075634  0.075634  0.250000  1
  O  O14  1  0.651481  0.743707  0.959846  1
  O  O15  1  0.743707  0.651481  0.540154  1
  O  O16  1  0.882512  0.315366  0.283094  1
  O  O17  1  0.315366  0.882512  0.216906  1
  O  O18  1  0.117488  0.684634  0.716906  1
  O  O19  1  0.684634  0.117488  0.783094  1
  O  O20  1  0.256293  0.348519  0.459846  1
  O  O21  1  0.348519  0.256293  0.040154  1
