# generated using pymatgen
data_Ag3SnP7
_symmetry_space_group_name_H-M   'P 1'
_cell_length_a   6.44169270
_cell_length_b   11.20545302
_cell_length_c   6.60259704
_cell_angle_alpha   90.00000000
_cell_angle_beta   108.30718411
_cell_angle_gamma   90.00000000
_symmetry_Int_Tables_number   1
_chemical_formula_structural   Ag3SnP7
_chemical_formula_sum   'Ag6 Sn2 P14'
_cell_volume   452.46718119
_cell_formula_units_Z   2
loop_
 _symmetry_equiv_pos_site_id
 _symmetry_equiv_pos_as_xyz
  1  'x, y, z'
loop_
 _atom_site_type_symbol
 _atom_site_label
 _atom_site_symmetry_multiplicity
 _atom_site_fract_x
 _atom_site_fract_y
 _atom_site_fract_z
 _atom_site_occupancy
  Ag  Ag0  1  0.922739  0.750000  0.672728  1
  Ag  Ag1  1  0.077261  0.250000  0.327272  1
  Ag  Ag2  1  0.309725  0.897340  0.682729  1
  Ag  Ag3  1  0.690275  0.397340  0.317271  1
  Ag  Ag4  1  0.690275  0.102660  0.317271  1
  Ag  Ag5  1  0.309725  0.602660  0.682729  1
  Sn  Sn6  1  0.307737  0.750000  0.041644  1
  Sn  Sn7  1  0.692263  0.250000  0.958356  1
  P  P8  1  0.833397  0.919377  0.157942  1
  P  P9  1  0.166603  0.419377  0.842058  1
  P  P10  1  0.166603  0.080623  0.842058  1
  P  P11  1  0.833397  0.580623  0.157942  1
  P  P12  1  0.722242  0.911207  0.805306  1
  P  P13  1  0.277758  0.411207  0.194694  1
  P  P14  1  0.277758  0.088793  0.194694  1
  P  P15  1  0.722242  0.588793  0.805306  1
  P  P16  1  0.194624  0.909759  0.282274  1
  P  P17  1  0.805376  0.409759  0.717726  1
  P  P18  1  0.805376  0.090241  0.717726  1
  P  P19  1  0.194624  0.590241  0.282274  1
  P  P20  1  0.731431  0.750000  0.272913  1
  P  P21  1  0.268569  0.250000  0.727087  1
