# generated using pymatgen
data_Mn4Be3Ge3SO12
_symmetry_space_group_name_H-M   'P 1'
_cell_length_a   8.55732931
_cell_length_b   8.55732931
_cell_length_c   8.55732931
_cell_angle_alpha   90.00000000
_cell_angle_beta   90.00000000
_cell_angle_gamma   90.00000000
_symmetry_Int_Tables_number   1
_chemical_formula_structural   Mn4Be3Ge3SO12
_chemical_formula_sum   'Mn8 Be6 Ge6 S2 O24'
_cell_volume   626.63512593
_cell_formula_units_Z   2
loop_
 _symmetry_equiv_pos_site_id
 _symmetry_equiv_pos_as_xyz
  1  'x, y, z'
loop_
 _atom_site_type_symbol
 _atom_site_label
 _atom_site_symmetry_multiplicity
 _atom_site_fract_x
 _atom_site_fract_y
 _atom_site_fract_z
 _atom_site_occupancy
  Mn  Mn0  1  0.332301  0.667699  0.332301  1
  Mn  Mn1  1  0.332301  0.332301  0.667699  1
  Mn  Mn2  1  0.667699  0.332301  0.332301  1
  Mn  Mn3  1  0.832301  0.832301  0.167699  1
  Mn  Mn4  1  0.832301  0.167699  0.832301  1
  Mn  Mn5  1  0.667699  0.667699  0.667699  1
  Mn  Mn6  1  0.167699  0.167699  0.167699  1
  Mn  Mn7  1  0.167699  0.832301  0.832301  1
  Be  Be8  1  0.750000  0.000000  0.500000  1
  Be  Be9  1  0.000000  0.500000  0.250000  1
  Be  Be10  1  0.000000  0.500000  0.750000  1
  Be  Be11  1  0.500000  0.750000  0.000000  1
  Be  Be12  1  0.500000  0.250000  0.000000  1
  Be  Be13  1  0.250000  0.000000  0.500000  1
  Ge  Ge14  1  0.000000  0.750000  0.500000  1
  Ge  Ge15  1  0.500000  0.000000  0.750000  1
  Ge  Ge16  1  0.500000  0.000000  0.250000  1
  Ge  Ge17  1  0.750000  0.500000  0.000000  1
  Ge  Ge18  1  0.000000  0.250000  0.500000  1
  Ge  Ge19  1  0.250000  0.500000  0.000000  1
  S  S20  1  0.000000  0.000000  0.000000  1
  S  S21  1  0.500000  0.500000  0.500000  1
  O  O22  1  0.134568  0.409029  0.145898  1
  O  O23  1  0.134568  0.590971  0.854102  1
  O  O24  1  0.409029  0.145898  0.134568  1
  O  O25  1  0.590971  0.145898  0.865432  1
  O  O26  1  0.145898  0.134568  0.409029  1
  O  O27  1  0.854102  0.865432  0.409029  1
  O  O28  1  0.365432  0.354102  0.909029  1
  O  O29  1  0.365432  0.645898  0.090971  1
  O  O30  1  0.634568  0.354102  0.090971  1
  O  O31  1  0.645898  0.090971  0.365432  1
  O  O32  1  0.090971  0.634568  0.354102  1
  O  O33  1  0.090971  0.365432  0.645898  1
  O  O34  1  0.354102  0.909029  0.365432  1
  O  O35  1  0.909029  0.365432  0.354102  1
  O  O36  1  0.634568  0.645898  0.909029  1
  O  O37  1  0.865432  0.409029  0.854102  1
  O  O38  1  0.865432  0.590971  0.145898  1
  O  O39  1  0.590971  0.854102  0.134568  1
  O  O40  1  0.409029  0.854102  0.865432  1
  O  O41  1  0.145898  0.865432  0.590971  1
  O  O42  1  0.854102  0.134568  0.590971  1
  O  O43  1  0.909029  0.634568  0.645898  1
  O  O44  1  0.645898  0.909029  0.634568  1
  O  O45  1  0.354102  0.090971  0.634568  1
