# generated using pymatgen
data_SbI3Cl8
_symmetry_space_group_name_H-M   'P 1'
_cell_length_a   7.57720345
_cell_length_b   7.83465043
_cell_length_c   8.12521350
_cell_angle_alpha   94.50718757
_cell_angle_beta   93.60379587
_cell_angle_gamma   101.10452486
_symmetry_Int_Tables_number   1
_chemical_formula_structural   SbI3Cl8
_chemical_formula_sum   'Sb1 I3 Cl8'
_cell_volume   470.35457090
_cell_formula_units_Z   1
loop_
 _symmetry_equiv_pos_site_id
 _symmetry_equiv_pos_as_xyz
  1  'x, y, z'
loop_
 _atom_site_type_symbol
 _atom_site_label
 _atom_site_symmetry_multiplicity
 _atom_site_fract_x
 _atom_site_fract_y
 _atom_site_fract_z
 _atom_site_occupancy
  Sb  Sb0  1  0.000000  0.500000  0.500000  1
  I  I1  1  0.000000  0.000000  0.000000  1
  I  I2  1  0.678538  0.762203  0.836696  1
  I  I3  1  0.321462  0.237797  0.163304  1
  Cl  Cl4  1  0.730854  0.307002  0.559171  1
  Cl  Cl5  1  0.269146  0.692998  0.440829  1
  Cl  Cl6  1  0.509629  0.763743  0.074831  1
  Cl  Cl7  1  0.490371  0.236257  0.925169  1
  Cl  Cl8  1  0.849956  0.757072  0.538827  1
  Cl  Cl9  1  0.150044  0.242928  0.461173  1
  Cl  Cl10  1  0.896184  0.467505  0.214453  1
  Cl  Cl11  1  0.103816  0.532495  0.785547  1
