# generated using pymatgen
data_SbSCl9
_symmetry_space_group_name_H-M   'P 1'
_cell_length_a   9.08621463
_cell_length_b   9.08621463
_cell_length_c   9.08621463
_cell_angle_alpha   76.52980890
_cell_angle_beta   76.52980890
_cell_angle_gamma   76.52980890
_symmetry_Int_Tables_number   1
_chemical_formula_structural   SbSCl9
_chemical_formula_sum   'Sb2 S2 Cl18'
_cell_volume   696.67089879
_cell_formula_units_Z   2
loop_
 _symmetry_equiv_pos_site_id
 _symmetry_equiv_pos_as_xyz
  1  'x, y, z'
loop_
 _atom_site_type_symbol
 _atom_site_label
 _atom_site_symmetry_multiplicity
 _atom_site_fract_x
 _atom_site_fract_y
 _atom_site_fract_z
 _atom_site_occupancy
  Sb  Sb0  1  0.500000  0.500000  0.500000  1
  Sb  Sb1  1  0.000000  0.000000  0.000000  1
  S  S2  1  0.707059  0.707059  0.707059  1
  S  S3  1  0.292941  0.292941  0.292941  1
  Cl  Cl4  1  0.028682  0.028682  0.724653  1
  Cl  Cl5  1  0.971318  0.971318  0.275347  1
  Cl  Cl6  1  0.971318  0.275347  0.971318  1
  Cl  Cl7  1  0.724653  0.028682  0.028682  1
  Cl  Cl8  1  0.028682  0.724653  0.028682  1
  Cl  Cl9  1  0.275347  0.971318  0.971318  1
  Cl  Cl10  1  0.371054  0.674649  0.674649  1
  Cl  Cl11  1  0.325351  0.628946  0.325351  1
  Cl  Cl12  1  0.628946  0.325351  0.325351  1
  Cl  Cl13  1  0.674649  0.371054  0.674649  1
  Cl  Cl14  1  0.325351  0.325351  0.628946  1
  Cl  Cl15  1  0.674649  0.674649  0.371054  1
  Cl  Cl16  1  0.062622  0.340943  0.340943  1
  Cl  Cl17  1  0.659057  0.937378  0.659057  1
  Cl  Cl18  1  0.937378  0.659057  0.659057  1
  Cl  Cl19  1  0.340943  0.062622  0.340943  1
  Cl  Cl20  1  0.340943  0.340943  0.062622  1
  Cl  Cl21  1  0.659057  0.659057  0.937378  1
