# generated using pymatgen
data_Sr2NbInO6
_symmetry_space_group_name_H-M   'P 1'
_cell_length_a   5.79715078
_cell_length_b   5.85139438
_cell_length_c   10.05942337
_cell_angle_alpha   90.00000000
_cell_angle_beta   125.26298207
_cell_angle_gamma   90.00000000
_symmetry_Int_Tables_number   1
_chemical_formula_structural   Sr2NbInO6
_chemical_formula_sum   'Sr4 Nb2 In2 O12'
_cell_volume   278.61787015
_cell_formula_units_Z   2
loop_
 _symmetry_equiv_pos_site_id
 _symmetry_equiv_pos_as_xyz
  1  'x, y, z'
loop_
 _atom_site_type_symbol
 _atom_site_label
 _atom_site_symmetry_multiplicity
 _atom_site_fract_x
 _atom_site_fract_y
 _atom_site_fract_z
 _atom_site_occupancy
  Sr  Sr0  1  0.241918  0.034053  0.749192  1
  Sr  Sr1  1  0.758082  0.534053  0.750808  1
  Sr  Sr2  1  0.241918  0.465947  0.249192  1
  Sr  Sr3  1  0.758082  0.965947  0.250808  1
  Nb  Nb4  1  0.500000  0.500000  0.000000  1
  Nb  Nb5  1  0.500000  0.000000  0.500000  1
  In  In6  1  0.000000  0.500000  0.500000  1
  In  In7  1  0.000000  0.000000  0.000000  1
  O  O8  1  0.664051  0.519381  0.239660  1
  O  O9  1  0.335949  0.019381  0.260340  1
  O  O10  1  0.335949  0.480619  0.760340  1
  O  O11  1  0.664051  0.980619  0.739660  1
  O  O12  1  0.813964  0.795415  0.538292  1
  O  O13  1  0.186036  0.295415  0.961708  1
  O  O14  1  0.186036  0.204585  0.461708  1
  O  O15  1  0.813964  0.704585  0.038292  1
  O  O16  1  0.744064  0.224065  0.041379  1
  O  O17  1  0.255936  0.724065  0.458621  1
  O  O18  1  0.255936  0.775935  0.958621  1
  O  O19  1  0.744064  0.275935  0.541379  1
