# generated using pymatgen
data_In7Br9
_symmetry_space_group_name_H-M   'P 1'
_cell_length_a   12.92131120
_cell_length_b   12.92131120
_cell_length_c   12.92131120
_cell_angle_alpha   90.00000000
_cell_angle_beta   90.00000000
_cell_angle_gamma   90.00000000
_symmetry_Int_Tables_number   1
_chemical_formula_structural   In7Br9
_chemical_formula_sum   'In28 Br36'
_cell_volume   2157.34577633
_cell_formula_units_Z   4
loop_
 _symmetry_equiv_pos_site_id
 _symmetry_equiv_pos_as_xyz
  1  'x, y, z'
loop_
 _atom_site_type_symbol
 _atom_site_label
 _atom_site_symmetry_multiplicity
 _atom_site_fract_x
 _atom_site_fract_y
 _atom_site_fract_z
 _atom_site_occupancy
  In  In0  1  0.817667  0.433110  0.328493  1
  In  In1  1  0.317667  0.066890  0.671507  1
  In  In2  1  0.182333  0.933110  0.171507  1
  In  In3  1  0.066890  0.671507  0.317667  1
  In  In4  1  0.171507  0.182333  0.933110  1
  In  In5  1  0.671507  0.317667  0.066890  1
  In  In6  1  0.433110  0.328493  0.817667  1
  In  In7  1  0.328493  0.817667  0.433110  1
  In  In8  1  0.933110  0.171507  0.182333  1
  In  In9  1  0.566890  0.828493  0.682333  1
  In  In10  1  0.828493  0.682333  0.566890  1
  In  In11  1  0.682333  0.566890  0.828493  1
  In  In12  1  0.182333  0.566890  0.671507  1
  In  In13  1  0.682333  0.933110  0.328493  1
  In  In14  1  0.817667  0.066890  0.828493  1
  In  In15  1  0.933110  0.328493  0.682333  1
  In  In16  1  0.828493  0.817667  0.066890  1
  In  In17  1  0.328493  0.682333  0.933110  1
  In  In18  1  0.566890  0.671507  0.182333  1
  In  In19  1  0.671507  0.182333  0.566890  1
  In  In20  1  0.066890  0.828493  0.817667  1
  In  In21  1  0.433110  0.171507  0.317667  1
  In  In22  1  0.171507  0.317667  0.433110  1
  In  In23  1  0.317667  0.433110  0.171507  1
  In  In24  1  0.500000  0.500000  0.500000  1
  In  In25  1  0.500000  0.000000  0.000000  1
  In  In26  1  0.000000  0.000000  0.500000  1
  In  In27  1  0.000000  0.500000  0.000000  1
  Br  Br28  1  0.947650  0.199943  0.454828  1
  Br  Br29  1  0.447650  0.300057  0.545172  1
  Br  Br30  1  0.052350  0.699943  0.045172  1
  Br  Br31  1  0.300057  0.545172  0.447650  1
  Br  Br32  1  0.045172  0.052350  0.699943  1
  Br  Br33  1  0.545172  0.447650  0.300057  1
  Br  Br34  1  0.199943  0.454828  0.947650  1
  Br  Br35  1  0.454828  0.947650  0.199943  1
  Br  Br36  1  0.699943  0.045172  0.052350  1
  Br  Br37  1  0.800057  0.954828  0.552350  1
  Br  Br38  1  0.954828  0.552350  0.800057  1
  Br  Br39  1  0.552350  0.800057  0.954828  1
  Br  Br40  1  0.052350  0.800057  0.545172  1
  Br  Br41  1  0.552350  0.699943  0.454828  1
  Br  Br42  1  0.947650  0.300057  0.954828  1
  Br  Br43  1  0.829040  0.670960  0.329040  1
  Br  Br44  1  0.699943  0.454828  0.552350  1
  Br  Br45  1  0.454828  0.552350  0.699943  1
  Br  Br46  1  0.800057  0.545172  0.052350  1
  Br  Br47  1  0.545172  0.052350  0.800057  1
  Br  Br48  1  0.300057  0.954828  0.947650  1
  Br  Br49  1  0.199943  0.045172  0.447650  1
  Br  Br50  1  0.045172  0.447650  0.199943  1
  Br  Br51  1  0.447650  0.199943  0.045172  1
  Br  Br52  1  0.170960  0.329040  0.670960  1
  Br  Br53  1  0.329040  0.670960  0.170960  1
  Br  Br54  1  0.670960  0.170960  0.329040  1
  Br  Br55  1  0.829040  0.829040  0.829040  1
  Br  Br56  1  0.000000  0.000000  0.000000  1
  Br  Br57  1  0.500000  0.000000  0.500000  1
  Br  Br58  1  0.500000  0.500000  0.000000  1
  Br  Br59  1  0.000000  0.500000  0.500000  1
  Br  Br60  1  0.170960  0.170960  0.170960  1
  Br  Br61  1  0.329040  0.829040  0.670960  1
  Br  Br62  1  0.670960  0.329040  0.829040  1
  Br  Br63  1  0.954828  0.947650  0.300057  1
