# generated using pymatgen
data_Zr6CI12
_symmetry_space_group_name_H-M   'P 1'
_cell_length_a   9.34505156
_cell_length_b   9.34505156
_cell_length_c   9.34505156
_cell_angle_alpha   106.77183206
_cell_angle_beta   106.77183206
_cell_angle_gamma   106.77183206
_symmetry_Int_Tables_number   1
_chemical_formula_structural   Zr6CI12
_chemical_formula_sum   'Zr6 C1 I12'
_cell_volume   683.84480175
_cell_formula_units_Z   1
loop_
 _symmetry_equiv_pos_site_id
 _symmetry_equiv_pos_as_xyz
  1  'x, y, z'
loop_
 _atom_site_type_symbol
 _atom_site_label
 _atom_site_symmetry_multiplicity
 _atom_site_fract_x
 _atom_site_fract_y
 _atom_site_fract_z
 _atom_site_occupancy
  Zr  Zr0  1  0.737507  0.915285  0.975410  1
  Zr  Zr1  1  0.975410  0.737507  0.915285  1
  Zr  Zr2  1  0.915285  0.975410  0.737507  1
  Zr  Zr3  1  0.262493  0.084715  0.024590  1
  Zr  Zr4  1  0.024590  0.262493  0.084715  1
  Zr  Zr5  1  0.084715  0.024590  0.262493  1
  C  C6  1  0.000000  0.000000  0.000000  1
  I  I7  1  0.362001  0.435495  0.139359  1
  I  I8  1  0.435495  0.139359  0.362001  1
  I  I9  1  0.860641  0.637999  0.564505  1
  I  I10  1  0.637999  0.564505  0.860641  1
  I  I11  1  0.564505  0.860641  0.637999  1
  I  I12  1  0.139359  0.362001  0.435495  1
  I  I13  1  0.303791  0.776375  0.921985  1
  I  I14  1  0.921985  0.303791  0.776375  1
  I  I15  1  0.776375  0.921985  0.303791  1
  I  I16  1  0.696209  0.223625  0.078015  1
  I  I17  1  0.078015  0.696209  0.223625  1
  I  I18  1  0.223625  0.078015  0.696209  1
