# generated using pymatgen
data_LiSb(PO3)4
_symmetry_space_group_name_H-M   'P 1'
_cell_length_a   10.35642228
_cell_length_b   9.35226032
_cell_length_c   12.58085272
_cell_angle_alpha   90.00000000
_cell_angle_beta   124.88639602
_cell_angle_gamma   90.00000000
_symmetry_Int_Tables_number   1
_chemical_formula_structural   LiSb(PO3)4
_chemical_formula_sum   'Li4 Sb4 P16 O48'
_cell_volume   999.54560703
_cell_formula_units_Z   4
loop_
 _symmetry_equiv_pos_site_id
 _symmetry_equiv_pos_as_xyz
  1  'x, y, z'
loop_
 _atom_site_type_symbol
 _atom_site_label
 _atom_site_symmetry_multiplicity
 _atom_site_fract_x
 _atom_site_fract_y
 _atom_site_fract_z
 _atom_site_occupancy
  Li  Li0  1  0.137192  0.053729  0.110001  1
  Li  Li1  1  0.862808  0.553729  0.389999  1
  Li  Li2  1  0.137192  0.446271  0.610001  1
  Li  Li3  1  0.862808  0.946271  0.889999  1
  Sb  Sb4  1  0.811166  0.297257  0.007620  1
  Sb  Sb5  1  0.811166  0.202743  0.507620  1
  Sb  Sb6  1  0.188834  0.797257  0.492380  1
  Sb  Sb7  1  0.188834  0.702743  0.992380  1
  P  P8  1  0.202435  0.340846  0.036091  1
  P  P9  1  0.488120  0.505885  0.227513  1
  P  P10  1  0.707551  0.108031  0.190251  1
  P  P11  1  0.511880  0.005885  0.272487  1
  P  P12  1  0.893434  0.887650  0.151326  1
  P  P13  1  0.106566  0.387650  0.348674  1
  P  P14  1  0.797565  0.840846  0.463909  1
  P  P15  1  0.292449  0.608031  0.309749  1
  P  P16  1  0.707551  0.391969  0.690251  1
  P  P17  1  0.202435  0.159154  0.536091  1
  P  P18  1  0.893434  0.612350  0.651326  1
  P  P19  1  0.106566  0.112350  0.848674  1
  P  P20  1  0.488120  0.994115  0.727513  1
  P  P21  1  0.292449  0.891969  0.809749  1
  P  P22  1  0.511880  0.494115  0.772487  1
  P  P23  1  0.797565  0.659154  0.963909  1
  O  O24  1  0.111119  0.267231  0.078926  1
  O  O25  1  0.187028  0.659558  0.172114  1
  O  O26  1  0.426071  0.621935  0.124363  1
  O  O27  1  0.381163  0.363835  0.159259  1
  O  O28  1  0.343307  0.966304  0.201152  1
  O  O29  1  0.665601  0.205088  0.079801  1
  O  O30  1  0.771474  0.766623  0.049275  1
  O  O31  1  0.860812  0.519507  0.039609  1
  O  O32  1  0.545232  0.049551  0.165726  1
  O  O33  1  0.938010  0.988696  0.083755  1
  O  O34  1  0.775477  0.958694  0.178514  1
  O  O35  1  0.454768  0.549551  0.334274  1
  O  O36  1  0.656693  0.466304  0.298848  1
  O  O37  1  0.618837  0.863835  0.340741  1
  O  O38  1  0.573929  0.121935  0.375637  1
  O  O39  1  0.977099  0.312503  0.229033  1
  O  O40  1  0.812972  0.159558  0.327886  1
  O  O41  1  0.022901  0.812503  0.270967  1
  O  O42  1  0.888881  0.767231  0.421074  1
  O  O43  1  0.224523  0.458694  0.321486  1
  O  O44  1  0.061990  0.488696  0.416245  1
  O  O45  1  0.665601  0.294912  0.579801  1
  O  O46  1  0.771474  0.733377  0.549275  1
  O  O47  1  0.860812  0.980493  0.539609  1
  O  O48  1  0.139188  0.019507  0.460391  1
  O  O49  1  0.228526  0.266623  0.450725  1
  O  O50  1  0.334399  0.705088  0.420199  1
  O  O51  1  0.938010  0.511304  0.583755  1
  O  O52  1  0.775477  0.541306  0.678514  1
  O  O53  1  0.111119  0.232769  0.578926  1
  O  O54  1  0.977099  0.187497  0.729033  1
  O  O55  1  0.187028  0.840442  0.672114  1
  O  O56  1  0.022901  0.687497  0.770967  1
  O  O57  1  0.426071  0.878065  0.624363  1
  O  O58  1  0.381163  0.136165  0.659259  1
  O  O59  1  0.343307  0.533696  0.701152  1
  O  O60  1  0.545232  0.450449  0.665726  1
  O  O61  1  0.224523  0.041306  0.821486  1
  O  O62  1  0.061990  0.011304  0.916245  1
  O  O63  1  0.454768  0.950449  0.834274  1
  O  O64  1  0.139188  0.480493  0.960391  1
  O  O65  1  0.228526  0.233377  0.950725  1
  O  O66  1  0.334399  0.794912  0.920199  1
  O  O67  1  0.656693  0.033696  0.798848  1
  O  O68  1  0.618837  0.636165  0.840741  1
  O  O69  1  0.573929  0.378065  0.875637  1
  O  O70  1  0.812972  0.340442  0.827886  1
  O  O71  1  0.888881  0.732769  0.921074  1
