# generated using pymatgen
data_As3(HO2)5
_symmetry_space_group_name_H-M   'P 1'
_cell_length_a   4.79491147
_cell_length_b   5.83536210
_cell_length_c   7.47170611
_cell_angle_alpha   100.63366412
_cell_angle_beta   94.89088214
_cell_angle_gamma   101.09916862
_symmetry_Int_Tables_number   1
_chemical_formula_structural   As3(HO2)5
_chemical_formula_sum   'As3 H5 O10'
_cell_volume   200.03797092
_cell_formula_units_Z   1
loop_
 _symmetry_equiv_pos_site_id
 _symmetry_equiv_pos_as_xyz
  1  'x, y, z'
loop_
 _atom_site_type_symbol
 _atom_site_label
 _atom_site_symmetry_multiplicity
 _atom_site_fract_x
 _atom_site_fract_y
 _atom_site_fract_z
 _atom_site_occupancy
  As  As0  1  0.500000  0.500000  0.500000  1
  As  As1  1  0.912323  0.251752  0.232893  1
  As  As2  1  0.087677  0.748248  0.767107  1
  H  H3  1  0.800347  0.851666  0.106575  1
  H  H4  1  0.199653  0.148334  0.893425  1
  H  H5  1  0.000000  0.500000  0.000000  1
  H  H6  1  0.472129  0.803662  0.339250  1
  H  H7  1  0.527871  0.196338  0.660750  1
  O  O8  1  0.026565  0.307976  0.030979  1
  O  O9  1  0.703417  0.961746  0.189672  1
  O  O10  1  0.296583  0.038254  0.810328  1
  O  O11  1  0.688056  0.445185  0.286999  1
  O  O12  1  0.811301  0.757695  0.605703  1
  O  O13  1  0.188699  0.242305  0.394297  1
  O  O14  1  0.666456  0.295335  0.599799  1
  O  O15  1  0.333544  0.704665  0.400201  1
  O  O16  1  0.311944  0.554815  0.713001  1
  O  O17  1  0.973435  0.692024  0.969021  1
