# generated using pymatgen
data_CsIO4
_symmetry_space_group_name_H-M   'P 1'
_cell_length_a   6.02692363
_cell_length_b   6.17717083
_cell_length_c   14.83520880
_cell_angle_alpha   90.00000000
_cell_angle_beta   90.00000000
_cell_angle_gamma   90.00000000
_symmetry_Int_Tables_number   1
_chemical_formula_structural   CsIO4
_chemical_formula_sum   'Cs4 I4 O16'
_cell_volume   552.30498553
_cell_formula_units_Z   4
loop_
 _symmetry_equiv_pos_site_id
 _symmetry_equiv_pos_as_xyz
  1  'x, y, z'
loop_
 _atom_site_type_symbol
 _atom_site_label
 _atom_site_symmetry_multiplicity
 _atom_site_fract_x
 _atom_site_fract_y
 _atom_site_fract_z
 _atom_site_occupancy
  Cs  Cs0  1  0.479708  0.250000  0.628112  1
  Cs  Cs1  1  0.979708  0.250000  0.871888  1
  Cs  Cs2  1  0.520292  0.750000  0.371888  1
  Cs  Cs3  1  0.020292  0.750000  0.128112  1
  I  I4  1  0.466952  0.750000  0.881495  1
  I  I5  1  0.966952  0.750000  0.618505  1
  I  I6  1  0.533048  0.250000  0.118505  1
  I  I7  1  0.033048  0.250000  0.381495  1
  O  O8  1  0.515710  0.511150  0.815131  1
  O  O9  1  0.015710  0.988850  0.684869  1
  O  O10  1  0.484290  0.011150  0.184869  1
  O  O11  1  0.984290  0.488850  0.315131  1
  O  O12  1  0.484290  0.488850  0.184869  1
  O  O13  1  0.984290  0.011150  0.315131  1
  O  O14  1  0.515710  0.988850  0.815131  1
  O  O15  1  0.015710  0.511150  0.684869  1
  O  O16  1  0.817089  0.250000  0.080533  1
  O  O17  1  0.317089  0.250000  0.419467  1
  O  O18  1  0.182911  0.750000  0.919467  1
  O  O19  1  0.682911  0.750000  0.580533  1
  O  O20  1  0.846902  0.250000  0.476015  1
  O  O21  1  0.346902  0.250000  0.023985  1
  O  O22  1  0.153098  0.750000  0.523985  1
  O  O23  1  0.653098  0.750000  0.976015  1
