# generated using pymatgen
data_Ag3P11
_symmetry_space_group_name_H-M   'P 1'
_cell_length_a   7.58335644
_cell_length_b   7.58335644
_cell_length_c   6.68122502
_cell_angle_alpha   65.52252836
_cell_angle_beta   114.47747164
_cell_angle_gamma   119.40266000
_symmetry_Int_Tables_number   1
_chemical_formula_structural   Ag3P11
_chemical_formula_sum   'Ag3 P11'
_cell_volume   293.66781008
_cell_formula_units_Z   1
loop_
 _symmetry_equiv_pos_site_id
 _symmetry_equiv_pos_as_xyz
  1  'x, y, z'
loop_
 _atom_site_type_symbol
 _atom_site_label
 _atom_site_symmetry_multiplicity
 _atom_site_fract_x
 _atom_site_fract_y
 _atom_site_fract_z
 _atom_site_occupancy
  Ag  Ag0  1  0.291331  0.708669  0.025832  1
  Ag  Ag1  1  0.589547  0.410453  0.803597  1
  Ag  Ag2  1  0.999310  0.000690  0.002374  1
  P  P3  1  0.811111  0.188889  0.045718  1
  P  P4  1  0.492395  0.507605  0.055064  1
  P  P5  1  0.081933  0.918067  0.726331  1
  P  P6  1  0.264819  0.224437  0.530740  1
  P  P7  1  0.775563  0.735181  0.530740  1
  P  P8  1  0.614054  0.089469  0.502593  1
  P  P9  1  0.910531  0.385946  0.502593  1
  P  P10  1  0.610049  0.944701  0.271174  1
  P  P11  1  0.055299  0.389951  0.271174  1
  P  P12  1  0.351233  0.191174  0.266235  1
  P  P13  1  0.808826  0.648767  0.266235  1
