# generated using pymatgen
data_SmBr3
_symmetry_space_group_name_H-M   'P 1'
_cell_length_a   7.43823010
_cell_length_b   7.43823010
_cell_length_c   9.24235639
_cell_angle_alpha   90.00000000
_cell_angle_beta   90.00000000
_cell_angle_gamma   148.38786710
_symmetry_Int_Tables_number   1
_chemical_formula_structural   SmBr3
_chemical_formula_sum   'Sm2 Br6'
_cell_volume   268.03467922
_cell_formula_units_Z   2
loop_
 _symmetry_equiv_pos_site_id
 _symmetry_equiv_pos_as_xyz
  1  'x, y, z'
loop_
 _atom_site_type_symbol
 _atom_site_label
 _atom_site_symmetry_multiplicity
 _atom_site_fract_x
 _atom_site_fract_y
 _atom_site_fract_z
 _atom_site_occupancy
  Sm  Sm0  1  0.258636  0.741364  0.250000  1
  Sm  Sm1  1  0.741364  0.258636  0.750000  1
  Br  Br2  1  0.656890  0.343110  0.431926  1
  Br  Br3  1  0.343110  0.656890  0.568074  1
  Br  Br4  1  0.098107  0.901893  0.750000  1
  Br  Br5  1  0.901893  0.098107  0.250000  1
  Br  Br6  1  0.656890  0.343110  0.068074  1
  Br  Br7  1  0.343110  0.656890  0.931926  1
