# generated using pymatgen
data_Tl2AgI3
_symmetry_space_group_name_H-M   'P 1'
_cell_length_a   9.14660950
_cell_length_b   9.14660950
_cell_length_c   9.14660950
_cell_angle_alpha   72.02381669
_cell_angle_beta   72.02381669
_cell_angle_gamma   72.02381669
_symmetry_Int_Tables_number   1
_chemical_formula_structural   Tl2AgI3
_chemical_formula_sum   'Tl6 Ag3 I9'
_cell_volume   672.79673629
_cell_formula_units_Z   3
loop_
 _symmetry_equiv_pos_site_id
 _symmetry_equiv_pos_as_xyz
  1  'x, y, z'
loop_
 _atom_site_type_symbol
 _atom_site_label
 _atom_site_symmetry_multiplicity
 _atom_site_fract_x
 _atom_site_fract_y
 _atom_site_fract_z
 _atom_site_occupancy
  Tl  Tl0  1  0.888256  0.554256  0.327324  1
  Tl  Tl1  1  0.327324  0.888256  0.554256  1
  Tl  Tl2  1  0.554256  0.327324  0.888256  1
  Tl  Tl3  1  0.111744  0.445744  0.672676  1
  Tl  Tl4  1  0.672676  0.111744  0.445744  1
  Tl  Tl5  1  0.445744  0.672676  0.111744  1
  Ag  Ag6  1  0.000000  0.000000  0.000000  1
  Ag  Ag7  1  0.843599  0.843599  0.843599  1
  Ag  Ag8  1  0.156401  0.156401  0.156401  1
  I  I9  1  0.151456  0.669345  0.910100  1
  I  I10  1  0.910100  0.151456  0.669345  1
  I  I11  1  0.669345  0.910100  0.151456  1
  I  I12  1  0.848544  0.330655  0.089900  1
  I  I13  1  0.089900  0.848544  0.330655  1
  I  I14  1  0.330655  0.089900  0.848544  1
  I  I15  1  0.704749  0.704749  0.704749  1
  I  I16  1  0.295251  0.295251  0.295251  1
  I  I17  1  0.500000  0.500000  0.500000  1
