# generated using pymatgen
data_Er(PO3)3
_symmetry_space_group_name_H-M   'P 1'
_cell_length_a   7.07072867
_cell_length_b   9.77455585
_cell_length_c   11.08716216
_cell_angle_alpha   90.00000000
_cell_angle_beta   92.10376744
_cell_angle_gamma   90.00000000
_symmetry_Int_Tables_number   1
_chemical_formula_structural   Er(PO3)3
_chemical_formula_sum   'Er4 P12 O36'
_cell_volume   765.75313468
_cell_formula_units_Z   4
loop_
 _symmetry_equiv_pos_site_id
 _symmetry_equiv_pos_as_xyz
  1  'x, y, z'
loop_
 _atom_site_type_symbol
 _atom_site_label
 _atom_site_symmetry_multiplicity
 _atom_site_fract_x
 _atom_site_fract_y
 _atom_site_fract_z
 _atom_site_occupancy
  Er  Er0  1  0.823501  0.750000  0.538132  1
  Er  Er1  1  0.688094  0.750000  0.019798  1
  Er  Er2  1  0.311906  0.250000  0.980202  1
  Er  Er3  1  0.176499  0.250000  0.461868  1
  P  P4  1  0.312715  0.750000  0.624757  1
  P  P5  1  0.326483  0.465034  0.715601  1
  P  P6  1  0.326483  0.034966  0.715601  1
  P  P7  1  0.732022  0.511000  0.769227  1
  P  P8  1  0.732022  0.989000  0.769227  1
  P  P9  1  0.820497  0.250000  0.899522  1
  P  P10  1  0.267978  0.489000  0.230773  1
  P  P11  1  0.267978  0.011000  0.230773  1
  P  P12  1  0.179503  0.750000  0.100478  1
  P  P13  1  0.673517  0.534966  0.284399  1
  P  P14  1  0.673517  0.965034  0.284399  1
  P  P15  1  0.687285  0.250000  0.375243  1
  O  O16  1  0.506196  0.750000  0.573259  1
  O  O17  1  0.141732  0.750000  0.539980  1
  O  O18  1  0.295321  0.627397  0.721266  1
  O  O19  1  0.295321  0.872603  0.721266  1
  O  O20  1  0.229836  0.406214  0.604669  1
  O  O21  1  0.229836  0.093786  0.604669  1
  O  O22  1  0.280007  0.409267  0.836658  1
  O  O23  1  0.280007  0.090733  0.836658  1
  O  O24  1  0.550307  0.448636  0.695966  1
  O  O25  1  0.550307  0.051364  0.695966  1
  O  O26  1  0.847150  0.586225  0.679710  1
  O  O27  1  0.847150  0.913775  0.679710  1
  O  O28  1  0.671614  0.587040  0.879180  1
  O  O29  1  0.671614  0.912960  0.879180  1
  O  O30  1  0.846545  0.375616  0.806728  1
  O  O31  1  0.846545  0.124384  0.806728  1
  O  O32  1  0.493804  0.250000  0.426741  1
  O  O33  1  0.858268  0.250000  0.460020  1
  O  O34  1  0.770164  0.906214  0.395331  1
  O  O35  1  0.770164  0.593786  0.395331  1
  O  O36  1  0.449693  0.948636  0.304034  1
  O  O37  1  0.449693  0.551364  0.304034  1
  O  O38  1  0.719993  0.909267  0.163342  1
  O  O39  1  0.719993  0.590733  0.163342  1
  O  O40  1  0.704679  0.127397  0.278734  1
  O  O41  1  0.704679  0.372603  0.278734  1
  O  O42  1  0.152850  0.086225  0.320290  1
  O  O43  1  0.152850  0.413775  0.320290  1
  O  O44  1  0.153455  0.875616  0.193272  1
  O  O45  1  0.153455  0.624384  0.193272  1
  O  O46  1  0.328386  0.087040  0.120820  1
  O  O47  1  0.328386  0.412960  0.120820  1
  O  O48  1  0.008245  0.750000  0.018319  1
  O  O49  1  0.373492  0.750000  0.055010  1
  O  O50  1  0.991755  0.250000  0.981681  1
  O  O51  1  0.626508  0.250000  0.944990  1
