# generated using pymatgen
data_Tl2CuI3
_symmetry_space_group_name_H-M   'P 1'
_cell_length_a   9.29323657
_cell_length_b   9.61951712
_cell_length_c   9.81743978
_cell_angle_alpha   90.00000000
_cell_angle_beta   90.00000000
_cell_angle_gamma   90.00000000
_symmetry_Int_Tables_number   1
_chemical_formula_structural   Tl2CuI3
_chemical_formula_sum   'Tl8 Cu4 I12'
_cell_volume   877.64424759
_cell_formula_units_Z   4
loop_
 _symmetry_equiv_pos_site_id
 _symmetry_equiv_pos_as_xyz
  1  'x, y, z'
loop_
 _atom_site_type_symbol
 _atom_site_label
 _atom_site_symmetry_multiplicity
 _atom_site_fract_x
 _atom_site_fract_y
 _atom_site_fract_z
 _atom_site_occupancy
  Tl  Tl0  1  0.155646  0.740884  0.852226  1
  Tl  Tl1  1  0.655646  0.759116  0.647774  1
  Tl  Tl2  1  0.844354  0.740884  0.147774  1
  Tl  Tl3  1  0.344354  0.759116  0.352226  1
  Tl  Tl4  1  0.844354  0.259116  0.147774  1
  Tl  Tl5  1  0.344354  0.240884  0.352226  1
  Tl  Tl6  1  0.155646  0.259116  0.852226  1
  Tl  Tl7  1  0.655646  0.240884  0.647774  1
  Cu  Cu8  1  0.956446  0.000000  0.375648  1
  Cu  Cu9  1  0.456446  0.500000  0.124352  1
  Cu  Cu10  1  0.043554  0.000000  0.624352  1
  Cu  Cu11  1  0.543554  0.500000  0.875648  1
  I  I12  1  0.000000  0.755897  0.500000  1
  I  I13  1  0.500000  0.744103  0.000000  1
  I  I14  1  0.000000  0.244103  0.500000  1
  I  I15  1  0.500000  0.255897  0.000000  1
  I  I16  1  0.361802  0.500000  0.667737  1
  I  I17  1  0.861802  0.000000  0.832263  1
  I  I18  1  0.638198  0.500000  0.332263  1
  I  I19  1  0.138198  0.000000  0.167737  1
  I  I20  1  0.828843  0.500000  0.834796  1
  I  I21  1  0.328843  0.000000  0.665204  1
  I  I22  1  0.171157  0.500000  0.165204  1
  I  I23  1  0.671157  0.000000  0.334796  1
