# generated using pymatgen
data_Cs2MnSnTe4
_symmetry_space_group_name_H-M   'P 1'
_cell_length_a   15.29907239
_cell_length_b   13.56852273
_cell_length_c   8.55221884
_cell_angle_alpha   84.26692216
_cell_angle_beta   61.93923249
_cell_angle_gamma   33.79384535
_symmetry_Int_Tables_number   1
_chemical_formula_structural   Cs2MnSnTe4
_chemical_formula_sum   'Cs4 Mn2 Sn2 Te8'
_cell_volume   701.65866742
_cell_formula_units_Z   2
loop_
 _symmetry_equiv_pos_site_id
 _symmetry_equiv_pos_as_xyz
  1  'x, y, z'
loop_
 _atom_site_type_symbol
 _atom_site_label
 _atom_site_symmetry_multiplicity
 _atom_site_fract_x
 _atom_site_fract_y
 _atom_site_fract_z
 _atom_site_occupancy
  Cs  Cs0  1  0.184271  0.184271  0.815729  1
  Cs  Cs1  1  0.815729  0.815729  0.184271  1
  Cs  Cs2  1  0.065729  0.065729  0.434271  1
  Cs  Cs3  1  0.434271  0.434271  0.065729  1
  Mn  Mn4  1  0.750000  0.750000  0.750000  1
  Mn  Mn5  1  0.500000  0.500000  0.500000  1
  Sn  Sn6  1  0.250000  0.250000  0.250000  1
  Sn  Sn7  1  0.000000  0.000000  1.000000  1
  Te  Te8  1  0.094596  0.785405  0.709707  1
  Te  Te9  1  0.410292  0.709707  0.785405  1
  Te  Te10  1  0.709707  0.410292  0.094596  1
  Te  Te11  1  0.785405  0.094596  0.410292  1
  Te  Te12  1  0.155404  0.464595  0.540293  1
  Te  Te13  1  0.839708  0.540293  0.464595  1
  Te  Te14  1  0.540293  0.839708  0.155404  1
  Te  Te15  1  0.464595  0.155404  0.839708  1
