# generated using pymatgen
data_Ho(HO)3
_symmetry_space_group_name_H-M   'P 1'
_cell_length_a   6.32222428
_cell_length_b   6.32222428
_cell_length_c   3.52552830
_cell_angle_alpha   90.00000000
_cell_angle_beta   90.00000000
_cell_angle_gamma   120.00000000
_symmetry_Int_Tables_number   1
_chemical_formula_structural   Ho(HO)3
_chemical_formula_sum   'Ho2 H6 O6'
_cell_volume   122.03787402
_cell_formula_units_Z   2
loop_
 _symmetry_equiv_pos_site_id
 _symmetry_equiv_pos_as_xyz
  1  'x, y, z'
loop_
 _atom_site_type_symbol
 _atom_site_label
 _atom_site_symmetry_multiplicity
 _atom_site_fract_x
 _atom_site_fract_y
 _atom_site_fract_z
 _atom_site_occupancy
  Ho  Ho0  1  0.666667  0.333333  0.750000  1
  Ho  Ho1  1  0.333333  0.666667  0.250000  1
  H  H2  1  0.721196  0.861216  0.750000  1
  H  H3  1  0.859980  0.721196  0.250000  1
  H  H4  1  0.140020  0.278804  0.750000  1
  H  H5  1  0.278804  0.138784  0.250000  1
  H  H6  1  0.861216  0.140020  0.250000  1
  H  H7  1  0.138784  0.859980  0.750000  1
  O  O8  1  0.915041  0.602304  0.250000  1
  O  O9  1  0.602304  0.687263  0.750000  1
  O  O10  1  0.084959  0.397696  0.750000  1
  O  O11  1  0.397696  0.312737  0.250000  1
  O  O12  1  0.687263  0.084959  0.250000  1
  O  O13  1  0.312737  0.915041  0.750000  1
