# generated using pymatgen
data_K2PrI5
_symmetry_space_group_name_H-M   'P 1'
_cell_length_a   9.33983408
_cell_length_b   9.94822015
_cell_length_c   14.65827679
_cell_angle_alpha   90.00000000
_cell_angle_beta   90.00000000
_cell_angle_gamma   90.00000000
_symmetry_Int_Tables_number   1
_chemical_formula_structural   K2PrI5
_chemical_formula_sum   'K8 Pr4 I20'
_cell_volume   1361.96976560
_cell_formula_units_Z   4
loop_
 _symmetry_equiv_pos_site_id
 _symmetry_equiv_pos_as_xyz
  1  'x, y, z'
loop_
 _atom_site_type_symbol
 _atom_site_label
 _atom_site_symmetry_multiplicity
 _atom_site_fract_x
 _atom_site_fract_y
 _atom_site_fract_z
 _atom_site_occupancy
  K  K0  1  0.434872  0.505478  0.672163  1
  K  K1  1  0.934872  0.494522  0.827837  1
  K  K2  1  0.565128  0.005478  0.327837  1
  K  K3  1  0.065128  0.994522  0.172163  1
  K  K4  1  0.565128  0.494522  0.327837  1
  K  K5  1  0.065128  0.505478  0.172163  1
  K  K6  1  0.434872  0.994522  0.672163  1
  K  K7  1  0.934872  0.005478  0.827837  1
  Pr  Pr8  1  0.919565  0.750000  0.505650  1
  Pr  Pr9  1  0.580435  0.750000  0.005650  1
  Pr  Pr10  1  0.080435  0.250000  0.494350  1
  Pr  Pr11  1  0.419565  0.250000  0.994350  1
  I  I12  1  0.570444  0.750000  0.506478  1
  I  I13  1  0.330496  0.953832  0.926112  1
  I  I14  1  0.830496  0.046168  0.573888  1
  I  I15  1  0.669504  0.453832  0.073888  1
  I  I16  1  0.070444  0.250000  0.993522  1
  I  I17  1  0.657374  0.750000  0.793001  1
  I  I18  1  0.929556  0.750000  0.006478  1
  I  I19  1  0.429556  0.250000  0.493522  1
  I  I20  1  0.120619  0.750000  0.683821  1
  I  I21  1  0.157374  0.250000  0.706999  1
  I  I22  1  0.342626  0.250000  0.206999  1
  I  I23  1  0.842626  0.750000  0.293001  1
  I  I24  1  0.669504  0.046168  0.073888  1
  I  I25  1  0.620619  0.250000  0.816179  1
  I  I26  1  0.879381  0.250000  0.316179  1
  I  I27  1  0.379381  0.750000  0.183821  1
  I  I28  1  0.830496  0.453832  0.573888  1
  I  I29  1  0.330496  0.546168  0.926112  1
  I  I30  1  0.169504  0.953832  0.426112  1
  I  I31  1  0.169504  0.546168  0.426112  1
