# generated using pymatgen
data_CsSrN9
_symmetry_space_group_name_H-M   'P 1'
_cell_length_a   6.97495898
_cell_length_b   6.97495898
_cell_length_c   9.12103059
_cell_angle_alpha   70.66376124
_cell_angle_beta   109.33623876
_cell_angle_gamma   84.37620997
_symmetry_Int_Tables_number   1
_chemical_formula_structural   CsSrN9
_chemical_formula_sum   'Cs2 Sr2 N18'
_cell_volume   384.19664406
_cell_formula_units_Z   2
loop_
 _symmetry_equiv_pos_site_id
 _symmetry_equiv_pos_as_xyz
  1  'x, y, z'
loop_
 _atom_site_type_symbol
 _atom_site_label
 _atom_site_symmetry_multiplicity
 _atom_site_fract_x
 _atom_site_fract_y
 _atom_site_fract_z
 _atom_site_occupancy
  Cs  Cs0  1  0.210669  0.210669  0.250000  1
  Cs  Cs1  1  0.789331  0.789331  0.750000  1
  Sr  Sr2  1  0.760877  0.760877  0.250000  1
  Sr  Sr3  1  0.239123  0.239123  0.750000  1
  N  N4  1  0.742736  0.086848  0.350420  1
  N  N5  1  0.086848  0.742736  0.149580  1
  N  N6  1  0.257264  0.913152  0.649580  1
  N  N7  1  0.913152  0.257264  0.850420  1
  N  N8  1  0.500000  0.500000  0.500000  1
  N  N9  1  0.500000  0.500000  0.000000  1
  N  N10  1  0.340527  0.450604  0.950843  1
  N  N11  1  0.450604  0.340527  0.549157  1
  N  N12  1  0.659473  0.549396  0.049157  1
  N  N13  1  0.549396  0.659473  0.450843  1
  N  N14  1  0.790259  0.179109  0.897701  1
  N  N15  1  0.179109  0.790259  0.602299  1
  N  N16  1  0.209741  0.820891  0.102299  1
  N  N17  1  0.820891  0.209741  0.397701  1
  N  N18  1  0.666473  0.099794  0.944498  1
  N  N19  1  0.099794  0.666473  0.555502  1
  N  N20  1  0.333527  0.900206  0.055502  1
  N  N21  1  0.900206  0.333527  0.444498  1
