# generated using pymatgen
data_Sr4Cl6O
_symmetry_space_group_name_H-M   'P 1'
_cell_length_a   9.57617638
_cell_length_b   9.57617638
_cell_length_c   7.30659379
_cell_angle_alpha   90.00000000
_cell_angle_beta   90.00000000
_cell_angle_gamma   120.00000000
_symmetry_Int_Tables_number   1
_chemical_formula_structural   Sr4Cl6O
_chemical_formula_sum   'Sr8 Cl12 O2'
_cell_volume   580.26966642
_cell_formula_units_Z   2
loop_
 _symmetry_equiv_pos_site_id
 _symmetry_equiv_pos_as_xyz
  1  'x, y, z'
loop_
 _atom_site_type_symbol
 _atom_site_label
 _atom_site_symmetry_multiplicity
 _atom_site_fract_x
 _atom_site_fract_y
 _atom_site_fract_z
 _atom_site_occupancy
  Sr  Sr0  1  0.197038  0.394076  0.895709  1
  Sr  Sr1  1  0.802962  0.605924  0.395709  1
  Sr  Sr2  1  0.394076  0.197038  0.395709  1
  Sr  Sr3  1  0.197038  0.802962  0.895709  1
  Sr  Sr4  1  0.605924  0.802962  0.895709  1
  Sr  Sr5  1  0.802962  0.197038  0.395709  1
  Sr  Sr6  1  0.333333  0.666667  0.326327  1
  Sr  Sr7  1  0.666667  0.333333  0.826327  1
  Cl  Cl8  1  0.858617  0.717234  0.784130  1
  Cl  Cl9  1  0.141383  0.282766  0.284130  1
  Cl  Cl10  1  0.717234  0.858617  0.284130  1
  Cl  Cl11  1  0.858617  0.141383  0.784130  1
  Cl  Cl12  1  0.534804  0.465196  0.108107  1
  Cl  Cl13  1  0.069608  0.534804  0.608107  1
  Cl  Cl14  1  0.465196  0.930392  0.608107  1
  Cl  Cl15  1  0.534804  0.069608  0.108107  1
  Cl  Cl16  1  0.930392  0.465196  0.108107  1
  Cl  Cl17  1  0.465196  0.534804  0.608107  1
  Cl  Cl18  1  0.141383  0.858617  0.284130  1
  Cl  Cl19  1  0.282766  0.141383  0.784130  1
  O  O20  1  0.666667  0.333333  0.501282  1
  O  O21  1  0.333333  0.666667  0.001282  1
