# generated using pymatgen
data_NaP4N7
_symmetry_space_group_name_H-M   'P 1'
_cell_length_a   7.56165086
_cell_length_b   7.56165086
_cell_length_c   5.18245497
_cell_angle_alpha   79.76830544
_cell_angle_beta   100.23169456
_cell_angle_gamma   110.66192953
_symmetry_Int_Tables_number   1
_chemical_formula_structural   NaP4N7
_chemical_formula_sum   'Na2 P8 N14'
_cell_volume   270.72151882
_cell_formula_units_Z   2
loop_
 _symmetry_equiv_pos_site_id
 _symmetry_equiv_pos_as_xyz
  1  'x, y, z'
loop_
 _atom_site_type_symbol
 _atom_site_label
 _atom_site_symmetry_multiplicity
 _atom_site_fract_x
 _atom_site_fract_y
 _atom_site_fract_z
 _atom_site_occupancy
  Na  Na0  1  0.793595  0.793595  0.750000  1
  Na  Na1  1  0.206405  0.206405  0.250000  1
  P  P2  1  0.295537  0.540381  0.712674  1
  P  P3  1  0.540381  0.295537  0.787326  1
  P  P4  1  0.096680  0.749499  0.302931  1
  P  P5  1  0.749499  0.096680  0.197069  1
  P  P6  1  0.903320  0.250501  0.697069  1
  P  P7  1  0.250501  0.903320  0.802931  1
  P  P8  1  0.459619  0.704463  0.212674  1
  P  P9  1  0.704463  0.459619  0.287326  1
  N  N10  1  0.268477  0.636135  0.391918  1
  N  N11  1  0.636135  0.268477  0.108082  1
  N  N12  1  0.731523  0.363865  0.608082  1
  N  N13  1  0.363865  0.731523  0.891918  1
  N  N14  1  0.894730  0.607941  0.191644  1
  N  N15  1  0.607941  0.894730  0.308356  1
  N  N16  1  0.105270  0.392059  0.808356  1
  N  N17  1  0.392059  0.105270  0.691644  1
  N  N18  1  0.916544  0.178992  0.429173  1
  N  N19  1  0.178992  0.916544  0.070827  1
  N  N20  1  0.476768  0.476768  0.750000  1
  N  N21  1  0.523232  0.523232  0.250000  1
  N  N22  1  0.821008  0.083456  0.929173  1
  N  N23  1  0.083456  0.821008  0.570827  1
