# generated using pymatgen
data_TlB3O5
_symmetry_space_group_name_H-M   'P 1'
_cell_length_a   5.42613331
_cell_length_b   8.39407419
_cell_length_c   10.40782644
_cell_angle_alpha   90.00000000
_cell_angle_beta   90.00000000
_cell_angle_gamma   90.00000000
_symmetry_Int_Tables_number   1
_chemical_formula_structural   TlB3O5
_chemical_formula_sum   'Tl4 B12 O20'
_cell_volume   474.04907564
_cell_formula_units_Z   4
loop_
 _symmetry_equiv_pos_site_id
 _symmetry_equiv_pos_as_xyz
  1  'x, y, z'
loop_
 _atom_site_type_symbol
 _atom_site_label
 _atom_site_symmetry_multiplicity
 _atom_site_fract_x
 _atom_site_fract_y
 _atom_site_fract_z
 _atom_site_occupancy
  Tl  Tl0  1  0.459783  0.731880  0.636853  1
  Tl  Tl1  1  0.959783  0.768120  0.363147  1
  Tl  Tl2  1  0.540217  0.231880  0.863147  1
  Tl  Tl3  1  0.040217  0.268120  0.136853  1
  B  B4  1  0.089522  0.348909  0.644610  1
  B  B5  1  0.589522  0.151091  0.355390  1
  B  B6  1  0.910478  0.848909  0.855390  1
  B  B7  1  0.410478  0.651091  0.144610  1
  B  B8  1  0.704150  0.618519  0.958965  1
  B  B9  1  0.204150  0.881481  0.041035  1
  B  B10  1  0.965459  0.064464  0.691718  1
  B  B11  1  0.465459  0.435536  0.308282  1
  B  B12  1  0.034541  0.564464  0.808282  1
  B  B13  1  0.534541  0.935536  0.191718  1
  B  B14  1  0.295850  0.118519  0.541035  1
  B  B15  1  0.795850  0.381481  0.458965  1
  O  O16  1  0.299898  0.274390  0.579148  1
  O  O17  1  0.853153  0.507491  0.891902  1
  O  O18  1  0.646847  0.492509  0.391902  1
  O  O19  1  0.353153  0.992509  0.108098  1
  O  O20  1  0.566340  0.775415  0.208703  1
  O  O21  1  0.066340  0.724585  0.791297  1
  O  O22  1  0.433660  0.275415  0.291297  1
  O  O23  1  0.933660  0.224585  0.708703  1
  O  O24  1  0.314139  0.539194  0.242502  1
  O  O25  1  0.814139  0.960806  0.757498  1
  O  O26  1  0.685861  0.039194  0.257498  1
  O  O27  1  0.185861  0.460806  0.742502  1
  O  O28  1  0.700102  0.774390  0.920852  1
  O  O29  1  0.200102  0.725610  0.079148  1
  O  O30  1  0.937360  0.443259  0.554469  1
  O  O31  1  0.437360  0.056741  0.445531  1
  O  O32  1  0.062640  0.943259  0.945531  1
  O  O33  1  0.562640  0.556741  0.054469  1
  O  O34  1  0.146847  0.007491  0.608098  1
  O  O35  1  0.799898  0.225610  0.420852  1
