# generated using pymatgen
data_Rb2AgCl3
_symmetry_space_group_name_H-M   'P 1'
_cell_length_a   4.54375675
_cell_length_b   9.38475904
_cell_length_c   18.21182310
_cell_angle_alpha   90.00000000
_cell_angle_beta   90.00000000
_cell_angle_gamma   90.00000000
_symmetry_Int_Tables_number   1
_chemical_formula_structural   Rb2AgCl3
_chemical_formula_sum   'Rb8 Ag4 Cl12'
_cell_volume   776.58969405
_cell_formula_units_Z   4
loop_
 _symmetry_equiv_pos_site_id
 _symmetry_equiv_pos_as_xyz
  1  'x, y, z'
loop_
 _atom_site_type_symbol
 _atom_site_label
 _atom_site_symmetry_multiplicity
 _atom_site_fract_x
 _atom_site_fract_y
 _atom_site_fract_z
 _atom_site_occupancy
  Rb  Rb0  1  0.750000  0.078442  0.286504  1
  Rb  Rb1  1  0.750000  0.739441  0.956779  1
  Rb  Rb2  1  0.250000  0.760559  0.456779  1
  Rb  Rb3  1  0.750000  0.239441  0.543221  1
  Rb  Rb4  1  0.750000  0.578442  0.213496  1
  Rb  Rb5  1  0.250000  0.421558  0.786504  1
  Rb  Rb6  1  0.250000  0.921558  0.713496  1
  Rb  Rb7  1  0.250000  0.260559  0.043221  1
  Ag  Ag8  1  0.250000  0.877224  0.131467  1
  Ag  Ag9  1  0.750000  0.122776  0.868533  1
  Ag  Ag10  1  0.250000  0.377224  0.368533  1
  Ag  Ag11  1  0.750000  0.622776  0.631467  1
  Cl  Cl12  1  0.750000  0.005379  0.098471  1
  Cl  Cl13  1  0.250000  0.994621  0.901529  1
  Cl  Cl14  1  0.750000  0.505379  0.401529  1
  Cl  Cl15  1  0.250000  0.494621  0.598471  1
  Cl  Cl16  1  0.250000  0.816961  0.272490  1
  Cl  Cl17  1  0.750000  0.183039  0.727510  1
  Cl  Cl18  1  0.250000  0.316961  0.227510  1
  Cl  Cl19  1  0.750000  0.683039  0.772490  1
  Cl  Cl20  1  0.250000  0.623551  0.072812  1
  Cl  Cl21  1  0.750000  0.876449  0.572812  1
  Cl  Cl22  1  0.250000  0.123551  0.427188  1
  Cl  Cl23  1  0.750000  0.376449  0.927188  1
