# generated using pymatgen
data_SbS8Cl3
_symmetry_space_group_name_H-M   'P 1'
_cell_length_a   8.58307901
_cell_length_b   9.45025531
_cell_length_c   11.53331421
_cell_angle_alpha   97.09518707
_cell_angle_beta   107.93698415
_cell_angle_gamma   109.02226366
_symmetry_Int_Tables_number   1
_chemical_formula_structural   SbS8Cl3
_chemical_formula_sum   'Sb2 S16 Cl6'
_cell_volume   814.93573129
_cell_formula_units_Z   2
loop_
 _symmetry_equiv_pos_site_id
 _symmetry_equiv_pos_as_xyz
  1  'x, y, z'
loop_
 _atom_site_type_symbol
 _atom_site_label
 _atom_site_symmetry_multiplicity
 _atom_site_fract_x
 _atom_site_fract_y
 _atom_site_fract_z
 _atom_site_occupancy
  Sb  Sb0  1  0.801883  0.059860  0.850294  1
  Sb  Sb1  1  0.198117  0.940140  0.149706  1
  S  S2  1  0.854141  0.507498  0.815696  1
  S  S3  1  0.145859  0.492502  0.184304  1
  S  S4  1  0.726474  0.425265  0.623810  1
  S  S5  1  0.273526  0.574735  0.376190  1
  S  S6  1  0.733925  0.211393  0.570697  1
  S  S7  1  0.266075  0.788607  0.429303  1
  S  S8  1  0.940717  0.235940  0.508857  1
  S  S9  1  0.059283  0.764060  0.491143  1
  S  S10  1  0.886765  0.344625  0.143372  1
  S  S11  1  0.113235  0.655375  0.856628  1
  S  S12  1  0.722003  0.464236  0.100072  1
  S  S13  1  0.277997  0.535764  0.899928  1
  S  S14  1  0.673229  0.532320  0.257390  1
  S  S15  1  0.326771  0.467680  0.742610  1
  S  S16  1  0.843056  0.758973  0.346629  1
  S  S17  1  0.156944  0.241027  0.653371  1
  Cl  Cl18  1  0.502948  0.042251  0.790122  1
  Cl  Cl19  1  0.497052  0.957749  0.209878  1
  Cl  Cl20  1  0.774735  0.902383  0.998598  1
  Cl  Cl21  1  0.225265  0.097617  0.001402  1
  Cl  Cl22  1  0.752462  0.854365  0.683371  1
  Cl  Cl23  1  0.247538  0.145635  0.316629  1
