# generated using pymatgen
data_P4N3Cl11
_symmetry_space_group_name_H-M   'P 1'
_cell_length_a   8.03238206
_cell_length_b   8.03238206
_cell_length_c   8.03238206
_cell_angle_alpha   85.29810365
_cell_angle_beta   85.29810365
_cell_angle_gamma   85.29810365
_symmetry_Int_Tables_number   1
_chemical_formula_structural   P4N3Cl11
_chemical_formula_sum   'P4 N3 Cl11'
_cell_volume   513.28088741
_cell_formula_units_Z   1
loop_
 _symmetry_equiv_pos_site_id
 _symmetry_equiv_pos_as_xyz
  1  'x, y, z'
loop_
 _atom_site_type_symbol
 _atom_site_label
 _atom_site_symmetry_multiplicity
 _atom_site_fract_x
 _atom_site_fract_y
 _atom_site_fract_z
 _atom_site_occupancy
  P  P0  1  0.375926  0.375926  0.375926  1
  P  P1  1  0.507524  0.585980  0.084998  1
  P  P2  1  0.084998  0.507524  0.585980  1
  P  P3  1  0.585980  0.084998  0.507524  1
  N  N4  1  0.471634  0.250929  0.508867  1
  N  N5  1  0.508867  0.471634  0.250929  1
  N  N6  1  0.250929  0.508867  0.471634  1
  Cl  Cl7  1  0.239938  0.239938  0.239938  1
  Cl  Cl8  1  0.054682  0.712157  0.713339  1
  Cl  Cl9  1  0.713339  0.054682  0.712157  1
  Cl  Cl10  1  0.712157  0.713339  0.054682  1
  Cl  Cl11  1  0.060689  0.311724  0.755524  1
  Cl  Cl12  1  0.755524  0.060689  0.311724  1
  Cl  Cl13  1  0.311724  0.755524  0.060689  1
  Cl  Cl14  1  0.879857  0.514923  0.456055  1
  Cl  Cl15  1  0.456055  0.879857  0.514923  1
  Cl  Cl16  1  0.514923  0.456055  0.879857  1
  Cl  Cl17  1  0.988625  0.988625  0.988625  1
