# generated using pymatgen
data_GeBi2O5
_symmetry_space_group_name_H-M   'P 1'
_cell_length_a   8.40834053
_cell_length_b   8.40834053
_cell_length_c   5.48159945
_cell_angle_alpha   90.00000000
_cell_angle_beta   90.00000000
_cell_angle_gamma   141.02636164
_symmetry_Int_Tables_number   1
_chemical_formula_structural   GeBi2O5
_chemical_formula_sum   'Ge2 Bi4 O10'
_cell_volume   243.75459717
_cell_formula_units_Z   2
loop_
 _symmetry_equiv_pos_site_id
 _symmetry_equiv_pos_as_xyz
  1  'x, y, z'
loop_
 _atom_site_type_symbol
 _atom_site_label
 _atom_site_symmetry_multiplicity
 _atom_site_fract_x
 _atom_site_fract_y
 _atom_site_fract_z
 _atom_site_occupancy
  Ge  Ge0  1  0.685199  0.685199  0.308473  1
  Ge  Ge1  1  0.314801  0.314801  0.808473  1
  Bi  Bi2  1  0.950476  0.612280  0.753863  1
  Bi  Bi3  1  0.049524  0.387720  0.253863  1
  Bi  Bi4  1  0.387720  0.049524  0.253863  1
  Bi  Bi5  1  0.612280  0.950476  0.753863  1
  O  O6  1  0.761937  0.263235  0.529949  1
  O  O7  1  0.238063  0.736765  0.029949  1
  O  O8  1  0.736765  0.238063  0.029949  1
  O  O9  1  0.263235  0.761937  0.529949  1
  O  O10  1  0.927313  0.735754  0.359766  1
  O  O11  1  0.072687  0.264246  0.859766  1
  O  O12  1  0.414043  0.414043  0.492941  1
  O  O13  1  0.585957  0.585957  0.992941  1
  O  O14  1  0.735754  0.927313  0.359766  1
  O  O15  1  0.264246  0.072687  0.859766  1
