# generated using pymatgen
data_Nb2Te6I
_symmetry_space_group_name_H-M   'P 1'
_cell_length_a   9.38306788
_cell_length_b   14.28549927
_cell_length_c   9.82378364
_cell_angle_alpha   90.00000000
_cell_angle_beta   112.87966711
_cell_angle_gamma   90.00000000
_symmetry_Int_Tables_number   1
_chemical_formula_structural   Nb2Te6I
_chemical_formula_sum   'Nb8 Te24 I4'
_cell_volume   1213.19661568
_cell_formula_units_Z   4
loop_
 _symmetry_equiv_pos_site_id
 _symmetry_equiv_pos_as_xyz
  1  'x, y, z'
loop_
 _atom_site_type_symbol
 _atom_site_label
 _atom_site_symmetry_multiplicity
 _atom_site_fract_x
 _atom_site_fract_y
 _atom_site_fract_z
 _atom_site_occupancy
  Nb  Nb0  1  0.824559  0.992033  0.370333  1
  Nb  Nb1  1  0.175441  0.492033  0.129667  1
  Nb  Nb2  1  0.175441  0.007967  0.629667  1
  Nb  Nb3  1  0.824559  0.507967  0.870333  1
  Nb  Nb4  1  0.475781  0.975459  0.130787  1
  Nb  Nb5  1  0.524219  0.475459  0.369213  1
  Nb  Nb6  1  0.524219  0.024541  0.869213  1
  Nb  Nb7  1  0.475781  0.524541  0.630787  1
  Te  Te8  1  0.757025  0.903393  0.089429  1
  Te  Te9  1  0.242975  0.403393  0.410571  1
  Te  Te10  1  0.242975  0.096607  0.910571  1
  Te  Te11  1  0.757025  0.596607  0.589429  1
  Te  Te12  1  0.626200  0.816383  0.270805  1
  Te  Te13  1  0.373800  0.316383  0.229195  1
  Te  Te14  1  0.373800  0.183617  0.729195  1
  Te  Te15  1  0.626200  0.683617  0.770805  1
  Te  Te16  1  0.044646  0.841384  0.472224  1
  Te  Te17  1  0.955354  0.341384  0.027776  1
  Te  Te18  1  0.955354  0.158616  0.527776  1
  Te  Te19  1  0.044646  0.658616  0.972224  1
  Te  Te20  1  0.916617  0.916555  0.661087  1
  Te  Te21  1  0.083383  0.416555  0.838913  1
  Te  Te22  1  0.083383  0.083445  0.338913  1
  Te  Te23  1  0.916617  0.583445  0.161087  1
  Te  Te24  1  0.546120  0.063250  0.409321  1
  Te  Te25  1  0.453880  0.563250  0.090679  1
  Te  Te26  1  0.453880  0.936750  0.590679  1
  Te  Te27  1  0.546120  0.436750  0.909321  1
  Te  Te28  1  0.650281  0.134658  0.143719  1
  Te  Te29  1  0.349719  0.634658  0.356281  1
  Te  Te30  1  0.349719  0.865342  0.856281  1
  Te  Te31  1  0.650281  0.365342  0.643719  1
  I  I32  1  0.188304  0.920495  0.151480  1
  I  I33  1  0.811696  0.420495  0.348520  1
  I  I34  1  0.811696  0.079505  0.848520  1
  I  I35  1  0.188304  0.579505  0.651480  1
