# generated using pymatgen
data_RbMoP2O7
_symmetry_space_group_name_H-M   'P 1'
_cell_length_a   7.69719979
_cell_length_b   10.61996229
_cell_length_c   8.59978396
_cell_angle_alpha   90.00000000
_cell_angle_beta   106.16381089
_cell_angle_gamma   90.00000000
_symmetry_Int_Tables_number   1
_chemical_formula_structural   RbMoP2O7
_chemical_formula_sum   'Rb4 Mo4 P8 O28'
_cell_volume   675.19147269
_cell_formula_units_Z   4
loop_
 _symmetry_equiv_pos_site_id
 _symmetry_equiv_pos_as_xyz
  1  'x, y, z'
loop_
 _atom_site_type_symbol
 _atom_site_label
 _atom_site_symmetry_multiplicity
 _atom_site_fract_x
 _atom_site_fract_y
 _atom_site_fract_z
 _atom_site_occupancy
  Rb  Rb0  1  0.185753  0.819813  0.558816  1
  Rb  Rb1  1  0.814247  0.319813  0.941184  1
  Rb  Rb2  1  0.814247  0.180187  0.441184  1
  Rb  Rb3  1  0.185753  0.680187  0.058816  1
  Mo  Mo4  1  0.236612  0.101062  0.257910  1
  Mo  Mo5  1  0.763388  0.601062  0.242090  1
  Mo  Mo6  1  0.763388  0.898938  0.742090  1
  Mo  Mo7  1  0.236612  0.398938  0.757910  1
  P  P8  1  0.128057  0.399986  0.325100  1
  P  P9  1  0.871943  0.899986  0.174900  1
  P  P10  1  0.871943  0.600014  0.674900  1
  P  P11  1  0.128057  0.100014  0.825100  1
  P  P12  1  0.434831  0.134023  0.691107  1
  P  P13  1  0.565169  0.634023  0.808893  1
  P  P14  1  0.565169  0.865977  0.308893  1
  P  P15  1  0.434831  0.365977  0.191107  1
  O  O16  1  0.450386  0.274679  0.735915  1
  O  O17  1  0.549614  0.774679  0.764085  1
  O  O18  1  0.549614  0.725321  0.264085  1
  O  O19  1  0.450386  0.225321  0.235915  1
  O  O20  1  0.999062  0.002637  0.721414  1
  O  O21  1  0.000938  0.502637  0.778586  1
  O  O22  1  0.000938  0.997363  0.278586  1
  O  O23  1  0.999062  0.497363  0.221414  1
  O  O24  1  0.323694  0.104190  0.519050  1
  O  O25  1  0.676306  0.604190  0.980950  1
  O  O26  1  0.676306  0.895810  0.480950  1
  O  O27  1  0.323694  0.395810  0.019050  1
  O  O28  1  0.137991  0.093946  0.002303  1
  O  O29  1  0.862009  0.593946  0.497697  1
  O  O30  1  0.862009  0.906054  0.997697  1
  O  O31  1  0.137991  0.406054  0.502303  1
  O  O32  1  0.328014  0.434920  0.308149  1
  O  O33  1  0.671986  0.934920  0.191851  1
  O  O34  1  0.671986  0.565080  0.691851  1
  O  O35  1  0.328014  0.065080  0.808149  1
  O  O36  1  0.077000  0.268052  0.251621  1
  O  O37  1  0.923000  0.768052  0.248379  1
  O  O38  1  0.923000  0.731948  0.748379  1
  O  O39  1  0.077000  0.231948  0.751621  1
  O  O40  1  0.624414  0.423252  0.238933  1
  O  O41  1  0.375586  0.923252  0.261067  1
  O  O42  1  0.375586  0.576748  0.761067  1
  O  O43  1  0.624414  0.076748  0.738933  1
