# generated using pymatgen
data_Li2CrPO4F
_symmetry_space_group_name_H-M   'P 1'
_cell_length_a   5.31068415
_cell_length_b   5.56846984
_cell_length_c   7.62224588
_cell_angle_alpha   107.73633675
_cell_angle_beta   107.17042333
_cell_angle_gamma   93.90911059
_symmetry_Int_Tables_number   1
_chemical_formula_structural   Li2CrPO4F
_chemical_formula_sum   'Li4 Cr2 P2 O8 F2'
_cell_volume   202.00560745
_cell_formula_units_Z   2
loop_
 _symmetry_equiv_pos_site_id
 _symmetry_equiv_pos_as_xyz
  1  'x, y, z'
loop_
 _atom_site_type_symbol
 _atom_site_label
 _atom_site_symmetry_multiplicity
 _atom_site_fract_x
 _atom_site_fract_y
 _atom_site_fract_z
 _atom_site_occupancy
  Li  Li0  1  0.168220  0.546398  0.125894  1
  Li  Li1  1  0.520133  0.180518  0.855874  1
  Li  Li2  1  0.490987  0.912906  0.476449  1
  Li  Li3  1  0.760796  0.441385  0.675399  1
  Cr  Cr4  1  0.008118  0.999940  0.020213  1
  Cr  Cr5  1  0.994288  0.996186  0.508372  1
  P  P6  1  0.650569  0.348687  0.248861  1
  P  P7  1  0.356787  0.663537  0.787523  1
  O  O8  1  0.712081  0.195810  0.392046  1
  O  O9  1  0.289455  0.831584  0.653767  1
  O  O10  1  0.366838  0.382734  0.675445  1
  O  O11  1  0.133073  0.662577  0.883852  1
  O  O12  1  0.855837  0.327334  0.136478  1
  O  O13  1  0.636544  0.783713  0.937735  1
  O  O14  1  0.648916  0.627149  0.365227  1
  O  O15  1  0.368694  0.240056  0.085609  1
  F  F16  1  0.812326  0.110350  0.720062  1
  F  F17  1  0.154221  0.880763  0.292606  1
