# generated using pymatgen
data_Na4SeO5
_symmetry_space_group_name_H-M   'P 1'
_cell_length_a   5.67669630
_cell_length_b   10.00399300
_cell_length_c   10.02774403
_cell_angle_alpha   113.34605129
_cell_angle_beta   96.28951588
_cell_angle_gamma   95.75564351
_symmetry_Int_Tables_number   1
_chemical_formula_structural   Na4SeO5
_chemical_formula_sum   'Na16 Se4 O20'
_cell_volume   513.21792777
_cell_formula_units_Z   4
loop_
 _symmetry_equiv_pos_site_id
 _symmetry_equiv_pos_as_xyz
  1  'x, y, z'
loop_
 _atom_site_type_symbol
 _atom_site_label
 _atom_site_symmetry_multiplicity
 _atom_site_fract_x
 _atom_site_fract_y
 _atom_site_fract_z
 _atom_site_occupancy
  Na  Na0  1  0.253220  0.943560  0.545428  1
  Na  Na1  1  0.755979  0.447707  0.062468  1
  Na  Na2  1  0.244021  0.552293  0.937532  1
  Na  Na3  1  0.746780  0.056440  0.454572  1
  Na  Na4  1  0.000000  0.000000  0.000000  1
  Na  Na5  1  0.500000  0.500000  0.500000  1
  Na  Na6  1  0.494454  0.900571  0.094994  1
  Na  Na7  1  0.505546  0.099429  0.905006  1
  Na  Na8  1  0.998358  0.602443  0.400247  1
  Na  Na9  1  0.001642  0.397557  0.599753  1
  Na  Na10  1  0.720077  0.833490  0.637474  1
  Na  Na11  1  0.279923  0.166510  0.362526  1
  Na  Na12  1  0.006693  0.806184  0.202900  1
  Na  Na13  1  0.993307  0.193816  0.797100  1
  Na  Na14  1  0.731391  0.640560  0.842664  1
  Na  Na15  1  0.268609  0.359440  0.157336  1
  Se  Se16  1  0.483489  0.294898  0.732962  1
  Se  Se17  1  0.516511  0.705102  0.267038  1
  Se  Se18  1  0.212746  0.779639  0.755261  1
  Se  Se19  1  0.787254  0.220361  0.244739  1
  O  O20  1  0.211538  0.608785  0.190665  1
  O  O21  1  0.051704  0.350968  0.342116  1
  O  O22  1  0.948296  0.649032  0.657884  1
  O  O23  1  0.788462  0.391215  0.809335  1
  O  O24  1  0.883393  0.054016  0.227865  1
  O  O25  1  0.116607  0.945984  0.772135  1
  O  O26  1  0.865702  0.226824  0.074549  1
  O  O27  1  0.134298  0.773176  0.925451  1
  O  O28  1  0.589216  0.546832  0.292903  1
  O  O29  1  0.410784  0.453168  0.707097  1
  O  O30  1  0.787772  0.809694  0.397047  1
  O  O31  1  0.212228  0.190306  0.602953  1
  O  O32  1  0.619924  0.682713  0.103305  1
  O  O33  1  0.380076  0.317287  0.896695  1
  O  O34  1  0.324757  0.728662  0.584717  1
  O  O35  1  0.675243  0.271338  0.415283  1
  O  O36  1  0.398812  0.876853  0.316626  1
  O  O37  1  0.601188  0.123147  0.683374  1
  O  O38  1  0.480301  0.157544  0.152479  1
  O  O39  1  0.519699  0.842456  0.847521  1
