# generated using pymatgen
data_Na4Sn3S8
_symmetry_space_group_name_H-M   'P 1'
_cell_length_a   6.82065369
_cell_length_b   6.82065369
_cell_length_c   17.86213333
_cell_angle_alpha   85.84357473
_cell_angle_beta   94.15642527
_cell_angle_gamma   113.96125530
_symmetry_Int_Tables_number   1
_chemical_formula_structural   Na4Sn3S8
_chemical_formula_sum   'Na8 Sn6 S16'
_cell_volume   756.51491151
_cell_formula_units_Z   2
loop_
 _symmetry_equiv_pos_site_id
 _symmetry_equiv_pos_as_xyz
  1  'x, y, z'
loop_
 _atom_site_type_symbol
 _atom_site_label
 _atom_site_symmetry_multiplicity
 _atom_site_fract_x
 _atom_site_fract_y
 _atom_site_fract_z
 _atom_site_occupancy
  Na  Na0  1  0.098166  0.571896  0.623871  1
  Na  Na1  1  0.901834  0.428104  0.376129  1
  Na  Na2  1  0.428104  0.901834  0.123871  1
  Na  Na3  1  0.571896  0.098166  0.876129  1
  Na  Na4  1  0.485829  0.767187  0.335948  1
  Na  Na5  1  0.767187  0.485829  0.164052  1
  Na  Na6  1  0.232813  0.514171  0.835948  1
  Na  Na7  1  0.514171  0.232813  0.664052  1
  Sn  Sn8  1  0.267836  0.065236  0.467568  1
  Sn  Sn9  1  0.065236  0.267836  0.032432  1
  Sn  Sn10  1  0.732164  0.934764  0.532432  1
  Sn  Sn11  1  0.934764  0.732164  0.967568  1
  Sn  Sn12  1  0.083402  0.083402  0.250000  1
  Sn  Sn13  1  0.916598  0.916598  0.750000  1
  S  S14  1  0.131110  0.171283  0.573015  1
  S  S15  1  0.171283  0.131110  0.926985  1
  S  S16  1  0.337877  0.298632  0.350291  1
  S  S17  1  0.701368  0.662123  0.850291  1
  S  S18  1  0.298632  0.337877  0.149709  1
  S  S19  1  0.662123  0.701368  0.649709  1
  S  S20  1  0.266232  0.671312  0.984309  1
  S  S21  1  0.671312  0.266232  0.515691  1
  S  S22  1  0.733768  0.328688  0.015691  1
  S  S23  1  0.328688  0.733768  0.484309  1
  S  S24  1  0.746843  0.112657  0.247313  1
  S  S25  1  0.112657  0.746843  0.252687  1
  S  S26  1  0.253157  0.887343  0.752687  1
  S  S27  1  0.887343  0.253157  0.747313  1
  S  S28  1  0.868890  0.828717  0.426985  1
  S  S29  1  0.828717  0.868890  0.073015  1
