# generated using pymatgen
data_Be2BHO4
_symmetry_space_group_name_H-M   'P 1'
_cell_length_a   4.45860101
_cell_length_b   9.89123694
_cell_length_c   12.23226822
_cell_angle_alpha   90.00000000
_cell_angle_beta   90.00000000
_cell_angle_gamma   90.00000000
_symmetry_Int_Tables_number   1
_chemical_formula_structural   Be2BHO4
_chemical_formula_sum   'Be16 B8 H8 O32'
_cell_volume   539.45622725
_cell_formula_units_Z   8
loop_
 _symmetry_equiv_pos_site_id
 _symmetry_equiv_pos_as_xyz
  1  'x, y, z'
loop_
 _atom_site_type_symbol
 _atom_site_label
 _atom_site_symmetry_multiplicity
 _atom_site_fract_x
 _atom_site_fract_y
 _atom_site_fract_z
 _atom_site_occupancy
  Be  Be0  1  0.275997  0.237635  0.068348  1
  Be  Be1  1  0.775997  0.262365  0.931652  1
  Be  Be2  1  0.724003  0.737635  0.431652  1
  Be  Be3  1  0.759453  0.002841  0.311003  1
  Be  Be4  1  0.724003  0.762365  0.931652  1
  Be  Be5  1  0.224003  0.737635  0.068348  1
  Be  Be6  1  0.275997  0.262365  0.568348  1
  Be  Be7  1  0.775997  0.237635  0.431652  1
  Be  Be8  1  0.259453  0.497159  0.688997  1
  Be  Be9  1  0.240547  0.502841  0.188997  1
  Be  Be10  1  0.740547  0.997159  0.811003  1
  Be  Be11  1  0.240547  0.997159  0.688997  1
  Be  Be12  1  0.740547  0.502841  0.311003  1
  Be  Be13  1  0.759453  0.497159  0.811003  1
  Be  Be14  1  0.224003  0.762365  0.568348  1
  Be  Be15  1  0.259453  0.002841  0.188997  1
  B  B16  1  0.272220  0.107336  0.392589  1
  B  B17  1  0.772220  0.107336  0.107411  1
  B  B18  1  0.272220  0.392664  0.892589  1
  B  B19  1  0.227780  0.607336  0.392589  1
  B  B20  1  0.727780  0.892664  0.607411  1
  B  B21  1  0.227780  0.892664  0.892589  1
  B  B22  1  0.727780  0.607336  0.107411  1
  B  B23  1  0.772220  0.392664  0.607411  1
  H  H24  1  0.961805  0.316831  0.276544  1
  H  H25  1  0.961805  0.183169  0.776544  1
  H  H26  1  0.538195  0.816831  0.276544  1
  H  H27  1  0.038195  0.683169  0.723456  1
  H  H28  1  0.538195  0.683169  0.776544  1
  H  H29  1  0.038195  0.816831  0.223456  1
  H  H30  1  0.461805  0.183169  0.723456  1
  H  H31  1  0.461805  0.316831  0.223456  1
  O  O32  1  0.617540  0.037661  0.187447  1
  O  O33  1  0.581388  0.397865  0.896247  1
  O  O34  1  0.918612  0.602135  0.396247  1
  O  O35  1  0.418612  0.897865  0.603753  1
  O  O36  1  0.918612  0.897865  0.896247  1
  O  O37  1  0.418612  0.602135  0.103753  1
  O  O38  1  0.081388  0.397865  0.603753  1
  O  O39  1  0.581388  0.102135  0.396247  1
  O  O40  1  0.616581  0.188338  0.035084  1
  O  O41  1  0.116581  0.311662  0.964916  1
  O  O42  1  0.383419  0.688338  0.464916  1
  O  O43  1  0.883419  0.811662  0.535084  1
  O  O44  1  0.081388  0.102135  0.103753  1
  O  O45  1  0.883419  0.688338  0.035084  1
  O  O46  1  0.616581  0.311662  0.535084  1
  O  O47  1  0.116581  0.188338  0.464916  1
  O  O48  1  0.383419  0.811662  0.964916  1
  O  O49  1  0.793483  0.159841  0.825403  1
  O  O50  1  0.706517  0.840159  0.325403  1
  O  O51  1  0.206517  0.659841  0.674597  1
  O  O52  1  0.706517  0.659841  0.825403  1
  O  O53  1  0.206517  0.840159  0.174597  1
  O  O54  1  0.293483  0.159841  0.674597  1
  O  O55  1  0.793483  0.340159  0.325403  1
  O  O56  1  0.117540  0.037661  0.312553  1
  O  O57  1  0.617540  0.462339  0.687447  1
  O  O58  1  0.882460  0.537661  0.187447  1
  O  O59  1  0.382460  0.962339  0.812553  1
  O  O60  1  0.882460  0.962339  0.687447  1
  O  O61  1  0.382460  0.537661  0.312553  1
  O  O62  1  0.117540  0.462339  0.812553  1
  O  O63  1  0.293483  0.340159  0.174597  1
