# generated using pymatgen
data_KI3F16
_symmetry_space_group_name_H-M   'P 1'
_cell_length_a   14.00626920
_cell_length_b   14.17130941
_cell_length_c   14.02255660
_cell_angle_alpha   90.00000000
_cell_angle_beta   90.07285753
_cell_angle_gamma   90.00000000
_symmetry_Int_Tables_number   1
_chemical_formula_structural   KI3F16
_chemical_formula_sum   'K8 I24 F128'
_cell_volume   2783.29538927
_cell_formula_units_Z   8
loop_
 _symmetry_equiv_pos_site_id
 _symmetry_equiv_pos_as_xyz
  1  'x, y, z'
loop_
 _atom_site_type_symbol
 _atom_site_label
 _atom_site_symmetry_multiplicity
 _atom_site_fract_x
 _atom_site_fract_y
 _atom_site_fract_z
 _atom_site_occupancy
  K  K0  1  0.985946  0.540670  0.753072  1
  K  K1  1  0.514054  0.040670  0.246928  1
  K  K2  1  0.014054  0.459330  0.246928  1
  K  K3  1  0.485946  0.959330  0.753072  1
  K  K4  1  0.981317  0.013547  0.748838  1
  K  K5  1  0.518683  0.513547  0.251162  1
  K  K6  1  0.018683  0.986453  0.251162  1
  K  K7  1  0.481317  0.486453  0.748838  1
  I  I8  1  0.543830  0.289125  0.487296  1
  I  I9  1  0.956170  0.789125  0.512704  1
  I  I10  1  0.456170  0.710875  0.512704  1
  I  I11  1  0.043830  0.210875  0.487296  1
  I  I12  1  0.712300  0.042537  0.527251  1
  I  I13  1  0.787700  0.542537  0.472749  1
  I  I14  1  0.287700  0.957463  0.472749  1
  I  I15  1  0.212300  0.457463  0.527251  1
  I  I16  1  0.768887  0.231542  0.283639  1
  I  I17  1  0.731113  0.731542  0.716361  1
  I  I18  1  0.231113  0.768458  0.716361  1
  I  I19  1  0.268887  0.268458  0.283639  1
  I  I20  1  0.722492  0.787222  0.214253  1
  I  I21  1  0.777508  0.287222  0.785747  1
  I  I22  1  0.277508  0.212778  0.785747  1
  I  I23  1  0.222492  0.712778  0.214253  1
  I  I24  1  0.525646  0.711862  0.987422  1
  I  I25  1  0.974354  0.211862  0.012578  1
  I  I26  1  0.474354  0.288138  0.012578  1
  I  I27  1  0.025646  0.788138  0.987422  1
  I  I28  1  0.776592  0.543348  0.034270  1
  I  I29  1  0.723408  0.043348  0.965730  1
  I  I30  1  0.223408  0.456652  0.965730  1
  I  I31  1  0.276592  0.956652  0.034270  1
  F  F32  1  0.545765  0.372234  0.598784  1
  F  F33  1  0.954235  0.872234  0.401216  1
  F  F34  1  0.454235  0.627766  0.401216  1
  F  F35  1  0.045765  0.127766  0.598784  1
  F  F36  1  0.543130  0.183784  0.574317  1
  F  F37  1  0.956870  0.683784  0.425683  1
  F  F38  1  0.456870  0.816216  0.425683  1
  F  F39  1  0.043130  0.316216  0.574317  1
  F  F40  1  0.500771  0.205327  0.386759  1
  F  F41  1  0.999229  0.705327  0.613241  1
  F  F42  1  0.499229  0.794673  0.613241  1
  F  F43  1  0.000771  0.294673  0.386759  1
  F  F44  1  0.504060  0.396357  0.407635  1
  F  F45  1  0.995940  0.896357  0.592365  1
  F  F46  1  0.495940  0.603643  0.592365  1
  F  F47  1  0.004060  0.103643  0.407635  1
  F  F48  1  0.412689  0.287478  0.514338  1
  F  F49  1  0.087311  0.787478  0.485662  1
  F  F50  1  0.587311  0.712522  0.485662  1
  F  F51  1  0.912689  0.212522  0.514338  1
  F  F52  1  0.606921  0.013187  0.443415  1
  F  F53  1  0.893079  0.513187  0.556585  1
  F  F54  1  0.393079  0.986813  0.556585  1
  F  F55  1  0.106921  0.486813  0.443415  1
  F  F56  1  0.797275  0.031444  0.419878  1
  F  F57  1  0.702725  0.531444  0.580122  1
  F  F58  1  0.202725  0.968556  0.580122  1
  F  F59  1  0.297275  0.468556  0.419878  1
  F  F60  1  0.823889  0.031487  0.611163  1
  F  F61  1  0.676111  0.531487  0.388837  1
  F  F62  1  0.176111  0.968513  0.388837  1
  F  F63  1  0.323889  0.468513  0.611163  1
  F  F64  1  0.629511  0.013333  0.635996  1
  F  F65  1  0.870489  0.513333  0.364004  1
  F  F66  1  0.370489  0.986667  0.364004  1
  F  F67  1  0.129511  0.486667  0.635996  1
  F  F68  1  0.725500  0.910406  0.526511  1
  F  F69  1  0.774500  0.410406  0.473489  1
  F  F70  1  0.274500  0.089594  0.473489  1
  F  F71  1  0.225500  0.589594  0.526511  1
  F  F72  1  0.685331  0.124837  0.263880  1
  F  F73  1  0.814669  0.624837  0.736120  1
  F  F74  1  0.314669  0.875163  0.736120  1
  F  F75  1  0.185331  0.375163  0.263880  1
  F  F76  1  0.657933  0.312801  0.285468  1
  F  F77  1  0.842067  0.812801  0.714532  1
  F  F78  1  0.342067  0.687199  0.714532  1
  F  F79  1  0.157933  0.187199  0.285468  1
  F  F80  1  0.844616  0.344126  0.260925  1
  F  F81  1  0.655384  0.844126  0.739075  1
  F  F82  1  0.155384  0.655874  0.739075  1
  F  F83  1  0.344616  0.155874  0.260925  1
  F  F84  1  0.875179  0.152199  0.240687  1
  F  F85  1  0.624821  0.652199  0.759313  1
  F  F86  1  0.124821  0.847801  0.759313  1
  F  F87  1  0.375179  0.347801  0.240687  1
  F  F88  1  0.750770  0.242106  0.151661  1
  F  F89  1  0.749230  0.742106  0.848339  1
  F  F90  1  0.249230  0.757894  0.848339  1
  F  F91  1  0.250770  0.257894  0.151661  1
  F  F92  1  0.629986  0.694430  0.255330  1
  F  F93  1  0.870014  0.194430  0.744670  1
  F  F94  1  0.370014  0.305570  0.744670  1
  F  F95  1  0.129986  0.805570  0.255330  1
  F  F96  1  0.818860  0.689506  0.210078  1
  F  F97  1  0.681140  0.189506  0.789922  1
  F  F98  1  0.181140  0.310494  0.789922  1
  F  F99  1  0.318860  0.810494  0.210078  1
  F  F100  1  0.824943  0.880373  0.212979  1
  F  F101  1  0.675057  0.380373  0.787021  1
  F  F102  1  0.175057  0.119627  0.787021  1
  F  F103  1  0.324943  0.619627  0.212979  1
  F  F104  1  0.634708  0.885165  0.259375  1
  F  F105  1  0.865292  0.385165  0.740625  1
  F  F106  1  0.365292  0.114835  0.740625  1
  F  F107  1  0.134708  0.614835  0.259375  1
  F  F108  1  0.753766  0.783072  0.344227  1
  F  F109  1  0.746234  0.283072  0.655773  1
  F  F110  1  0.246234  0.216928  0.655773  1
  F  F111  1  0.253766  0.716928  0.344227  1
  F  F112  1  0.509838  0.807538  0.888142  1
  F  F113  1  0.990162  0.307538  0.111858  1
  F  F114  1  0.490162  0.192462  0.111858  1
  F  F115  1  0.009838  0.692462  0.888142  1
  F  F116  1  0.538061  0.813466  0.078985  1
  F  F117  1  0.961939  0.313466  0.921015  1
  F  F118  1  0.461939  0.186534  0.921015  1
  F  F119  1  0.038061  0.686534  0.078985  1
  F  F120  1  0.501157  0.625372  0.091305  1
  F  F121  1  0.998843  0.125372  0.908695  1
  F  F122  1  0.498843  0.374628  0.908695  1
  F  F123  1  0.001157  0.874628  0.091305  1
  F  F124  1  0.470138  0.617365  0.901686  1
  F  F125  1  0.029862  0.117365  0.098314  1
  F  F126  1  0.529862  0.382635  0.098314  1
  F  F127  1  0.970138  0.882635  0.901686  1
  F  F128  1  0.395912  0.739284  0.006882  1
  F  F129  1  0.104088  0.239284  0.993118  1
  F  F130  1  0.604088  0.260716  0.993118  1
  F  F131  1  0.895912  0.760716  0.006882  1
  F  F132  1  0.662693  0.534115  0.956316  1
  F  F133  1  0.837307  0.034115  0.043684  1
  F  F134  1  0.337307  0.465885  0.043684  1
  F  F135  1  0.162693  0.965885  0.956316  1
  F  F136  1  0.701614  0.510275  0.145250  1
  F  F137  1  0.798386  0.010275  0.854750  1
  F  F138  1  0.298386  0.489725  0.854750  1
  F  F139  1  0.201614  0.989725  0.145250  1
  F  F140  1  0.892560  0.512660  0.107101  1
  F  F141  1  0.607440  0.012660  0.892899  1
  F  F142  1  0.107440  0.487340  0.892899  1
  F  F143  1  0.392560  0.987340  0.107101  1
  F  F144  1  0.851809  0.535835  0.916880  1
  F  F145  1  0.648191  0.035835  0.083120  1
  F  F146  1  0.148191  0.464165  0.083120  1
  F  F147  1  0.351809  0.964165  0.916880  1
  F  F148  1  0.774639  0.412005  0.017322  1
  F  F149  1  0.725361  0.912005  0.982678  1
  F  F150  1  0.225361  0.587995  0.982678  1
  F  F151  1  0.274639  0.087995  0.017322  1
  F  F152  1  0.695040  0.202997  0.447397  1
  F  F153  1  0.804960  0.702997  0.552603  1
  F  F154  1  0.304960  0.797003  0.552603  1
  F  F155  1  0.195040  0.297003  0.447397  1
  F  F156  1  0.689741  0.695338  0.059259  1
  F  F157  1  0.810259  0.195338  0.940741  1
  F  F158  1  0.310259  0.304662  0.940741  1
  F  F159  1  0.189741  0.804662  0.059259  1
