# generated using pymatgen
data_Mg3P2(HO)16
_symmetry_space_group_name_H-M   'P 1'
_cell_length_a   8.42353577
_cell_length_b   8.42353577
_cell_length_c   4.69417531
_cell_angle_alpha   80.78765149
_cell_angle_beta   99.21234851
_cell_angle_gamma   74.23208988
_symmetry_Int_Tables_number   1
_chemical_formula_structural   Mg3P2(HO)16
_chemical_formula_sum   'Mg3 P2 H16 O16'
_cell_volume   309.05901498
_cell_formula_units_Z   1
loop_
 _symmetry_equiv_pos_site_id
 _symmetry_equiv_pos_as_xyz
  1  'x, y, z'
loop_
 _atom_site_type_symbol
 _atom_site_label
 _atom_site_symmetry_multiplicity
 _atom_site_fract_x
 _atom_site_fract_y
 _atom_site_fract_z
 _atom_site_occupancy
  Mg  Mg0  1  0.000000  0.000000  0.000000  1
  Mg  Mg1  1  0.610496  0.610496  0.000000  1
  Mg  Mg2  1  0.389504  0.389504  0.000000  1
  P  P3  1  0.686500  0.313500  0.613919  1
  P  P4  1  0.313500  0.686500  0.386081  1
  H  H5  1  0.179288  0.258972  0.712217  1
  H  H6  1  0.258972  0.179288  0.287783  1
  H  H7  1  0.820712  0.741028  0.287783  1
  H  H8  1  0.741028  0.820712  0.712217  1
  H  H9  1  0.179345  0.432764  0.511014  1
  H  H10  1  0.567236  0.820655  0.511014  1
  H  H11  1  0.065586  0.686522  0.960836  1
  H  H12  1  0.686522  0.065586  0.039164  1
  H  H13  1  0.934414  0.313478  0.039164  1
  H  H14  1  0.313478  0.934414  0.960836  1
  H  H15  1  0.044110  0.794057  0.640371  1
  H  H16  1  0.794057  0.044110  0.359629  1
  H  H17  1  0.955890  0.205943  0.359629  1
  H  H18  1  0.205943  0.955890  0.640371  1
  H  H19  1  0.432764  0.179345  0.488986  1
  H  H20  1  0.820655  0.567236  0.488986  1
  O  O21  1  0.986608  0.787467  0.811236  1
  O  O22  1  0.624699  0.819388  0.714393  1
  O  O23  1  0.819388  0.624699  0.285607  1
  O  O24  1  0.375301  0.180612  0.285607  1
  O  O25  1  0.180612  0.375301  0.714393  1
  O  O26  1  0.212533  0.013392  0.811236  1
  O  O27  1  0.754585  0.438540  0.771749  1
  O  O28  1  0.438540  0.754585  0.228251  1
  O  O29  1  0.245415  0.561460  0.228251  1
  O  O30  1  0.561460  0.245415  0.771749  1
  O  O31  1  0.397587  0.602413  0.714080  1
  O  O32  1  0.602413  0.397587  0.285920  1
  O  O33  1  0.157915  0.842085  0.381028  1
  O  O34  1  0.842085  0.157915  0.618972  1
  O  O35  1  0.787467  0.986608  0.188764  1
  O  O36  1  0.013392  0.212533  0.188764  1
