# generated using pymatgen
data_TaPS6
_symmetry_space_group_name_H-M   'P 1'
_cell_length_a   13.27959969
_cell_length_b   13.27959969
_cell_length_c   13.27959969
_cell_angle_alpha   105.14400294
_cell_angle_beta   105.14400294
_cell_angle_gamma   118.52278327
_symmetry_Int_Tables_number   1
_chemical_formula_structural   TaPS6
_chemical_formula_sum   'Ta8 P8 S48'
_cell_volume   1768.51845135
_cell_formula_units_Z   8
loop_
 _symmetry_equiv_pos_site_id
 _symmetry_equiv_pos_as_xyz
  1  'x, y, z'
loop_
 _atom_site_type_symbol
 _atom_site_label
 _atom_site_symmetry_multiplicity
 _atom_site_fract_x
 _atom_site_fract_y
 _atom_site_fract_z
 _atom_site_occupancy
  Ta  Ta0  1  0.075669  0.575669  0.651338  1
  Ta  Ta1  1  0.674331  0.825669  0.000000  1
  Ta  Ta2  1  0.825669  0.674331  0.000000  1
  Ta  Ta3  1  0.924331  0.424331  0.348662  1
  Ta  Ta4  1  0.174331  0.174331  0.848662  1
  Ta  Ta5  1  0.575669  0.924331  0.500000  1
  Ta  Ta6  1  0.424331  0.075669  0.500000  1
  Ta  Ta7  1  0.325669  0.325669  0.151338  1
  P  P8  1  0.805575  0.125000  0.180575  1
  P  P9  1  0.305575  0.125000  0.680575  1
  P  P10  1  0.875000  0.055575  0.680575  1
  P  P11  1  0.375000  0.194425  0.319425  1
  P  P12  1  0.444425  0.625000  0.319425  1
  P  P13  1  0.944425  0.625000  0.819425  1
  P  P14  1  0.375000  0.694425  0.819425  1
  P  P15  1  0.875000  0.555575  0.180575  1
  S  S16  1  0.323541  0.412962  0.997390  1
  S  S17  1  0.000817  0.715993  0.721132  1
  S  S18  1  0.529685  0.750817  0.784824  1
  S  S19  1  0.965993  0.744861  0.215176  1
  S  S20  1  0.994861  0.279685  0.278868  1
  S  S21  1  0.784007  0.499183  0.278868  1
  S  S22  1  0.749183  0.970315  0.215176  1
  S  S23  1  0.755139  0.534007  0.784824  1
  S  S24  1  0.834427  0.423849  0.497390  1
  S  S25  1  0.587038  0.584427  0.910578  1
  S  S26  1  0.673849  0.676459  0.089422  1
  S  S27  1  0.926459  0.337038  0.502610  1
  S  S28  1  0.076151  0.665573  0.502610  1
  S  S29  1  0.915573  0.912962  0.089422  1
  S  S30  1  0.823541  0.826151  0.910578  1
  S  S31  1  0.162962  0.573541  0.497390  1
  S  S32  1  0.415573  0.326151  0.002610  1
  S  S33  1  0.662962  0.165573  0.589422  1
  S  S34  1  0.576151  0.073541  0.410578  1
  S  S35  1  0.220315  0.505139  0.721132  1
  S  S36  1  0.173849  0.084427  0.997390  1
  S  S37  1  0.334427  0.837038  0.410578  1
  S  S38  1  0.426459  0.923849  0.589422  1
  S  S39  1  0.087038  0.176459  0.002610  1
  S  S40  1  0.493318  0.283922  0.497114  1
  S  S41  1  0.246204  0.243318  0.709396  1
  S  S42  1  0.533922  0.536807  0.290604  1
  S  S43  1  0.786807  0.996204  0.502886  1
  S  S44  1  0.216078  0.006682  0.502886  1
  S  S45  1  0.256682  0.253796  0.290604  1
  S  S46  1  0.963193  0.966078  0.709396  1
  S  S47  1  0.503796  0.713193  0.497114  1
  S  S48  1  0.756682  0.466078  0.002886  1
  S  S49  1  0.003796  0.506682  0.790604  1
  S  S50  1  0.716078  0.213193  0.209396  1
  S  S51  1  0.463193  0.753796  0.997114  1
  S  S52  1  0.033922  0.743318  0.997114  1
  S  S53  1  0.993318  0.496204  0.209396  1
  S  S54  1  0.286807  0.783922  0.790604  1
  S  S55  1  0.746204  0.036807  0.002886  1
  S  S56  1  0.029685  0.244861  0.778868  1
  S  S57  1  0.720315  0.999183  0.715176  1
  S  S58  1  0.284007  0.005139  0.284824  1
  S  S59  1  0.255139  0.470315  0.221132  1
  S  S60  1  0.465993  0.250817  0.221132  1
  S  S61  1  0.500817  0.779685  0.284824  1
  S  S62  1  0.494861  0.215993  0.715176  1
  S  S63  1  0.249183  0.034007  0.778868  1
