# generated using pymatgen
data_ZnI2
_symmetry_space_group_name_H-M   'P 1'
_cell_length_a   15.04499457
_cell_length_b   15.04499457
_cell_length_c   15.04499457
_cell_angle_alpha   127.16838810
_cell_angle_beta   127.16838810
_cell_angle_gamma   77.97613439
_symmetry_Int_Tables_number   1
_chemical_formula_structural   ZnI2
_chemical_formula_sum   'Zn16 I32'
_cell_volume   2095.56962213
_cell_formula_units_Z   16
loop_
 _symmetry_equiv_pos_site_id
 _symmetry_equiv_pos_as_xyz
  1  'x, y, z'
loop_
 _atom_site_type_symbol
 _atom_site_label
 _atom_site_symmetry_multiplicity
 _atom_site_fract_x
 _atom_site_fract_y
 _atom_site_fract_z
 _atom_site_occupancy
  Zn  Zn0  1  0.657213  0.438262  0.969697  1
  Zn  Zn1  1  0.812483  0.031434  0.969697  1
  Zn  Zn2  1  0.061738  0.842787  0.030303  1
  Zn  Zn3  1  0.592787  0.062483  0.281049  1
  Zn  Zn4  1  0.781434  0.311738  0.718951  1
  Zn  Zn5  1  0.188262  0.718566  0.281049  1
  Zn  Zn6  1  0.437517  0.907213  0.718951  1
  Zn  Zn7  1  0.468566  0.687517  0.030303  1
  Zn  Zn8  1  0.092787  0.811738  0.530303  1
  Zn  Zn9  1  0.937517  0.218566  0.530303  1
  Zn  Zn10  1  0.688262  0.407213  0.469697  1
  Zn  Zn11  1  0.157213  0.187517  0.218951  1
  Zn  Zn12  1  0.968566  0.938262  0.781049  1
  Zn  Zn13  1  0.561738  0.531434  0.218951  1
  Zn  Zn14  1  0.312483  0.342787  0.781049  1
  Zn  Zn15  1  0.281434  0.562483  0.469697  1
  I  I16  1  0.979218  0.277089  0.758902  1
  I  I17  1  0.027089  0.768187  0.797871  1
  I  I18  1  0.970316  0.229218  0.202129  1
  I  I19  1  0.270782  0.529684  0.797871  1
  I  I20  1  0.731813  0.472911  0.202129  1
  I  I21  1  0.279684  0.981813  0.758902  1
  I  I22  1  0.222911  0.520782  0.241098  1
  I  I23  1  0.518187  0.220316  0.241098  1
  I  I24  1  0.770782  0.972911  0.741098  1
  I  I25  1  0.722911  0.481813  0.702129  1
  I  I26  1  0.779684  0.020782  0.297871  1
  I  I27  1  0.479218  0.720316  0.702129  1
  I  I28  1  0.018187  0.777089  0.297871  1
  I  I29  1  0.470316  0.268187  0.741098  1
  I  I30  1  0.527089  0.729218  0.258902  1
  I  I31  1  0.231813  0.029684  0.258902  1
  I  I32  1  0.125000  0.170447  0.545447  1
  I  I33  1  0.920447  0.875000  0.545447  1
  I  I34  1  0.329553  0.375000  0.454553  1
  I  I35  1  0.625000  0.579553  0.454553  1
  I  I36  1  0.625000  0.079553  0.954553  1
  I  I37  1  0.829553  0.375000  0.954553  1
  I  I38  1  0.420447  0.875000  0.045447  1
  I  I39  1  0.125000  0.670447  0.045447  1
  I  I40  1  0.382264  0.882264  0.500000  1
  I  I41  1  0.632264  0.632264  0.000000  1
  I  I42  1  0.867736  0.867736  0.000000  1
  I  I43  1  0.617736  0.117736  0.500000  1
  I  I44  1  0.367736  0.367736  0.000000  1
  I  I45  1  0.117736  0.617736  0.500000  1
  I  I46  1  0.882264  0.382264  0.500000  1
  I  I47  1  0.132264  0.132264  0.000000  1
