# generated using pymatgen
data_Li5NCl2
_symmetry_space_group_name_H-M   'P 1'
_cell_length_a   9.85944601
_cell_length_b   9.85944601
_cell_length_c   9.85944601
_cell_angle_alpha   21.35973723
_cell_angle_beta   21.35973723
_cell_angle_gamma   21.35973723
_symmetry_Int_Tables_number   1
_chemical_formula_structural   Li5NCl2
_chemical_formula_sum   'Li5 N1 Cl2'
_cell_volume   111.38343779
_cell_formula_units_Z   1
loop_
 _symmetry_equiv_pos_site_id
 _symmetry_equiv_pos_as_xyz
  1  'x, y, z'
loop_
 _atom_site_type_symbol
 _atom_site_label
 _atom_site_symmetry_multiplicity
 _atom_site_fract_x
 _atom_site_fract_y
 _atom_site_fract_z
 _atom_site_occupancy
  Li  Li0  1  0.500000  0.500000  0.500000  1
  Li  Li1  1  0.067023  0.067023  0.067023  1
  Li  Li2  1  0.932977  0.932977  0.932977  1
  Li  Li3  1  0.325461  0.325461  0.325461  1
  Li  Li4  1  0.674539  0.674539  0.674539  1
  N  N5  1  0.000000  0.000000  0.000000  1
  Cl  Cl6  1  0.781837  0.781837  0.781837  1
  Cl  Cl7  1  0.218163  0.218163  0.218163  1
