# generated using pymatgen
data_Cs2PdI6
_symmetry_space_group_name_H-M   'P 1'
_cell_length_a   8.02320412
_cell_length_b   8.02320412
_cell_length_c   8.02320412
_cell_angle_alpha   109.76830298
_cell_angle_beta   109.76830298
_cell_angle_gamma   108.87867592
_symmetry_Int_Tables_number   1
_chemical_formula_structural   Cs2PdI6
_chemical_formula_sum   'Cs2 Pd1 I6'
_cell_volume   397.54549702
_cell_formula_units_Z   1
loop_
 _symmetry_equiv_pos_site_id
 _symmetry_equiv_pos_as_xyz
  1  'x, y, z'
loop_
 _atom_site_type_symbol
 _atom_site_label
 _atom_site_symmetry_multiplicity
 _atom_site_fract_x
 _atom_site_fract_y
 _atom_site_fract_z
 _atom_site_occupancy
  Cs  Cs0  1  0.250000  0.750000  0.500000  1
  Cs  Cs1  1  0.750000  0.250000  0.500000  1
  Pd  Pd2  1  0.000000  0.000000  0.000000  1
  I  I3  1  0.204146  0.204146  0.408293  1
  I  I4  1  0.345785  0.345785  0.000000  1
  I  I5  1  0.795854  0.204146  0.000000  1
  I  I6  1  0.795854  0.795854  0.591707  1
  I  I7  1  0.204146  0.795854  0.000000  1
  I  I8  1  0.654215  0.654215  0.000000  1
