# generated using pymatgen
data_Cd(FeO2)2
_symmetry_space_group_name_H-M   'P 1'
_cell_length_a   6.25432128
_cell_length_b   6.25432128
_cell_length_c   6.25432128
_cell_angle_alpha   60.00000000
_cell_angle_beta   60.00000000
_cell_angle_gamma   60.00000000
_symmetry_Int_Tables_number   1
_chemical_formula_structural   Cd(FeO2)2
_chemical_formula_sum   'Cd2 Fe4 O8'
_cell_volume   172.99181791
_cell_formula_units_Z   2
loop_
 _symmetry_equiv_pos_site_id
 _symmetry_equiv_pos_as_xyz
  1  'x, y, z'
loop_
 _atom_site_type_symbol
 _atom_site_label
 _atom_site_symmetry_multiplicity
 _atom_site_fract_x
 _atom_site_fract_y
 _atom_site_fract_z
 _atom_site_occupancy
  Cd  Cd0  1  0.500000  0.500000  0.500000  1
  Cd  Cd1  1  0.750000  0.750000  0.750000  1
  Fe  Fe2  1  0.625000  0.125000  0.125000  1
  Fe  Fe3  1  0.125000  0.125000  0.625000  1
  Fe  Fe4  1  0.125000  0.125000  0.125000  1
  Fe  Fe5  1  0.125000  0.625000  0.125000  1
  O  O6  1  0.892323  0.323030  0.892323  1
  O  O7  1  0.357677  0.357677  0.357677  1
  O  O8  1  0.926970  0.357677  0.357677  1
  O  O9  1  0.357677  0.357677  0.926970  1
  O  O10  1  0.323030  0.892323  0.892323  1
  O  O11  1  0.892323  0.892323  0.323030  1
  O  O12  1  0.357677  0.926970  0.357677  1
  O  O13  1  0.892323  0.892323  0.892323  1
