# generated using pymatgen
data_Pb3SO6
_symmetry_space_group_name_H-M   'P 1'
_cell_length_a   7.36357248
_cell_length_b   5.88815014
_cell_length_c   8.33041132
_cell_angle_alpha   90.00000000
_cell_angle_beta   104.03780691
_cell_angle_gamma   90.00000000
_symmetry_Int_Tables_number   1
_chemical_formula_structural   Pb3SO6
_chemical_formula_sum   'Pb6 S2 O12'
_cell_volume   350.40190179
_cell_formula_units_Z   2
loop_
 _symmetry_equiv_pos_site_id
 _symmetry_equiv_pos_as_xyz
  1  'x, y, z'
loop_
 _atom_site_type_symbol
 _atom_site_label
 _atom_site_symmetry_multiplicity
 _atom_site_fract_x
 _atom_site_fract_y
 _atom_site_fract_z
 _atom_site_occupancy
  Pb  Pb0  1  0.760928  0.250000  0.157310  1
  Pb  Pb1  1  0.239072  0.750000  0.842690  1
  Pb  Pb2  1  0.392562  0.250000  0.585982  1
  Pb  Pb3  1  0.607438  0.750000  0.414018  1
  Pb  Pb4  1  0.922505  0.250000  0.622196  1
  Pb  Pb5  1  0.077495  0.750000  0.377804  1
  S  S6  1  0.293667  0.250000  0.142834  1
  S  S7  1  0.706333  0.750000  0.857166  1
  O  O8  1  0.822113  0.500537  0.378846  1
  O  O9  1  0.177887  0.000537  0.621154  1
  O  O10  1  0.177887  0.499463  0.621154  1
  O  O11  1  0.822113  0.999463  0.378846  1
  O  O12  1  0.183881  0.250000  0.274903  1
  O  O13  1  0.816119  0.750000  0.725097  1
  O  O14  1  0.162456  0.250000  0.977726  1
  O  O15  1  0.837544  0.750000  0.022274  1
  O  O16  1  0.581500  0.544501  0.835007  1
  O  O17  1  0.418500  0.044501  0.164993  1
  O  O18  1  0.418500  0.455499  0.164993  1
  O  O19  1  0.581500  0.955499  0.835007  1
