# generated using pymatgen
data_MnInBr3
_symmetry_space_group_name_H-M   'P 1'
_cell_length_a   4.01734256
_cell_length_b   9.58492142
_cell_length_c   15.50029307
_cell_angle_alpha   90.00000000
_cell_angle_beta   90.00000000
_cell_angle_gamma   90.00000000
_symmetry_Int_Tables_number   1
_chemical_formula_structural   MnInBr3
_chemical_formula_sum   'Mn4 In4 Br12'
_cell_volume   596.85293263
_cell_formula_units_Z   4
loop_
 _symmetry_equiv_pos_site_id
 _symmetry_equiv_pos_as_xyz
  1  'x, y, z'
loop_
 _atom_site_type_symbol
 _atom_site_label
 _atom_site_symmetry_multiplicity
 _atom_site_fract_x
 _atom_site_fract_y
 _atom_site_fract_z
 _atom_site_occupancy
  Mn  Mn0  1  0.250000  0.662688  0.945271  1
  Mn  Mn1  1  0.750000  0.337312  0.054729  1
  Mn  Mn2  1  0.250000  0.162688  0.554729  1
  Mn  Mn3  1  0.750000  0.837312  0.445271  1
  In  In4  1  0.250000  0.959274  0.176222  1
  In  In5  1  0.750000  0.040726  0.823778  1
  In  In6  1  0.250000  0.459274  0.323778  1
  In  In7  1  0.750000  0.540726  0.676222  1
  Br  Br8  1  0.750000  0.980080  0.600183  1
  Br  Br9  1  0.250000  0.019920  0.399817  1
  Br  Br10  1  0.750000  0.480080  0.899817  1
  Br  Br11  1  0.250000  0.519920  0.100183  1
  Br  Br12  1  0.750000  0.325416  0.496403  1
  Br  Br13  1  0.250000  0.674584  0.503597  1
  Br  Br14  1  0.750000  0.825416  0.003597  1
  Br  Br15  1  0.250000  0.174584  0.996403  1
  Br  Br16  1  0.750000  0.722622  0.292847  1
  Br  Br17  1  0.250000  0.277378  0.707153  1
  Br  Br18  1  0.750000  0.222622  0.207153  1
  Br  Br19  1  0.250000  0.777378  0.792847  1
