# generated using pymatgen
data_Ba2Bi2O5
_symmetry_space_group_name_H-M   'P 1'
_cell_length_a   6.29630403
_cell_length_b   7.59682643
_cell_length_c   7.60207144
_cell_angle_alpha   90.00000000
_cell_angle_beta   100.40004643
_cell_angle_gamma   90.00000000
_symmetry_Int_Tables_number   1
_chemical_formula_structural   Ba2Bi2O5
_chemical_formula_sum   'Ba4 Bi4 O10'
_cell_volume   357.64791678
_cell_formula_units_Z   2
loop_
 _symmetry_equiv_pos_site_id
 _symmetry_equiv_pos_as_xyz
  1  'x, y, z'
loop_
 _atom_site_type_symbol
 _atom_site_label
 _atom_site_symmetry_multiplicity
 _atom_site_fract_x
 _atom_site_fract_y
 _atom_site_fract_z
 _atom_site_occupancy
  Ba  Ba0  1  0.779589  0.927130  0.136662  1
  Ba  Ba1  1  0.720411  0.427130  0.863338  1
  Ba  Ba2  1  0.220411  0.072870  0.863338  1
  Ba  Ba3  1  0.279589  0.572870  0.136662  1
  Bi  Bi4  1  0.730390  0.882202  0.632010  1
  Bi  Bi5  1  0.769610  0.382202  0.367990  1
  Bi  Bi6  1  0.269610  0.117798  0.367990  1
  Bi  Bi7  1  0.230390  0.617798  0.632010  1
  O  O8  1  0.460842  0.776074  0.802714  1
  O  O9  1  0.039158  0.276074  0.197286  1
  O  O10  1  0.539158  0.223926  0.197286  1
  O  O11  1  0.960842  0.723926  0.802714  1
  O  O12  1  0.731438  0.588243  0.179973  1
  O  O13  1  0.768562  0.088243  0.820027  1
  O  O14  1  0.268562  0.411757  0.820027  1
  O  O15  1  0.231438  0.911757  0.179973  1
  O  O16  1  0.000000  0.000000  0.500000  1
  O  O17  1  0.500000  0.500000  0.500000  1
