# generated using pymatgen
data_Ge(Bi3O5)4
_symmetry_space_group_name_H-M   'P 1'
_cell_length_a   8.91855075
_cell_length_b   8.91855075
_cell_length_c   8.91855075
_cell_angle_alpha   109.47122063
_cell_angle_beta   109.47122063
_cell_angle_gamma   109.47122063
_symmetry_Int_Tables_number   1
_chemical_formula_structural   Ge(Bi3O5)4
_chemical_formula_sum   'Ge1 Bi12 O20'
_cell_volume   546.08591192
_cell_formula_units_Z   1
loop_
 _symmetry_equiv_pos_site_id
 _symmetry_equiv_pos_as_xyz
  1  'x, y, z'
loop_
 _atom_site_type_symbol
 _atom_site_label
 _atom_site_symmetry_multiplicity
 _atom_site_fract_x
 _atom_site_fract_y
 _atom_site_fract_z
 _atom_site_occupancy
  Ge  Ge0  1  0.000000  0.000000  0.000000  1
  Bi  Bi1  1  0.666100  0.161562  0.858551  1
  Bi  Bi2  1  0.303011  0.807549  0.141449  1
  Bi  Bi3  1  0.696989  0.838438  0.504538  1
  Bi  Bi4  1  0.192451  0.495462  0.333900  1
  Bi  Bi5  1  0.495462  0.333900  0.192451  1
  Bi  Bi6  1  0.858551  0.666100  0.161562  1
  Bi  Bi7  1  0.807549  0.141449  0.303011  1
  Bi  Bi8  1  0.504538  0.696989  0.838438  1
  Bi  Bi9  1  0.161562  0.858551  0.666100  1
  Bi  Bi10  1  0.141449  0.303011  0.807549  1
  Bi  Bi11  1  0.838438  0.504538  0.696989  1
  Bi  Bi12  1  0.333900  0.192451  0.495462  1
  O  O13  1  0.201530  1.000000  1.000000  1
  O  O14  1  1.000000  0.000000  0.201530  1
  O  O15  1  1.000000  0.201530  0.000000  1
  O  O16  1  0.798470  0.798470  0.798470  1
  O  O17  1  0.610910  1.000000  1.000000  1
  O  O18  1  1.000000  1.000000  0.610910  1
  O  O19  1  1.000000  0.610910  0.000000  1
  O  O20  1  0.389090  0.389090  0.389090  1
  O  O21  1  0.260466  0.643329  0.880524  1
  O  O22  1  0.762805  0.379942  0.119476  1
  O  O23  1  0.237195  0.356671  0.617138  1
  O  O24  1  0.620058  0.382862  0.739534  1
  O  O25  1  0.382862  0.739534  0.620058  1
  O  O26  1  0.739534  0.620058  0.382862  1
  O  O27  1  0.356671  0.617138  0.237195  1
  O  O28  1  0.119476  0.762805  0.379942  1
  O  O29  1  0.643329  0.880524  0.260466  1
  O  O30  1  0.617138  0.237195  0.356671  1
  O  O31  1  0.379942  0.119476  0.762805  1
  O  O32  1  0.880524  0.260466  0.643329  1
