# generated using pymatgen
data_RbDy2Cl7
_symmetry_space_group_name_H-M   'P 1'
_cell_length_a   7.00373175
_cell_length_b   12.69569843
_cell_length_c   13.60149940
_cell_angle_alpha   90.00000000
_cell_angle_beta   90.00000000
_cell_angle_gamma   90.00000000
_symmetry_Int_Tables_number   1
_chemical_formula_structural   RbDy2Cl7
_chemical_formula_sum   'Rb4 Dy8 Cl28'
_cell_volume   1209.40814263
_cell_formula_units_Z   4
loop_
 _symmetry_equiv_pos_site_id
 _symmetry_equiv_pos_as_xyz
  1  'x, y, z'
loop_
 _atom_site_type_symbol
 _atom_site_label
 _atom_site_symmetry_multiplicity
 _atom_site_fract_x
 _atom_site_fract_y
 _atom_site_fract_z
 _atom_site_occupancy
  Rb  Rb0  1  0.250000  0.694928  0.040487  1
  Rb  Rb1  1  0.750000  0.305072  0.959513  1
  Rb  Rb2  1  0.750000  0.194928  0.459513  1
  Rb  Rb3  1  0.250000  0.805072  0.540487  1
  Dy  Dy4  1  0.250000  0.157121  0.749073  1
  Dy  Dy5  1  0.750000  0.842879  0.250927  1
  Dy  Dy6  1  0.750000  0.657121  0.750927  1
  Dy  Dy7  1  0.250000  0.342879  0.249073  1
  Dy  Dy8  1  0.250000  0.039873  0.237289  1
  Dy  Dy9  1  0.750000  0.960127  0.762711  1
  Dy  Dy10  1  0.750000  0.539873  0.262711  1
  Dy  Dy11  1  0.250000  0.460127  0.737289  1
  Cl  Cl12  1  0.990278  0.960306  0.365783  1
  Cl  Cl13  1  0.490278  0.039694  0.634217  1
  Cl  Cl14  1  0.009722  0.460306  0.134217  1
  Cl  Cl15  1  0.509722  0.539694  0.865783  1
  Cl  Cl16  1  0.009722  0.039694  0.634217  1
  Cl  Cl17  1  0.509722  0.960306  0.365783  1
  Cl  Cl18  1  0.990278  0.539694  0.865783  1
  Cl  Cl19  1  0.490278  0.460306  0.134217  1
  Cl  Cl20  1  0.010477  0.921940  0.124603  1
  Cl  Cl21  1  0.510477  0.078060  0.875397  1
  Cl  Cl22  1  0.989523  0.421940  0.375397  1
  Cl  Cl23  1  0.489523  0.578060  0.624603  1
  Cl  Cl24  1  0.250000  0.188172  0.388581  1
  Cl  Cl25  1  0.750000  0.811828  0.611419  1
  Cl  Cl26  1  0.750000  0.688172  0.111419  1
  Cl  Cl27  1  0.250000  0.311828  0.888581  1
  Cl  Cl28  1  0.489883  0.193211  0.176029  1
  Cl  Cl29  1  0.989883  0.806789  0.823971  1
  Cl  Cl30  1  0.510117  0.693211  0.323971  1
  Cl  Cl31  1  0.010117  0.306789  0.676029  1
  Cl  Cl32  1  0.510117  0.806789  0.823971  1
  Cl  Cl33  1  0.010117  0.193211  0.176029  1
  Cl  Cl34  1  0.489883  0.306789  0.676029  1
  Cl  Cl35  1  0.989883  0.693211  0.323971  1
  Cl  Cl36  1  0.510477  0.421940  0.375397  1
  Cl  Cl37  1  0.010477  0.578060  0.624603  1
  Cl  Cl38  1  0.489523  0.921940  0.124603  1
  Cl  Cl39  1  0.989523  0.078060  0.875397  1
