# generated using pymatgen
data_KVBP2HO9
_symmetry_space_group_name_H-M   'P 1'
_cell_length_a   5.24817783
_cell_length_b   8.20210903
_cell_length_c   8.50016514
_cell_angle_alpha   87.08558965
_cell_angle_beta   80.39407100
_cell_angle_gamma   86.28899747
_symmetry_Int_Tables_number   1
_chemical_formula_structural   KVBP2HO9
_chemical_formula_sum   'K2 V2 B2 P4 H2 O18'
_cell_volume   359.71409544
_cell_formula_units_Z   2
loop_
 _symmetry_equiv_pos_site_id
 _symmetry_equiv_pos_as_xyz
  1  'x, y, z'
loop_
 _atom_site_type_symbol
 _atom_site_label
 _atom_site_symmetry_multiplicity
 _atom_site_fract_x
 _atom_site_fract_y
 _atom_site_fract_z
 _atom_site_occupancy
  K  K0  1  0.278799  0.674332  0.888615  1
  K  K1  1  0.721201  0.325668  0.111385  1
  V  V2  1  0.266919  0.196336  0.806010  1
  V  V3  1  0.733081  0.803664  0.193990  1
  B  B4  1  0.876122  0.734031  0.553946  1
  B  B5  1  0.123878  0.265969  0.446054  1
  P  P6  1  0.783726  0.935948  0.813764  1
  P  P7  1  0.216274  0.064052  0.186236  1
  P  P8  1  0.198080  0.581171  0.303756  1
  P  P9  1  0.801920  0.418829  0.696244  1
  H  H10  1  0.529622  0.831730  0.494761  1
  H  H11  1  0.470378  0.168270  0.505239  1
  O  O12  1  0.446462  0.643191  0.206537  1
  O  O13  1  0.707010  0.807149  0.442594  1
  O  O14  1  0.942037  0.852674  0.661437  1
  O  O15  1  0.057963  0.147326  0.338563  1
  O  O16  1  0.756869  0.803271  0.950535  1
  O  O17  1  0.243131  0.196729  0.049465  1
  O  O18  1  0.292990  0.192851  0.557406  1
  O  O19  1  0.553538  0.356809  0.793463  1
  O  O20  1  0.026936  0.407395  0.792556  1
  O  O21  1  0.973064  0.592605  0.207444  1
  O  O22  1  0.268081  0.398431  0.349612  1
  O  O23  1  0.512480  0.995827  0.779513  1
  O  O24  1  0.124849  0.676009  0.462210  1
  O  O25  1  0.875151  0.323991  0.537790  1
  O  O26  1  0.057692  0.924181  0.152263  1
  O  O27  1  0.942308  0.075819  0.847737  1
  O  O28  1  0.487520  0.004173  0.220487  1
  O  O29  1  0.731919  0.601569  0.650388  1
