# generated using pymatgen
data_DyH4I3O11
_symmetry_space_group_name_H-M   'P 1'
_cell_length_a   7.13319246
_cell_length_b   7.56239029
_cell_length_c   10.84996928
_cell_angle_alpha   94.08655547
_cell_angle_beta   106.02004545
_cell_angle_gamma   108.29103407
_symmetry_Int_Tables_number   1
_chemical_formula_structural   DyH4I3O11
_chemical_formula_sum   'Dy2 H8 I6 O22'
_cell_volume   526.08393314
_cell_formula_units_Z   2
loop_
 _symmetry_equiv_pos_site_id
 _symmetry_equiv_pos_as_xyz
  1  'x, y, z'
loop_
 _atom_site_type_symbol
 _atom_site_label
 _atom_site_symmetry_multiplicity
 _atom_site_fract_x
 _atom_site_fract_y
 _atom_site_fract_z
 _atom_site_occupancy
  Dy  Dy0  1  0.901947  0.582585  0.212562  1
  Dy  Dy1  1  0.098053  0.417415  0.787438  1
  H  H2  1  0.864899  0.743405  0.611339  1
  H  H3  1  0.135101  0.256595  0.388661  1
  H  H4  1  0.808607  0.927922  0.623253  1
  H  H5  1  0.191393  0.072078  0.376747  1
  H  H6  1  0.760482  0.894898  0.139446  1
  H  H7  1  0.269698  0.093673  0.719864  1
  H  H8  1  0.730302  0.906327  0.280136  1
  H  H9  1  0.239518  0.105102  0.860554  1
  I  I10  1  0.737133  0.271578  0.448194  1
  I  I11  1  0.262867  0.728422  0.551806  1
  I  I12  1  0.709787  0.637195  0.837026  1
  I  I13  1  0.290213  0.362805  0.162974  1
  I  I14  1  0.696606  0.158958  0.937837  1
  I  I15  1  0.303394  0.841042  0.062163  1
  O  O16  1  0.245998  0.209360  0.379173  1
  O  O17  1  0.862337  0.281034  0.103507  1
  O  O18  1  0.095263  0.832758  0.131181  1
  O  O19  1  0.904737  0.167242  0.868819  1
  O  O20  1  0.355218  0.083686  0.026780  1
  O  O21  1  0.644782  0.916314  0.973220  1
  O  O22  1  0.137663  0.718966  0.896493  1
  O  O23  1  0.711635  0.534392  0.986114  1
  O  O24  1  0.240627  0.554887  0.247587  1
  O  O25  1  0.759373  0.445113  0.752413  1
  O  O26  1  0.573740  0.437494  0.244371  1
  O  O27  1  0.426260  0.562506  0.755629  1
  O  O28  1  0.057879  0.621005  0.625720  1
  O  O29  1  0.942121  0.378995  0.374280  1
  O  O30  1  0.099020  0.790395  0.410459  1
  O  O31  1  0.900980  0.209605  0.589541  1
  O  O32  1  0.392639  0.960342  0.652639  1
  O  O33  1  0.607361  0.039658  0.347361  1
  O  O34  1  0.231141  0.166443  0.782710  1
  O  O35  1  0.768859  0.833557  0.217290  1
  O  O36  1  0.288365  0.465608  0.013886  1
  O  O37  1  0.754002  0.790640  0.620827  1
