# generated using pymatgen
data_Al2Te3
_symmetry_space_group_name_H-M   'P 1'
_cell_length_a   7.28180873
_cell_length_b   13.13512857
_cell_length_c   15.32495788
_cell_angle_alpha   90.00000000
_cell_angle_beta   90.05329216
_cell_angle_gamma   90.00000000
_symmetry_Int_Tables_number   1
_chemical_formula_structural   Al2Te3
_chemical_formula_sum   'Al16 Te24'
_cell_volume   1465.79318153
_cell_formula_units_Z   8
loop_
 _symmetry_equiv_pos_site_id
 _symmetry_equiv_pos_as_xyz
  1  'x, y, z'
loop_
 _atom_site_type_symbol
 _atom_site_label
 _atom_site_symmetry_multiplicity
 _atom_site_fract_x
 _atom_site_fract_y
 _atom_site_fract_z
 _atom_site_occupancy
  Al  Al0  1  0.420099  0.250568  0.692322  1
  Al  Al1  1  0.579901  0.750568  0.807678  1
  Al  Al2  1  0.579901  0.749432  0.307678  1
  Al  Al3  1  0.420099  0.249432  0.192322  1
  Al  Al4  1  0.930991  0.093745  0.682165  1
  Al  Al5  1  0.069009  0.593745  0.817835  1
  Al  Al6  1  0.069009  0.906255  0.317835  1
  Al  Al7  1  0.930991  0.406255  0.182165  1
  Al  Al8  1  0.921088  0.409988  0.697213  1
  Al  Al9  1  0.078912  0.909988  0.802787  1
  Al  Al10  1  0.078912  0.590012  0.302787  1
  Al  Al11  1  0.921088  0.090012  0.197213  1
  Al  Al12  1  0.569162  0.067419  0.811162  1
  Al  Al13  1  0.430838  0.567419  0.688838  1
  Al  Al14  1  0.430838  0.932581  0.188838  1
  Al  Al15  1  0.569162  0.432581  0.311162  1
  Te  Te16  1  0.089542  0.257735  0.611042  1
  Te  Te17  1  0.910458  0.757735  0.888958  1
  Te  Te18  1  0.910458  0.742265  0.388958  1
  Te  Te19  1  0.089542  0.242265  0.111042  1
  Te  Te20  1  0.418601  0.236708  0.859811  1
  Te  Te21  1  0.581399  0.736708  0.640189  1
  Te  Te22  1  0.581399  0.763292  0.140189  1
  Te  Te23  1  0.418601  0.263292  0.359811  1
  Te  Te24  1  0.923994  0.084164  0.857788  1
  Te  Te25  1  0.076006  0.584164  0.642212  1
  Te  Te26  1  0.076006  0.915836  0.142212  1
  Te  Te27  1  0.923994  0.415836  0.357788  1
  Te  Te28  1  0.916880  0.424039  0.864929  1
  Te  Te29  1  0.083120  0.924039  0.635071  1
  Te  Te30  1  0.083120  0.575961  0.135071  1
  Te  Te31  1  0.916880  0.075961  0.364929  1
  Te  Te32  1  0.592123  0.406584  0.613711  1
  Te  Te33  1  0.407877  0.906584  0.886289  1
  Te  Te34  1  0.407877  0.593416  0.386289  1
  Te  Te35  1  0.592123  0.093416  0.113711  1
  Te  Te36  1  0.575666  0.077251  0.635530  1
  Te  Te37  1  0.424334  0.577251  0.864470  1
  Te  Te38  1  0.424334  0.922749  0.364470  1
  Te  Te39  1  0.575666  0.422749  0.135530  1
