# generated using pymatgen
data_NbBr5
_symmetry_space_group_name_H-M   'P 1'
_cell_length_a   6.73069249
_cell_length_b   14.16060997
_cell_length_c   19.60445904
_cell_angle_alpha   90.00000000
_cell_angle_beta   90.00000000
_cell_angle_gamma   90.00000000
_symmetry_Int_Tables_number   1
_chemical_formula_structural   NbBr5
_chemical_formula_sum   'Nb8 Br40'
_cell_volume   1868.51493338
_cell_formula_units_Z   8
loop_
 _symmetry_equiv_pos_site_id
 _symmetry_equiv_pos_as_xyz
  1  'x, y, z'
loop_
 _atom_site_type_symbol
 _atom_site_label
 _atom_site_symmetry_multiplicity
 _atom_site_fract_x
 _atom_site_fract_y
 _atom_site_fract_z
 _atom_site_occupancy
  Nb  Nb0  1  0.993433  0.124537  0.141243  1
  Nb  Nb1  1  0.493433  0.375463  0.858757  1
  Nb  Nb2  1  0.506567  0.624537  0.358757  1
  Nb  Nb3  1  0.006567  0.875463  0.641243  1
  Nb  Nb4  1  0.006567  0.875463  0.858757  1
  Nb  Nb5  1  0.506567  0.624537  0.141243  1
  Nb  Nb6  1  0.493433  0.375463  0.641243  1
  Nb  Nb7  1  0.993433  0.124537  0.358757  1
  Br  Br8  1  0.273087  0.703872  0.064491  1
  Br  Br9  1  0.773087  0.796128  0.935509  1
  Br  Br10  1  0.226913  0.203872  0.435509  1
  Br  Br11  1  0.726913  0.296128  0.564491  1
  Br  Br12  1  0.726913  0.296128  0.935509  1
  Br  Br13  1  0.226913  0.203872  0.064491  1
  Br  Br14  1  0.773087  0.796128  0.564491  1
  Br  Br15  1  0.273087  0.703872  0.435509  1
  Br  Br16  1  0.202715  0.195299  0.250000  1
  Br  Br17  1  0.702715  0.304701  0.750000  1
  Br  Br18  1  0.297285  0.695299  0.250000  1
  Br  Br19  1  0.797285  0.804701  0.750000  1
  Br  Br20  1  0.785614  0.052934  0.250000  1
  Br  Br21  1  0.285614  0.447066  0.750000  1
  Br  Br22  1  0.714386  0.552934  0.250000  1
  Br  Br23  1  0.214386  0.947066  0.750000  1
  Br  Br24  1  0.208532  0.981432  0.348005  1
  Br  Br25  1  0.708532  0.518568  0.651995  1
  Br  Br26  1  0.291468  0.481432  0.151995  1
  Br  Br27  1  0.791468  0.018568  0.848005  1
  Br  Br28  1  0.791468  0.018568  0.651995  1
  Br  Br29  1  0.291468  0.481432  0.348005  1
  Br  Br30  1  0.708532  0.518568  0.848005  1
  Br  Br31  1  0.208532  0.981432  0.151995  1
  Br  Br32  1  0.278448  0.232439  0.652702  1
  Br  Br33  1  0.778448  0.267561  0.347298  1
  Br  Br34  1  0.221552  0.732439  0.847298  1
  Br  Br35  1  0.721552  0.767561  0.152702  1
  Br  Br36  1  0.721552  0.767561  0.347298  1
  Br  Br37  1  0.221552  0.732439  0.652702  1
  Br  Br38  1  0.778448  0.267561  0.152702  1
  Br  Br39  1  0.278448  0.232439  0.847298  1
  Br  Br40  1  0.759584  0.045675  0.435576  1
  Br  Br41  1  0.259584  0.454325  0.564424  1
  Br  Br42  1  0.740416  0.545675  0.064424  1
  Br  Br43  1  0.240416  0.954325  0.935576  1
  Br  Br44  1  0.240416  0.954325  0.564424  1
  Br  Br45  1  0.740416  0.545675  0.435576  1
  Br  Br46  1  0.259584  0.454325  0.935576  1
  Br  Br47  1  0.759584  0.045675  0.064424  1
