# generated using pymatgen
data_Tl2PSe3
_symmetry_space_group_name_H-M   'P 1'
_cell_length_a   12.60495572
_cell_length_b   9.21624861
_cell_length_c   12.84388106
_cell_angle_alpha   90.00000000
_cell_angle_beta   100.60109145
_cell_angle_gamma   90.00000000
_symmetry_Int_Tables_number   1
_chemical_formula_structural   Tl2PSe3
_chemical_formula_sum   'Tl16 P8 Se24'
_cell_volume   1466.61183940
_cell_formula_units_Z   8
loop_
 _symmetry_equiv_pos_site_id
 _symmetry_equiv_pos_as_xyz
  1  'x, y, z'
loop_
 _atom_site_type_symbol
 _atom_site_label
 _atom_site_symmetry_multiplicity
 _atom_site_fract_x
 _atom_site_fract_y
 _atom_site_fract_z
 _atom_site_occupancy
  Tl  Tl0  1  0.522872  0.847804  0.310484  1
  Tl  Tl1  1  0.477128  0.347804  0.189516  1
  Tl  Tl2  1  0.477128  0.152196  0.689516  1
  Tl  Tl3  1  0.522872  0.652196  0.810484  1
  Tl  Tl4  1  0.802969  0.679908  0.747713  1
  Tl  Tl5  1  0.197031  0.179908  0.752287  1
  Tl  Tl6  1  0.197031  0.320092  0.252287  1
  Tl  Tl7  1  0.802969  0.820092  0.247713  1
  Tl  Tl8  1  0.099713  0.610022  0.431332  1
  Tl  Tl9  1  0.900287  0.110022  0.068668  1
  Tl  Tl10  1  0.900287  0.389978  0.568668  1
  Tl  Tl11  1  0.099713  0.889978  0.931332  1
  Tl  Tl12  1  0.293269  0.539084  0.950703  1
  Tl  Tl13  1  0.706731  0.039084  0.549297  1
  Tl  Tl14  1  0.706731  0.460916  0.049297  1
  Tl  Tl15  1  0.293269  0.960916  0.450703  1
  P  P16  1  0.003851  0.426458  0.928506  1
  P  P17  1  0.996149  0.926458  0.571494  1
  P  P18  1  0.996149  0.573542  0.071494  1
  P  P19  1  0.003851  0.073542  0.428506  1
  P  P20  1  0.434252  0.578905  0.516165  1
  P  P21  1  0.565748  0.078905  0.983835  1
  P  P22  1  0.565748  0.421095  0.483835  1
  P  P23  1  0.434252  0.921095  0.016165  1
  Se  Se24  1  0.052324  0.565877  0.804200  1
  Se  Se25  1  0.947676  0.065877  0.695800  1
  Se  Se26  1  0.947676  0.434123  0.195800  1
  Se  Se27  1  0.052324  0.934123  0.304200  1
  Se  Se28  1  0.342844  0.476554  0.626426  1
  Se  Se29  1  0.657156  0.976554  0.873574  1
  Se  Se30  1  0.657156  0.523446  0.373574  1
  Se  Se31  1  0.342844  0.023446  0.126426  1
  Se  Se32  1  0.159348  0.834588  0.622389  1
  Se  Se33  1  0.840652  0.334588  0.877611  1
  Se  Se34  1  0.840652  0.165412  0.377611  1
  Se  Se35  1  0.159348  0.665412  0.122389  1
  Se  Se36  1  0.664640  0.122641  0.143444  1
  Se  Se37  1  0.335360  0.622641  0.356556  1
  Se  Se38  1  0.335360  0.877359  0.856556  1
  Se  Se39  1  0.664640  0.377359  0.643444  1
  Se  Se40  1  0.871167  0.762615  0.511026  1
  Se  Se41  1  0.128833  0.262615  0.988974  1
  Se  Se42  1  0.128833  0.237385  0.488974  1
  Se  Se43  1  0.871167  0.737385  0.011026  1
  Se  Se44  1  0.520216  0.722420  0.083336  1
  Se  Se45  1  0.479784  0.222420  0.416664  1
  Se  Se46  1  0.479784  0.277580  0.916664  1
  Se  Se47  1  0.520216  0.777580  0.583336  1
