# generated using pymatgen
data_Rb3Bi2I9
_symmetry_space_group_name_H-M   'P 1'
_cell_length_a   15.09137655
_cell_length_b   8.45412596
_cell_length_c   25.94747334
_cell_angle_alpha   90.00000000
_cell_angle_beta   123.94005596
_cell_angle_gamma   90.00000000
_symmetry_Int_Tables_number   1
_chemical_formula_structural   Rb3Bi2I9
_chemical_formula_sum   'Rb12 Bi8 I36'
_cell_volume   2746.45815862
_cell_formula_units_Z   4
loop_
 _symmetry_equiv_pos_site_id
 _symmetry_equiv_pos_as_xyz
  1  'x, y, z'
loop_
 _atom_site_type_symbol
 _atom_site_label
 _atom_site_symmetry_multiplicity
 _atom_site_fract_x
 _atom_site_fract_y
 _atom_site_fract_z
 _atom_site_occupancy
  Rb  Rb0  1  0.652174  0.222191  0.452462  1
  Rb  Rb1  1  0.652174  0.777809  0.952462  1
  Rb  Rb2  1  0.060082  0.733890  0.405433  1
  Rb  Rb3  1  0.060082  0.266110  0.905433  1
  Rb  Rb4  1  0.997447  0.772928  0.623922  1
  Rb  Rb5  1  0.997447  0.227072  0.123922  1
  Rb  Rb6  1  0.321713  0.767804  0.288760  1
  Rb  Rb7  1  0.321713  0.232196  0.788760  1
  Rb  Rb8  1  0.379340  0.273737  0.568439  1
  Rb  Rb9  1  0.379340  0.726263  0.068439  1
  Rb  Rb10  1  0.726249  0.282085  0.239973  1
  Rb  Rb11  1  0.726249  0.717915  0.739973  1
  Bi  Bi12  1  0.862477  0.758665  0.187810  1
  Bi  Bi13  1  0.862477  0.241335  0.687810  1
  Bi  Bi14  1  0.012060  0.240870  0.505647  1
  Bi  Bi15  1  0.012060  0.759130  0.005647  1
  Bi  Bi16  1  0.362599  0.258159  0.186910  1
  Bi  Bi17  1  0.362599  0.741841  0.686910  1
  Bi  Bi18  1  0.518696  0.743898  0.507711  1
  Bi  Bi19  1  0.518696  0.256102  0.007711  1
  I  I20  1  0.598274  0.668536  0.427938  1
  I  I21  1  0.165533  0.559540  0.563273  1
  I  I22  1  0.924800  0.657382  0.090699  1
  I  I23  1  0.924800  0.342618  0.590699  1
  I  I24  1  0.103742  0.822343  0.930972  1
  I  I25  1  0.103742  0.177657  0.430972  1
  I  I26  1  0.836765  0.559479  0.905128  1
  I  I27  1  0.836765  0.440521  0.405128  1
  I  I28  1  0.497938  0.451738  0.730661  1
  I  I29  1  0.497938  0.548262  0.230661  1
  I  I30  1  0.409786  0.960353  0.936520  1
  I  I31  1  0.165533  0.440460  0.063273  1
  I  I32  1  0.878312  0.050594  0.963090  1
  I  I33  1  0.878312  0.949406  0.463090  1
  I  I34  1  0.061961  0.048859  0.763282  1
  I  I35  1  0.061961  0.951141  0.263282  1
  I  I36  1  0.452504  0.157224  0.103156  1
  I  I37  1  0.452504  0.842776  0.603156  1
  I  I38  1  0.635549  0.569018  0.094969  1
  I  I39  1  0.635549  0.430982  0.594969  1
  I  I40  1  0.534824  0.945462  0.787171  1
  I  I41  1  0.534824  0.054538  0.287171  1
  I  I42  1  0.745399  0.071244  0.101641  1
  I  I43  1  0.745399  0.928756  0.601641  1
  I  I44  1  0.973152  0.534327  0.760552  1
  I  I45  1  0.973152  0.465673  0.260552  1
  I  I46  1  0.210666  0.060935  0.628902  1
  I  I47  1  0.210666  0.939065  0.128902  1
  I  I48  1  0.318910  0.447028  0.929618  1
  I  I49  1  0.318910  0.552972  0.429618  1
  I  I50  1  0.270590  0.675937  0.761161  1
  I  I51  1  0.270590  0.324063  0.261161  1
  I  I52  1  0.784760  0.838243  0.268199  1
  I  I53  1  0.784760  0.161757  0.768199  1
  I  I54  1  0.409786  0.039647  0.436520  1
  I  I55  1  0.598274  0.331464  0.927938  1
