# generated using pymatgen
data_LiSb(PO3)4
_symmetry_space_group_name_H-M   'P 1'
_cell_length_a   7.93179478
_cell_length_b   7.93179478
_cell_length_c   17.41370324
_cell_angle_alpha   90.00000000
_cell_angle_beta   90.00000000
_cell_angle_gamma   97.81820255
_symmetry_Int_Tables_number   1
_chemical_formula_structural   LiSb(PO3)4
_chemical_formula_sum   'Li4 Sb4 P16 O48'
_cell_volume   1085.37118994
_cell_formula_units_Z   4
loop_
 _symmetry_equiv_pos_site_id
 _symmetry_equiv_pos_as_xyz
  1  'x, y, z'
loop_
 _atom_site_type_symbol
 _atom_site_label
 _atom_site_symmetry_multiplicity
 _atom_site_fract_x
 _atom_site_fract_y
 _atom_site_fract_z
 _atom_site_occupancy
  Li  Li0  1  0.178191  0.105480  0.643577  1
  Li  Li1  1  0.894520  0.821809  0.856423  1
  Li  Li2  1  0.821809  0.894520  0.143577  1
  Li  Li3  1  0.105480  0.178191  0.356423  1
  Sb  Sb4  1  0.433463  0.015417  0.364833  1
  Sb  Sb5  1  0.984583  0.566537  0.135167  1
  Sb  Sb6  1  0.015417  0.433463  0.635167  1
  Sb  Sb7  1  0.566537  0.984583  0.864833  1
  P  P8  1  0.743571  0.036264  0.656742  1
  P  P9  1  0.963736  0.256429  0.843258  1
  P  P10  1  0.684706  0.218062  0.511810  1
  P  P11  1  0.781938  0.315294  0.988190  1
  P  P12  1  0.638705  0.361295  0.250000  1
  P  P13  1  0.713387  0.679906  0.689743  1
  P  P14  1  0.320094  0.286613  0.810257  1
  P  P15  1  0.347949  0.347949  0.500000  1
  P  P16  1  0.652051  0.652051  0.000000  1
  P  P17  1  0.286613  0.320094  0.189743  1
  P  P18  1  0.679906  0.713387  0.310257  1
  P  P19  1  0.361295  0.638705  0.750000  1
  P  P20  1  0.218062  0.684706  0.488190  1
  P  P21  1  0.315294  0.781938  0.011810  1
  P  P22  1  0.036264  0.743571  0.343258  1
  P  P23  1  0.256429  0.963736  0.156742  1
  O  O24  1  0.929852  0.102787  0.647878  1
  O  O25  1  0.897213  0.070148  0.852122  1
  O  O26  1  0.646280  0.058535  0.728343  1
  O  O27  1  0.941465  0.353720  0.771657  1
  O  O28  1  0.683807  0.140541  0.982989  1
  O  O29  1  0.859459  0.316193  0.517011  1
  O  O30  1  0.899229  0.354709  0.056767  1
  O  O31  1  0.645291  0.100771  0.443233  1
  O  O32  1  0.891610  0.364629  0.912044  1
  O  O33  1  0.635371  0.108390  0.587956  1
  O  O34  1  0.610357  0.195347  0.292822  1
  O  O35  1  0.804653  0.389643  0.207178  1
  O  O36  1  0.459649  0.214030  0.853989  1
  O  O37  1  0.785970  0.540351  0.646011  1
  O  O38  1  0.547952  0.351218  0.515062  1
  O  O39  1  0.648782  0.452048  0.984938  1
  O  O40  1  0.618254  0.510104  0.310404  1
  O  O41  1  0.489896  0.381746  0.189596  1
  O  O42  1  0.274661  0.163080  0.131294  1
  O  O43  1  0.836920  0.725339  0.368706  1
  O  O44  1  0.781185  0.729075  0.767129  1
  O  O45  1  0.270925  0.218815  0.732871  1
  O  O46  1  0.751529  0.704530  0.071894  1
  O  O47  1  0.295470  0.248471  0.428106  1
  O  O48  1  0.248471  0.295470  0.571894  1
  O  O49  1  0.704530  0.751529  0.928106  1
  O  O50  1  0.218815  0.270925  0.267129  1
  O  O51  1  0.729075  0.781185  0.232871  1
  O  O52  1  0.725339  0.836920  0.631294  1
  O  O53  1  0.163080  0.274661  0.868706  1
  O  O54  1  0.381746  0.489896  0.810404  1
  O  O55  1  0.510104  0.618254  0.689596  1
  O  O56  1  0.351218  0.547952  0.484938  1
  O  O57  1  0.452048  0.648782  0.015062  1
  O  O58  1  0.214030  0.459649  0.146011  1
  O  O59  1  0.540351  0.785970  0.353989  1
  O  O60  1  0.389643  0.804653  0.792822  1
  O  O61  1  0.195347  0.610357  0.707178  1
  O  O62  1  0.108390  0.635371  0.412044  1
  O  O63  1  0.364629  0.891610  0.087956  1
  O  O64  1  0.100771  0.645291  0.556767  1
  O  O65  1  0.354709  0.899229  0.943233  1
  O  O66  1  0.140541  0.683807  0.017011  1
  O  O67  1  0.316193  0.859459  0.482989  1
  O  O68  1  0.058535  0.646280  0.271657  1
  O  O69  1  0.353720  0.941465  0.228343  1
  O  O70  1  0.070148  0.897213  0.147878  1
  O  O71  1  0.102787  0.929852  0.352122  1
