# generated using pymatgen
data_Be2TlF5
_symmetry_space_group_name_H-M   'P 1'
_cell_length_a   4.72336278
_cell_length_b   4.72336278
_cell_length_c   12.80519858
_cell_angle_alpha   88.90163356
_cell_angle_beta   91.09836644
_cell_angle_gamma   120.11666406
_symmetry_Int_Tables_number   1
_chemical_formula_structural   Be2TlF5
_chemical_formula_sum   'Be4 Tl2 F10'
_cell_volume   247.05947642
_cell_formula_units_Z   2
loop_
 _symmetry_equiv_pos_site_id
 _symmetry_equiv_pos_as_xyz
  1  'x, y, z'
loop_
 _atom_site_type_symbol
 _atom_site_label
 _atom_site_symmetry_multiplicity
 _atom_site_fract_x
 _atom_site_fract_y
 _atom_site_fract_z
 _atom_site_occupancy
  Be  Be0  1  0.692410  0.356783  0.204715  1
  Be  Be1  1  0.356783  0.692410  0.295285  1
  Be  Be2  1  0.307590  0.643217  0.795285  1
  Be  Be3  1  0.643217  0.307590  0.704715  1
  Tl  Tl4  1  0.000000  0.000000  0.000000  1
  Tl  Tl5  1  1.000000  0.000000  0.500000  1
  F  F6  1  0.423042  0.423042  0.250000  1
  F  F7  1  0.961625  0.348310  0.761545  1
  F  F8  1  0.651690  0.038375  0.261545  1
  F  F9  1  0.038375  0.651690  0.238455  1
  F  F10  1  0.348310  0.961625  0.738455  1
  F  F11  1  0.676492  0.334861  0.586851  1
  F  F12  1  0.334861  0.676492  0.913149  1
  F  F13  1  0.323508  0.665139  0.413149  1
  F  F14  1  0.665139  0.323508  0.086851  1
  F  F15  1  0.576958  0.576958  0.750000  1
