# generated using pymatgen
data_Tl2O
_symmetry_space_group_name_H-M   'P 1'
_cell_length_a   13.33813599
_cell_length_b   13.33813599
_cell_length_c   13.33813599
_cell_angle_alpha   15.61745319
_cell_angle_beta   15.61745319
_cell_angle_gamma   15.61745319
_symmetry_Int_Tables_number   1
_chemical_formula_structural   Tl2O
_chemical_formula_sum   'Tl4 O2'
_cell_volume   149.86117181
_cell_formula_units_Z   2
loop_
 _symmetry_equiv_pos_site_id
 _symmetry_equiv_pos_as_xyz
  1  'x, y, z'
loop_
 _atom_site_type_symbol
 _atom_site_label
 _atom_site_symmetry_multiplicity
 _atom_site_fract_x
 _atom_site_fract_y
 _atom_site_fract_z
 _atom_site_occupancy
  Tl  Tl0  1  0.711743  0.711743  0.711743  1
  Tl  Tl1  1  0.288257  0.288257  0.288257  1
  Tl  Tl2  1  0.121522  0.121522  0.121522  1
  Tl  Tl3  1  0.878478  0.878478  0.878478  1
  O  O4  1  0.416758  0.416758  0.416758  1
  O  O5  1  0.583242  0.583242  0.583242  1
