# generated using pymatgen
data_Ba2As2S5
_symmetry_space_group_name_H-M   'P 1'
_cell_length_a   9.39745868
_cell_length_b   12.10791697
_cell_length_c   17.71633974
_cell_angle_alpha   90.00000000
_cell_angle_beta   90.00000000
_cell_angle_gamma   90.00000000
_symmetry_Int_Tables_number   1
_chemical_formula_structural   Ba2As2S5
_chemical_formula_sum   'Ba16 As16 S40'
_cell_volume   2015.82979010
_cell_formula_units_Z   8
loop_
 _symmetry_equiv_pos_site_id
 _symmetry_equiv_pos_as_xyz
  1  'x, y, z'
loop_
 _atom_site_type_symbol
 _atom_site_label
 _atom_site_symmetry_multiplicity
 _atom_site_fract_x
 _atom_site_fract_y
 _atom_site_fract_z
 _atom_site_occupancy
  Ba  Ba0  1  0.003997  0.979613  0.428090  1
  Ba  Ba1  1  0.996003  0.479613  0.571910  1
  Ba  Ba2  1  0.996003  0.979613  0.928090  1
  Ba  Ba3  1  0.003997  0.479613  0.071910  1
  Ba  Ba4  1  0.500214  0.823091  0.176214  1
  Ba  Ba5  1  0.499786  0.323091  0.823786  1
  Ba  Ba6  1  0.499786  0.823091  0.676214  1
  Ba  Ba7  1  0.500214  0.323091  0.323786  1
  Ba  Ba8  1  0.986326  0.832066  0.178780  1
  Ba  Ba9  1  0.013674  0.332066  0.821220  1
  Ba  Ba10  1  0.013674  0.832066  0.678780  1
  Ba  Ba11  1  0.986326  0.332066  0.321220  1
  Ba  Ba12  1  0.503026  0.990456  0.423236  1
  Ba  Ba13  1  0.496974  0.490456  0.576764  1
  Ba  Ba14  1  0.496974  0.990456  0.923236  1
  Ba  Ba15  1  0.503026  0.490456  0.076764  1
  As  As16  1  0.278748  0.751000  0.506976  1
  As  As17  1  0.721252  0.251000  0.493024  1
  As  As18  1  0.721252  0.751000  0.006976  1
  As  As19  1  0.278748  0.251000  0.993024  1
  As  As20  1  0.270021  0.561991  0.240438  1
  As  As21  1  0.729979  0.061991  0.759562  1
  As  As22  1  0.729979  0.561991  0.740438  1
  As  As23  1  0.270021  0.061991  0.259562  1
  As  As24  1  0.774370  0.681020  0.369919  1
  As  As25  1  0.225630  0.181020  0.630081  1
  As  As26  1  0.225630  0.681020  0.869919  1
  As  As27  1  0.774370  0.181020  0.130081  1
  As  As28  1  0.138100  0.139489  0.125312  1
  As  As29  1  0.861900  0.639489  0.874688  1
  As  As30  1  0.861900  0.139489  0.625312  1
  As  As31  1  0.138100  0.639489  0.374688  1
  S  S32  1  0.202184  0.475986  0.425550  1
  S  S33  1  0.797816  0.975986  0.574450  1
  S  S34  1  0.797816  0.475986  0.925550  1
  S  S35  1  0.202184  0.975986  0.074450  1
  S  S36  1  0.953096  0.207791  0.039731  1
  S  S37  1  0.046904  0.707791  0.960269  1
  S  S38  1  0.046904  0.207791  0.539731  1
  S  S39  1  0.953096  0.707791  0.460269  1
  S  S40  1  0.946601  0.599596  0.289052  1
  S  S41  1  0.053399  0.099596  0.710948  1
  S  S42  1  0.053399  0.599596  0.789052  1
  S  S43  1  0.946601  0.099596  0.210948  1
  S  S44  1  0.238275  0.156811  0.883935  1
  S  S45  1  0.761725  0.656811  0.116065  1
  S  S46  1  0.761725  0.156811  0.383935  1
  S  S47  1  0.238275  0.656811  0.616065  1
  S  S48  1  0.242816  0.384570  0.197529  1
  S  S49  1  0.234200  0.657126  0.132767  1
  S  S50  1  0.757184  0.884570  0.802471  1
  S  S51  1  0.242816  0.884570  0.302471  1
  S  S52  1  0.516333  0.242664  0.000805  1
  S  S53  1  0.483667  0.742664  0.999195  1
  S  S54  1  0.483667  0.242664  0.500805  1
  S  S55  1  0.516333  0.742664  0.499195  1
  S  S56  1  0.756935  0.351952  0.180089  1
  S  S57  1  0.243065  0.851952  0.819911  1
  S  S58  1  0.243065  0.351952  0.680089  1
  S  S59  1  0.756935  0.851952  0.319911  1
  S  S60  1  0.250286  0.426601  0.949030  1
  S  S61  1  0.749714  0.926601  0.050970  1
  S  S62  1  0.749714  0.426601  0.449030  1
  S  S63  1  0.250286  0.926601  0.550970  1
  S  S64  1  0.505596  0.072777  0.245886  1
  S  S65  1  0.494404  0.572777  0.754114  1
  S  S66  1  0.494404  0.072777  0.745886  1
  S  S67  1  0.505596  0.572777  0.254114  1
  S  S68  1  0.234200  0.157126  0.367233  1
  S  S69  1  0.765800  0.657126  0.632767  1
  S  S70  1  0.765800  0.157126  0.867233  1
  S  S71  1  0.757184  0.384570  0.697529  1
