# generated using pymatgen
data_Al(HO)3
_symmetry_space_group_name_H-M   'P 1'
_cell_length_a   8.75063767
_cell_length_b   5.11272911
_cell_length_c   12.82745146
_cell_angle_alpha   90.00000000
_cell_angle_beta   130.94854845
_cell_angle_gamma   90.00000000
_symmetry_Int_Tables_number   1
_chemical_formula_structural   Al(HO)3
_chemical_formula_sum   'Al8 H24 O24'
_cell_volume   433.46240706
_cell_formula_units_Z   8
loop_
 _symmetry_equiv_pos_site_id
 _symmetry_equiv_pos_as_xyz
  1  'x, y, z'
loop_
 _atom_site_type_symbol
 _atom_site_label
 _atom_site_symmetry_multiplicity
 _atom_site_fract_x
 _atom_site_fract_y
 _atom_site_fract_z
 _atom_site_occupancy
  Al  Al0  1  0.837182  0.475253  0.502240  1
  Al  Al1  1  0.162818  0.975253  0.997760  1
  Al  Al2  1  0.162818  0.524747  0.497760  1
  Al  Al3  1  0.837182  0.024747  0.002240  1
  Al  Al4  1  0.669459  0.966875  0.501834  1
  Al  Al5  1  0.330541  0.466875  0.998166  1
  Al  Al6  1  0.330541  0.033125  0.498166  1
  Al  Al7  1  0.669459  0.533125  0.001834  1
  H  H8  1  0.517937  0.339646  0.706000  1
  H  H9  1  0.482063  0.839646  0.794000  1
  H  H10  1  0.482063  0.660354  0.294000  1
  H  H11  1  0.517937  0.160354  0.206000  1
  H  H12  1  0.003229  0.775939  0.708428  1
  H  H13  1  0.996771  0.275939  0.791572  1
  H  H14  1  0.996771  0.224061  0.291572  1
  H  H15  1  0.003229  0.724061  0.208428  1
  H  H16  1  0.435234  0.318710  0.388357  1
  H  H17  1  0.564766  0.818710  0.111643  1
  H  H18  1  0.208466  0.386598  0.706645  1
  H  H19  1  0.791534  0.886598  0.793355  1
  H  H20  1  0.791534  0.613402  0.293355  1
  H  H21  1  0.208466  0.113402  0.206645  1
  H  H22  1  0.179529  0.944544  0.602137  1
  H  H23  1  0.820471  0.444544  0.897863  1
  H  H24  1  0.820471  0.055456  0.397863  1
  H  H25  1  0.179529  0.555456  0.102137  1
  H  H26  1  0.705872  0.358946  0.624429  1
  H  H27  1  0.294128  0.858946  0.875571  1
  H  H28  1  0.294128  0.641054  0.375571  1
  H  H29  1  0.705872  0.141054  0.124429  1
  H  H30  1  0.564766  0.681290  0.611643  1
  H  H31  1  0.435234  0.181290  0.888357  1
  O  O32  1  0.907899  0.719521  0.106336  1
  O  O33  1  0.092101  0.219521  0.393664  1
  O  O34  1  0.092101  0.280479  0.893664  1
  O  O35  1  0.907899  0.780479  0.606336  1
  O  O36  1  0.430833  0.144948  0.104261  1
  O  O37  1  0.569167  0.644948  0.395739  1
  O  O38  1  0.569167  0.855052  0.895739  1
  O  O39  1  0.430833  0.355052  0.604261  1
  O  O40  1  0.409032  0.133674  0.392549  1
  O  O41  1  0.590968  0.633674  0.107451  1
  O  O42  1  0.109135  0.367025  0.605250  1
  O  O43  1  0.890865  0.867025  0.894750  1
  O  O44  1  0.890865  0.632975  0.394750  1
  O  O45  1  0.109135  0.132975  0.105250  1
  O  O46  1  0.278020  0.846884  0.604221  1
  O  O47  1  0.721980  0.346884  0.895779  1
  O  O48  1  0.721980  0.153116  0.395779  1
  O  O49  1  0.278020  0.653116  0.104221  1
  O  O50  1  0.795334  0.279628  0.612813  1
  O  O51  1  0.204666  0.779628  0.887187  1
  O  O52  1  0.204666  0.720372  0.387187  1
  O  O53  1  0.795334  0.220372  0.112813  1
  O  O54  1  0.590968  0.866326  0.607451  1
  O  O55  1  0.409032  0.366326  0.892549  1
