# generated using pymatgen
data_SrHClO
_symmetry_space_group_name_H-M   'P 1'
_cell_length_a   4.18258567
_cell_length_b   4.18258567
_cell_length_c   10.07966530
_cell_angle_alpha   90.00000000
_cell_angle_beta   90.00000000
_cell_angle_gamma   120.00000000
_symmetry_Int_Tables_number   1
_chemical_formula_structural   SrHClO
_chemical_formula_sum   'Sr2 H2 Cl2 O2'
_cell_volume   152.70963298
_cell_formula_units_Z   2
loop_
 _symmetry_equiv_pos_site_id
 _symmetry_equiv_pos_as_xyz
  1  'x, y, z'
loop_
 _atom_site_type_symbol
 _atom_site_label
 _atom_site_symmetry_multiplicity
 _atom_site_fract_x
 _atom_site_fract_y
 _atom_site_fract_z
 _atom_site_occupancy
  Sr  Sr0  1  0.666667  0.333333  0.197224  1
  Sr  Sr1  1  0.333333  0.666667  0.697224  1
  H  H2  1  0.000000  0.000000  0.860250  1
  H  H3  1  0.000000  0.000000  0.360250  1
  Cl  Cl4  1  0.333333  0.666667  0.010616  1
  Cl  Cl5  1  0.666667  0.333333  0.510616  1
  O  O6  1  0.000000  0.000000  0.263410  1
  O  O7  1  0.000000  0.000000  0.763410  1
