# generated using pymatgen
data_NdF3
_symmetry_space_group_name_H-M   'P 1'
_cell_length_a   7.08818792
_cell_length_b   7.08818792
_cell_length_c   7.27672682
_cell_angle_alpha   90.00000000
_cell_angle_beta   90.00000000
_cell_angle_gamma   120.00000000
_symmetry_Int_Tables_number   1
_chemical_formula_structural   NdF3
_chemical_formula_sum   'Nd6 F18'
_cell_volume   316.61912792
_cell_formula_units_Z   6
loop_
 _symmetry_equiv_pos_site_id
 _symmetry_equiv_pos_as_xyz
  1  'x, y, z'
loop_
 _atom_site_type_symbol
 _atom_site_label
 _atom_site_symmetry_multiplicity
 _atom_site_fract_x
 _atom_site_fract_y
 _atom_site_fract_z
 _atom_site_occupancy
  Nd  Nd0  1  0.344250  0.344250  0.750000  1
  Nd  Nd1  1  0.000000  0.655750  0.750000  1
  Nd  Nd2  1  0.655750  0.000000  0.750000  1
  Nd  Nd3  1  0.655750  0.655750  0.250000  1
  Nd  Nd4  1  0.000000  0.344250  0.250000  1
  Nd  Nd5  1  0.344250  0.000000  0.250000  1
  F  F6  1  0.000000  0.000000  0.750000  1
  F  F7  1  0.000000  0.000000  0.250000  1
  F  F8  1  0.333333  0.666667  0.816801  1
  F  F9  1  0.666667  0.333333  0.683199  1
  F  F10  1  0.666667  0.333333  0.183199  1
  F  F11  1  0.333333  0.666667  0.316801  1
  F  F12  1  0.308786  0.936589  0.580144  1
  F  F13  1  0.063411  0.372197  0.580144  1
  F  F14  1  0.627803  0.691214  0.580144  1
  F  F15  1  0.372197  0.063411  0.919856  1
  F  F16  1  0.691214  0.627803  0.919856  1
  F  F17  1  0.936589  0.308786  0.919856  1
  F  F18  1  0.691214  0.063411  0.419856  1
  F  F19  1  0.936589  0.627803  0.419856  1
  F  F20  1  0.372197  0.308786  0.419856  1
  F  F21  1  0.627803  0.936589  0.080144  1
  F  F22  1  0.308786  0.372197  0.080144  1
  F  F23  1  0.063411  0.691214  0.080144  1
