# generated using pymatgen
data_Ca11InSb9
_symmetry_space_group_name_H-M   'P 1'
_cell_length_a   12.10785969
_cell_length_b   12.10785969
_cell_length_c   12.10785969
_cell_angle_alpha   120.90365772
_cell_angle_beta   117.14998631
_cell_angle_gamma   91.72386566
_symmetry_Int_Tables_number   1
_chemical_formula_structural   Ca11InSb9
_chemical_formula_sum   'Ca22 In2 Sb18'
_cell_volume   1271.31800369
_cell_formula_units_Z   2
loop_
 _symmetry_equiv_pos_site_id
 _symmetry_equiv_pos_as_xyz
  1  'x, y, z'
loop_
 _atom_site_type_symbol
 _atom_site_label
 _atom_site_symmetry_multiplicity
 _atom_site_fract_x
 _atom_site_fract_y
 _atom_site_fract_z
 _atom_site_occupancy
  Ca  Ca0  1  0.432199  0.226491  0.350787  1
  Ca  Ca1  1  0.875704  0.081412  0.649213  1
  Ca  Ca2  1  0.932199  0.581412  0.205708  1
  Ca  Ca3  1  0.375704  0.726491  0.794292  1
  Ca  Ca4  1  0.571584  0.942682  0.263805  1
  Ca  Ca5  1  0.678877  0.307779  0.736195  1
  Ca  Ca6  1  0.071584  0.807779  0.628902  1
  Ca  Ca7  1  0.178877  0.442682  0.371098  1
  Ca  Ca8  1  0.110214  0.923510  0.360699  1
  Ca  Ca9  1  0.562811  0.749515  0.639301  1
  Ca  Ca10  1  0.610214  0.249515  0.186704  1
  Ca  Ca11  1  0.062811  0.423510  0.813296  1
  Ca  Ca12  1  0.309014  0.682612  0.257711  1
  Ca  Ca13  1  0.424901  0.051303  0.742289  1
  Ca  Ca14  1  0.809014  0.551303  0.626402  1
  Ca  Ca15  1  0.924901  0.182612  0.373598  1
  Ca  Ca16  1  0.819222  0.158807  0.987752  1
  Ca  Ca17  1  0.171054  0.831470  0.012248  1
  Ca  Ca18  1  0.319222  0.331470  0.660415  1
  Ca  Ca19  1  0.671054  0.658807  0.339585  1
  Ca  Ca20  1  0.669414  0.669414  0.000000  1
  Ca  Ca21  1  0.169414  0.169414  0.000000  1
  In  In22  1  0.386413  0.386413  0.000000  1
  In  In23  1  0.886413  0.886413  0.000000  1
  Sb  Sb24  1  0.381714  0.636075  0.015543  1
  Sb  Sb25  1  0.620531  0.366171  0.984457  1
  Sb  Sb26  1  0.881714  0.866171  0.745640  1
  Sb  Sb27  1  0.120531  0.136075  0.254360  1
  Sb  Sb28  1  0.747512  0.247512  0.500000  1
  Sb  Sb29  1  0.247512  0.747512  0.500000  1
  Sb  Sb30  1  0.501768  0.502680  0.647509  1
  Sb  Sb31  1  0.855171  0.854259  0.352491  1
  Sb  Sb32  1  0.001768  0.354259  0.999088  1
  Sb  Sb33  1  0.355171  0.002680  0.000912  1
  Sb  Sb34  1  0.383715  0.028474  0.426279  1
  Sb  Sb35  1  0.602195  0.957435  0.573721  1
  Sb  Sb36  1  0.883715  0.457435  0.355240  1
  Sb  Sb37  1  0.102195  0.528474  0.644760  1
  Sb  Sb38  1  0.159350  0.150943  0.702387  1
  Sb  Sb39  1  0.448556  0.456963  0.297613  1
  Sb  Sb40  1  0.659350  0.956963  0.008407  1
  Sb  Sb41  1  0.948556  0.650943  0.991593  1
