# generated using pymatgen
data_NbBiO4
_symmetry_space_group_name_H-M   'P 1'
_cell_length_a   5.10806515
_cell_length_b   5.83005147
_cell_length_c   11.79346432
_cell_angle_alpha   90.00000000
_cell_angle_beta   90.00000000
_cell_angle_gamma   90.00000000
_symmetry_Int_Tables_number   1
_chemical_formula_structural   NbBiO4
_chemical_formula_sum   'Nb4 Bi4 O16'
_cell_volume   351.21270189
_cell_formula_units_Z   4
loop_
 _symmetry_equiv_pos_site_id
 _symmetry_equiv_pos_as_xyz
  1  'x, y, z'
loop_
 _atom_site_type_symbol
 _atom_site_label
 _atom_site_symmetry_multiplicity
 _atom_site_fract_x
 _atom_site_fract_y
 _atom_site_fract_z
 _atom_site_occupancy
  Nb  Nb0  1  0.750000  0.846039  0.250000  1
  Nb  Nb1  1  0.750000  0.653961  0.750000  1
  Nb  Nb2  1  0.250000  0.153961  0.750000  1
  Nb  Nb3  1  0.250000  0.346039  0.250000  1
  Bi  Bi4  1  0.284428  0.750000  0.000000  1
  Bi  Bi5  1  0.215572  0.750000  0.500000  1
  Bi  Bi6  1  0.715572  0.250000  0.000000  1
  Bi  Bi7  1  0.784428  0.250000  0.500000  1
  O  O8  1  0.912769  0.920716  0.401358  1
  O  O9  1  0.912769  0.579284  0.598642  1
  O  O10  1  0.587231  0.920716  0.098642  1
  O  O11  1  0.587231  0.579284  0.901358  1
  O  O12  1  0.087231  0.079284  0.598642  1
  O  O13  1  0.087231  0.420716  0.401358  1
  O  O14  1  0.412769  0.079284  0.901358  1
  O  O15  1  0.412769  0.420716  0.098642  1
  O  O16  1  0.503298  0.143643  0.307159  1
  O  O17  1  0.503298  0.356357  0.692841  1
  O  O18  1  0.996702  0.143643  0.192841  1
  O  O19  1  0.996702  0.356357  0.807159  1
  O  O20  1  0.496702  0.856357  0.692841  1
  O  O21  1  0.496702  0.643643  0.307159  1
  O  O22  1  0.003298  0.856357  0.807159  1
  O  O23  1  0.003298  0.643643  0.192841  1
