# generated using pymatgen
data_P2PdO6
_symmetry_space_group_name_H-M   'P 1'
_cell_length_a   4.39417826
_cell_length_b   4.70774663
_cell_length_c   12.57111252
_cell_angle_alpha   90.00000000
_cell_angle_beta   90.00000000
_cell_angle_gamma   90.00000000
_symmetry_Int_Tables_number   1
_chemical_formula_structural   P2PdO6
_chemical_formula_sum   'P4 Pd2 O12'
_cell_volume   260.05455548
_cell_formula_units_Z   2
loop_
 _symmetry_equiv_pos_site_id
 _symmetry_equiv_pos_as_xyz
  1  'x, y, z'
loop_
 _atom_site_type_symbol
 _atom_site_label
 _atom_site_symmetry_multiplicity
 _atom_site_fract_x
 _atom_site_fract_y
 _atom_site_fract_z
 _atom_site_occupancy
  P  P0  1  0.500000  0.500000  0.327742  1
  P  P1  1  0.000000  0.500000  0.172258  1
  P  P2  1  0.500000  0.500000  0.672258  1
  P  P3  1  0.000000  0.500000  0.827742  1
  Pd  Pd4  1  0.500000  0.000000  0.500000  1
  Pd  Pd5  1  0.000000  0.000000  0.000000  1
  O  O6  1  0.750000  0.639518  0.250000  1
  O  O7  1  0.250000  0.360482  0.250000  1
  O  O8  1  0.250000  0.360482  0.750000  1
  O  O9  1  0.750000  0.639518  0.750000  1
  O  O10  1  0.837778  0.264046  0.113988  1
  O  O11  1  0.337778  0.735954  0.386012  1
  O  O12  1  0.837778  0.264046  0.886012  1
  O  O13  1  0.337778  0.735954  0.613988  1
  O  O14  1  0.662222  0.264046  0.613988  1
  O  O15  1  0.162222  0.735954  0.886012  1
  O  O16  1  0.162222  0.735954  0.113988  1
  O  O17  1  0.662222  0.264046  0.386012  1
