# generated using pymatgen
data_KIn5S8
_symmetry_space_group_name_H-M   'P 1'
_cell_length_a   9.83857875
_cell_length_b   9.83857875
_cell_length_c   9.35456199
_cell_angle_alpha   77.34780224
_cell_angle_beta   102.65219776
_cell_angle_gamma   157.03666635
_symmetry_Int_Tables_number   1
_chemical_formula_structural   KIn5S8
_chemical_formula_sum   'K1 In5 S8'
_cell_volume   344.33651550
_cell_formula_units_Z   1
loop_
 _symmetry_equiv_pos_site_id
 _symmetry_equiv_pos_as_xyz
  1  'x, y, z'
loop_
 _atom_site_type_symbol
 _atom_site_label
 _atom_site_symmetry_multiplicity
 _atom_site_fract_x
 _atom_site_fract_y
 _atom_site_fract_z
 _atom_site_occupancy
  K  K0  1  0.500000  0.500000  0.500000  1
  In  In1  1  0.286940  0.713060  0.661738  1
  In  In2  1  0.355221  0.644779  0.091953  1
  In  In3  1  0.644779  0.355221  0.908047  1
  In  In4  1  0.713060  0.286940  0.338262  1
  In  In5  1  0.000000  0.000000  0.000000  1
  S  S6  1  0.164754  0.835246  0.475816  1
  S  S7  1  0.068827  0.931173  0.782555  1
  S  S8  1  0.931173  0.068827  0.217445  1
  S  S9  1  0.414584  0.585416  0.875618  1
  S  S10  1  0.585416  0.414584  0.124382  1
  S  S11  1  0.237494  0.762506  0.152696  1
  S  S12  1  0.762506  0.237494  0.847304  1
  S  S13  1  0.835246  0.164754  0.524184  1
