# generated using pymatgen
data_TaI2O
_symmetry_space_group_name_H-M   'P 1'
_cell_length_a   8.58397820
_cell_length_b   8.58397820
_cell_length_c   7.53353929
_cell_angle_alpha   75.71721563
_cell_angle_beta   104.28278437
_cell_angle_gamma   153.71678497
_symmetry_Int_Tables_number   1
_chemical_formula_structural   TaI2O
_chemical_formula_sum   'Ta2 I4 O2'
_cell_volume   237.78685793
_cell_formula_units_Z   2
loop_
 _symmetry_equiv_pos_site_id
 _symmetry_equiv_pos_as_xyz
  1  'x, y, z'
loop_
 _atom_site_type_symbol
 _atom_site_label
 _atom_site_symmetry_multiplicity
 _atom_site_fract_x
 _atom_site_fract_y
 _atom_site_fract_z
 _atom_site_occupancy
  Ta  Ta0  1  0.000082  0.999918  0.293606  1
  Ta  Ta1  1  0.999918  0.000082  0.706394  1
  I  I2  1  0.883417  0.116583  0.934613  1
  I  I3  1  0.116583  0.883417  0.065387  1
  I  I4  1  0.856717  0.143283  0.419167  1
  I  I5  1  0.143283  0.856717  0.580833  1
  O  O6  1  0.500055  0.499945  0.286995  1
  O  O7  1  0.499945  0.500055  0.713005  1
