# generated using pymatgen
data_Na3HoCl6
_symmetry_space_group_name_H-M   'P 1'
_cell_length_a   6.91755485
_cell_length_b   7.31403272
_cell_length_c   12.30634462
_cell_angle_alpha   90.00000000
_cell_angle_beta   123.43714769
_cell_angle_gamma   90.00000000
_symmetry_Int_Tables_number   1
_chemical_formula_structural   Na3HoCl6
_chemical_formula_sum   'Na6 Ho2 Cl12'
_cell_volume   519.58921423
_cell_formula_units_Z   2
loop_
 _symmetry_equiv_pos_site_id
 _symmetry_equiv_pos_as_xyz
  1  'x, y, z'
loop_
 _atom_site_type_symbol
 _atom_site_label
 _atom_site_symmetry_multiplicity
 _atom_site_fract_x
 _atom_site_fract_y
 _atom_site_fract_z
 _atom_site_occupancy
  Na  Na0  1  0.284408  0.576345  0.760004  1
  Na  Na1  1  0.715592  0.076345  0.739996  1
  Na  Na2  1  0.500000  0.000000  0.000000  1
  Na  Na3  1  0.500000  0.500000  0.500000  1
  Na  Na4  1  0.715592  0.423655  0.239996  1
  Na  Na5  1  0.284408  0.923655  0.260004  1
  Ho  Ho6  1  0.000000  0.000000  0.500000  1
  Ho  Ho7  1  0.000000  0.500000  0.000000  1
  Cl  Cl8  1  0.099697  0.935170  0.737749  1
  Cl  Cl9  1  0.246678  0.304038  0.578581  1
  Cl  Cl10  1  0.753322  0.804038  0.921419  1
  Cl  Cl11  1  0.753322  0.695962  0.421419  1
  Cl  Cl12  1  0.622547  0.321676  0.935850  1
  Cl  Cl13  1  0.377453  0.821676  0.564150  1
  Cl  Cl14  1  0.377453  0.678324  0.064150  1
  Cl  Cl15  1  0.622547  0.178324  0.435850  1
  Cl  Cl16  1  0.900303  0.064830  0.262251  1
  Cl  Cl17  1  0.099697  0.564830  0.237749  1
  Cl  Cl18  1  0.246678  0.195962  0.078581  1
  Cl  Cl19  1  0.900303  0.435170  0.762251  1
