# generated using pymatgen
data_Cs3Mo2Br9
_symmetry_space_group_name_H-M   'P 1'
_cell_length_a   7.91244544
_cell_length_b   7.91244544
_cell_length_c   19.07480623
_cell_angle_alpha   90.00000000
_cell_angle_beta   90.00000000
_cell_angle_gamma   120.00000000
_symmetry_Int_Tables_number   1
_chemical_formula_structural   Cs3Mo2Br9
_chemical_formula_sum   'Cs6 Mo4 Br18'
_cell_volume   1034.21831272
_cell_formula_units_Z   2
loop_
 _symmetry_equiv_pos_site_id
 _symmetry_equiv_pos_as_xyz
  1  'x, y, z'
loop_
 _atom_site_type_symbol
 _atom_site_label
 _atom_site_symmetry_multiplicity
 _atom_site_fract_x
 _atom_site_fract_y
 _atom_site_fract_z
 _atom_site_occupancy
  Cs  Cs0  1  0.666667  0.333333  0.930558  1
  Cs  Cs1  1  0.333333  0.666667  0.430558  1
  Cs  Cs2  1  0.666667  0.333333  0.569442  1
  Cs  Cs3  1  0.333333  0.666667  0.069442  1
  Cs  Cs4  1  0.000000  0.000000  0.750000  1
  Cs  Cs5  1  0.000000  0.000000  0.250000  1
  Mo  Mo6  1  0.333333  0.666667  0.674774  1
  Mo  Mo7  1  0.666667  0.333333  0.174774  1
  Mo  Mo8  1  0.666667  0.333333  0.325226  1
  Mo  Mo9  1  0.333333  0.666667  0.825226  1
  Br  Br10  1  0.820316  0.640633  0.096078  1
  Br  Br11  1  0.179684  0.820316  0.596078  1
  Br  Br12  1  0.640633  0.820316  0.596078  1
  Br  Br13  1  0.359367  0.179684  0.096078  1
  Br  Br14  1  0.820316  0.179684  0.096078  1
  Br  Br15  1  0.179684  0.359367  0.903922  1
  Br  Br16  1  0.179684  0.820316  0.903922  1
  Br  Br17  1  0.179684  0.359367  0.596078  1
  Br  Br18  1  0.640633  0.820316  0.903922  1
  Br  Br19  1  0.359367  0.179684  0.403922  1
  Br  Br20  1  0.820316  0.640633  0.403922  1
  Br  Br21  1  0.820316  0.179684  0.403922  1
  Br  Br22  1  0.505768  0.011536  0.250000  1
  Br  Br23  1  0.494232  0.505768  0.750000  1
  Br  Br24  1  0.011536  0.505768  0.750000  1
  Br  Br25  1  0.988464  0.494232  0.250000  1
  Br  Br26  1  0.505768  0.494232  0.250000  1
  Br  Br27  1  0.494232  0.988464  0.750000  1
