# generated using pymatgen
data_CsIn5S8
_symmetry_space_group_name_H-M   'P 1'
_cell_length_a   9.87440618
_cell_length_b   9.87440618
_cell_length_c   9.46527750
_cell_angle_alpha   78.37593873
_cell_angle_beta   101.62406127
_cell_angle_gamma   157.02249900
_symmetry_Int_Tables_number   1
_chemical_formula_structural   CsIn5S8
_chemical_formula_sum   'Cs1 In5 S8'
_cell_volume   352.57520021
_cell_formula_units_Z   1
loop_
 _symmetry_equiv_pos_site_id
 _symmetry_equiv_pos_as_xyz
  1  'x, y, z'
loop_
 _atom_site_type_symbol
 _atom_site_label
 _atom_site_symmetry_multiplicity
 _atom_site_fract_x
 _atom_site_fract_y
 _atom_site_fract_z
 _atom_site_occupancy
  Cs  Cs0  1  0.500000  0.500000  0.500000  1
  In  In1  1  0.000000  0.000000  0.000000  1
  In  In2  1  0.650247  0.349753  0.930848  1
  In  In3  1  0.349753  0.650247  0.069152  1
  In  In4  1  0.710294  0.289706  0.339911  1
  In  In5  1  0.289706  0.710294  0.660089  1
  S  S6  1  0.167147  0.832853  0.482348  1
  S  S7  1  0.078246  0.921754  0.803779  1
  S  S8  1  0.921754  0.078246  0.196221  1
  S  S9  1  0.417861  0.582139  0.864722  1
  S  S10  1  0.582139  0.417861  0.135278  1
  S  S11  1  0.235401  0.764599  0.152354  1
  S  S12  1  0.764599  0.235401  0.847646  1
  S  S13  1  0.832853  0.167147  0.517652  1
