# generated using pymatgen
data_Ta3N5
_symmetry_space_group_name_H-M   'P 1'
_cell_length_a   5.52077721
_cell_length_b   5.52077721
_cell_length_c   10.35710603
_cell_angle_alpha   90.00000000
_cell_angle_beta   90.00000000
_cell_angle_gamma   138.57941257
_symmetry_Int_Tables_number   1
_chemical_formula_structural   Ta3N5
_chemical_formula_sum   'Ta6 N10'
_cell_volume   208.84405692
_cell_formula_units_Z   2
loop_
 _symmetry_equiv_pos_site_id
 _symmetry_equiv_pos_as_xyz
  1  'x, y, z'
loop_
 _atom_site_type_symbol
 _atom_site_label
 _atom_site_symmetry_multiplicity
 _atom_site_fract_x
 _atom_site_fract_y
 _atom_site_fract_z
 _atom_site_occupancy
  Ta  Ta0  1  0.196950  0.803050  0.750000  1
  Ta  Ta1  1  0.866372  0.133628  0.940570  1
  Ta  Ta2  1  0.133628  0.866372  0.059430  1
  Ta  Ta3  1  0.133628  0.866372  0.440570  1
  Ta  Ta4  1  0.803050  0.196950  0.250000  1
  Ta  Ta5  1  0.866372  0.133628  0.559430  1
  N  N6  1  0.046701  0.953299  0.880746  1
  N  N7  1  0.691726  0.308274  0.074069  1
  N  N8  1  0.308274  0.691726  0.925931  1
  N  N9  1  0.691726  0.308274  0.425931  1
  N  N10  1  0.237436  0.762564  0.250000  1
  N  N11  1  0.308274  0.691726  0.574069  1
  N  N12  1  0.046701  0.953299  0.619254  1
  N  N13  1  0.953299  0.046701  0.380746  1
  N  N14  1  0.762564  0.237436  0.750000  1
  N  N15  1  0.953299  0.046701  0.119254  1
