# generated using pymatgen
data_NaBi(PO3)4
_symmetry_space_group_name_H-M   'P 1'
_cell_length_a   7.29915834
_cell_length_b   13.30596823
_cell_length_c   12.33407742
_cell_angle_alpha   90.00000000
_cell_angle_beta   125.95560960
_cell_angle_gamma   90.00000000
_symmetry_Int_Tables_number   1
_chemical_formula_structural   NaBi(PO3)4
_chemical_formula_sum   'Na4 Bi4 P16 O48'
_cell_volume   969.67867433
_cell_formula_units_Z   4
loop_
 _symmetry_equiv_pos_site_id
 _symmetry_equiv_pos_as_xyz
  1  'x, y, z'
loop_
 _atom_site_type_symbol
 _atom_site_label
 _atom_site_symmetry_multiplicity
 _atom_site_fract_x
 _atom_site_fract_y
 _atom_site_fract_z
 _atom_site_occupancy
  Na  Na0  1  0.934624  0.778572  0.436302  1
  Na  Na1  1  0.065376  0.278572  0.063698  1
  Na  Na2  1  0.065376  0.221428  0.563698  1
  Na  Na3  1  0.934624  0.721428  0.936302  1
  Bi  Bi4  1  0.534405  0.780875  0.522297  1
  Bi  Bi5  1  0.465595  0.280875  0.977703  1
  Bi  Bi6  1  0.465595  0.219125  0.477703  1
  Bi  Bi7  1  0.534405  0.719125  0.022297  1
  P  P8  1  0.113301  0.614103  0.235632  1
  P  P9  1  0.342124  0.871999  0.196341  1
  P  P10  1  0.342124  0.628001  0.696341  1
  P  P11  1  0.657876  0.128001  0.803659  1
  P  P12  1  0.008207  0.601262  0.758606  1
  P  P13  1  0.991793  0.101262  0.741394  1
  P  P14  1  0.991793  0.398738  0.241394  1
  P  P15  1  0.008207  0.898738  0.258606  1
  P  P16  1  0.657876  0.371999  0.303659  1
  P  P17  1  0.886699  0.114103  0.264368  1
  P  P18  1  0.569843  0.910065  0.799835  1
  P  P19  1  0.113301  0.885897  0.735632  1
  P  P20  1  0.569843  0.589935  0.299835  1
  P  P21  1  0.430157  0.089935  0.200165  1
  P  P22  1  0.430157  0.410065  0.700165  1
  P  P23  1  0.886699  0.385897  0.764368  1
  O  O24  1  0.647608  0.477992  0.363209  1
  O  O25  1  0.352392  0.977992  0.136791  1
  O  O26  1  0.352392  0.522008  0.636791  1
  O  O27  1  0.647608  0.022008  0.863209  1
  O  O28  1  0.660601  0.660314  0.416132  1
  O  O29  1  0.339399  0.160314  0.083868  1
  O  O30  1  0.339399  0.339686  0.583868  1
  O  O31  1  0.660601  0.839686  0.916132  1
  O  O32  1  0.682348  0.290705  0.396128  1
  O  O33  1  0.317652  0.790705  0.103872  1
  O  O34  1  0.317652  0.709295  0.603872  1
  O  O35  1  0.682348  0.209295  0.896128  1
  O  O36  1  0.801268  0.664986  0.707865  1
  O  O37  1  0.198732  0.164986  0.792135  1
  O  O38  1  0.198732  0.335014  0.292135  1
  O  O39  1  0.801268  0.835014  0.207865  1
  O  O40  1  0.472862  0.365781  0.155976  1
  O  O41  1  0.906821  0.645283  0.100944  1
  O  O42  1  0.527138  0.865781  0.344024  1
  O  O43  1  0.472862  0.134219  0.655976  1
  O  O44  1  0.635162  0.608593  0.206393  1
  O  O45  1  0.364838  0.108593  0.293607  1
  O  O46  1  0.364838  0.391407  0.793607  1
  O  O47  1  0.635162  0.891407  0.706393  1
  O  O48  1  0.211120  0.812403  0.848813  1
  O  O49  1  0.788880  0.312403  0.651187  1
  O  O50  1  0.788880  0.187597  0.151187  1
  O  O51  1  0.211120  0.687597  0.348813  1
  O  O52  1  0.902632  0.124253  0.830630  1
  O  O53  1  0.097368  0.624253  0.669370  1
  O  O54  1  0.097368  0.875747  0.169370  1
  O  O55  1  0.902632  0.375747  0.330630  1
  O  O56  1  0.072589  0.987369  0.788102  1
  O  O57  1  0.927411  0.487369  0.711898  1
  O  O58  1  0.927411  0.012631  0.211898  1
  O  O59  1  0.072589  0.512631  0.288102  1
  O  O60  1  0.192858  0.891961  0.407137  1
  O  O61  1  0.807142  0.391961  0.092863  1
  O  O62  1  0.807142  0.108039  0.592863  1
  O  O63  1  0.192858  0.608039  0.907137  1
  O  O64  1  0.297660  0.919114  0.710157  1
  O  O65  1  0.702340  0.419114  0.789843  1
  O  O66  1  0.702340  0.080886  0.289843  1
  O  O67  1  0.297660  0.580886  0.210157  1
  O  O68  1  0.906821  0.854717  0.600944  1
  O  O69  1  0.093179  0.354717  0.899056  1
  O  O70  1  0.093179  0.145283  0.399056  1
  O  O71  1  0.527138  0.634219  0.844024  1
