# generated using pymatgen
data_SrBiSe3
_symmetry_space_group_name_H-M   'P 1'
_cell_length_a   4.26780097
_cell_length_b   16.12663110
_cell_length_c   33.81257199
_cell_angle_alpha   90.00000000
_cell_angle_beta   90.00000000
_cell_angle_gamma   90.00000000
_symmetry_Int_Tables_number   1
_chemical_formula_structural   SrBiSe3
_chemical_formula_sum   'Sr16 Bi16 Se48'
_cell_volume   2327.15878296
_cell_formula_units_Z   16
loop_
 _symmetry_equiv_pos_site_id
 _symmetry_equiv_pos_as_xyz
  1  'x, y, z'
loop_
 _atom_site_type_symbol
 _atom_site_label
 _atom_site_symmetry_multiplicity
 _atom_site_fract_x
 _atom_site_fract_y
 _atom_site_fract_z
 _atom_site_occupancy
  Sr  Sr0  1  0.253878  0.314561  0.326687  1
  Sr  Sr1  1  0.753878  0.185439  0.673313  1
  Sr  Sr2  1  0.746122  0.814561  0.173313  1
  Sr  Sr3  1  0.246122  0.685439  0.826687  1
  Sr  Sr4  1  0.737806  0.880805  0.046459  1
  Sr  Sr5  1  0.237806  0.619195  0.953541  1
  Sr  Sr6  1  0.262194  0.380805  0.453541  1
  Sr  Sr7  1  0.762194  0.119195  0.546459  1
  Sr  Sr8  1  0.212576  0.533016  0.076944  1
  Sr  Sr9  1  0.712576  0.966984  0.923056  1
  Sr  Sr10  1  0.787424  0.033016  0.423056  1
  Sr  Sr11  1  0.287424  0.466984  0.576944  1
  Sr  Sr12  1  0.770749  0.954084  0.293573  1
  Sr  Sr13  1  0.270749  0.545916  0.706427  1
  Sr  Sr14  1  0.229251  0.454084  0.206427  1
  Sr  Sr15  1  0.729251  0.045916  0.793573  1
  Bi  Bi16  1  0.762429  0.701631  0.609324  1
  Bi  Bi17  1  0.262429  0.798369  0.390676  1
  Bi  Bi18  1  0.237571  0.201631  0.890676  1
  Bi  Bi19  1  0.737571  0.298369  0.109324  1
  Bi  Bi20  1  0.757541  0.629560  0.484620  1
  Bi  Bi21  1  0.257541  0.870440  0.515380  1
  Bi  Bi22  1  0.242459  0.129560  0.015380  1
  Bi  Bi23  1  0.742459  0.370440  0.984620  1
  Bi  Bi24  1  0.272094  0.698934  0.271451  1
  Bi  Bi25  1  0.772094  0.801066  0.728549  1
  Bi  Bi26  1  0.727906  0.198934  0.228549  1
  Bi  Bi27  1  0.227906  0.301066  0.771451  1
  Bi  Bi28  1  0.761250  0.553072  0.361022  1
  Bi  Bi29  1  0.261250  0.946928  0.638978  1
  Bi  Bi30  1  0.238750  0.053072  0.138978  1
  Bi  Bi31  1  0.738750  0.446928  0.861022  1
  Se  Se32  1  0.890160  0.305738  0.591972  1
  Se  Se33  1  0.390160  0.194262  0.408028  1
  Se  Se34  1  0.109840  0.805738  0.908028  1
  Se  Se35  1  0.609840  0.694262  0.091972  1
  Se  Se36  1  0.703161  0.361228  0.722322  1
  Se  Se37  1  0.203161  0.138772  0.277678  1
  Se  Se38  1  0.296839  0.861228  0.777678  1
  Se  Se39  1  0.796839  0.638772  0.222322  1
  Se  Se40  1  0.761353  0.639739  0.759329  1
  Se  Se41  1  0.261353  0.860261  0.240671  1
  Se  Se42  1  0.238647  0.139739  0.740671  1
  Se  Se43  1  0.738647  0.360261  0.259329  1
  Se  Se44  1  0.260910  0.331818  0.646902  1
  Se  Se45  1  0.760910  0.168182  0.353098  1
  Se  Se46  1  0.739090  0.831818  0.853098  1
  Se  Se47  1  0.239090  0.668182  0.146902  1
  Se  Se48  1  0.775303  0.540676  0.636827  1
  Se  Se49  1  0.275303  0.959324  0.363173  1
  Se  Se50  1  0.224697  0.040676  0.863173  1
  Se  Se51  1  0.246960  0.271853  0.535824  1
  Se  Se52  1  0.724697  0.459324  0.136827  1
  Se  Se53  1  0.264476  0.521959  0.308092  1
  Se  Se54  1  0.235524  0.478041  0.808092  1
  Se  Se55  1  0.735524  0.021959  0.191908  1
  Se  Se56  1  0.771876  0.468885  0.508225  1
  Se  Se57  1  0.271876  0.031115  0.491775  1
  Se  Se58  1  0.228124  0.968885  0.991775  1
  Se  Se59  1  0.728124  0.531115  0.008225  1
  Se  Se60  1  0.735731  0.606591  0.885491  1
  Se  Se61  1  0.235731  0.893409  0.114509  1
  Se  Se62  1  0.264269  0.106591  0.614509  1
  Se  Se63  1  0.764269  0.393409  0.385491  1
  Se  Se64  1  0.785274  0.754851  0.334652  1
  Se  Se65  1  0.285274  0.745149  0.665348  1
  Se  Se66  1  0.214726  0.254851  0.165348  1
  Se  Se67  1  0.714726  0.245149  0.834652  1
  Se  Se68  1  0.270666  0.605153  0.427274  1
  Se  Se69  1  0.770666  0.894847  0.572726  1
  Se  Se70  1  0.729334  0.105153  0.072726  1
  Se  Se71  1  0.229334  0.394847  0.927274  1
  Se  Se72  1  0.280964  0.669088  0.547723  1
  Se  Se73  1  0.780964  0.830912  0.452277  1
  Se  Se74  1  0.719036  0.169088  0.952277  1
  Se  Se75  1  0.219036  0.330912  0.047723  1
  Se  Se76  1  0.253040  0.728147  0.035824  1
  Se  Se77  1  0.753040  0.771853  0.964176  1
  Se  Se78  1  0.746960  0.228147  0.464176  1
  Se  Se79  1  0.764476  0.978041  0.691908  1
