# generated using pymatgen
data_Rb2ZnH12(SO7)2
_symmetry_space_group_name_H-M   'P 1'
_cell_length_a   6.32416222
_cell_length_b   12.61509431
_cell_length_c   9.22651098
_cell_angle_alpha   90.00000000
_cell_angle_beta   105.50865352
_cell_angle_gamma   90.00000000
_symmetry_Int_Tables_number   1
_chemical_formula_structural   Rb2ZnH12(SO7)2
_chemical_formula_sum   'Rb4 Zn2 H24 S4 O28'
_cell_volume   709.28916693
_cell_formula_units_Z   2
loop_
 _symmetry_equiv_pos_site_id
 _symmetry_equiv_pos_as_xyz
  1  'x, y, z'
loop_
 _atom_site_type_symbol
 _atom_site_label
 _atom_site_symmetry_multiplicity
 _atom_site_fract_x
 _atom_site_fract_y
 _atom_site_fract_z
 _atom_site_occupancy
  Rb  Rb0  1  0.652012  0.351606  0.869342  1
  Rb  Rb1  1  0.347988  0.851606  0.630658  1
  Rb  Rb2  1  0.347988  0.648394  0.130658  1
  Rb  Rb3  1  0.652012  0.148394  0.369342  1
  Zn  Zn4  1  0.000000  0.500000  0.500000  1
  Zn  Zn5  1  0.000000  0.000000  0.000000  1
  H  H6  1  0.679821  0.642826  0.472798  1
  H  H7  1  0.320179  0.142826  0.027202  1
  H  H8  1  0.320179  0.357174  0.527202  1
  H  H9  1  0.679821  0.857174  0.972798  1
  H  H10  1  0.663682  0.561100  0.599405  1
  H  H11  1  0.336318  0.061100  0.900595  1
  H  H12  1  0.072383  0.400745  0.776366  1
  H  H13  1  0.927617  0.900745  0.723634  1
  H  H14  1  0.927617  0.599255  0.223634  1
  H  H15  1  0.072383  0.099255  0.276366  1
  H  H16  1  0.912800  0.371244  0.256665  1
  H  H17  1  0.087200  0.871244  0.243335  1
  H  H18  1  0.087200  0.628756  0.743335  1
  H  H19  1  0.912800  0.128756  0.756665  1
  H  H20  1  0.680260  0.404441  0.285038  1
  H  H21  1  0.319740  0.904441  0.214962  1
  H  H22  1  0.319740  0.595559  0.714962  1
  H  H23  1  0.680260  0.095559  0.785038  1
  H  H24  1  0.992975  0.813061  0.850953  1
  H  H25  1  0.007025  0.313061  0.649047  1
  H  H26  1  0.663682  0.938900  0.099405  1
  H  H27  1  0.336318  0.438900  0.400595  1
  H  H28  1  0.992975  0.686939  0.350953  1
  H  H29  1  0.007025  0.186939  0.149047  1
  S  S30  1  0.731996  0.858518  0.402174  1
  S  S31  1  0.268004  0.358518  0.097826  1
  S  S32  1  0.268004  0.141482  0.597826  1
  S  S33  1  0.731996  0.641482  0.902174  1
  O  O34  1  0.164760  0.614823  0.664941  1
  O  O35  1  0.164760  0.885177  0.164941  1
  O  O36  1  0.974320  0.112976  0.173829  1
  O  O37  1  0.025680  0.612976  0.326171  1
  O  O38  1  0.025680  0.887024  0.826171  1
  O  O39  1  0.974320  0.387024  0.673829  1
  O  O40  1  0.701795  0.933448  0.001907  1
  O  O41  1  0.835240  0.114823  0.835059  1
  O  O42  1  0.298205  0.066552  0.998093  1
  O  O43  1  0.701795  0.566552  0.501907  1
  O  O44  1  0.055903  0.322371  0.125511  1
  O  O45  1  0.944097  0.822371  0.374489  1
  O  O46  1  0.944097  0.677629  0.874489  1
  O  O47  1  0.055903  0.177629  0.625511  1
  O  O48  1  0.392038  0.426195  0.226397  1
  O  O49  1  0.607962  0.926195  0.273603  1
  O  O50  1  0.607962  0.573805  0.773603  1
  O  O51  1  0.392038  0.073805  0.726397  1
  O  O52  1  0.224965  0.422261  0.957358  1
  O  O53  1  0.775035  0.922261  0.542642  1
  O  O54  1  0.775035  0.577739  0.042642  1
  O  O55  1  0.224965  0.077739  0.457358  1
  O  O56  1  0.298205  0.433448  0.498093  1
  O  O57  1  0.593545  0.764356  0.412846  1
  O  O58  1  0.593545  0.735644  0.912846  1
  O  O59  1  0.406455  0.235644  0.587154  1
  O  O60  1  0.835240  0.385177  0.335059  1
  O  O61  1  0.406455  0.264356  0.087154  1
