# generated using pymatgen
data_Rb3MgH5
_symmetry_space_group_name_H-M   'P 1'
_cell_length_a   8.07156258
_cell_length_b   8.07156258
_cell_length_c   12.32894329
_cell_angle_alpha   90.00000000
_cell_angle_beta   90.00000000
_cell_angle_gamma   90.00000000
_symmetry_Int_Tables_number   1
_chemical_formula_structural   Rb3MgH5
_chemical_formula_sum   'Rb12 Mg4 H20'
_cell_volume   803.23216543
_cell_formula_units_Z   4
loop_
 _symmetry_equiv_pos_site_id
 _symmetry_equiv_pos_as_xyz
  1  'x, y, z'
loop_
 _atom_site_type_symbol
 _atom_site_label
 _atom_site_symmetry_multiplicity
 _atom_site_fract_x
 _atom_site_fract_y
 _atom_site_fract_z
 _atom_site_occupancy
  Rb  Rb0  1  0.000000  0.500000  0.488226  1
  Rb  Rb1  1  0.500000  0.000000  0.011774  1
  Rb  Rb2  1  0.500000  0.000000  0.511774  1
  Rb  Rb3  1  0.000000  0.500000  0.988226  1
  Rb  Rb4  1  0.687099  0.687099  0.750000  1
  Rb  Rb5  1  0.812901  0.187099  0.750000  1
  Rb  Rb6  1  0.187099  0.812901  0.750000  1
  Rb  Rb7  1  0.312901  0.312901  0.750000  1
  Rb  Rb8  1  0.812901  0.812901  0.250000  1
  Rb  Rb9  1  0.687099  0.312901  0.250000  1
  Rb  Rb10  1  0.312901  0.687099  0.250000  1
  Rb  Rb11  1  0.187099  0.187099  0.250000  1
  Mg  Mg12  1  0.000000  0.000000  0.500000  1
  Mg  Mg13  1  0.500000  0.500000  0.500000  1
  Mg  Mg14  1  0.500000  0.500000  0.000000  1
  Mg  Mg15  1  0.000000  0.000000  0.000000  1
  H  H16  1  0.000000  0.500000  0.729068  1
  H  H17  1  0.500000  0.000000  0.770932  1
  H  H18  1  0.500000  0.000000  0.270932  1
  H  H19  1  0.000000  0.500000  0.229068  1
  H  H20  1  0.400767  0.653114  0.591879  1
  H  H21  1  0.599233  0.346886  0.591879  1
  H  H22  1  0.653114  0.400767  0.908121  1
  H  H23  1  0.153114  0.099233  0.591879  1
  H  H24  1  0.846886  0.900767  0.591879  1
  H  H25  1  0.099233  0.153114  0.908121  1
  H  H26  1  0.900767  0.846886  0.908121  1
  H  H27  1  0.346886  0.599233  0.908121  1
  H  H28  1  0.099233  0.846886  0.408121  1
  H  H29  1  0.900767  0.153114  0.408121  1
  H  H30  1  0.846886  0.099233  0.091879  1
  H  H31  1  0.346886  0.400767  0.408121  1
  H  H32  1  0.153114  0.900767  0.091879  1
  H  H33  1  0.599233  0.653114  0.091879  1
  H  H34  1  0.400767  0.346886  0.091879  1
  H  H35  1  0.653114  0.599233  0.408121  1
