# generated using pymatgen
data_CaV4(AgO6)2
_symmetry_space_group_name_H-M   'P 1'
_cell_length_a   10.52054250
_cell_length_b   10.52054250
_cell_length_c   5.08292164
_cell_angle_alpha   90.00000000
_cell_angle_beta   90.00000000
_cell_angle_gamma   90.00000000
_symmetry_Int_Tables_number   1
_chemical_formula_structural   CaV4(AgO6)2
_chemical_formula_sum   'Ca2 V8 Ag4 O24'
_cell_volume   562.58699005
_cell_formula_units_Z   2
loop_
 _symmetry_equiv_pos_site_id
 _symmetry_equiv_pos_as_xyz
  1  'x, y, z'
loop_
 _atom_site_type_symbol
 _atom_site_label
 _atom_site_symmetry_multiplicity
 _atom_site_fract_x
 _atom_site_fract_y
 _atom_site_fract_z
 _atom_site_occupancy
  Ca  Ca0  1  0.500000  0.500000  0.500000  1
  Ca  Ca1  1  0.000000  0.000000  0.500000  1
  V  V2  1  0.223695  0.500000  0.000000  1
  V  V3  1  0.500000  0.223695  0.000000  1
  V  V4  1  0.000000  0.723695  0.000000  1
  V  V5  1  0.723695  0.000000  0.000000  1
  V  V6  1  0.276305  0.000000  0.000000  1
  V  V7  1  0.000000  0.276305  0.000000  1
  V  V8  1  0.500000  0.776305  0.000000  1
  V  V9  1  0.776305  0.500000  0.000000  1
  Ag  Ag10  1  0.250000  0.250000  0.500000  1
  Ag  Ag11  1  0.250000  0.750000  0.500000  1
  Ag  Ag12  1  0.750000  0.250000  0.500000  1
  Ag  Ag13  1  0.750000  0.750000  0.500000  1
  O  O14  1  0.431654  0.310918  0.241589  1
  O  O15  1  0.568346  0.689082  0.241589  1
  O  O16  1  0.689082  0.431654  0.241589  1
  O  O17  1  0.310918  0.568346  0.241589  1
  O  O18  1  0.310918  0.431654  0.758411  1
  O  O19  1  0.431654  0.689082  0.758411  1
  O  O20  1  0.568346  0.310918  0.758411  1
  O  O21  1  0.689082  0.568346  0.758411  1
  O  O22  1  0.068346  0.189082  0.758411  1
  O  O23  1  0.931654  0.810918  0.758411  1
  O  O24  1  0.810918  0.068346  0.758411  1
  O  O25  1  0.189082  0.931654  0.758411  1
  O  O26  1  0.189082  0.068346  0.241589  1
  O  O27  1  0.068346  0.810918  0.241589  1
  O  O28  1  0.120556  0.379444  0.144714  1
  O  O29  1  0.379444  0.879444  0.144714  1
  O  O30  1  0.620556  0.120556  0.144714  1
  O  O31  1  0.879444  0.620556  0.144714  1
  O  O32  1  0.879444  0.379444  0.855286  1
  O  O33  1  0.120556  0.620556  0.855286  1
  O  O34  1  0.379444  0.120556  0.855286  1
  O  O35  1  0.620556  0.879444  0.855286  1
  O  O36  1  0.810918  0.931654  0.241589  1
  O  O37  1  0.931654  0.189082  0.241589  1
