# generated using pymatgen
data_BaZnCl4
_symmetry_space_group_name_H-M   'P 1'
_cell_length_a   6.59373725
_cell_length_b   6.94236724
_cell_length_c   15.59730485
_cell_angle_alpha   90.00000000
_cell_angle_beta   90.00000000
_cell_angle_gamma   90.00000000
_symmetry_Int_Tables_number   1
_chemical_formula_structural   BaZnCl4
_chemical_formula_sum   'Ba4 Zn4 Cl16'
_cell_volume   713.98449581
_cell_formula_units_Z   4
loop_
 _symmetry_equiv_pos_site_id
 _symmetry_equiv_pos_as_xyz
  1  'x, y, z'
loop_
 _atom_site_type_symbol
 _atom_site_label
 _atom_site_symmetry_multiplicity
 _atom_site_fract_x
 _atom_site_fract_y
 _atom_site_fract_z
 _atom_site_occupancy
  Ba  Ba0  1  0.000000  0.750000  0.629079  1
  Ba  Ba1  1  0.500000  0.250000  0.870921  1
  Ba  Ba2  1  0.000000  0.250000  0.370921  1
  Ba  Ba3  1  0.500000  0.750000  0.129079  1
  Zn  Zn4  1  0.500000  0.750000  0.390565  1
  Zn  Zn5  1  0.000000  0.250000  0.109435  1
  Zn  Zn6  1  0.500000  0.250000  0.609435  1
  Zn  Zn7  1  0.000000  0.750000  0.890565  1
  Cl  Cl8  1  0.353809  0.473644  0.700128  1
  Cl  Cl9  1  0.853809  0.526356  0.799872  1
  Cl  Cl10  1  0.146191  0.973644  0.799872  1
  Cl  Cl11  1  0.646191  0.026356  0.700128  1
  Cl  Cl12  1  0.646191  0.526356  0.299872  1
  Cl  Cl13  1  0.146191  0.473644  0.200128  1
  Cl  Cl14  1  0.853809  0.026356  0.200128  1
  Cl  Cl15  1  0.353809  0.973644  0.299872  1
  Cl  Cl16  1  0.254132  0.592931  0.962389  1
  Cl  Cl17  1  0.754132  0.407069  0.537611  1
  Cl  Cl18  1  0.245868  0.092931  0.537611  1
  Cl  Cl19  1  0.745868  0.907069  0.962389  1
  Cl  Cl20  1  0.745868  0.407069  0.037611  1
  Cl  Cl21  1  0.245868  0.592931  0.462389  1
  Cl  Cl22  1  0.754132  0.907069  0.462389  1
  Cl  Cl23  1  0.254132  0.092931  0.037611  1
