# generated using pymatgen
data_MgH6(SO4)4
_symmetry_space_group_name_H-M   'P 1'
_cell_length_a   5.21175904
_cell_length_b   15.38558895
_cell_length_c   8.29597811
_cell_angle_alpha   90.00000000
_cell_angle_beta   103.53280400
_cell_angle_gamma   90.00000000
_symmetry_Int_Tables_number   1
_chemical_formula_structural   MgH6(SO4)4
_chemical_formula_sum   'Mg2 H12 S8 O32'
_cell_volume   646.75202345
_cell_formula_units_Z   2
loop_
 _symmetry_equiv_pos_site_id
 _symmetry_equiv_pos_as_xyz
  1  'x, y, z'
loop_
 _atom_site_type_symbol
 _atom_site_label
 _atom_site_symmetry_multiplicity
 _atom_site_fract_x
 _atom_site_fract_y
 _atom_site_fract_z
 _atom_site_occupancy
  Mg  Mg0  1  0.000000  0.000000  0.000000  1
  Mg  Mg1  1  0.000000  0.500000  0.500000  1
  H  H2  1  0.288034  0.023803  0.614669  1
  H  H3  1  0.711966  0.523803  0.885331  1
  H  H4  1  0.711966  0.976197  0.385331  1
  H  H5  1  0.288034  0.476197  0.114669  1
  H  H6  1  0.806778  0.265327  0.697924  1
  H  H7  1  0.193222  0.765327  0.802076  1
  H  H8  1  0.193222  0.734673  0.302076  1
  H  H9  1  0.806778  0.234673  0.197924  1
  H  H10  1  0.584071  0.764148  0.665044  1
  H  H11  1  0.415929  0.264148  0.834956  1
  H  H12  1  0.415929  0.235852  0.334956  1
  H  H13  1  0.584071  0.735852  0.165044  1
  S  S14  1  0.883043  0.665755  0.749802  1
  S  S15  1  0.116957  0.165755  0.750198  1
  S  S16  1  0.424359  0.584703  0.274294  1
  S  S17  1  0.575641  0.084703  0.225706  1
  S  S18  1  0.575641  0.415297  0.725706  1
  S  S19  1  0.424359  0.915297  0.774294  1
  S  S20  1  0.883043  0.834245  0.249802  1
  S  S21  1  0.116957  0.334245  0.250198  1
  O  O22  1  0.607801  0.179132  0.263579  1
  O  O23  1  0.392199  0.820868  0.736421  1
  O  O24  1  0.297677  0.541920  0.103441  1
  O  O25  1  0.702323  0.041920  0.396559  1
  O  O26  1  0.702323  0.458080  0.896559  1
  O  O27  1  0.297677  0.958080  0.603441  1
  O  O28  1  0.297563  0.060323  0.178279  1
  O  O29  1  0.702437  0.560323  0.321721  1
  O  O30  1  0.702437  0.939677  0.821721  1
  O  O31  1  0.607801  0.320868  0.763579  1
  O  O32  1  0.723683  0.059007  0.104572  1
  O  O33  1  0.276317  0.559007  0.395428  1
  O  O34  1  0.276317  0.940993  0.895428  1
  O  O35  1  0.723683  0.440993  0.604572  1
  O  O36  1  0.021925  0.891070  0.159855  1
  O  O37  1  0.978075  0.391070  0.340145  1
  O  O38  1  0.978075  0.108930  0.840145  1
  O  O39  1  0.021925  0.608930  0.659855  1
  O  O40  1  0.265800  0.374280  0.143052  1
  O  O41  1  0.734200  0.874280  0.356948  1
  O  O42  1  0.734200  0.625720  0.856948  1
  O  O43  1  0.265800  0.125720  0.643052  1
  O  O44  1  0.922921  0.271355  0.138636  1
  O  O45  1  0.077079  0.771355  0.361364  1
  O  O46  1  0.077079  0.728645  0.861364  1
  O  O47  1  0.922921  0.228645  0.638636  1
  O  O48  1  0.700969  0.777523  0.116073  1
  O  O49  1  0.299031  0.277523  0.383927  1
  O  O50  1  0.299031  0.222477  0.883927  1
  O  O51  1  0.700969  0.722477  0.616073  1
  O  O52  1  0.297563  0.439677  0.678279  1
  O  O53  1  0.392199  0.679132  0.236421  1
