# generated using pymatgen
data_Te4P2O13
_symmetry_space_group_name_H-M   'P 1'
_cell_length_a   11.46771080
_cell_length_b   4.74466695
_cell_length_c   22.81172127
_cell_angle_alpha   90.00000000
_cell_angle_beta   116.45214816
_cell_angle_gamma   90.00000000
_symmetry_Int_Tables_number   1
_chemical_formula_structural   Te4P2O13
_chemical_formula_sum   'Te16 P8 O52'
_cell_volume   1111.25149018
_cell_formula_units_Z   4
loop_
 _symmetry_equiv_pos_site_id
 _symmetry_equiv_pos_as_xyz
  1  'x, y, z'
loop_
 _atom_site_type_symbol
 _atom_site_label
 _atom_site_symmetry_multiplicity
 _atom_site_fract_x
 _atom_site_fract_y
 _atom_site_fract_z
 _atom_site_occupancy
  Te  Te0  1  0.814008  0.230768  0.438095  1
  Te  Te1  1  0.185992  0.730768  0.061905  1
  Te  Te2  1  0.185992  0.769232  0.561905  1
  Te  Te3  1  0.814008  0.269232  0.938095  1
  Te  Te4  1  0.520815  0.686718  0.150144  1
  Te  Te5  1  0.479185  0.186718  0.349856  1
  Te  Te6  1  0.479185  0.313282  0.849856  1
  Te  Te7  1  0.520815  0.813282  0.650144  1
  Te  Te8  1  0.344284  0.811941  0.923545  1
  Te  Te9  1  0.655716  0.311941  0.576455  1
  Te  Te10  1  0.655716  0.188059  0.076455  1
  Te  Te11  1  0.344284  0.688059  0.423545  1
  Te  Te12  1  0.988022  0.320328  0.688473  1
  Te  Te13  1  0.011978  0.820328  0.811527  1
  Te  Te14  1  0.011978  0.679672  0.311527  1
  Te  Te15  1  0.988022  0.179672  0.188473  1
  P  P16  1  0.696867  0.775969  0.322304  1
  P  P17  1  0.303133  0.275969  0.177696  1
  P  P18  1  0.303133  0.224031  0.677696  1
  P  P19  1  0.696867  0.724031  0.822304  1
  P  P20  1  0.864206  0.752240  0.557992  1
  P  P21  1  0.135794  0.252240  0.942008  1
  P  P22  1  0.135794  0.247760  0.442008  1
  P  P23  1  0.864206  0.747760  0.057992  1
  O  O24  1  0.408501  0.835777  0.357615  1
  O  O25  1  0.591499  0.335777  0.142385  1
  O  O26  1  0.591499  0.164223  0.642385  1
  O  O27  1  0.408501  0.664223  0.857615  1
  O  O28  1  0.351368  0.596326  0.071130  1
  O  O29  1  0.648632  0.096326  0.428870  1
  O  O30  1  0.648632  0.403674  0.928870  1
  O  O31  1  0.351368  0.903674  0.571130  1
  O  O32  1  0.194450  0.941452  0.845007  1
  O  O33  1  0.805550  0.441452  0.654993  1
  O  O34  1  0.805550  0.058548  0.154993  1
  O  O35  1  0.194450  0.558548  0.345007  1
  O  O36  1  0.037547  0.673379  0.734230  1
  O  O37  1  0.962453  0.173379  0.765770  1
  O  O38  1  0.962453  0.326621  0.265770  1
  O  O39  1  0.037547  0.826621  0.234230  1
  O  O40  1  0.567834  0.660907  0.576816  1
  O  O41  1  0.432166  0.160907  0.923184  1
  O  O42  1  0.567576  0.939018  0.298804  1
  O  O43  1  0.432166  0.339093  0.423184  1
  O  O44  1  0.815466  0.975731  0.370414  1
  O  O45  1  0.184534  0.475731  0.129586  1
  O  O46  1  0.184534  0.024269  0.629586  1
  O  O47  1  0.815466  0.524269  0.870414  1
  O  O48  1  0.987331  0.920860  0.101983  1
  O  O49  1  0.012669  0.420860  0.398017  1
  O  O50  1  0.012669  0.079140  0.898017  1
  O  O51  1  0.987331  0.579140  0.601983  1
  O  O52  1  0.745852  0.952615  0.023028  1
  O  O53  1  0.254148  0.452615  0.476972  1
  O  O54  1  0.254148  0.047385  0.976972  1
  O  O55  1  0.745852  0.547385  0.523028  1
  O  O56  1  0.835401  0.513056  0.096005  1
  O  O57  1  0.164599  0.013056  0.403995  1
  O  O58  1  0.164599  0.486944  0.903995  1
  O  O59  1  0.835401  0.986944  0.596005  1
  O  O60  1  0.892916  0.623703  0.001845  1
  O  O61  1  0.107084  0.123703  0.498155  1
  O  O62  1  0.107084  0.376297  0.998155  1
  O  O63  1  0.892916  0.876297  0.501845  1
  O  O64  1  0.692002  0.980865  0.865008  1
  O  O65  1  0.307998  0.480865  0.634992  1
  O  O66  1  0.307998  0.019135  0.134992  1
  O  O67  1  0.692002  0.519135  0.365008  1
  O  O68  1  0.728779  0.808860  0.767321  1
  O  O69  1  0.271221  0.308860  0.732679  1
  O  O70  1  0.271221  0.191140  0.232679  1
  O  O71  1  0.728779  0.691140  0.267321  1
  O  O72  1  0.567576  0.560982  0.798804  1
  O  O73  1  0.432424  0.060982  0.701196  1
  O  O74  1  0.432424  0.439018  0.201196  1
  O  O75  1  0.567834  0.839093  0.076816  1
