# generated using pymatgen
data_MgAl2O4
_symmetry_space_group_name_H-M   'P 1'
_cell_length_a   5.77371617
_cell_length_b   5.77371617
_cell_length_c   14.15949083
_cell_angle_alpha   90.00000000
_cell_angle_beta   90.00000000
_cell_angle_gamma   120.00000000
_symmetry_Int_Tables_number   1
_chemical_formula_structural   MgAl2O4
_chemical_formula_sum   'Mg6 Al12 O24'
_cell_volume   408.77951972
_cell_formula_units_Z   6
loop_
 _symmetry_equiv_pos_site_id
 _symmetry_equiv_pos_as_xyz
  1  'x, y, z'
loop_
 _atom_site_type_symbol
 _atom_site_label
 _atom_site_symmetry_multiplicity
 _atom_site_fract_x
 _atom_site_fract_y
 _atom_site_fract_z
 _atom_site_occupancy
  Mg  Mg0  1  0.000000  0.000000  0.003963  1
  Mg  Mg1  1  0.666667  0.333333  0.666455  1
  Mg  Mg2  1  0.333333  0.666667  0.961518  1
  Mg  Mg3  1  0.333333  0.666667  0.584329  1
  Mg  Mg4  1  0.333333  0.666667  0.334534  1
  Mg  Mg5  1  0.000000  0.000000  0.246325  1
  Al  Al6  1  0.666667  0.333333  0.914154  1
  Al  Al7  1  0.164300  0.835700  0.790822  1
  Al  Al8  1  0.671400  0.835700  0.790822  1
  Al  Al9  1  0.833116  0.166884  0.457505  1
  Al  Al10  1  0.164300  0.328600  0.790822  1
  Al  Al11  1  0.000000  0.000000  0.623083  1
  Al  Al12  1  0.333768  0.166884  0.457505  1
  Al  Al13  1  0.497225  0.502775  0.125793  1
  Al  Al14  1  0.833116  0.666232  0.457505  1
  Al  Al15  1  0.005550  0.502775  0.125793  1
  Al  Al16  1  0.666667  0.333333  0.290893  1
  Al  Al17  1  0.497225  0.994450  0.125793  1
  O  O18  1  0.496430  0.992861  0.866894  1
  O  O19  1  0.007139  0.503570  0.866894  1
  O  O20  1  0.333333  0.666667  0.726062  1
  O  O21  1  0.496430  0.503570  0.866894  1
  O  O22  1  0.148686  0.297372  0.537099  1
  O  O23  1  0.852493  0.147507  0.711565  1
  O  O24  1  0.702628  0.851314  0.537099  1
  O  O25  1  0.295014  0.147507  0.711565  1
  O  O26  1  0.000000  0.000000  0.387584  1
  O  O27  1  0.000000  0.000000  0.862171  1
  O  O28  1  0.148686  0.851314  0.537099  1
  O  O29  1  0.852493  0.704986  0.711565  1
  O  O30  1  0.812516  0.625032  0.203085  1
  O  O31  1  0.518357  0.481643  0.379946  1
  O  O32  1  0.374968  0.187484  0.203085  1
  O  O33  1  0.963287  0.481643  0.379946  1
  O  O34  1  0.666667  0.333333  0.043074  1
  O  O35  1  0.666667  0.333333  0.528321  1
  O  O36  1  0.812516  0.187484  0.203085  1
  O  O37  1  0.518357  0.036713  0.379946  1
  O  O38  1  0.179517  0.820483  0.053848  1
  O  O39  1  0.640967  0.820483  0.053848  1
  O  O40  1  0.333333  0.666667  0.197980  1
  O  O41  1  0.179517  0.359033  0.053848  1
