# generated using pymatgen
data_Ba4Bi3F17
_symmetry_space_group_name_H-M   'P 1'
_cell_length_a   9.56042605
_cell_length_b   9.60352631
_cell_length_c   9.67029767
_cell_angle_alpha   72.63622842
_cell_angle_beta   72.75237577
_cell_angle_gamma   72.92337820
_symmetry_Int_Tables_number   1
_chemical_formula_structural   Ba4Bi3F17
_chemical_formula_sum   'Ba8 Bi6 F34'
_cell_volume   788.53362073
_cell_formula_units_Z   2
loop_
 _symmetry_equiv_pos_site_id
 _symmetry_equiv_pos_as_xyz
  1  'x, y, z'
loop_
 _atom_site_type_symbol
 _atom_site_label
 _atom_site_symmetry_multiplicity
 _atom_site_fract_x
 _atom_site_fract_y
 _atom_site_fract_z
 _atom_site_occupancy
  Ba  Ba0  1  0.307777  0.894756  0.050894  1
  Ba  Ba1  1  0.261145  0.269141  0.269495  1
  Ba  Ba2  1  0.888297  0.060386  0.310349  1
  Ba  Ba3  1  0.940750  0.690130  0.112604  1
  Ba  Ba4  1  0.056683  0.311039  0.882780  1
  Ba  Ba5  1  0.109852  0.950059  0.687669  1
  Ba  Ba6  1  0.730830  0.737453  0.732964  1
  Ba  Ba7  1  0.692350  0.109851  0.944549  1
  Bi  Bi8  1  0.614682  0.466024  0.160077  1
  Bi  Bi9  1  0.153527  0.615367  0.465449  1
  Bi  Bi10  1  0.530967  0.845658  0.385780  1
  Bi  Bi11  1  0.474001  0.179755  0.612077  1
  Bi  Bi12  1  0.810397  0.384824  0.538627  1
  Bi  Bi13  1  0.384168  0.533417  0.838876  1
  F  F14  1  0.003034  0.000363  0.996128  1
  F  F15  1  0.175678  0.455597  0.018013  1
  F  F16  1  0.138698  0.142303  0.136081  1
  F  F17  1  0.488222  0.357017  0.047907  1
  F  F18  1  0.451878  0.020519  0.177004  1
  F  F19  1  0.788151  0.263516  0.077025  1
  F  F20  1  0.018365  0.176854  0.451015  1
  F  F21  1  0.043321  0.496811  0.354896  1
  F  F22  1  0.077364  0.790594  0.261215  1
  F  F23  1  0.346374  0.548723  0.261654  1
  F  F24  1  0.596636  0.705734  0.199289  1
  F  F25  1  0.556406  0.251161  0.340552  1
  F  F26  1  0.356322  0.046112  0.486457  1
  F  F27  1  0.808183  0.402786  0.287506  1
  F  F28  1  0.738435  0.923034  0.211989  1
  F  F29  1  0.293650  0.801731  0.407282  1
  F  F30  1  0.258502  0.348820  0.551464  1
  F  F31  1  0.554232  0.417720  0.538848  1
  F  F32  1  0.737812  0.652668  0.451440  1
  F  F33  1  0.731187  0.158683  0.605963  1
  F  F34  1  0.264798  0.083898  0.780963  1
  F  F35  1  0.199876  0.588648  0.706986  1
  F  F36  1  0.643923  0.954642  0.506555  1
  F  F37  1  0.450456  0.739636  0.653202  1
  F  F38  1  0.402545  0.284825  0.817685  1
  F  F39  1  0.662060  0.445797  0.759687  1
  F  F40  1  0.919230  0.215012  0.736748  1
  F  F41  1  0.953869  0.515681  0.642117  1
  F  F42  1  0.980304  0.824990  0.545592  1
  F  F43  1  0.213821  0.737175  0.917970  1
  F  F44  1  0.546305  0.982416  0.826119  1
  F  F45  1  0.506613  0.645790  0.957054  1
  F  F46  1  0.862484  0.858659  0.862063  1
  F  F47  1  0.821837  0.548223  0.980344  1
