# generated using pymatgen
data_NaAlB14
_symmetry_space_group_name_H-M   'P 1'
_cell_length_a   7.26695601
_cell_length_b   7.26695601
_cell_length_c   7.26695601
_cell_angle_alpha   132.54113800
_cell_angle_beta   111.06629047
_cell_angle_gamma   87.96171714
_symmetry_Int_Tables_number   1
_chemical_formula_structural   NaAlB14
_chemical_formula_sum   'Na2 Al2 B28'
_cell_volume   251.55413562
_cell_formula_units_Z   2
loop_
 _symmetry_equiv_pos_site_id
 _symmetry_equiv_pos_as_xyz
  1  'x, y, z'
loop_
 _atom_site_type_symbol
 _atom_site_label
 _atom_site_symmetry_multiplicity
 _atom_site_fract_x
 _atom_site_fract_y
 _atom_site_fract_z
 _atom_site_occupancy
  Na  Na0  1  0.096549  0.250000  0.846549  1
  Na  Na1  1  0.903451  0.750000  0.153451  1
  Al  Al2  1  0.500000  0.500000  0.500000  1
  Al  Al3  1  0.500000  0.000000  1.000000  1
  B  B4  1  0.277275  0.779553  0.176545  1
  B  B5  1  0.123334  0.828654  0.793977  1
  B  B6  1  0.534678  0.829357  0.206023  1
  B  B7  1  0.103008  0.600731  0.823455  1
  B  B8  1  0.253327  0.585480  0.667846  1
  B  B9  1  0.522889  0.647346  0.875543  1
  B  B10  1  0.134052  0.665931  0.468121  1
  B  B11  1  0.103008  0.279553  0.502277  1
  B  B12  1  0.534678  0.328654  0.705320  1
  B  B13  1  0.123334  0.329357  0.294680  1
  B  B14  1  0.722725  0.899269  0.502277  1
  B  B15  1  0.277275  0.100731  0.497723  1
  B  B16  1  0.876666  0.670643  0.705320  1
  B  B17  1  0.465322  0.671346  0.294680  1
  B  B18  1  0.896992  0.720447  0.497723  1
  B  B19  1  0.417634  0.085480  0.332154  1
  B  B20  1  0.271802  0.147346  0.124457  1
  B  B21  1  0.697810  0.165931  0.531879  1
  B  B22  1  0.865948  0.334069  0.531879  1
  B  B23  1  0.477111  0.352654  0.124457  1
  B  B24  1  0.746673  0.414520  0.332154  1
  B  B25  1  0.896992  0.399269  0.176545  1
  B  B26  1  0.465322  0.170643  0.793977  1
  B  B27  1  0.876666  0.171346  0.206023  1
  B  B28  1  0.722725  0.220447  0.823455  1
  B  B29  1  0.302190  0.834069  0.468121  1
  B  B30  1  0.728198  0.852654  0.875543  1
  B  B31  1  0.582366  0.914520  0.667846  1
