# generated using pymatgen
data_Pr2Te3
_symmetry_space_group_name_H-M   'P 1'
_cell_length_a   15.94163909
_cell_length_b   15.94163909
_cell_length_c   15.94163909
_cell_angle_alpha   144.99083463
_cell_angle_beta   144.99083463
_cell_angle_gamma   50.34818309
_symmetry_Int_Tables_number   1
_chemical_formula_structural   Pr2Te3
_chemical_formula_sum   'Pr16 Te24'
_cell_volume   1326.84672926
_cell_formula_units_Z   8
loop_
 _symmetry_equiv_pos_site_id
 _symmetry_equiv_pos_as_xyz
  1  'x, y, z'
loop_
 _atom_site_type_symbol
 _atom_site_label
 _atom_site_symmetry_multiplicity
 _atom_site_fract_x
 _atom_site_fract_y
 _atom_site_fract_z
 _atom_site_occupancy
  Pr  Pr0  1  0.582247  0.082247  0.500000  1
  Pr  Pr1  1  0.375000  0.744486  0.869486  1
  Pr  Pr2  1  0.167753  0.167753  0.000000  1
  Pr  Pr3  1  0.839259  0.953488  0.374064  1
  Pr  Pr4  1  0.579424  0.465195  0.625936  1
  Pr  Pr5  1  0.875000  0.505514  0.130514  1
  Pr  Pr6  1  0.046512  0.420576  0.885771  1
  Pr  Pr7  1  0.832247  0.832247  0.000000  1
  Pr  Pr8  1  0.494486  0.625000  0.369486  1
  Pr  Pr9  1  0.255514  0.125000  0.630514  1
  Pr  Pr10  1  0.534805  0.160741  0.114229  1
  Pr  Pr11  1  0.917753  0.417753  0.500000  1
  Pr  Pr12  1  0.703488  0.089259  0.874064  1
  Pr  Pr13  1  0.170576  0.296512  0.385771  1
  Pr  Pr14  1  0.910741  0.784805  0.614229  1
  Pr  Pr15  1  0.215195  0.829424  0.125936  1
  Te  Te16  1  0.894785  0.142215  0.901991  1
  Te  Te17  1  0.527235  0.424900  0.747812  1
  Te  Te18  1  0.240224  0.992794  0.098009  1
  Te  Te19  1  0.509776  0.107785  0.252570  1
  Te  Te20  1  0.855215  0.257206  0.747430  1
  Te  Te21  1  0.222765  0.470577  0.397665  1
  Te  Te22  1  0.677089  0.779423  0.252188  1
  Te  Te23  1  0.560577  0.815200  0.907177  1
  Te  Te24  1  0.072911  0.825100  0.602335  1
  Te  Te25  1  0.184800  0.091977  0.745377  1
  Te  Te26  1  0.908023  0.653400  0.092823  1
  Te  Te27  1  0.174900  0.777235  0.247812  1
  Te  Te28  1  0.529423  0.927089  0.752188  1
  Te  Te29  1  0.892215  0.144785  0.401991  1
  Te  Te30  1  0.346600  0.439423  0.254623  1
  Te  Te31  1  0.220577  0.472765  0.897665  1
  Te  Te32  1  0.742794  0.490224  0.598009  1
  Te  Te33  1  0.857785  0.759776  0.752570  1
  Te  Te34  1  0.575100  0.322911  0.102335  1
  Te  Te35  1  0.841977  0.434800  0.245377  1
  Te  Te36  1  0.189423  0.596600  0.754623  1
  Te  Te37  1  0.565200  0.810577  0.407177  1
  Te  Te38  1  0.007206  0.105215  0.247430  1
  Te  Te39  1  0.403400  0.158023  0.592823  1
