# generated using pymatgen
data_In2(Se2O5)3
_symmetry_space_group_name_H-M   'P 1'
_cell_length_a   10.06338135
_cell_length_b   13.59151071
_cell_length_c   11.51231370
_cell_angle_alpha   90.00000000
_cell_angle_beta   105.37016031
_cell_angle_gamma   90.00000000
_symmetry_Int_Tables_number   1
_chemical_formula_structural   In2(Se2O5)3
_chemical_formula_sum   'In8 Se24 O60'
_cell_volume   1518.29627708
_cell_formula_units_Z   4
loop_
 _symmetry_equiv_pos_site_id
 _symmetry_equiv_pos_as_xyz
  1  'x, y, z'
loop_
 _atom_site_type_symbol
 _atom_site_label
 _atom_site_symmetry_multiplicity
 _atom_site_fract_x
 _atom_site_fract_y
 _atom_site_fract_z
 _atom_site_occupancy
  In  In0  1  0.577355  0.707398  0.138847  1
  In  In1  1  0.077355  0.292602  0.138847  1
  In  In2  1  0.536420  0.953567  0.670969  1
  In  In3  1  0.036420  0.046433  0.670969  1
  In  In4  1  0.516656  0.455186  0.666830  1
  In  In5  1  0.016656  0.544814  0.666830  1
  In  In6  1  0.087022  0.795670  0.155506  1
  In  In7  1  0.587022  0.204330  0.155506  1
  Se  Se8  1  0.688848  0.534122  0.456551  1
  Se  Se9  1  0.188848  0.465878  0.456551  1
  Se  Se10  1  0.342341  0.489692  0.879587  1
  Se  Se11  1  0.842341  0.510308  0.879587  1
  Se  Se12  1  0.355329  0.985595  0.891321  1
  Se  Se13  1  0.855329  0.014405  0.891321  1
  Se  Se14  1  0.776591  0.739006  0.921981  1
  Se  Se15  1  0.276591  0.260994  0.921981  1
  Se  Se16  1  0.184016  0.956063  0.460640  1
  Se  Se17  1  0.684016  0.043937  0.460640  1
  Se  Se18  1  0.186251  0.533806  0.180378  1
  Se  Se19  1  0.686251  0.466194  0.180378  1
  Se  Se20  1  0.747396  0.234680  0.937213  1
  Se  Se21  1  0.247396  0.765320  0.937213  1
  Se  Se22  1  0.182429  0.044872  0.198129  1
  Se  Se23  1  0.682429  0.955128  0.198129  1
  Se  Se24  1  0.421327  0.772489  0.360558  1
  Se  Se25  1  0.921327  0.227511  0.360558  1
  Se  Se26  1  0.916889  0.796000  0.617048  1
  Se  Se27  1  0.416889  0.204000  0.617048  1
  Se  Se28  1  0.418991  0.713336  0.637477  1
  Se  Se29  1  0.918991  0.286664  0.637477  1
  Se  Se30  1  0.914959  0.700630  0.354937  1
  Se  Se31  1  0.414959  0.299370  0.354937  1
  O  O32  1  0.295007  0.392136  0.972571  1
  O  O33  1  0.795007  0.607864  0.972571  1
  O  O34  1  0.152522  0.555123  0.331216  1
  O  O35  1  0.652522  0.444877  0.331216  1
  O  O36  1  0.283649  0.862131  0.837803  1
  O  O37  1  0.783649  0.137869  0.837803  1
  O  O38  1  0.271098  0.018185  0.355047  1
  O  O39  1  0.771098  0.981815  0.355047  1
  O  O40  1  0.445016  0.683688  0.487837  1
  O  O41  1  0.945016  0.316312  0.487837  1
  O  O42  1  0.834842  0.771544  0.456888  1
  O  O43  1  0.334842  0.228456  0.456888  1
  O  O44  1  0.762682  0.651717  0.272164  1
  O  O45  1  0.262682  0.348283  0.272164  1
  O  O46  1  0.446377  0.684547  0.262947  1
  O  O47  1  0.946377  0.315453  0.262947  1
  O  O48  1  0.059986  0.452220  0.113547  1
  O  O49  1  0.559986  0.547780  0.113547  1
  O  O50  1  0.080160  0.142703  0.210020  1
  O  O51  1  0.580160  0.857297  0.210020  1
  O  O52  1  0.901105  0.293701  0.980732  1
  O  O53  1  0.401105  0.706299  0.980732  1
  O  O54  1  0.019399  0.894013  0.608010  1
  O  O55  1  0.689312  0.775019  0.021895  1
  O  O56  1  0.331962  0.912283  0.556503  1
  O  O57  1  0.831962  0.087717  0.556503  1
  O  O58  1  0.503545  0.981959  0.847359  1
  O  O59  1  0.003545  0.018041  0.847359  1
  O  O60  1  0.141607  0.059949  0.526038  1
  O  O61  1  0.641607  0.940051  0.526038  1
  O  O62  1  0.251852  0.054526  0.781412  1
  O  O63  1  0.751852  0.945474  0.781412  1
  O  O64  1  0.746615  0.212975  0.325262  1
  O  O65  1  0.246615  0.787025  0.325262  1
  O  O66  1  0.240612  0.834564  0.059493  1
  O  O67  1  0.740612  0.165436  0.059493  1
  O  O68  1  0.610320  0.360903  0.116650  1
  O  O69  1  0.110320  0.639097  0.116650  1
  O  O70  1  0.440000  0.205550  0.264738  1
  O  O71  1  0.940000  0.794450  0.264738  1
  O  O72  1  0.436473  0.211059  0.979307  1
  O  O73  1  0.936473  0.788941  0.979307  1
  O  O74  1  0.558955  0.044807  0.167471  1
  O  O75  1  0.058955  0.955193  0.167471  1
  O  O76  1  0.166457  0.547840  0.561360  1
  O  O77  1  0.666457  0.452160  0.561360  1
  O  O78  1  0.364852  0.458313  0.491719  1
  O  O79  1  0.864852  0.541687  0.491719  1
  O  O80  1  0.687709  0.452312  0.829111  1
  O  O81  1  0.187709  0.547688  0.829111  1
  O  O82  1  0.995335  0.389859  0.708722  1
  O  O83  1  0.495335  0.610141  0.708722  1
  O  O84  1  0.863738  0.582997  0.763679  1
  O  O85  1  0.363738  0.417003  0.763679  1
  O  O86  1  0.538488  0.293709  0.652943  1
  O  O87  1  0.038488  0.706291  0.652943  1
  O  O88  1  0.049605  0.205225  0.692063  1
  O  O89  1  0.549605  0.794775  0.692063  1
  O  O90  1  0.519399  0.105987  0.608010  1
  O  O91  1  0.189312  0.224981  0.021895  1
