# generated using pymatgen
data_Sr3Ga4O9
_symmetry_space_group_name_H-M   'P 1'
_cell_length_a   6.82466587
_cell_length_b   8.13615131
_cell_length_c   9.83518668
_cell_angle_alpha   84.92813384
_cell_angle_beta   72.54023101
_cell_angle_gamma   74.37768317
_symmetry_Int_Tables_number   1
_chemical_formula_structural   Sr3Ga4O9
_chemical_formula_sum   'Sr6 Ga8 O18'
_cell_volume   501.69063247
_cell_formula_units_Z   2
loop_
 _symmetry_equiv_pos_site_id
 _symmetry_equiv_pos_as_xyz
  1  'x, y, z'
loop_
 _atom_site_type_symbol
 _atom_site_label
 _atom_site_symmetry_multiplicity
 _atom_site_fract_x
 _atom_site_fract_y
 _atom_site_fract_z
 _atom_site_occupancy
  Sr  Sr0  1  0.814727  0.431895  0.323606  1
  Sr  Sr1  1  0.185273  0.568105  0.676394  1
  Sr  Sr2  1  0.687884  0.787063  0.040809  1
  Sr  Sr3  1  0.312116  0.212937  0.959191  1
  Sr  Sr4  1  0.058062  0.052355  0.689156  1
  Sr  Sr5  1  0.941938  0.947645  0.310844  1
  Ga  Ga6  1  0.251398  0.747401  0.942930  1
  Ga  Ga7  1  0.748602  0.252599  0.057070  1
  Ga  Ga8  1  0.665148  0.447708  0.765639  1
  Ga  Ga9  1  0.334852  0.552292  0.234361  1
  Ga  Ga10  1  0.390540  0.171902  0.301017  1
  Ga  Ga11  1  0.609460  0.828098  0.698983  1
  Ga  Ga12  1  0.560765  0.193833  0.581145  1
  Ga  Ga13  1  0.439235  0.806167  0.418855  1
  O  O14  1  0.592061  0.197714  0.385256  1
  O  O15  1  0.407939  0.802286  0.614744  1
  O  O16  1  0.786375  0.259759  0.861589  1
  O  O17  1  0.213625  0.740241  0.138411  1
  O  O18  1  0.561086  0.105197  0.114342  1
  O  O19  1  0.438914  0.894803  0.885658  1
  O  O20  1  0.700747  0.361938  0.587066  1
  O  O21  1  0.299253  0.638062  0.412934  1
  O  O22  1  0.241814  0.016216  0.398059  1
  O  O23  1  0.758186  0.983784  0.601941  1
  O  O24  1  0.708709  0.757733  0.297677  1
  O  O25  1  0.291291  0.242267  0.702323  1
  O  O26  1  0.980645  0.184553  0.124078  1
  O  O27  1  0.019355  0.815447  0.875922  1
  O  O28  1  0.376597  0.520049  0.869843  1
  O  O29  1  0.623403  0.479951  0.130157  1
  O  O30  1  0.796096  0.625151  0.733295  1
  O  O31  1  0.203904  0.374849  0.266705  1
