# generated using pymatgen
data_Fe(PO3)4
_symmetry_space_group_name_H-M   'P 1'
_cell_length_a   10.44417616
_cell_length_b   10.44417616
_cell_length_c   5.16826621
_cell_angle_alpha   83.97778315
_cell_angle_beta   96.02221685
_cell_angle_gamma   107.35098772
_symmetry_Int_Tables_number   1
_chemical_formula_structural   Fe(PO3)4
_chemical_formula_sum   'Fe2 P8 O24'
_cell_volume   533.52347749
_cell_formula_units_Z   2
loop_
 _symmetry_equiv_pos_site_id
 _symmetry_equiv_pos_as_xyz
  1  'x, y, z'
loop_
 _atom_site_type_symbol
 _atom_site_label
 _atom_site_symmetry_multiplicity
 _atom_site_fract_x
 _atom_site_fract_y
 _atom_site_fract_z
 _atom_site_occupancy
  Fe  Fe0  1  0.500000  0.000000  0.000000  1
  Fe  Fe1  1  0.000000  0.500000  0.000000  1
  P  P2  1  0.942477  0.298674  0.530323  1
  P  P3  1  0.641670  0.788568  0.812537  1
  P  P4  1  0.298674  0.942477  0.469677  1
  P  P5  1  0.701326  0.057523  0.530323  1
  P  P6  1  0.211432  0.358330  0.812537  1
  P  P7  1  0.358330  0.211432  0.187463  1
  P  P8  1  0.788568  0.641670  0.187463  1
  P  P9  1  0.057523  0.701326  0.469677  1
  O  O10  1  0.670726  0.067661  0.240263  1
  O  O11  1  0.833012  0.550955  0.029929  1
  O  O12  1  0.067661  0.670726  0.759737  1
  O  O13  1  0.722372  0.912423  0.623269  1
  O  O14  1  0.429594  0.332335  0.336364  1
  O  O15  1  0.911340  0.394360  0.696005  1
  O  O16  1  0.768943  0.768943  0.000000  1
  O  O17  1  0.394360  0.911340  0.303995  1
  O  O18  1  0.550955  0.833012  0.970071  1
  O  O19  1  0.932339  0.329274  0.240263  1
  O  O20  1  0.449045  0.166988  0.029929  1
  O  O21  1  0.851843  0.148157  0.600739  1
  O  O22  1  0.148157  0.851843  0.399261  1
  O  O23  1  0.329274  0.932339  0.759737  1
  O  O24  1  0.912423  0.722372  0.376731  1
  O  O25  1  0.231057  0.231057  0.000000  1
  O  O26  1  0.332335  0.429594  0.663636  1
  O  O27  1  0.605640  0.088660  0.696005  1
  O  O28  1  0.166988  0.449045  0.970071  1
  O  O29  1  0.088660  0.605640  0.303995  1
  O  O30  1  0.570406  0.667665  0.663636  1
  O  O31  1  0.277628  0.087577  0.376731  1
  O  O32  1  0.087577  0.277628  0.623269  1
  O  O33  1  0.667665  0.570406  0.336364  1
