# generated using pymatgen
data_V4As2O13
_symmetry_space_group_name_H-M   'P 1'
_cell_length_a   5.05919701
_cell_length_b   5.06841277
_cell_length_c   8.96281098
_cell_angle_alpha   89.70588141
_cell_angle_beta   100.33284296
_cell_angle_gamma   99.68352397
_symmetry_Int_Tables_number   1
_chemical_formula_structural   V4As2O13
_chemical_formula_sum   'V4 As2 O13'
_cell_volume   222.80230135
_cell_formula_units_Z   1
loop_
 _symmetry_equiv_pos_site_id
 _symmetry_equiv_pos_as_xyz
  1  'x, y, z'
loop_
 _atom_site_type_symbol
 _atom_site_label
 _atom_site_symmetry_multiplicity
 _atom_site_fract_x
 _atom_site_fract_y
 _atom_site_fract_z
 _atom_site_occupancy
  V  V0  1  0.908391  0.816196  0.641243  1
  V  V1  1  0.575593  0.245996  0.702793  1
  V  V2  1  0.739096  0.045178  0.316509  1
  V  V3  1  0.448685  0.539275  0.060158  1
  As  As4  1  0.242183  0.565453  0.413599  1
  As  As5  1  0.001304  0.994961  0.000856  1
  O  O6  1  0.922688  0.507961  0.721962  1
  O  O7  1  0.255790  0.048365  0.682687  1
  O  O8  1  0.701814  0.072773  0.531121  1
  O  O9  1  0.597233  0.282055  0.213580  1
  O  O10  1  0.535620  0.427544  0.901601  1
  O  O11  1  0.415591  0.729471  0.280159  1
  O  O12  1  0.802950  0.839407  0.127450  1
  O  O13  1  0.088327  0.326751  0.048429  1
  O  O14  1  0.792121  0.982358  0.820374  1
  O  O15  1  0.975546  0.730132  0.435643  1
  O  O16  1  0.116211  0.242640  0.358702  1
  O  O17  1  0.472742  0.565952  0.581255  1
  O  O18  1  0.268232  0.844831  0.982908  1
