# generated using pymatgen
data_NbFeO4
_symmetry_space_group_name_H-M   'P 1'
_cell_length_a   4.71376588
_cell_length_b   5.69343473
_cell_length_c   10.16067166
_cell_angle_alpha   90.00000000
_cell_angle_beta   90.26301610
_cell_angle_gamma   90.00000000
_symmetry_Int_Tables_number   1
_chemical_formula_structural   NbFeO4
_chemical_formula_sum   'Nb4 Fe4 O16'
_cell_volume   272.68433933
_cell_formula_units_Z   4
loop_
 _symmetry_equiv_pos_site_id
 _symmetry_equiv_pos_as_xyz
  1  'x, y, z'
loop_
 _atom_site_type_symbol
 _atom_site_label
 _atom_site_symmetry_multiplicity
 _atom_site_fract_x
 _atom_site_fract_y
 _atom_site_fract_z
 _atom_site_occupancy
  Nb  Nb0  1  0.994881  0.831315  0.244799  1
  Nb  Nb1  1  0.500000  0.659102  0.500000  1
  Nb  Nb2  1  0.000000  0.188759  0.000000  1
  Nb  Nb3  1  0.005119  0.831315  0.755201  1
  Fe  Fe4  1  0.500000  0.659330  0.000000  1
  Fe  Fe5  1  0.497720  0.325627  0.745415  1
  Fe  Fe6  1  0.502280  0.325627  0.254585  1
  Fe  Fe7  1  0.000000  0.173171  0.500000  1
  O  O8  1  0.772751  0.885734  0.084725  1
  O  O9  1  0.773603  0.115822  0.838316  1
  O  O10  1  0.766664  0.879389  0.585699  1
  O  O11  1  0.782751  0.110542  0.332250  1
  O  O12  1  0.729558  0.384832  0.084423  1
  O  O13  1  0.729236  0.621936  0.833834  1
  O  O14  1  0.721765  0.389028  0.583546  1
  O  O15  1  0.733386  0.615594  0.334133  1
  O  O16  1  0.270442  0.384832  0.915577  1
  O  O17  1  0.266614  0.615594  0.665867  1
  O  O18  1  0.278235  0.389028  0.416454  1
  O  O19  1  0.270764  0.621936  0.166166  1
  O  O20  1  0.227249  0.885734  0.915275  1
  O  O21  1  0.217249  0.110542  0.667750  1
  O  O22  1  0.233336  0.879389  0.414301  1
  O  O23  1  0.226397  0.115822  0.161684  1
