# generated using pymatgen
data_TbAsO4
_symmetry_space_group_name_H-M   'P 1'
_cell_length_a   5.99841684
_cell_length_b   5.99841684
_cell_length_c   5.99841684
_cell_angle_alpha   106.42894213
_cell_angle_beta   106.42894213
_cell_angle_gamma   115.74381281
_symmetry_Int_Tables_number   1
_chemical_formula_structural   TbAsO4
_chemical_formula_sum   'Tb2 As2 O8'
_cell_volume   164.63574172
_cell_formula_units_Z   2
loop_
 _symmetry_equiv_pos_site_id
 _symmetry_equiv_pos_as_xyz
  1  'x, y, z'
loop_
 _atom_site_type_symbol
 _atom_site_label
 _atom_site_symmetry_multiplicity
 _atom_site_fract_x
 _atom_site_fract_y
 _atom_site_fract_z
 _atom_site_occupancy
  Tb  Tb0  1  0.750000  0.250000  0.500000  1
  Tb  Tb1  1  0.500000  0.500000  0.000000  1
  As  As2  1  0.250000  0.750000  0.500000  1
  As  As3  1  0.000000  0.000000  0.000000  1
  O  O4  1  0.357463  0.176446  0.181017  1
  O  O5  1  0.426446  0.745429  0.318983  1
  O  O6  1  0.426446  0.107463  0.681017  1
  O  O7  1  0.995429  0.176446  0.818983  1
  O  O8  1  0.823554  0.004571  0.181017  1
  O  O9  1  0.892537  0.573554  0.318983  1
  O  O10  1  0.254571  0.573554  0.681017  1
  O  O11  1  0.823554  0.642537  0.818983  1
