# generated using pymatgen
data_MgP4
_symmetry_space_group_name_H-M   'P 1'
_cell_length_a   5.19037882
_cell_length_b   5.11868154
_cell_length_c   7.59668718
_cell_angle_alpha   90.00000000
_cell_angle_beta   98.56618420
_cell_angle_gamma   90.00000000
_symmetry_Int_Tables_number   1
_chemical_formula_structural   MgP4
_chemical_formula_sum   'Mg2 P8'
_cell_volume   199.57649749
_cell_formula_units_Z   2
loop_
 _symmetry_equiv_pos_site_id
 _symmetry_equiv_pos_as_xyz
  1  'x, y, z'
loop_
 _atom_site_type_symbol
 _atom_site_label
 _atom_site_symmetry_multiplicity
 _atom_site_fract_x
 _atom_site_fract_y
 _atom_site_fract_z
 _atom_site_occupancy
  Mg  Mg0  1  0.000000  0.000000  0.000000  1
  Mg  Mg1  1  0.000000  0.500000  0.500000  1
  P  P2  1  0.252975  0.292197  0.253805  1
  P  P3  1  0.747025  0.792197  0.246195  1
  P  P4  1  0.747025  0.707803  0.746195  1
  P  P5  1  0.252975  0.207803  0.753805  1
  P  P6  1  0.396771  0.891319  0.599505  1
  P  P7  1  0.603229  0.391319  0.900495  1
  P  P8  1  0.603229  0.108681  0.400495  1
  P  P9  1  0.396771  0.608681  0.099505  1
