# generated using pymatgen
data_KAgO
_symmetry_space_group_name_H-M   'P 1'
_cell_length_a   7.61740807
_cell_length_b   7.61740807
_cell_length_c   7.61740807
_cell_angle_alpha   97.62540290
_cell_angle_beta   97.62540290
_cell_angle_gamma   137.27412888
_symmetry_Int_Tables_number   1
_chemical_formula_structural   KAgO
_chemical_formula_sum   'K4 Ag4 O4'
_cell_volume   279.28766327
_cell_formula_units_Z   4
loop_
 _symmetry_equiv_pos_site_id
 _symmetry_equiv_pos_as_xyz
  1  'x, y, z'
loop_
 _atom_site_type_symbol
 _atom_site_label
 _atom_site_symmetry_multiplicity
 _atom_site_fract_x
 _atom_site_fract_y
 _atom_site_fract_z
 _atom_site_occupancy
  K  K0  1  0.178220  0.500000  0.678220  1
  K  K1  1  0.821780  0.500000  0.321780  1
  K  K2  1  0.500000  0.178220  0.678220  1
  K  K3  1  0.500000  0.821780  0.321780  1
  Ag  Ag4  1  0.147656  0.852344  0.000000  1
  Ag  Ag5  1  0.852344  0.852344  0.704688  1
  Ag  Ag6  1  0.852344  0.147656  1.000000  1
  Ag  Ag7  1  0.147656  0.147656  0.295312  1
  O  O8  1  1.000000  0.705775  0.705775  1
  O  O9  1  0.705775  1.000000  0.705775  1
  O  O10  1  0.294225  1.000000  0.294225  1
  O  O11  1  1.000000  0.294225  0.294225  1
