# generated using pymatgen
data_Zn(SbO3)2
_symmetry_space_group_name_H-M   'P 1'
_cell_length_a   4.75115792
_cell_length_b   4.75115792
_cell_length_c   9.42056336
_cell_angle_alpha   90.00000000
_cell_angle_beta   90.00000000
_cell_angle_gamma   90.00000000
_symmetry_Int_Tables_number   1
_chemical_formula_structural   Zn(SbO3)2
_chemical_formula_sum   'Zn2 Sb4 O12'
_cell_volume   212.65510190
_cell_formula_units_Z   2
loop_
 _symmetry_equiv_pos_site_id
 _symmetry_equiv_pos_as_xyz
  1  'x, y, z'
loop_
 _atom_site_type_symbol
 _atom_site_label
 _atom_site_symmetry_multiplicity
 _atom_site_fract_x
 _atom_site_fract_y
 _atom_site_fract_z
 _atom_site_occupancy
  Zn  Zn0  1  0.000000  0.000000  0.000000  1
  Zn  Zn1  1  0.500000  0.500000  0.500000  1
  Sb  Sb2  1  0.500000  0.500000  0.832182  1
  Sb  Sb3  1  0.000000  0.000000  0.332182  1
  Sb  Sb4  1  0.500000  0.500000  0.167818  1
  Sb  Sb5  1  0.000000  0.000000  0.667818  1
  O  O6  1  0.698578  0.698578  0.672913  1
  O  O7  1  0.301422  0.301422  0.672913  1
  O  O8  1  0.698578  0.698578  0.327087  1
  O  O9  1  0.198578  0.801422  0.172913  1
  O  O10  1  0.801422  0.198578  0.172913  1
  O  O11  1  0.801422  0.198578  0.827087  1
  O  O12  1  0.311638  0.311638  0.000000  1
  O  O13  1  0.188362  0.811638  0.500000  1
  O  O14  1  0.811638  0.188362  0.500000  1
  O  O15  1  0.688362  0.688362  0.000000  1
  O  O16  1  0.301422  0.301422  0.327087  1
  O  O17  1  0.198578  0.801422  0.827087  1
