# generated using pymatgen
data_PdSCl
_symmetry_space_group_name_H-M   'P 1'
_cell_length_a   8.29800741
_cell_length_b   12.68351839
_cell_length_c   9.71543763
_cell_angle_alpha   90.00000000
_cell_angle_beta   111.57879762
_cell_angle_gamma   90.00000000
_symmetry_Int_Tables_number   1
_chemical_formula_structural   PdSCl
_chemical_formula_sum   'Pd12 S12 Cl12'
_cell_volume   950.86329683
_cell_formula_units_Z   12
loop_
 _symmetry_equiv_pos_site_id
 _symmetry_equiv_pos_as_xyz
  1  'x, y, z'
loop_
 _atom_site_type_symbol
 _atom_site_label
 _atom_site_symmetry_multiplicity
 _atom_site_fract_x
 _atom_site_fract_y
 _atom_site_fract_z
 _atom_site_occupancy
  Pd  Pd0  1  0.102734  0.365595  0.102771  1
  Pd  Pd1  1  0.897266  0.865595  0.897229  1
  Pd  Pd2  1  0.897266  0.634405  0.897229  1
  Pd  Pd3  1  0.102734  0.134405  0.102771  1
  Pd  Pd4  1  0.399161  0.365984  0.439536  1
  Pd  Pd5  1  0.600839  0.865984  0.560464  1
  Pd  Pd6  1  0.600839  0.634016  0.560464  1
  Pd  Pd7  1  0.399161  0.134016  0.439536  1
  Pd  Pd8  1  0.865572  0.250000  0.209634  1
  Pd  Pd9  1  0.134428  0.750000  0.790366  1
  Pd  Pd10  1  0.162499  0.250000  0.546917  1
  Pd  Pd11  1  0.837501  0.750000  0.453083  1
  S  S12  1  0.973011  0.127715  0.396964  1
  S  S13  1  0.854924  0.543105  0.681133  1
  S  S14  1  0.145076  0.043105  0.318867  1
  S  S15  1  0.026989  0.627715  0.603036  1
  S  S16  1  0.145076  0.456895  0.318867  1
  S  S17  1  0.973011  0.372285  0.396964  1
  S  S18  1  0.026989  0.872285  0.603036  1
  S  S19  1  0.397123  0.334129  0.204768  1
  S  S20  1  0.602877  0.834129  0.795232  1
  S  S21  1  0.602877  0.665871  0.795232  1
  S  S22  1  0.397123  0.165871  0.204768  1
  S  S23  1  0.854924  0.956895  0.681133  1
  Cl  Cl24  1  0.360173  0.389585  0.671823  1
  Cl  Cl25  1  0.360173  0.110415  0.671823  1
  Cl  Cl26  1  0.639827  0.610415  0.328177  1
  Cl  Cl27  1  0.645937  0.250000  0.543098  1
  Cl  Cl28  1  0.354063  0.750000  0.456902  1
  Cl  Cl29  1  0.206722  0.889270  0.972016  1
  Cl  Cl30  1  0.919603  0.750000  0.100943  1
  Cl  Cl31  1  0.793278  0.110730  0.027984  1
  Cl  Cl32  1  0.206722  0.610730  0.972016  1
  Cl  Cl33  1  0.080397  0.250000  0.899057  1
  Cl  Cl34  1  0.639827  0.889585  0.328177  1
  Cl  Cl35  1  0.793278  0.389270  0.027984  1
