# generated using pymatgen
data_Zr2P3H4NO12
_symmetry_space_group_name_H-M   'P 1'
_cell_length_a   9.68110349
_cell_length_b   9.68110349
_cell_length_c   9.68110349
_cell_angle_alpha   54.13774889
_cell_angle_beta   54.13774889
_cell_angle_gamma   54.13774889
_symmetry_Int_Tables_number   1
_chemical_formula_structural   Zr2P3H4NO12
_chemical_formula_sum   'Zr4 P6 H8 N2 O24'
_cell_volume   553.78590143
_cell_formula_units_Z   2
loop_
 _symmetry_equiv_pos_site_id
 _symmetry_equiv_pos_as_xyz
  1  'x, y, z'
loop_
 _atom_site_type_symbol
 _atom_site_label
 _atom_site_symmetry_multiplicity
 _atom_site_fract_x
 _atom_site_fract_y
 _atom_site_fract_z
 _atom_site_occupancy
  Zr  Zr0  1  0.848591  0.848591  0.848591  1
  Zr  Zr1  1  0.650463  0.650463  0.650463  1
  Zr  Zr2  1  0.348591  0.348591  0.348591  1
  Zr  Zr3  1  0.150463  0.150463  0.150463  1
  P  P4  1  0.251387  0.533149  0.962790  1
  P  P5  1  0.962790  0.251387  0.533149  1
  P  P6  1  0.533149  0.962790  0.251387  1
  P  P7  1  0.462790  0.033149  0.751387  1
  P  P8  1  0.033149  0.751387  0.462790  1
  P  P9  1  0.751387  0.462790  0.033149  1
  H  H10  1  0.536048  0.536048  0.536048  1
  H  H11  1  0.353726  0.539311  0.545176  1
  H  H12  1  0.545176  0.353726  0.539311  1
  H  H13  1  0.539311  0.545176  0.353726  1
  H  H14  1  0.045176  0.039311  0.853726  1
  H  H15  1  0.039311  0.853726  0.045176  1
  H  H16  1  0.853726  0.045176  0.039311  1
  H  H17  1  0.036048  0.036048  0.036048  1
  N  N18  1  0.994525  0.994525  0.994525  1
  N  N19  1  0.494525  0.494525  0.494525  1
  O  O20  1  0.753351  0.486533  0.860158  1
  O  O21  1  0.486533  0.860158  0.753351  1
  O  O22  1  0.860158  0.753351  0.486533  1
  O  O23  1  0.076464  0.697287  0.927162  1
  O  O24  1  0.423907  0.571614  0.798129  1
  O  O25  1  0.253351  0.360158  0.986533  1
  O  O26  1  0.927162  0.076464  0.697287  1
  O  O27  1  0.798129  0.423907  0.571614  1
  O  O28  1  0.571614  0.798129  0.423907  1
  O  O29  1  0.298129  0.071614  0.923907  1
  O  O30  1  0.635588  0.012133  0.748608  1
  O  O31  1  0.986533  0.253351  0.360158  1
  O  O32  1  0.012133  0.748608  0.635588  1
  O  O33  1  0.360158  0.986533  0.253351  1
  O  O34  1  0.697287  0.927162  0.076464  1
  O  O35  1  0.427162  0.197287  0.576464  1
  O  O36  1  0.197287  0.576464  0.427162  1
  O  O37  1  0.071614  0.923907  0.298129  1
  O  O38  1  0.748608  0.635588  0.012133  1
  O  O39  1  0.576464  0.427162  0.197287  1
  O  O40  1  0.923907  0.298129  0.071614  1
  O  O41  1  0.135588  0.248608  0.512133  1
  O  O42  1  0.512133  0.135588  0.248608  1
  O  O43  1  0.248608  0.512133  0.135588  1
