# generated using pymatgen
data_Rb2PdSe16
_symmetry_space_group_name_H-M   'P 1'
_cell_length_a   12.96650431
_cell_length_b   12.96650431
_cell_length_c   7.07303429
_cell_angle_alpha   90.00000000
_cell_angle_beta   90.00000000
_cell_angle_gamma   90.00000000
_symmetry_Int_Tables_number   1
_chemical_formula_structural   Rb2PdSe16
_chemical_formula_sum   'Rb4 Pd2 Se32'
_cell_volume   1189.19091042
_cell_formula_units_Z   2
loop_
 _symmetry_equiv_pos_site_id
 _symmetry_equiv_pos_as_xyz
  1  'x, y, z'
loop_
 _atom_site_type_symbol
 _atom_site_label
 _atom_site_symmetry_multiplicity
 _atom_site_fract_x
 _atom_site_fract_y
 _atom_site_fract_z
 _atom_site_occupancy
  Rb  Rb0  1  0.500000  0.000000  0.000000  1
  Rb  Rb1  1  0.000000  0.500000  0.000000  1
  Rb  Rb2  1  0.500000  0.500000  0.500000  1
  Rb  Rb3  1  0.000000  0.000000  0.500000  1
  Pd  Pd4  1  0.000000  0.000000  0.000000  1
  Pd  Pd5  1  0.500000  0.500000  0.000000  1
  Se  Se6  1  0.191282  0.422895  0.586183  1
  Se  Se7  1  0.808718  0.577105  0.586183  1
  Se  Se8  1  0.577105  0.191282  0.413817  1
  Se  Se9  1  0.422895  0.808718  0.413817  1
  Se  Se10  1  0.308718  0.922895  0.586183  1
  Se  Se11  1  0.077105  0.308718  0.413817  1
  Se  Se12  1  0.812998  0.965939  0.968090  1
  Se  Se13  1  0.034061  0.812998  0.031910  1
  Se  Se14  1  0.965939  0.187002  0.031910  1
  Se  Se15  1  0.187002  0.034061  0.968090  1
  Se  Se16  1  0.534061  0.687002  0.031910  1
  Se  Se17  1  0.465939  0.312998  0.031910  1
  Se  Se18  1  0.687002  0.465939  0.968090  1
  Se  Se19  1  0.312998  0.534061  0.968090  1
  Se  Se20  1  0.789381  0.202119  0.127036  1
  Se  Se21  1  0.797881  0.789381  0.872964  1
  Se  Se22  1  0.202119  0.210619  0.872964  1
  Se  Se23  1  0.210619  0.797881  0.127036  1
  Se  Se24  1  0.297881  0.710619  0.872964  1
  Se  Se25  1  0.702119  0.289381  0.872964  1
  Se  Se26  1  0.710619  0.702119  0.127036  1
  Se  Se27  1  0.289381  0.297881  0.127036  1
  Se  Se28  1  0.919233  0.307907  0.589763  1
  Se  Se29  1  0.692093  0.919233  0.410237  1
  Se  Se30  1  0.307907  0.080767  0.410237  1
  Se  Se31  1  0.080767  0.692093  0.589763  1
  Se  Se32  1  0.192093  0.580767  0.410237  1
  Se  Se33  1  0.807907  0.419233  0.410237  1
  Se  Se34  1  0.580767  0.807907  0.589763  1
  Se  Se35  1  0.419233  0.192093  0.589763  1
  Se  Se36  1  0.691282  0.077105  0.586183  1
  Se  Se37  1  0.922895  0.691282  0.413817  1
