# generated using pymatgen
data_NaNbO3
_symmetry_space_group_name_H-M   'P 1'
_cell_length_a   5.59754172
_cell_length_b   5.68743204
_cell_length_c   15.68108600
_cell_angle_alpha   90.00000000
_cell_angle_beta   90.00000000
_cell_angle_gamma   90.00000000
_symmetry_Int_Tables_number   1
_chemical_formula_structural   NaNbO3
_chemical_formula_sum   'Na8 Nb8 O24'
_cell_volume   499.21737928
_cell_formula_units_Z   8
loop_
 _symmetry_equiv_pos_site_id
 _symmetry_equiv_pos_as_xyz
  1  'x, y, z'
loop_
 _atom_site_type_symbol
 _atom_site_label
 _atom_site_symmetry_multiplicity
 _atom_site_fract_x
 _atom_site_fract_y
 _atom_site_fract_z
 _atom_site_occupancy
  Na  Na0  1  0.258565  0.250000  0.000000  1
  Na  Na1  1  0.741435  0.750000  0.500000  1
  Na  Na2  1  0.741435  0.750000  0.000000  1
  Na  Na3  1  0.258565  0.250000  0.500000  1
  Na  Na4  1  0.259249  0.202872  0.250000  1
  Na  Na5  1  0.259249  0.297128  0.750000  1
  Na  Na6  1  0.740751  0.702872  0.250000  1
  Na  Na7  1  0.740751  0.797128  0.750000  1
  Nb  Nb8  1  0.243533  0.721996  0.125196  1
  Nb  Nb9  1  0.243533  0.778004  0.874804  1
  Nb  Nb10  1  0.756467  0.221996  0.374804  1
  Nb  Nb11  1  0.756467  0.278004  0.625196  1
  Nb  Nb12  1  0.756467  0.278004  0.874804  1
  Nb  Nb13  1  0.756467  0.221996  0.125196  1
  Nb  Nb14  1  0.243533  0.778004  0.625196  1
  Nb  Nb15  1  0.243533  0.721996  0.374804  1
  O  O16  1  0.040363  0.044817  0.391791  1
  O  O17  1  0.040363  0.455183  0.608209  1
  O  O18  1  0.959637  0.544817  0.108209  1
  O  O19  1  0.959637  0.955183  0.891791  1
  O  O20  1  0.959637  0.955183  0.608209  1
  O  O21  1  0.959637  0.544817  0.391791  1
  O  O22  1  0.040363  0.455183  0.891791  1
  O  O23  1  0.040363  0.044817  0.108209  1
  O  O24  1  0.457980  0.467529  0.357591  1
  O  O25  1  0.457980  0.032471  0.642409  1
  O  O26  1  0.542020  0.967529  0.142409  1
  O  O27  1  0.542020  0.532471  0.857591  1
  O  O28  1  0.542020  0.532471  0.642409  1
  O  O29  1  0.542020  0.967529  0.357591  1
  O  O30  1  0.457980  0.032471  0.857591  1
  O  O31  1  0.457980  0.467529  0.142409  1
  O  O32  1  0.683662  0.250000  0.000000  1
  O  O33  1  0.316338  0.750000  0.500000  1
  O  O34  1  0.316338  0.750000  0.000000  1
  O  O35  1  0.683662  0.250000  0.500000  1
  O  O36  1  0.183582  0.775561  0.250000  1
  O  O37  1  0.183582  0.724439  0.750000  1
  O  O38  1  0.816418  0.275561  0.250000  1
  O  O39  1  0.816418  0.224439  0.750000  1
