# generated using pymatgen
data_LiFe5O8
_symmetry_space_group_name_H-M   'P 1'
_cell_length_a   8.48998104
_cell_length_b   8.48998104
_cell_length_c   8.48998104
_cell_angle_alpha   90.00000000
_cell_angle_beta   90.00000000
_cell_angle_gamma   90.00000000
_symmetry_Int_Tables_number   1
_chemical_formula_structural   LiFe5O8
_chemical_formula_sum   'Li4 Fe20 O32'
_cell_volume   611.95594909
_cell_formula_units_Z   4
loop_
 _symmetry_equiv_pos_site_id
 _symmetry_equiv_pos_as_xyz
  1  'x, y, z'
loop_
 _atom_site_type_symbol
 _atom_site_label
 _atom_site_symmetry_multiplicity
 _atom_site_fract_x
 _atom_site_fract_y
 _atom_site_fract_z
 _atom_site_occupancy
  Li  Li0  1  0.875000  0.375000  0.125000  1
  Li  Li1  1  0.375000  0.125000  0.875000  1
  Li  Li2  1  0.625000  0.625000  0.625000  1
  Li  Li3  1  0.125000  0.875000  0.375000  1
  Fe  Fe4  1  0.875000  0.864380  0.614380  1
  Fe  Fe5  1  0.755259  0.244741  0.744741  1
  Fe  Fe6  1  0.125000  0.364380  0.885620  1
  Fe  Fe7  1  0.385620  0.375000  0.635620  1
  Fe  Fe8  1  0.244741  0.744741  0.755259  1
  Fe  Fe9  1  0.625000  0.135620  0.114380  1
  Fe  Fe10  1  0.364380  0.885620  0.125000  1
  Fe  Fe11  1  0.494741  0.505259  0.005259  1
  Fe  Fe12  1  0.885620  0.125000  0.364380  1
  Fe  Fe13  1  0.864380  0.614380  0.875000  1
  Fe  Fe14  1  0.114380  0.625000  0.135620  1
  Fe  Fe15  1  0.255259  0.255259  0.255259  1
  Fe  Fe16  1  0.994741  0.994741  0.994741  1
  Fe  Fe17  1  0.744741  0.755259  0.244741  1
  Fe  Fe18  1  0.505259  0.005259  0.494741  1
  Fe  Fe19  1  0.375000  0.635620  0.385620  1
  Fe  Fe20  1  0.614380  0.875000  0.864380  1
  Fe  Fe21  1  0.005259  0.494741  0.505259  1
  Fe  Fe22  1  0.135620  0.114380  0.625000  1
  Fe  Fe23  1  0.635620  0.385620  0.375000  1
  O  O24  1  0.123906  0.128817  0.866827  1
  O  O25  1  0.610336  0.889664  0.110336  1
  O  O26  1  0.389664  0.389664  0.389664  1
  O  O27  1  0.866827  0.123906  0.128817  1
  O  O28  1  0.376094  0.871183  0.366827  1
  O  O29  1  0.116827  0.878817  0.626094  1
  O  O30  1  0.623906  0.371183  0.133173  1
  O  O31  1  0.126094  0.383173  0.121183  1
  O  O32  1  0.633173  0.876094  0.628817  1
  O  O33  1  0.366827  0.376094  0.871183  1
  O  O34  1  0.639664  0.139664  0.360336  1
  O  O35  1  0.378817  0.873906  0.883173  1
  O  O36  1  0.360336  0.639664  0.139664  1
  O  O37  1  0.121183  0.126094  0.383173  1
  O  O38  1  0.373906  0.616827  0.621183  1
  O  O39  1  0.883173  0.378817  0.873906  1
  O  O40  1  0.616827  0.621183  0.373906  1
  O  O41  1  0.626094  0.116827  0.878817  1
  O  O42  1  0.139664  0.360336  0.639664  1
  O  O43  1  0.133173  0.623906  0.371183  1
  O  O44  1  0.110336  0.610336  0.889664  1
  O  O45  1  0.383173  0.121183  0.126094  1
  O  O46  1  0.871183  0.366827  0.376094  1
  O  O47  1  0.860336  0.860336  0.860336  1
  O  O48  1  0.371183  0.133173  0.623906  1
  O  O49  1  0.621183  0.373906  0.616827  1
  O  O50  1  0.628817  0.633173  0.876094  1
  O  O51  1  0.876094  0.628817  0.633173  1
  O  O52  1  0.873906  0.883173  0.378817  1
  O  O53  1  0.878817  0.626094  0.116827  1
  O  O54  1  0.889664  0.110336  0.610336  1
  O  O55  1  0.128817  0.866827  0.123906  1
