# generated using pymatgen
data_NaTaO3
_symmetry_space_group_name_H-M   'P 1'
_cell_length_a   5.52965123
_cell_length_b   5.58393391
_cell_length_c   7.86973008
_cell_angle_alpha   90.00000000
_cell_angle_beta   90.00000000
_cell_angle_gamma   90.00000000
_symmetry_Int_Tables_number   1
_chemical_formula_structural   NaTaO3
_chemical_formula_sum   'Na4 Ta4 O12'
_cell_volume   242.99528482
_cell_formula_units_Z   4
loop_
 _symmetry_equiv_pos_site_id
 _symmetry_equiv_pos_as_xyz
  1  'x, y, z'
loop_
 _atom_site_type_symbol
 _atom_site_label
 _atom_site_symmetry_multiplicity
 _atom_site_fract_x
 _atom_site_fract_y
 _atom_site_fract_z
 _atom_site_occupancy
  Na  Na0  1  0.997096  0.980016  0.750000  1
  Na  Na1  1  0.002904  0.019984  0.250000  1
  Na  Na2  1  0.502904  0.480016  0.750000  1
  Na  Na3  1  0.497096  0.519984  0.250000  1
  Ta  Ta4  1  0.500000  0.000000  0.500000  1
  Ta  Ta5  1  0.500000  0.000000  0.000000  1
  Ta  Ta6  1  0.000000  0.500000  0.500000  1
  Ta  Ta7  1  0.000000  0.500000  0.000000  1
  O  O8  1  0.214900  0.784532  0.469055  1
  O  O9  1  0.785100  0.215468  0.969055  1
  O  O10  1  0.285100  0.284532  0.469055  1
  O  O11  1  0.714900  0.715468  0.969055  1
  O  O12  1  0.214900  0.784532  0.030945  1
  O  O13  1  0.785100  0.215468  0.530945  1
  O  O14  1  0.285100  0.284532  0.030945  1
  O  O15  1  0.714900  0.715468  0.530945  1
  O  O16  1  0.062398  0.511199  0.750000  1
  O  O17  1  0.937602  0.488801  0.250000  1
  O  O18  1  0.437602  0.011199  0.750000  1
  O  O19  1  0.562398  0.988801  0.250000  1
