# generated using pymatgen
data_SbKrF7
_symmetry_space_group_name_H-M   'P 1'
_cell_length_a   5.49540926
_cell_length_b   10.72288810
_cell_length_c   11.21158484
_cell_angle_alpha   90.00000000
_cell_angle_beta   95.33337847
_cell_angle_gamma   90.00000000
_symmetry_Int_Tables_number   1
_chemical_formula_structural   SbKrF7
_chemical_formula_sum   'Sb4 Kr4 F28'
_cell_volume   657.80104263
_cell_formula_units_Z   4
loop_
 _symmetry_equiv_pos_site_id
 _symmetry_equiv_pos_as_xyz
  1  'x, y, z'
loop_
 _atom_site_type_symbol
 _atom_site_label
 _atom_site_symmetry_multiplicity
 _atom_site_fract_x
 _atom_site_fract_y
 _atom_site_fract_z
 _atom_site_occupancy
  Sb  Sb0  1  0.596620  0.988947  0.270133  1
  Sb  Sb1  1  0.403380  0.488947  0.229867  1
  Sb  Sb2  1  0.403380  0.011053  0.729867  1
  Sb  Sb3  1  0.596620  0.511053  0.770133  1
  Kr  Kr4  1  0.975201  0.229210  0.470099  1
  Kr  Kr5  1  0.024799  0.729210  0.029901  1
  Kr  Kr6  1  0.024799  0.770790  0.529901  1
  Kr  Kr7  1  0.975201  0.270790  0.970099  1
  F  F8  1  0.498598  0.870932  0.383484  1
  F  F9  1  0.501402  0.370932  0.116516  1
  F  F10  1  0.501402  0.129068  0.616516  1
  F  F11  1  0.498598  0.629068  0.883484  1
  F  F12  1  0.344527  0.098901  0.309813  1
  F  F13  1  0.655473  0.598901  0.190187  1
  F  F14  1  0.655473  0.901099  0.690187  1
  F  F15  1  0.344527  0.401099  0.809813  1
  F  F16  1  0.136412  0.126494  0.020265  1
  F  F17  1  0.863588  0.626494  0.479735  1
  F  F18  1  0.863588  0.873506  0.979735  1
  F  F19  1  0.136412  0.373506  0.520265  1
  F  F20  1  0.803244  0.440570  0.920634  1
  F  F21  1  0.196756  0.940570  0.579366  1
  F  F22  1  0.196756  0.559430  0.079366  1
  F  F23  1  0.803244  0.059430  0.420634  1
  F  F24  1  0.410672  0.583042  0.636542  1
  F  F25  1  0.589328  0.083042  0.863458  1
  F  F26  1  0.589328  0.416958  0.363458  1
  F  F27  1  0.410672  0.916958  0.136542  1
  F  F28  1  0.876253  0.612787  0.752941  1
  F  F29  1  0.123747  0.112787  0.747059  1
  F  F30  1  0.123747  0.387213  0.247059  1
  F  F31  1  0.876253  0.887213  0.252941  1
  F  F32  1  0.733850  0.380892  0.683092  1
  F  F33  1  0.266150  0.880892  0.816908  1
  F  F34  1  0.266150  0.619108  0.316908  1
  F  F35  1  0.733850  0.119108  0.183092  1
