# generated using pymatgen
data_Be4N6O19
_symmetry_space_group_name_H-M   'P 1'
_cell_length_a   13.99016592
_cell_length_b   13.99016592
_cell_length_c   6.73346065
_cell_angle_alpha   90.00000000
_cell_angle_beta   90.00000000
_cell_angle_gamma   120.00000000
_symmetry_Int_Tables_number   1
_chemical_formula_structural   Be4N6O19
_chemical_formula_sum   'Be12 N18 O57'
_cell_volume   1141.33908142
_cell_formula_units_Z   3
loop_
 _symmetry_equiv_pos_site_id
 _symmetry_equiv_pos_as_xyz
  1  'x, y, z'
loop_
 _atom_site_type_symbol
 _atom_site_label
 _atom_site_symmetry_multiplicity
 _atom_site_fract_x
 _atom_site_fract_y
 _atom_site_fract_z
 _atom_site_occupancy
  Be  Be0  1  0.000000  0.000000  0.010753  1
  Be  Be1  1  0.095508  0.974398  0.329876  1
  Be  Be2  1  0.025602  0.121110  0.329876  1
  Be  Be3  1  0.878890  0.904492  0.329876  1
  Be  Be4  1  0.666667  0.333333  0.184528  1
  Be  Be5  1  0.713842  0.254254  0.504193  1
  Be  Be6  1  0.745746  0.459588  0.504193  1
  Be  Be7  1  0.540412  0.286158  0.504193  1
  Be  Be8  1  0.333333  0.666667  0.847161  1
  Be  Be9  1  0.454362  0.763236  0.528029  1
  Be  Be10  1  0.236764  0.691126  0.528029  1
  Be  Be11  1  0.308874  0.545638  0.528029  1
  N  N12  1  0.030267  0.196595  0.976677  1
  N  N13  1  0.803405  0.833672  0.976677  1
  N  N14  1  0.166328  0.969733  0.976677  1
  N  N15  1  0.956736  0.796081  0.519802  1
  N  N16  1  0.203919  0.160655  0.519802  1
  N  N17  1  0.839345  0.043264  0.519802  1
  N  N18  1  0.756342  0.212349  0.151740  1
  N  N19  1  0.787651  0.543994  0.151740  1
  N  N20  1  0.456006  0.243658  0.151740  1
  N  N21  1  0.880726  0.413809  0.686875  1
  N  N22  1  0.586191  0.466917  0.686875  1
  N  N23  1  0.533083  0.119274  0.686875  1
  N  N24  1  0.527601  0.836767  0.881316  1
  N  N25  1  0.163233  0.690834  0.881316  1
  N  N26  1  0.309166  0.472399  0.881316  1
  N  N27  1  0.374258  0.873001  0.345592  1
  N  N28  1  0.126999  0.501256  0.345592  1
  N  N29  1  0.498744  0.625742  0.345592  1
  O  O30  1  0.000000  0.000000  0.252906  1
  O  O31  1  0.666667  0.333333  0.426172  1
  O  O32  1  0.333333  0.666667  0.603924  1
  O  O33  1  0.977239  0.094378  0.914042  1
  O  O34  1  0.905622  0.882862  0.914042  1
  O  O35  1  0.117138  0.022761  0.914042  1
  O  O36  1  0.073468  0.215060  0.153319  1
  O  O37  1  0.784940  0.858408  0.153319  1
  O  O38  1  0.141592  0.926532  0.153319  1
  O  O39  1  0.038812  0.270804  0.873052  1
  O  O40  1  0.729196  0.768009  0.873052  1
  O  O41  1  0.231991  0.961188  0.873052  1
  O  O42  1  0.877582  0.793890  0.414914  1
  O  O43  1  0.206110  0.083692  0.414914  1
  O  O44  1  0.916308  0.122418  0.414914  1
  O  O45  1  0.054579  0.883243  0.508952  1
  O  O46  1  0.116757  0.171335  0.508952  1
  O  O47  1  0.828665  0.945421  0.508952  1
  O  O48  1  0.940242  0.719408  0.624979  1
  O  O49  1  0.280592  0.220834  0.624979  1
  O  O50  1  0.779166  0.059758  0.624979  1
  O  O51  1  0.753314  0.299120  0.088209  1
  O  O52  1  0.700880  0.454194  0.088209  1
  O  O53  1  0.545806  0.246686  0.088209  1
  O  O54  1  0.826388  0.541102  0.325737  1
  O  O55  1  0.458898  0.285286  0.325737  1
  O  O56  1  0.714714  0.173612  0.325737  1
  O  O57  1  0.795943  0.169600  0.050921  1
  O  O58  1  0.830400  0.626343  0.050921  1
  O  O59  1  0.373657  0.204057  0.050921  1
  O  O60  1  0.841987  0.323975  0.582529  1
  O  O61  1  0.676025  0.518012  0.582529  1
  O  O62  1  0.481988  0.158013  0.582529  1
  O  O63  1  0.827268  0.467839  0.686140  1
  O  O64  1  0.532161  0.359429  0.686140  1
  O  O65  1  0.640571  0.172732  0.686140  1
  O  O66  1  0.964406  0.446559  0.783073  1
  O  O67  1  0.553441  0.517847  0.783073  1
  O  O68  1  0.482153  0.035594  0.783073  1
  O  O69  1  0.425110  0.785266  0.943385  1
  O  O70  1  0.214734  0.639844  0.943385  1
  O  O71  1  0.360156  0.574890  0.943385  1
  O  O72  1  0.547462  0.811662  0.706171  1
  O  O73  1  0.188338  0.735800  0.706171  1
  O  O74  1  0.264200  0.452538  0.706171  1
  O  O75  1  0.600492  0.904462  0.984501  1
  O  O76  1  0.095538  0.696029  0.984501  1
  O  O77  1  0.303971  0.399508  0.984501  1
  O  O78  1  0.454852  0.873472  0.442734  1
  O  O79  1  0.126528  0.581379  0.442734  1
  O  O80  1  0.418621  0.545148  0.442734  1
  O  O81  1  0.277397  0.784543  0.351729  1
  O  O82  1  0.215457  0.492854  0.351729  1
  O  O83  1  0.507146  0.722603  0.351729  1
  O  O84  1  0.389350  0.953008  0.251531  1
  O  O85  1  0.046992  0.436342  0.251531  1
  O  O86  1  0.563658  0.610650  0.251531  1
