# generated using pymatgen
data_Sb2BrF15
_symmetry_space_group_name_H-M   'P 1'
_cell_length_a   5.37698033
_cell_length_b   14.87229748
_cell_length_c   14.58872315
_cell_angle_alpha   90.00000000
_cell_angle_beta   91.99787496
_cell_angle_gamma   90.00000000
_symmetry_Int_Tables_number   1
_chemical_formula_structural   Sb2BrF15
_chemical_formula_sum   'Sb8 Br4 F60'
_cell_volume   1165.92258497
_cell_formula_units_Z   4
loop_
 _symmetry_equiv_pos_site_id
 _symmetry_equiv_pos_as_xyz
  1  'x, y, z'
loop_
 _atom_site_type_symbol
 _atom_site_label
 _atom_site_symmetry_multiplicity
 _atom_site_fract_x
 _atom_site_fract_y
 _atom_site_fract_z
 _atom_site_occupancy
  Sb  Sb0  1  0.251653  0.646534  0.986148  1
  Sb  Sb1  1  0.748347  0.146534  0.513852  1
  Sb  Sb2  1  0.748347  0.353466  0.013852  1
  Sb  Sb3  1  0.251653  0.853466  0.486148  1
  Sb  Sb4  1  0.534647  0.853309  0.149379  1
  Sb  Sb5  1  0.465353  0.353309  0.350621  1
  Sb  Sb6  1  0.465353  0.146691  0.850621  1
  Sb  Sb7  1  0.534647  0.646691  0.649379  1
  Br  Br8  1  0.915254  0.651356  0.314653  1
  Br  Br9  1  0.084746  0.151356  0.185347  1
  Br  Br10  1  0.084746  0.348644  0.685347  1
  Br  Br11  1  0.915254  0.848644  0.814653  1
  F  F12  1  0.045582  0.575059  0.392723  1
  F  F13  1  0.954418  0.075059  0.107277  1
  F  F14  1  0.954418  0.424941  0.607277  1
  F  F15  1  0.045582  0.924941  0.892723  1
  F  F16  1  0.789712  0.569632  0.241496  1
  F  F17  1  0.210288  0.069632  0.258504  1
  F  F18  1  0.210288  0.430368  0.758504  1
  F  F19  1  0.789712  0.930368  0.741496  1
  F  F20  1  0.635848  0.644543  0.378263  1
  F  F21  1  0.364152  0.144543  0.121737  1
  F  F22  1  0.364152  0.355457  0.621737  1
  F  F23  1  0.635848  0.855457  0.878263  1
  F  F24  1  0.668146  0.559549  0.731226  1
  F  F25  1  0.331854  0.059549  0.768774  1
  F  F26  1  0.331854  0.440451  0.268774  1
  F  F27  1  0.668146  0.940451  0.231226  1
  F  F28  1  0.697982  0.746539  0.716326  1
  F  F29  1  0.302018  0.246539  0.783674  1
  F  F30  1  0.302018  0.253461  0.283674  1
  F  F31  1  0.697982  0.753461  0.216326  1
  F  F32  1  0.810381  0.644396  0.572586  1
  F  F33  1  0.189619  0.144396  0.927414  1
  F  F34  1  0.189619  0.355604  0.427414  1
  F  F35  1  0.810381  0.855604  0.072586  1
  F  F36  1  0.355691  0.564401  0.573253  1
  F  F37  1  0.644309  0.064401  0.926747  1
  F  F38  1  0.644309  0.435599  0.426747  1
  F  F39  1  0.355691  0.935599  0.073253  1
  F  F40  1  0.250706  0.669005  0.719202  1
  F  F41  1  0.749294  0.169005  0.780798  1
  F  F42  1  0.749294  0.330995  0.280798  1
  F  F43  1  0.250706  0.830995  0.219202  1
  F  F44  1  0.398452  0.746225  0.562722  1
  F  F45  1  0.601548  0.246225  0.937278  1
  F  F46  1  0.601548  0.253775  0.437278  1
  F  F47  1  0.398452  0.753775  0.062722  1
  F  F48  1  0.105346  0.942215  0.409702  1
  F  F49  1  0.894654  0.442215  0.090298  1
  F  F50  1  0.894654  0.057785  0.590298  1
  F  F51  1  0.105346  0.557785  0.909702  1
  F  F52  1  0.534930  0.837172  0.414848  1
  F  F53  1  0.465070  0.337172  0.085152  1
  F  F54  1  0.465070  0.162828  0.585152  1
  F  F55  1  0.534930  0.662828  0.914848  1
  F  F56  1  0.422021  0.929408  0.570685  1
  F  F57  1  0.577979  0.429408  0.929315  1
  F  F58  1  0.577979  0.070592  0.429315  1
  F  F59  1  0.422021  0.570592  0.070685  1
  F  F60  1  0.976711  0.842017  0.562359  1
  F  F61  1  0.023289  0.342017  0.937641  1
  F  F62  1  0.023289  0.157983  0.437641  1
  F  F63  1  0.976711  0.657983  0.062359  1
  F  F64  1  0.096112  0.755510  0.411275  1
  F  F65  1  0.903888  0.255510  0.088725  1
  F  F66  1  0.903888  0.244490  0.588725  1
  F  F67  1  0.096112  0.744490  0.911275  1
  F  F68  1  0.197347  0.857580  0.752999  1
  F  F69  1  0.802653  0.357580  0.747001  1
  F  F70  1  0.802653  0.142420  0.247001  1
  F  F71  1  0.197347  0.642420  0.252999  1
