# generated using pymatgen
data_Li10Zn4O9
_symmetry_space_group_name_H-M   'P 1'
_cell_length_a   9.83332999
_cell_length_b   9.83332999
_cell_length_c   4.70913532
_cell_angle_alpha   90.00000000
_cell_angle_beta   90.00000000
_cell_angle_gamma   90.00000000
_symmetry_Int_Tables_number   1
_chemical_formula_structural   Li10Zn4O9
_chemical_formula_sum   'Li20 Zn8 O18'
_cell_volume   455.34691395
_cell_formula_units_Z   2
loop_
 _symmetry_equiv_pos_site_id
 _symmetry_equiv_pos_as_xyz
  1  'x, y, z'
loop_
 _atom_site_type_symbol
 _atom_site_label
 _atom_site_symmetry_multiplicity
 _atom_site_fract_x
 _atom_site_fract_y
 _atom_site_fract_z
 _atom_site_occupancy
  Li  Li0  1  0.643832  0.187571  0.289639  1
  Li  Li1  1  0.356168  0.812429  0.289639  1
  Li  Li2  1  0.312429  0.143832  0.789639  1
  Li  Li3  1  0.687571  0.856168  0.789639  1
  Li  Li4  1  0.187571  0.643832  0.710361  1
  Li  Li5  1  0.143832  0.312429  0.210361  1
  Li  Li6  1  0.856168  0.687571  0.210361  1
  Li  Li7  1  0.812429  0.356168  0.710361  1
  Li  Li8  1  0.187571  0.356168  0.710361  1
  Li  Li9  1  0.812429  0.643832  0.710361  1
  Li  Li10  1  0.312429  0.856168  0.789639  1
  Li  Li11  1  0.356168  0.187571  0.289639  1
  Li  Li12  1  0.643832  0.812429  0.289639  1
  Li  Li13  1  0.687571  0.143832  0.789639  1
  Li  Li14  1  0.000000  0.500000  0.169053  1
  Li  Li15  1  0.000000  0.500000  0.669053  1
  Li  Li16  1  0.500000  0.000000  0.330947  1
  Li  Li17  1  0.500000  0.000000  0.830947  1
  Li  Li18  1  0.143832  0.687571  0.210361  1
  Li  Li19  1  0.856168  0.312429  0.210361  1
  Zn  Zn20  1  0.661941  0.500000  0.231455  1
  Zn  Zn21  1  0.338059  0.500000  0.231455  1
  Zn  Zn22  1  0.000000  0.161941  0.731455  1
  Zn  Zn23  1  0.000000  0.838059  0.731455  1
  Zn  Zn24  1  0.500000  0.661941  0.768545  1
  Zn  Zn25  1  0.161941  0.000000  0.268545  1
  Zn  Zn26  1  0.838059  0.000000  0.268545  1
  Zn  Zn27  1  0.500000  0.338059  0.768545  1
  O  O28  1  0.173420  0.173420  0.500000  1
  O  O29  1  0.326580  0.673420  0.000000  1
  O  O30  1  0.826580  0.173420  0.500000  1
  O  O31  1  0.673420  0.673420  0.000000  1
  O  O32  1  0.326580  0.326580  0.000000  1
  O  O33  1  0.173420  0.826580  0.500000  1
  O  O34  1  0.500000  0.500000  0.500000  1
  O  O35  1  0.000000  0.000000  0.000000  1
  O  O36  1  0.657409  0.000000  0.070518  1
  O  O37  1  0.342591  0.000000  0.070518  1
  O  O38  1  0.500000  0.157409  0.570518  1
  O  O39  1  0.500000  0.842591  0.570518  1
  O  O40  1  0.000000  0.657409  0.929482  1
  O  O41  1  0.157409  0.500000  0.429482  1
  O  O42  1  0.842591  0.500000  0.429482  1
  O  O43  1  0.000000  0.342591  0.929482  1
  O  O44  1  0.673420  0.326580  0.000000  1
  O  O45  1  0.826580  0.826580  0.500000  1
