# generated using pymatgen
data_Na2CuF4
_symmetry_space_group_name_H-M   'P 1'
_cell_length_a   3.35432291
_cell_length_b   9.39536359
_cell_length_c   5.70277557
_cell_angle_alpha   90.00000000
_cell_angle_beta   93.29987024
_cell_angle_gamma   90.00000000
_symmetry_Int_Tables_number   1
_chemical_formula_structural   Na2CuF4
_chemical_formula_sum   'Na4 Cu2 F8'
_cell_volume   179.42545635
_cell_formula_units_Z   2
loop_
 _symmetry_equiv_pos_site_id
 _symmetry_equiv_pos_as_xyz
  1  'x, y, z'
loop_
 _atom_site_type_symbol
 _atom_site_label
 _atom_site_symmetry_multiplicity
 _atom_site_fract_x
 _atom_site_fract_y
 _atom_site_fract_z
 _atom_site_occupancy
  Na  Na0  1  0.518583  0.817838  0.416569  1
  Na  Na1  1  0.481417  0.317838  0.083431  1
  Na  Na2  1  0.518583  0.682162  0.916569  1
  Na  Na3  1  0.481417  0.182162  0.583431  1
  Cu  Cu4  1  0.000000  0.000000  0.000000  1
  Cu  Cu5  1  0.000000  0.500000  0.500000  1
  F  F6  1  0.011636  0.690805  0.624100  1
  F  F7  1  0.988364  0.190805  0.875900  1
  F  F8  1  0.988364  0.309195  0.375900  1
  F  F9  1  0.011636  0.809195  0.124100  1
  F  F10  1  0.583596  0.950189  0.762384  1
  F  F11  1  0.416404  0.450189  0.737616  1
  F  F12  1  0.583596  0.549811  0.262384  1
  F  F13  1  0.416404  0.049811  0.237616  1
