# generated using pymatgen
data_MgB9N
_symmetry_space_group_name_H-M   'P 1'
_cell_length_a   7.39770449
_cell_length_b   7.39770449
_cell_length_c   7.39770449
_cell_angle_alpha   43.60080161
_cell_angle_beta   43.60080161
_cell_angle_gamma   43.60080161
_symmetry_Int_Tables_number   1
_chemical_formula_structural   MgB9N
_chemical_formula_sum   'Mg2 B18 N2'
_cell_volume   174.73470847
_cell_formula_units_Z   2
loop_
 _symmetry_equiv_pos_site_id
 _symmetry_equiv_pos_as_xyz
  1  'x, y, z'
loop_
 _atom_site_type_symbol
 _atom_site_label
 _atom_site_symmetry_multiplicity
 _atom_site_fract_x
 _atom_site_fract_y
 _atom_site_fract_z
 _atom_site_occupancy
  Mg  Mg0  1  0.304394  0.304394  0.304394  1
  Mg  Mg1  1  0.695606  0.695606  0.695606  1
  B  B2  1  0.824217  0.142189  0.142189  1
  B  B3  1  0.142189  0.142189  0.824217  1
  B  B4  1  0.142189  0.824217  0.142189  1
  B  B5  1  0.175783  0.857811  0.857811  1
  B  B6  1  0.660899  0.130014  0.660899  1
  B  B7  1  0.660899  0.660899  0.130014  1
  B  B8  1  0.130014  0.660899  0.660899  1
  B  B9  1  0.339101  0.869986  0.339101  1
  B  B10  1  0.339101  0.339101  0.869986  1
  B  B11  1  0.869986  0.339101  0.339101  1
  B  B12  1  0.675282  0.352178  0.675282  1
  B  B13  1  0.675282  0.675282  0.352178  1
  B  B14  1  0.352178  0.675282  0.675282  1
  B  B15  1  0.324718  0.647822  0.324718  1
  B  B16  1  0.324718  0.324718  0.647822  1
  B  B17  1  0.647822  0.324718  0.324718  1
  B  B18  1  0.857811  0.175783  0.857811  1
  B  B19  1  0.857811  0.857811  0.175783  1
  N  N20  1  0.199477  0.199477  0.199477  1
  N  N21  1  0.800523  0.800523  0.800523  1
