# generated using pymatgen
data_Dy(BO2)3
_symmetry_space_group_name_H-M   'P 1'
_cell_length_a   7.43805932
_cell_length_b   12.33113681
_cell_length_c   16.04503593
_cell_angle_alpha   90.00000000
_cell_angle_beta   90.00000000
_cell_angle_gamma   90.00000000
_symmetry_Int_Tables_number   1
_chemical_formula_structural   Dy(BO2)3
_chemical_formula_sum   'Dy16 B48 O96'
_cell_volume   1471.64631642
_cell_formula_units_Z   16
loop_
 _symmetry_equiv_pos_site_id
 _symmetry_equiv_pos_as_xyz
  1  'x, y, z'
loop_
 _atom_site_type_symbol
 _atom_site_label
 _atom_site_symmetry_multiplicity
 _atom_site_fract_x
 _atom_site_fract_y
 _atom_site_fract_z
 _atom_site_occupancy
  Dy  Dy0  1  0.250000  0.766921  0.871197  1
  Dy  Dy1  1  0.750000  0.233079  0.128803  1
  Dy  Dy2  1  0.750000  0.266921  0.628803  1
  Dy  Dy3  1  0.250000  0.733079  0.371197  1
  Dy  Dy4  1  0.250000  0.413382  0.548588  1
  Dy  Dy5  1  0.750000  0.586618  0.451412  1
  Dy  Dy6  1  0.750000  0.913382  0.951412  1
  Dy  Dy7  1  0.250000  0.086618  0.048588  1
  Dy  Dy8  1  0.250000  0.064656  0.673187  1
  Dy  Dy9  1  0.750000  0.935344  0.326813  1
  Dy  Dy10  1  0.750000  0.564656  0.826813  1
  Dy  Dy11  1  0.250000  0.435344  0.173187  1
  Dy  Dy12  1  0.250000  0.490790  0.880617  1
  Dy  Dy13  1  0.750000  0.509210  0.119383  1
  Dy  Dy14  1  0.750000  0.990790  0.619383  1
  Dy  Dy15  1  0.250000  0.009210  0.380617  1
  B  B16  1  0.069979  0.813063  0.216956  1
  B  B17  1  0.560401  0.822619  0.467717  1
  B  B18  1  0.060401  0.177381  0.532283  1
  B  B19  1  0.439599  0.322619  0.032283  1
  B  B20  1  0.939599  0.677381  0.967717  1
  B  B21  1  0.439599  0.177381  0.532283  1
  B  B22  1  0.939599  0.822619  0.467717  1
  B  B23  1  0.560401  0.677381  0.967717  1
  B  B24  1  0.060401  0.322619  0.032283  1
  B  B25  1  0.577330  0.982176  0.152773  1
  B  B26  1  0.077330  0.017824  0.847227  1
  B  B27  1  0.422670  0.482176  0.347227  1
  B  B28  1  0.922670  0.517824  0.652773  1
  B  B29  1  0.422670  0.017824  0.847227  1
  B  B30  1  0.922670  0.982176  0.152773  1
  B  B31  1  0.577330  0.517824  0.652773  1
  B  B32  1  0.077330  0.482176  0.347227  1
  B  B33  1  0.569979  0.186937  0.783044  1
  B  B34  1  0.930021  0.313063  0.283044  1
  B  B35  1  0.430021  0.686937  0.716956  1
  B  B36  1  0.930021  0.186937  0.783044  1
  B  B37  1  0.430021  0.813063  0.216956  1
  B  B38  1  0.069979  0.686937  0.716956  1
  B  B39  1  0.569979  0.313063  0.283044  1
  B  B40  1  0.072447  0.845221  0.056492  1
  B  B41  1  0.572447  0.154779  0.943508  1
  B  B42  1  0.927553  0.345221  0.443508  1
  B  B43  1  0.427553  0.654779  0.556492  1
  B  B44  1  0.927553  0.154779  0.943508  1
  B  B45  1  0.427553  0.845221  0.056492  1
  B  B46  1  0.072447  0.654779  0.556492  1
  B  B47  1  0.572447  0.345221  0.443508  1
  B  B48  1  0.076491  0.643086  0.109478  1
  B  B49  1  0.576491  0.356914  0.890522  1
  B  B50  1  0.923509  0.143086  0.390522  1
  B  B51  1  0.423509  0.856914  0.609478  1
  B  B52  1  0.923509  0.356914  0.890522  1
  B  B53  1  0.423509  0.643086  0.109478  1
  B  B54  1  0.076491  0.856914  0.609478  1
  B  B55  1  0.576491  0.143086  0.390522  1
  B  B56  1  0.068963  0.127425  0.242368  1
  B  B57  1  0.568963  0.872575  0.757632  1
  B  B58  1  0.931037  0.627425  0.257632  1
  B  B59  1  0.431037  0.372575  0.742368  1
  B  B60  1  0.931037  0.872575  0.757632  1
  B  B61  1  0.431037  0.127425  0.242368  1
  B  B62  1  0.068963  0.372575  0.742368  1
  B  B63  1  0.568963  0.627425  0.257632  1
  O  O64  1  0.935785  0.622357  0.047847  1
  O  O65  1  0.019104  0.709041  0.478009  1
  O  O66  1  0.519104  0.290959  0.521991  1
  O  O67  1  0.980896  0.209041  0.021991  1
  O  O68  1  0.480896  0.790959  0.978009  1
  O  O69  1  0.980896  0.290959  0.521991  1
  O  O70  1  0.480896  0.709041  0.478009  1
  O  O71  1  0.019104  0.790959  0.978009  1
  O  O72  1  0.519104  0.209041  0.021991  1
  O  O73  1  0.043785  0.876846  0.403801  1
  O  O74  1  0.543785  0.123154  0.596199  1
  O  O75  1  0.956215  0.376846  0.096199  1
  O  O76  1  0.456215  0.623154  0.903801  1
  O  O77  1  0.956215  0.123154  0.596199  1
  O  O78  1  0.456215  0.876846  0.403801  1
  O  O79  1  0.043785  0.623154  0.903801  1
  O  O80  1  0.250000  0.853347  0.244771  1
  O  O81  1  0.750000  0.146653  0.755229  1
  O  O82  1  0.750000  0.353347  0.255229  1
  O  O83  1  0.250000  0.646653  0.744771  1
  O  O84  1  0.250000  0.896736  0.047598  1
  O  O85  1  0.750000  0.103264  0.952402  1
  O  O86  1  0.750000  0.396736  0.452402  1
  O  O87  1  0.250000  0.603264  0.547598  1
  O  O88  1  0.250000  0.605315  0.078681  1
  O  O89  1  0.750000  0.394685  0.921319  1
  O  O90  1  0.750000  0.105315  0.421319  1
  O  O91  1  0.250000  0.894685  0.578681  1
  O  O92  1  0.250000  0.136558  0.275691  1
  O  O93  1  0.750000  0.863442  0.724309  1
  O  O94  1  0.750000  0.636558  0.224309  1
  O  O95  1  0.250000  0.363442  0.775691  1
  O  O96  1  0.250000  0.539817  0.340681  1
  O  O97  1  0.750000  0.460183  0.659319  1
  O  O98  1  0.750000  0.039817  0.159319  1
  O  O99  1  0.250000  0.960183  0.840681  1
  O  O100  1  0.250000  0.306504  0.066308  1
  O  O101  1  0.750000  0.693496  0.933692  1
  O  O102  1  0.750000  0.806504  0.433692  1
  O  O103  1  0.250000  0.193496  0.566308  1
  O  O104  1  0.072992  0.764862  0.128438  1
  O  O105  1  0.572992  0.235138  0.871562  1
  O  O106  1  0.927008  0.264862  0.371562  1
  O  O107  1  0.427008  0.735138  0.628438  1
  O  O108  1  0.927008  0.235138  0.871562  1
  O  O109  1  0.427008  0.764862  0.128438  1
  O  O110  1  0.072992  0.735138  0.628438  1
  O  O111  1  0.572992  0.264862  0.371562  1
  O  O112  1  0.033388  0.576875  0.184684  1
  O  O113  1  0.533388  0.423125  0.815316  1
  O  O114  1  0.966612  0.076875  0.315316  1
  O  O115  1  0.466612  0.923125  0.684684  1
  O  O116  1  0.966612  0.423125  0.815316  1
  O  O117  1  0.466612  0.576875  0.184684  1
  O  O118  1  0.033388  0.923125  0.684684  1
  O  O119  1  0.533388  0.076875  0.315316  1
  O  O120  1  0.064215  0.122357  0.452153  1
  O  O121  1  0.564215  0.877643  0.547847  1
  O  O122  1  0.543785  0.376846  0.096199  1
  O  O123  1  0.435785  0.377643  0.952153  1
  O  O124  1  0.935785  0.877643  0.547847  1
  O  O125  1  0.435785  0.122357  0.452153  1
  O  O126  1  0.064215  0.377643  0.952153  1
  O  O127  1  0.564215  0.622357  0.047847  1
  O  O128  1  0.019591  0.729296  0.275944  1
  O  O129  1  0.519591  0.270704  0.724056  1
  O  O130  1  0.980409  0.229296  0.224056  1
  O  O131  1  0.480409  0.770704  0.775944  1
  O  O132  1  0.980409  0.270704  0.724056  1
  O  O133  1  0.480409  0.729296  0.275944  1
  O  O134  1  0.019591  0.770704  0.775944  1
  O  O135  1  0.519591  0.229296  0.224056  1
  O  O136  1  0.564091  0.898286  0.217856  1
  O  O137  1  0.564824  0.935901  0.835488  1
  O  O138  1  0.935176  0.564099  0.335488  1
  O  O139  1  0.435176  0.435901  0.664512  1
  O  O140  1  0.935176  0.935901  0.835488  1
  O  O141  1  0.435176  0.064099  0.164512  1
  O  O142  1  0.064824  0.435901  0.664512  1
  O  O143  1  0.564824  0.564099  0.335488  1
  O  O144  1  0.058142  0.431805  0.430362  1
  O  O145  1  0.558142  0.568195  0.569638  1
  O  O146  1  0.941858  0.931805  0.069638  1
  O  O147  1  0.441858  0.068195  0.930362  1
  O  O148  1  0.941858  0.568195  0.569638  1
  O  O149  1  0.441858  0.431805  0.430362  1
  O  O150  1  0.058142  0.068195  0.930362  1
  O  O151  1  0.558142  0.931805  0.069638  1
  O  O152  1  0.064091  0.398286  0.282144  1
  O  O153  1  0.564091  0.601714  0.717856  1
  O  O154  1  0.935909  0.898286  0.217856  1
  O  O155  1  0.435909  0.101714  0.782144  1
  O  O156  1  0.935909  0.601714  0.717856  1
  O  O157  1  0.435909  0.398286  0.282144  1
  O  O158  1  0.064091  0.101714  0.782144  1
  O  O159  1  0.064824  0.064099  0.164512  1
