# generated using pymatgen
data_Li3Mn(PO4)2
_symmetry_space_group_name_H-M   'P 1'
_cell_length_a   4.83704995
_cell_length_b   18.35132563
_cell_length_c   7.86184268
_cell_angle_alpha   90.00000000
_cell_angle_beta   124.82082669
_cell_angle_gamma   90.00000000
_symmetry_Int_Tables_number   1
_chemical_formula_structural   Li3Mn(PO4)2
_chemical_formula_sum   'Li12 Mn4 P8 O32'
_cell_volume   572.90772853
_cell_formula_units_Z   4
loop_
 _symmetry_equiv_pos_site_id
 _symmetry_equiv_pos_as_xyz
  1  'x, y, z'
loop_
 _atom_site_type_symbol
 _atom_site_label
 _atom_site_symmetry_multiplicity
 _atom_site_fract_x
 _atom_site_fract_y
 _atom_site_fract_z
 _atom_site_occupancy
  Li  Li0  1  0.783439  0.121615  0.502775  1
  Li  Li1  1  0.477253  0.052890  0.710735  1
  Li  Li2  1  0.133810  0.198118  0.322967  1
  Li  Li3  1  0.133810  0.301882  0.822967  1
  Li  Li4  1  0.866190  0.801882  0.677033  1
  Li  Li5  1  0.216561  0.621615  0.997225  1
  Li  Li6  1  0.783439  0.378385  0.002775  1
  Li  Li7  1  0.866190  0.698118  0.177033  1
  Li  Li8  1  0.477253  0.447110  0.210735  1
  Li  Li9  1  0.216561  0.878385  0.497225  1
  Li  Li10  1  0.522747  0.552890  0.789265  1
  Li  Li11  1  0.522747  0.947110  0.289265  1
  Mn  Mn12  1  0.316991  0.126910  0.016924  1
  Mn  Mn13  1  0.316991  0.373090  0.516924  1
  Mn  Mn14  1  0.683009  0.626910  0.483076  1
  Mn  Mn15  1  0.683009  0.873090  0.983076  1
  P  P16  1  0.624839  0.287122  0.299541  1
  P  P17  1  0.375161  0.787122  0.200459  1
  P  P18  1  0.375161  0.712878  0.700459  1
  P  P19  1  0.992467  0.538485  0.269566  1
  P  P20  1  0.007533  0.038485  0.230434  1
  P  P21  1  0.007533  0.461515  0.730434  1
  P  P22  1  0.992467  0.961515  0.769566  1
  P  P23  1  0.624839  0.212878  0.799541  1
  O  O24  1  0.335382  0.703815  0.214880  1
  O  O25  1  0.664618  0.203815  0.285120  1
  O  O26  1  0.665924  0.802661  0.170029  1
  O  O27  1  0.944751  0.930642  0.575385  1
  O  O28  1  0.334076  0.302661  0.329971  1
  O  O29  1  0.668980  0.433528  0.532380  1
  O  O30  1  0.029177  0.953848  0.235693  1
  O  O31  1  0.335382  0.796185  0.714880  1
  O  O32  1  0.032897  0.686667  0.500307  1
  O  O33  1  0.687920  0.935369  0.778746  1
  O  O34  1  0.055249  0.430642  0.924615  1
  O  O35  1  0.312080  0.435369  0.721254  1
  O  O36  1  0.312080  0.064631  0.221254  1
  O  O37  1  0.967103  0.186667  0.999693  1
  O  O38  1  0.331020  0.933528  0.967620  1
  O  O39  1  0.032897  0.813333  0.000307  1
  O  O40  1  0.970823  0.046152  0.764307  1
  O  O41  1  0.687920  0.564631  0.278746  1
  O  O42  1  0.546545  0.328295  0.108634  1
  O  O43  1  0.664618  0.296185  0.785120  1
  O  O44  1  0.967103  0.313333  0.499693  1
  O  O45  1  0.944751  0.569358  0.075385  1
  O  O46  1  0.453455  0.828295  0.391366  1
  O  O47  1  0.334076  0.197339  0.829971  1
  O  O48  1  0.055249  0.069358  0.424615  1
  O  O49  1  0.029177  0.546152  0.735693  1
  O  O50  1  0.453455  0.671705  0.891366  1
  O  O51  1  0.668980  0.066472  0.032380  1
  O  O52  1  0.970823  0.453848  0.264307  1
  O  O53  1  0.546545  0.171705  0.608634  1
  O  O54  1  0.665924  0.697339  0.670029  1
  O  O55  1  0.331020  0.566472  0.467620  1
