# generated using pymatgen
data_Si2CN4
_symmetry_space_group_name_H-M   'P 1'
_cell_length_a   7.41905999
_cell_length_b   7.41905999
_cell_length_c   5.52074500
_cell_angle_alpha   90.00000000
_cell_angle_beta   90.00000000
_cell_angle_gamma   141.52742063
_symmetry_Int_Tables_number   1
_chemical_formula_structural   Si2CN4
_chemical_formula_sum   'Si4 C2 N8'
_cell_volume   189.05300970
_cell_formula_units_Z   2
loop_
 _symmetry_equiv_pos_site_id
 _symmetry_equiv_pos_as_xyz
  1  'x, y, z'
loop_
 _atom_site_type_symbol
 _atom_site_label
 _atom_site_symmetry_multiplicity
 _atom_site_fract_x
 _atom_site_fract_y
 _atom_site_fract_z
 _atom_site_occupancy
  Si  Si0  1  0.637478  0.232693  0.597401  1
  Si  Si1  1  0.232693  0.637478  0.402599  1
  Si  Si2  1  0.137478  0.732693  0.902599  1
  Si  Si3  1  0.732693  0.137478  0.097401  1
  C  C4  1  0.483641  0.483641  0.500000  1
  C  C5  1  0.983641  0.983641  1.000000  1
  N  N6  1  0.575101  0.403952  0.530788  1
  N  N7  1  0.403952  0.575101  0.469212  1
  N  N8  1  0.817988  0.361148  0.873936  1
  N  N9  1  0.361148  0.817988  0.126064  1
  N  N10  1  0.317988  0.861148  0.626064  1
  N  N11  1  0.861148  0.317988  0.373936  1
  N  N12  1  0.903952  0.075101  0.030788  1
  N  N13  1  0.075101  0.903952  0.969212  1
