# generated using pymatgen
data_Y2SiO5
_symmetry_space_group_name_H-M   'P 1'
_cell_length_a   8.04429081
_cell_length_b   8.04429081
_cell_length_c   10.55696856
_cell_angle_alpha   61.21774607
_cell_angle_beta   118.78225393
_cell_angle_gamma   129.71646961
_symmetry_Int_Tables_number   1
_chemical_formula_structural   Y2SiO5
_chemical_formula_sum   'Y8 Si4 O20'
_cell_volume   444.99641346
_cell_formula_units_Z   4
loop_
 _symmetry_equiv_pos_site_id
 _symmetry_equiv_pos_as_xyz
  1  'x, y, z'
loop_
 _atom_site_type_symbol
 _atom_site_label
 _atom_site_symmetry_multiplicity
 _atom_site_fract_x
 _atom_site_fract_y
 _atom_site_fract_z
 _atom_site_occupancy
  Y  Y0  1  0.781253  0.707335  0.967598  1
  Y  Y1  1  0.707335  0.781253  0.532402  1
  Y  Y2  1  0.218747  0.292665  0.032402  1
  Y  Y3  1  0.292665  0.218747  0.467598  1
  Y  Y4  1  0.239312  0.524593  0.662512  1
  Y  Y5  1  0.524593  0.239312  0.837488  1
  Y  Y6  1  0.760688  0.475407  0.337488  1
  Y  Y7  1  0.475407  0.760688  0.162512  1
  Si  Si8  1  0.728118  0.091668  0.694322  1
  Si  Si9  1  0.091668  0.728118  0.805678  1
  Si  Si10  1  0.271882  0.908332  0.305678  1
  Si  Si11  1  0.908332  0.271882  0.194322  1
  O  O12  1  0.422872  0.389542  0.895776  1
  O  O13  1  0.389542  0.422872  0.604224  1
  O  O14  1  0.577128  0.610458  0.104224  1
  O  O15  1  0.610458  0.577128  0.395776  1
  O  O16  1  0.871811  0.274173  0.568042  1
  O  O17  1  0.274173  0.871811  0.931958  1
  O  O18  1  0.128189  0.725827  0.431958  1
  O  O19  1  0.725827  0.128189  0.068042  1
  O  O20  1  0.554943  0.149005  0.676306  1
  O  O21  1  0.149005  0.554943  0.823694  1
  O  O22  1  0.445057  0.850995  0.323694  1
  O  O23  1  0.850995  0.445057  0.176306  1
  O  O24  1  0.162948  0.404146  0.175775  1
  O  O25  1  0.404146  0.162948  0.324225  1
  O  O26  1  0.837052  0.595854  0.824225  1
  O  O27  1  0.595854  0.837052  0.675775  1
  O  O28  1  0.918441  0.099845  0.362435  1
  O  O29  1  0.099845  0.918441  0.137565  1
  O  O30  1  0.081559  0.900155  0.637565  1
  O  O31  1  0.900155  0.081559  0.862435  1
