# generated using pymatgen
data_MgPSe3
_symmetry_space_group_name_H-M   'P 1'
_cell_length_a   8.35469097
_cell_length_b   8.35469097
_cell_length_c   8.35469097
_cell_angle_alpha   45.47503622
_cell_angle_beta   45.47503622
_cell_angle_gamma   45.47503622
_symmetry_Int_Tables_number   1
_chemical_formula_structural   MgPSe3
_chemical_formula_sum   'Mg2 P2 Se6'
_cell_volume   270.06544518
_cell_formula_units_Z   2
loop_
 _symmetry_equiv_pos_site_id
 _symmetry_equiv_pos_as_xyz
  1  'x, y, z'
loop_
 _atom_site_type_symbol
 _atom_site_label
 _atom_site_symmetry_multiplicity
 _atom_site_fract_x
 _atom_site_fract_y
 _atom_site_fract_z
 _atom_site_occupancy
  Mg  Mg0  1  0.832687  0.832687  0.832687  1
  Mg  Mg1  1  0.167313  0.167313  0.167313  1
  P  P2  1  0.549905  0.549905  0.549905  1
  P  P3  1  0.450095  0.450095  0.450095  1
  Se  Se4  1  0.246443  0.905875  0.579764  1
  Se  Se5  1  0.579764  0.246443  0.905875  1
  Se  Se6  1  0.905875  0.579764  0.246443  1
  Se  Se7  1  0.753557  0.094125  0.420236  1
  Se  Se8  1  0.420236  0.753557  0.094125  1
  Se  Se9  1  0.094125  0.420236  0.753557  1
