# generated using pymatgen
data_NaYF4
_symmetry_space_group_name_H-M   'P 1'
_cell_length_a   6.07675036
_cell_length_b   6.07675036
_cell_length_c   7.09244930
_cell_angle_alpha   90.00000000
_cell_angle_beta   90.00000000
_cell_angle_gamma   120.00000000
_symmetry_Int_Tables_number   1
_chemical_formula_structural   NaYF4
_chemical_formula_sum   'Na3 Y3 F12'
_cell_volume   226.81389773
_cell_formula_units_Z   3
loop_
 _symmetry_equiv_pos_site_id
 _symmetry_equiv_pos_as_xyz
  1  'x, y, z'
loop_
 _atom_site_type_symbol
 _atom_site_label
 _atom_site_symmetry_multiplicity
 _atom_site_fract_x
 _atom_site_fract_y
 _atom_site_fract_z
 _atom_site_occupancy
  Na  Na0  1  0.000000  0.000000  0.391670  1
  Na  Na1  1  0.000000  0.000000  0.820974  1
  Na  Na2  1  0.666667  0.333333  0.617991  1
  Y  Y3  1  0.333333  0.666667  0.371799  1
  Y  Y4  1  0.333333  0.666667  0.865009  1
  Y  Y5  1  0.666667  0.333333  0.117716  1
  F  F6  1  0.088226  0.694297  0.118641  1
  F  F7  1  0.108985  0.724205  0.617957  1
  F  F8  1  0.305703  0.393929  0.118641  1
  F  F9  1  0.275795  0.384780  0.617957  1
  F  F10  1  0.606071  0.911774  0.118641  1
  F  F11  1  0.615220  0.891015  0.617957  1
  F  F12  1  0.398749  0.073662  0.353706  1
  F  F13  1  0.397598  0.073211  0.882643  1
  F  F14  1  0.674914  0.601251  0.353706  1
  F  F15  1  0.675613  0.602402  0.882643  1
  F  F16  1  0.926338  0.325086  0.353706  1
  F  F17  1  0.926789  0.324387  0.882643  1
