# generated using pymatgen
data_Zn3GaB6PO12
_symmetry_space_group_name_H-M   'P 1'
_cell_length_a   6.67920467
_cell_length_b   6.67920467
_cell_length_c   6.67920467
_cell_angle_alpha   109.55950929
_cell_angle_beta   109.55950929
_cell_angle_gamma   109.55950929
_symmetry_Int_Tables_number   1
_chemical_formula_structural   Zn3GaB6PO12
_chemical_formula_sum   'Zn3 Ga1 B6 P1 O12'
_cell_volume   228.62545234
_cell_formula_units_Z   1
loop_
 _symmetry_equiv_pos_site_id
 _symmetry_equiv_pos_as_xyz
  1  'x, y, z'
loop_
 _atom_site_type_symbol
 _atom_site_label
 _atom_site_symmetry_multiplicity
 _atom_site_fract_x
 _atom_site_fract_y
 _atom_site_fract_z
 _atom_site_occupancy
  Zn  Zn0  1  0.333757  0.999669  0.999669  1
  Zn  Zn1  1  0.999669  0.333757  0.999669  1
  Zn  Zn2  1  0.999669  0.999669  0.333757  1
  Ga  Ga3  1  0.652835  0.652835  0.652835  1
  B  B4  1  0.502716  0.248720  0.750767  1
  B  B5  1  0.750767  0.248720  0.502716  1
  B  B6  1  0.248720  0.502716  0.750767  1
  B  B7  1  0.750767  0.502716  0.248720  1
  B  B8  1  0.248720  0.750767  0.502716  1
  B  B9  1  0.502716  0.750767  0.248720  1
  P  P10  1  0.992290  0.992290  0.992290  1
  O  O11  1  0.286591  0.000400  0.569880  1
  O  O12  1  0.431046  0.431046  0.707356  1
  O  O13  1  0.720213  0.293757  0.720213  1
  O  O14  1  0.569880  0.286591  0.000400  1
  O  O15  1  0.000400  0.286591  0.569880  1
  O  O16  1  0.707356  0.431046  0.431046  1
  O  O17  1  0.720213  0.720213  0.293757  1
  O  O18  1  0.286591  0.569880  0.000400  1
  O  O19  1  0.000400  0.569880  0.286591  1
  O  O20  1  0.431046  0.707356  0.431046  1
  O  O21  1  0.293757  0.720213  0.720213  1
  O  O22  1  0.569880  0.000400  0.286591  1
