# generated using pymatgen
data_YOF
_symmetry_space_group_name_H-M   'P 1'
_cell_length_a   6.76075062
_cell_length_b   6.76075062
_cell_length_c   6.76075062
_cell_angle_alpha   32.95981056
_cell_angle_beta   32.95981056
_cell_angle_gamma   32.95981056
_symmetry_Int_Tables_number   1
_chemical_formula_structural   YOF
_chemical_formula_sum   'Y2 O2 F2'
_cell_volume   81.39225091
_cell_formula_units_Z   2
loop_
 _symmetry_equiv_pos_site_id
 _symmetry_equiv_pos_as_xyz
  1  'x, y, z'
loop_
 _atom_site_type_symbol
 _atom_site_label
 _atom_site_symmetry_multiplicity
 _atom_site_fract_x
 _atom_site_fract_y
 _atom_site_fract_z
 _atom_site_occupancy
  Y  Y0  1  0.259035  0.259035  0.259035  1
  Y  Y1  1  0.740965  0.740965  0.740965  1
  O  O2  1  0.378345  0.378345  0.378345  1
  O  O3  1  0.621655  0.621655  0.621655  1
  F  F4  1  0.869931  0.869931  0.869931  1
  F  F5  1  0.130069  0.130069  0.130069  1
