# generated using pymatgen
data_AuSO4
_symmetry_space_group_name_H-M   'P 1'
_cell_length_a   8.53191028
_cell_length_b   8.79132091
_cell_length_c   10.59780812
_cell_angle_alpha   90.00000000
_cell_angle_beta   90.00000000
_cell_angle_gamma   90.00000000
_symmetry_Int_Tables_number   1
_chemical_formula_structural   AuSO4
_chemical_formula_sum   'Au8 S8 O32'
_cell_volume   794.90726340
_cell_formula_units_Z   8
loop_
 _symmetry_equiv_pos_site_id
 _symmetry_equiv_pos_as_xyz
  1  'x, y, z'
loop_
 _atom_site_type_symbol
 _atom_site_label
 _atom_site_symmetry_multiplicity
 _atom_site_fract_x
 _atom_site_fract_y
 _atom_site_fract_z
 _atom_site_occupancy
  Au  Au0  1  0.946437  0.366199  0.015900  1
  Au  Au1  1  0.446437  0.633801  0.484100  1
  Au  Au2  1  0.553563  0.866199  0.984100  1
  Au  Au3  1  0.053563  0.133801  0.515900  1
  Au  Au4  1  0.053563  0.633801  0.984100  1
  Au  Au5  1  0.553563  0.366199  0.515900  1
  Au  Au6  1  0.446437  0.133801  0.015900  1
  Au  Au7  1  0.946437  0.866199  0.484100  1
  S  S8  1  0.230396  0.421206  0.638338  1
  S  S9  1  0.730395  0.578794  0.861662  1
  S  S10  1  0.269605  0.921206  0.361662  1
  S  S11  1  0.769605  0.078794  0.138338  1
  S  S12  1  0.769605  0.578794  0.361662  1
  S  S13  1  0.269605  0.421206  0.138338  1
  S  S14  1  0.730395  0.078794  0.638338  1
  S  S15  1  0.230396  0.921206  0.861662  1
  O  O16  1  0.363710  0.367160  0.027291  1
  O  O17  1  0.863710  0.632840  0.472709  1
  O  O18  1  0.136290  0.867160  0.972709  1
  O  O19  1  0.636290  0.132840  0.527291  1
  O  O20  1  0.636290  0.632840  0.972709  1
  O  O21  1  0.136290  0.367160  0.527291  1
  O  O22  1  0.863710  0.132840  0.027291  1
  O  O23  1  0.363710  0.867160  0.472709  1
  O  O24  1  0.771782  0.412420  0.890119  1
  O  O25  1  0.271782  0.587580  0.609881  1
  O  O26  1  0.728218  0.912420  0.109881  1
  O  O27  1  0.228218  0.087580  0.390119  1
  O  O28  1  0.228218  0.587580  0.109881  1
  O  O29  1  0.728218  0.412420  0.390119  1
  O  O30  1  0.271782  0.087580  0.890119  1
  O  O31  1  0.771782  0.912420  0.609881  1
  O  O32  1  0.151988  0.912918  0.742161  1
  O  O33  1  0.651988  0.087082  0.757839  1
  O  O34  1  0.348012  0.412918  0.257839  1
  O  O35  1  0.848012  0.587082  0.242161  1
  O  O36  1  0.848012  0.087082  0.257839  1
  O  O37  1  0.348012  0.912918  0.242161  1
  O  O38  1  0.651988  0.587082  0.742161  1
  O  O39  1  0.151988  0.412918  0.757839  1
  O  O40  1  0.117288  0.827617  0.353507  1
  O  O41  1  0.617288  0.172383  0.146493  1
  O  O42  1  0.382712  0.327617  0.646493  1
  O  O43  1  0.882712  0.672383  0.853507  1
  O  O44  1  0.882712  0.172383  0.646493  1
  O  O45  1  0.382712  0.827617  0.853507  1
  O  O46  1  0.617288  0.672383  0.353507  1
  O  O47  1  0.117288  0.327617  0.146493  1
