# generated using pymatgen
data_TbScO3
_symmetry_space_group_name_H-M   'P 1'
_cell_length_a   5.47333836
_cell_length_b   5.76330385
_cell_length_c   7.99952716
_cell_angle_alpha   90.00000000
_cell_angle_beta   90.00000000
_cell_angle_gamma   90.00000000
_symmetry_Int_Tables_number   1
_chemical_formula_structural   TbScO3
_chemical_formula_sum   'Tb4 Sc4 O12'
_cell_volume   252.34118083
_cell_formula_units_Z   4
loop_
 _symmetry_equiv_pos_site_id
 _symmetry_equiv_pos_as_xyz
  1  'x, y, z'
loop_
 _atom_site_type_symbol
 _atom_site_label
 _atom_site_symmetry_multiplicity
 _atom_site_fract_x
 _atom_site_fract_y
 _atom_site_fract_z
 _atom_site_occupancy
  Tb  Tb0  1  0.980133  0.062008  0.750000  1
  Tb  Tb1  1  0.480133  0.437992  0.250000  1
  Tb  Tb2  1  0.519867  0.562008  0.750000  1
  Tb  Tb3  1  0.019867  0.937992  0.250000  1
  Sc  Sc4  1  0.000000  0.500000  0.500000  1
  Sc  Sc5  1  0.500000  0.000000  0.500000  1
  Sc  Sc6  1  0.500000  0.000000  0.000000  1
  Sc  Sc7  1  0.000000  0.500000  0.000000  1
  O  O8  1  0.692011  0.305585  0.567275  1
  O  O9  1  0.192011  0.194415  0.432725  1
  O  O10  1  0.807989  0.805585  0.932725  1
  O  O11  1  0.307989  0.694415  0.067275  1
  O  O12  1  0.307989  0.694415  0.432725  1
  O  O13  1  0.807989  0.805585  0.567275  1
  O  O14  1  0.192011  0.194415  0.067275  1
  O  O15  1  0.692011  0.305585  0.932725  1
  O  O16  1  0.871692  0.555109  0.250000  1
  O  O17  1  0.371692  0.944891  0.750000  1
  O  O18  1  0.628308  0.055109  0.250000  1
  O  O19  1  0.128308  0.444891  0.750000  1
