# generated using pymatgen
data_KAuS5
_symmetry_space_group_name_H-M   'P 1'
_cell_length_a   10.60600140
_cell_length_b   10.60600140
_cell_length_c   10.60600140
_cell_angle_alpha   129.97678761
_cell_angle_beta   117.36350399
_cell_angle_gamma   84.13923374
_symmetry_Int_Tables_number   1
_chemical_formula_structural   KAuS5
_chemical_formula_sum   'K4 Au4 S20'
_cell_volume   778.53579696
_cell_formula_units_Z   4
loop_
 _symmetry_equiv_pos_site_id
 _symmetry_equiv_pos_as_xyz
  1  'x, y, z'
loop_
 _atom_site_type_symbol
 _atom_site_label
 _atom_site_symmetry_multiplicity
 _atom_site_fract_x
 _atom_site_fract_y
 _atom_site_fract_z
 _atom_site_occupancy
  K  K0  1  0.250000  0.250000  0.000000  1
  K  K1  1  0.750000  0.750000  0.000000  1
  K  K2  1  0.000000  0.500000  0.500000  1
  K  K3  1  0.500000  0.000000  0.500000  1
  Au  Au4  1  0.613134  0.250000  0.363134  1
  Au  Au5  1  0.886866  0.250000  0.636866  1
  Au  Au6  1  0.386866  0.750000  0.636866  1
  Au  Au7  1  0.113134  0.750000  0.363134  1
  S  S8  1  0.791023  0.812261  0.388971  1
  S  S9  1  0.708977  0.097948  0.021238  1
  S  S10  1  0.076710  0.687739  0.978762  1
  S  S11  1  0.423290  0.402052  0.611029  1
  S  S12  1  0.208977  0.187739  0.611029  1
  S  S13  1  0.291023  0.902052  0.978762  1
  S  S14  1  0.923290  0.312261  0.021238  1
  S  S15  1  0.576710  0.597948  0.388971  1
  S  S16  1  0.711530  0.542048  0.554666  1
  S  S17  1  0.788470  0.343136  0.830518  1
  S  S18  1  0.512618  0.957952  0.169482  1
  S  S19  1  0.987382  0.156864  0.445334  1
  S  S20  1  0.288470  0.457952  0.445334  1
  S  S21  1  0.211530  0.656864  0.169482  1
  S  S22  1  0.487382  0.042048  0.830518  1
  S  S23  1  0.012618  0.843136  0.554666  1
  S  S24  1  0.662831  0.572826  0.235658  1
  S  S25  1  0.837169  0.072826  0.909995  1
  S  S26  1  0.162831  0.927174  0.090005  1
  S  S27  1  0.337169  0.427174  0.764342  1
