# generated using pymatgen
data_LiMnPO4
_symmetry_space_group_name_H-M   'P 1'
_cell_length_a   7.58901526
_cell_length_b   7.58901526
_cell_length_c   9.69966192
_cell_angle_alpha   90.00000000
_cell_angle_beta   90.00000000
_cell_angle_gamma   120.00000000
_symmetry_Int_Tables_number   1
_chemical_formula_structural   LiMnPO4
_chemical_formula_sum   'Li6 Mn6 P6 O24'
_cell_volume   483.79133021
_cell_formula_units_Z   6
loop_
 _symmetry_equiv_pos_site_id
 _symmetry_equiv_pos_as_xyz
  1  'x, y, z'
loop_
 _atom_site_type_symbol
 _atom_site_label
 _atom_site_symmetry_multiplicity
 _atom_site_fract_x
 _atom_site_fract_y
 _atom_site_fract_z
 _atom_site_occupancy
  Li  Li0  1  0.205217  0.955439  0.259830  1
  Li  Li1  1  0.044561  0.249778  0.259830  1
  Li  Li2  1  0.249778  0.044561  0.759830  1
  Li  Li3  1  0.750222  0.794783  0.259830  1
  Li  Li4  1  0.794783  0.750222  0.759830  1
  Li  Li5  1  0.955439  0.205217  0.759830  1
  Mn  Mn6  1  0.042230  0.580919  0.485677  1
  Mn  Mn7  1  0.538690  0.957770  0.485677  1
  Mn  Mn8  1  0.419081  0.461310  0.485677  1
  Mn  Mn9  1  0.461310  0.419081  0.985677  1
  Mn  Mn10  1  0.580919  0.042230  0.985677  1
  Mn  Mn11  1  0.957770  0.538690  0.985677  1
  P  P12  1  0.333333  0.666667  0.775069  1
  P  P13  1  0.000000  0.000000  0.005458  1
  P  P14  1  0.333333  0.666667  0.189687  1
  P  P15  1  0.666667  0.333333  0.689687  1
  P  P16  1  0.666667  0.333333  0.275069  1
  P  P17  1  0.000000  0.000000  0.505458  1
  O  O18  1  0.097637  0.876120  0.448511  1
  O  O19  1  0.179013  0.728833  0.137677  1
  O  O20  1  0.122831  0.496070  0.824413  1
  O  O21  1  0.373239  0.877169  0.824413  1
  O  O22  1  0.333333  0.666667  0.611266  1
  O  O23  1  0.333333  0.666667  0.352257  1
  O  O24  1  0.000000  0.000000  0.165015  1
  O  O25  1  0.123880  0.221516  0.448511  1
  O  O26  1  0.271167  0.450180  0.137677  1
  O  O27  1  0.549820  0.820987  0.137677  1
  O  O28  1  0.221516  0.123880  0.948511  1
  O  O29  1  0.503930  0.626761  0.824413  1
  O  O30  1  0.450180  0.271167  0.637677  1
  O  O31  1  0.778484  0.902363  0.448511  1
  O  O32  1  0.626761  0.503930  0.324413  1
  O  O33  1  0.496070  0.122831  0.324413  1
  O  O34  1  0.000000  0.000000  0.665015  1
  O  O35  1  0.666667  0.333333  0.852257  1
  O  O36  1  0.666667  0.333333  0.111266  1
  O  O37  1  0.902363  0.778484  0.948511  1
  O  O38  1  0.820987  0.549820  0.637677  1
  O  O39  1  0.728833  0.179013  0.637677  1
  O  O40  1  0.877169  0.373239  0.324413  1
  O  O41  1  0.876120  0.097637  0.948511  1
