# generated using pymatgen
data_Cs2TiS3
_symmetry_space_group_name_H-M   'P 1'
_cell_length_a   7.86388154
_cell_length_b   7.86388154
_cell_length_c   6.58854695
_cell_angle_alpha   90.00000000
_cell_angle_beta   90.00000000
_cell_angle_gamma   108.85475562
_symmetry_Int_Tables_number   1
_chemical_formula_structural   Cs2TiS3
_chemical_formula_sum   'Cs4 Ti2 S6'
_cell_volume   385.57703367
_cell_formula_units_Z   2
loop_
 _symmetry_equiv_pos_site_id
 _symmetry_equiv_pos_as_xyz
  1  'x, y, z'
loop_
 _atom_site_type_symbol
 _atom_site_label
 _atom_site_symmetry_multiplicity
 _atom_site_fract_x
 _atom_site_fract_y
 _atom_site_fract_z
 _atom_site_occupancy
  Cs  Cs0  1  0.317859  0.005418  0.250000  1
  Cs  Cs1  1  0.682141  0.994582  0.750000  1
  Cs  Cs2  1  0.994582  0.682141  0.750000  1
  Cs  Cs3  1  0.005418  0.317859  0.250000  1
  Ti  Ti4  1  0.421798  0.421798  0.750000  1
  Ti  Ti5  1  0.578202  0.578202  0.250000  1
  S  S6  1  0.626470  0.373530  0.500000  1
  S  S7  1  0.373530  0.626470  0.000000  1
  S  S8  1  0.176893  0.176893  0.750000  1
  S  S9  1  0.823107  0.823107  0.250000  1
  S  S10  1  0.626470  0.373530  0.000000  1
  S  S11  1  0.373530  0.626470  0.500000  1
