# generated using pymatgen
data_LiMn4(PO4)3
_symmetry_space_group_name_H-M   'P 1'
_cell_length_a   9.78599132
_cell_length_b   9.78599132
_cell_length_c   9.78599132
_cell_angle_alpha   52.51438994
_cell_angle_beta   52.51438994
_cell_angle_gamma   52.51438994
_symmetry_Int_Tables_number   1
_chemical_formula_structural   LiMn4(PO4)3
_chemical_formula_sum   'Li2 Mn8 P6 O24'
_cell_volume   546.22592611
_cell_formula_units_Z   2
loop_
 _symmetry_equiv_pos_site_id
 _symmetry_equiv_pos_as_xyz
  1  'x, y, z'
loop_
 _atom_site_type_symbol
 _atom_site_label
 _atom_site_symmetry_multiplicity
 _atom_site_fract_x
 _atom_site_fract_y
 _atom_site_fract_z
 _atom_site_occupancy
  Li  Li0  1  0.042561  0.042561  0.042561  1
  Li  Li1  1  0.542561  0.542561  0.542561  1
  Mn  Mn2  1  0.255156  0.034311  0.669668  1
  Mn  Mn3  1  0.034311  0.669668  0.255156  1
  Mn  Mn4  1  0.211937  0.211937  0.211937  1
  Mn  Mn5  1  0.169668  0.534311  0.755156  1
  Mn  Mn6  1  0.669668  0.255156  0.034311  1
  Mn  Mn7  1  0.755156  0.169668  0.534311  1
  Mn  Mn8  1  0.534311  0.755156  0.169668  1
  Mn  Mn9  1  0.711937  0.711937  0.711937  1
  P  P10  1  0.323172  0.609866  0.916692  1
  P  P11  1  0.416692  0.109866  0.823172  1
  P  P12  1  0.109866  0.823172  0.416692  1
  P  P13  1  0.609866  0.916692  0.323172  1
  P  P14  1  0.916692  0.323172  0.609866  1
  P  P15  1  0.823172  0.416692  0.109866  1
  O  O16  1  0.110458  0.221593  0.483118  1
  O  O17  1  0.040478  0.025417  0.395993  1
  O  O18  1  0.025417  0.395993  0.040478  1
  O  O19  1  0.221593  0.483118  0.110458  1
  O  O20  1  0.483118  0.110458  0.221593  1
  O  O21  1  0.205492  0.807274  0.921905  1
  O  O22  1  0.395993  0.040478  0.025417  1
  O  O23  1  0.983118  0.721593  0.610458  1
  O  O24  1  0.256839  0.110369  0.827513  1
  O  O25  1  0.327513  0.610369  0.756839  1
  O  O26  1  0.525417  0.540478  0.895993  1
  O  O27  1  0.421905  0.307274  0.705492  1
  O  O28  1  0.110369  0.827513  0.256839  1
  O  O29  1  0.307274  0.705492  0.421905  1
  O  O30  1  0.540478  0.895993  0.525417  1
  O  O31  1  0.921905  0.205492  0.807274  1
  O  O32  1  0.756839  0.327513  0.610369  1
  O  O33  1  0.610369  0.756839  0.327513  1
  O  O34  1  0.895993  0.525417  0.540478  1
  O  O35  1  0.705492  0.421905  0.307274  1
  O  O36  1  0.807274  0.921905  0.205492  1
  O  O37  1  0.827513  0.256839  0.110369  1
  O  O38  1  0.721593  0.610458  0.983118  1
  O  O39  1  0.610458  0.983118  0.721593  1
