# generated using pymatgen
data_Ba3(CrS3)2
_symmetry_space_group_name_H-M   'P 1'
_cell_length_a   8.12930360
_cell_length_b   8.12930360
_cell_length_c   8.12930360
_cell_angle_alpha   94.48184390
_cell_angle_beta   94.48184390
_cell_angle_gamma   94.48184390
_symmetry_Int_Tables_number   1
_chemical_formula_structural   Ba3(CrS3)2
_chemical_formula_sum   'Ba6 Cr4 S12'
_cell_volume   532.02740616
_cell_formula_units_Z   2
loop_
 _symmetry_equiv_pos_site_id
 _symmetry_equiv_pos_as_xyz
  1  'x, y, z'
loop_
 _atom_site_type_symbol
 _atom_site_label
 _atom_site_symmetry_multiplicity
 _atom_site_fract_x
 _atom_site_fract_y
 _atom_site_fract_z
 _atom_site_occupancy
  Ba  Ba0  1  0.634996  0.865004  0.250000  1
  Ba  Ba1  1  0.250000  0.634996  0.865004  1
  Ba  Ba2  1  0.865004  0.250000  0.634996  1
  Ba  Ba3  1  0.365004  0.134996  0.750000  1
  Ba  Ba4  1  0.750000  0.365004  0.134996  1
  Ba  Ba5  1  0.134996  0.750000  0.365004  1
  Cr  Cr6  1  0.000000  0.000000  0.000000  1
  Cr  Cr7  1  0.500000  0.500000  0.500000  1
  Cr  Cr8  1  0.750000  0.750000  0.750000  1
  Cr  Cr9  1  0.250000  0.250000  0.250000  1
  S  S10  1  0.709554  0.017616  0.908681  1
  S  S11  1  0.908681  0.709554  0.017616  1
  S  S12  1  0.017616  0.908681  0.709554  1
  S  S13  1  0.591319  0.482384  0.790446  1
  S  S14  1  0.790446  0.591319  0.482384  1
  S  S15  1  0.482384  0.790446  0.591319  1
  S  S16  1  0.290446  0.982384  0.091319  1
  S  S17  1  0.091319  0.290446  0.982384  1
  S  S18  1  0.982384  0.091319  0.290446  1
  S  S19  1  0.408681  0.517616  0.209554  1
  S  S20  1  0.517616  0.209554  0.408681  1
  S  S21  1  0.209554  0.408681  0.517616  1
