# generated using pymatgen
data_SiO2
_symmetry_space_group_name_H-M   'P 1'
_cell_length_a   17.37160084
_cell_length_b   17.37160084
_cell_length_c   17.37160084
_cell_angle_alpha   60.00000000
_cell_angle_beta   60.00000000
_cell_angle_gamma   60.00000000
_symmetry_Int_Tables_number   1
_chemical_formula_structural   SiO2
_chemical_formula_sum   'Si48 O96'
_cell_volume   3706.84586065
_cell_formula_units_Z   48
loop_
 _symmetry_equiv_pos_site_id
 _symmetry_equiv_pos_as_xyz
  1  'x, y, z'
loop_
 _atom_site_type_symbol
 _atom_site_label
 _atom_site_symmetry_multiplicity
 _atom_site_fract_x
 _atom_site_fract_y
 _atom_site_fract_z
 _atom_site_occupancy
  Si  Si0  1  0.232334  0.768962  0.589493  1
  Si  Si1  1  0.409212  0.768962  0.589493  1
  Si  Si2  1  0.589493  0.768962  0.409212  1
  Si  Si3  1  0.232334  0.768962  0.409212  1
  Si  Si4  1  0.589493  0.768962  0.232334  1
  Si  Si5  1  0.409212  0.768962  0.232334  1
  Si  Si6  1  0.409212  0.232334  0.589493  1
  Si  Si7  1  0.768962  0.232334  0.589493  1
  Si  Si8  1  0.232334  0.409212  0.589493  1
  Si  Si9  1  0.768962  0.409212  0.589493  1
  Si  Si10  1  0.768962  0.232334  0.409212  1
  Si  Si11  1  0.589493  0.232334  0.409212  1
  Si  Si12  1  0.768962  0.409212  0.232334  1
  Si  Si13  1  0.589493  0.409212  0.232334  1
  Si  Si14  1  0.017666  0.660507  0.481038  1
  Si  Si15  1  0.840788  0.660507  0.481038  1
  Si  Si16  1  0.232334  0.589493  0.409212  1
  Si  Si17  1  0.768962  0.589493  0.409212  1
  Si  Si18  1  0.768962  0.589493  0.232334  1
  Si  Si19  1  0.409212  0.589493  0.232334  1
  Si  Si20  1  0.660507  0.840788  0.481038  1
  Si  Si21  1  0.017666  0.840788  0.481038  1
  Si  Si22  1  0.589493  0.232334  0.768962  1
  Si  Si23  1  0.409212  0.232334  0.768962  1
  Si  Si24  1  0.660507  0.017666  0.481038  1
  Si  Si25  1  0.840788  0.017666  0.481038  1
  Si  Si26  1  0.232334  0.409212  0.768962  1
  Si  Si27  1  0.589493  0.409212  0.768962  1
  Si  Si28  1  0.840788  0.660507  0.017666  1
  Si  Si29  1  0.481038  0.660507  0.017666  1
  Si  Si30  1  0.481038  0.660507  0.840788  1
  Si  Si31  1  0.017666  0.660507  0.840788  1
  Si  Si32  1  0.409212  0.589493  0.768962  1
  Si  Si33  1  0.232334  0.589493  0.768962  1
  Si  Si34  1  0.481038  0.840788  0.017666  1
  Si  Si35  1  0.660507  0.840788  0.017666  1
  Si  Si36  1  0.481038  0.017666  0.840788  1
  Si  Si37  1  0.660507  0.017666  0.840788  1
  Si  Si38  1  0.481038  0.840788  0.660507  1
  Si  Si39  1  0.017666  0.840788  0.660507  1
  Si  Si40  1  0.481038  0.017666  0.660507  1
  Si  Si41  1  0.840788  0.017666  0.660507  1
  Si  Si42  1  0.840788  0.481038  0.017666  1
  Si  Si43  1  0.660507  0.481038  0.017666  1
  Si  Si44  1  0.017666  0.481038  0.840788  1
  Si  Si45  1  0.660507  0.481038  0.840788  1
  Si  Si46  1  0.017666  0.481038  0.660507  1
  Si  Si47  1  0.840788  0.481038  0.660507  1
  O  O48  1  0.765963  0.990634  0.477441  1
  O  O49  1  0.411427  0.625000  0.125000  1
  O  O50  1  0.484037  0.772559  0.259366  1
  O  O51  1  0.625000  0.838573  0.125000  1
  O  O52  1  0.411427  0.838573  0.625000  1
  O  O53  1  0.838573  0.625000  0.411427  1
  O  O54  1  0.477441  0.990634  0.765963  1
  O  O55  1  0.765963  0.990634  0.765963  1
  O  O56  1  0.589573  0.008184  0.589573  1
  O  O57  1  0.812669  0.008184  0.589573  1
  O  O58  1  0.125000  0.838573  0.411427  1
  O  O59  1  0.838573  0.125000  0.625000  1
  O  O60  1  0.625000  0.125000  0.411427  1
  O  O61  1  0.589573  0.812669  0.589573  1
  O  O62  1  0.660427  0.660427  0.437331  1
  O  O63  1  0.241816  0.660427  0.437331  1
  O  O64  1  0.008184  0.812669  0.589573  1
  O  O65  1  0.772559  0.484037  0.259366  1
  O  O66  1  0.484037  0.484037  0.259366  1
  O  O67  1  0.838573  0.411427  0.125000  1
  O  O68  1  0.765963  0.765963  0.477441  1
  O  O69  1  0.259366  0.772559  0.484037  1
  O  O70  1  0.484037  0.772559  0.484037  1
  O  O71  1  0.990634  0.765963  0.477441  1
  O  O72  1  0.437331  0.660427  0.241816  1
  O  O73  1  0.660427  0.660427  0.241816  1
  O  O74  1  0.625000  0.838573  0.411427  1
  O  O75  1  0.946482  0.661541  0.946482  1
  O  O76  1  0.445495  0.661541  0.946482  1
  O  O77  1  0.125000  0.411427  0.625000  1
  O  O78  1  0.125000  0.625000  0.838573  1
  O  O79  1  0.589573  0.008184  0.812669  1
  O  O80  1  0.946482  0.661541  0.445495  1
  O  O81  1  0.411427  0.125000  0.838573  1
  O  O82  1  0.946482  0.445495  0.946482  1
  O  O83  1  0.303518  0.303518  0.804505  1
  O  O84  1  0.588459  0.303518  0.804505  1
  O  O85  1  0.661541  0.445495  0.946482  1
  O  O86  1  0.838573  0.125000  0.411427  1
  O  O87  1  0.804505  0.303518  0.588459  1
  O  O88  1  0.303518  0.303518  0.588459  1
  O  O89  1  0.303518  0.588459  0.804505  1
  O  O90  1  0.660427  0.241816  0.437331  1
  O  O91  1  0.437331  0.660427  0.660427  1
  O  O92  1  0.241816  0.660427  0.660427  1
  O  O93  1  0.477441  0.765963  0.765963  1
  O  O94  1  0.804505  0.303518  0.303518  1
  O  O95  1  0.588459  0.303518  0.303518  1
  O  O96  1  0.990634  0.765963  0.765963  1
  O  O97  1  0.259366  0.484037  0.484037  1
  O  O98  1  0.445495  0.946482  0.946482  1
  O  O99  1  0.661541  0.946482  0.946482  1
  O  O100  1  0.008184  0.589573  0.589573  1
  O  O101  1  0.772559  0.484037  0.484037  1
  O  O102  1  0.812669  0.589573  0.589573  1
  O  O103  1  0.660427  0.437331  0.241816  1
  O  O104  1  0.125000  0.625000  0.411427  1
  O  O105  1  0.125000  0.838573  0.625000  1
  O  O106  1  0.303518  0.804505  0.588459  1
  O  O107  1  0.804505  0.588459  0.303518  1
  O  O108  1  0.303518  0.588459  0.303518  1
  O  O109  1  0.588459  0.804505  0.303518  1
  O  O110  1  0.946482  0.946482  0.445495  1
  O  O111  1  0.661541  0.946482  0.445495  1
  O  O112  1  0.303518  0.804505  0.303518  1
  O  O113  1  0.625000  0.411427  0.838573  1
  O  O114  1  0.411427  0.838573  0.125000  1
  O  O115  1  0.946482  0.445495  0.661541  1
  O  O116  1  0.589573  0.812669  0.008184  1
  O  O117  1  0.946482  0.946482  0.661541  1
  O  O118  1  0.445495  0.946482  0.661541  1
  O  O119  1  0.625000  0.125000  0.838573  1
  O  O120  1  0.411427  0.125000  0.625000  1
  O  O121  1  0.125000  0.411427  0.838573  1
  O  O122  1  0.437331  0.241816  0.660427  1
  O  O123  1  0.660427  0.241816  0.660427  1
  O  O124  1  0.765963  0.477441  0.765963  1
  O  O125  1  0.990634  0.477441  0.765963  1
  O  O126  1  0.259366  0.484037  0.772559  1
  O  O127  1  0.484037  0.484037  0.772559  1
  O  O128  1  0.484037  0.259366  0.484037  1
  O  O129  1  0.772559  0.259366  0.484037  1
  O  O130  1  0.589573  0.589573  0.812669  1
  O  O131  1  0.241816  0.437331  0.660427  1
  O  O132  1  0.008184  0.589573  0.812669  1
  O  O133  1  0.660427  0.437331  0.660427  1
  O  O134  1  0.411427  0.625000  0.838573  1
  O  O135  1  0.838573  0.411427  0.625000  1
  O  O136  1  0.625000  0.411427  0.125000  1
  O  O137  1  0.838573  0.625000  0.125000  1
  O  O138  1  0.812669  0.589573  0.008184  1
  O  O139  1  0.589573  0.589573  0.008184  1
  O  O140  1  0.477441  0.765963  0.990634  1
  O  O141  1  0.765963  0.765963  0.990634  1
  O  O142  1  0.484037  0.259366  0.772559  1
  O  O143  1  0.765963  0.477441  0.990634  1
