# generated using pymatgen
data_Na3ZrF7
_symmetry_space_group_name_H-M   'P 1'
_cell_length_a   6.52319546
_cell_length_b   6.52319546
_cell_length_c   6.33845064
_cell_angle_alpha   50.58725498
_cell_angle_beta   129.41274502
_cell_angle_gamma   106.98353377
_symmetry_Int_Tables_number   1
_chemical_formula_structural   Na3ZrF7
_chemical_formula_sum   'Na3 Zr1 F7'
_cell_volume   158.18377392
_cell_formula_units_Z   1
loop_
 _symmetry_equiv_pos_site_id
 _symmetry_equiv_pos_as_xyz
  1  'x, y, z'
loop_
 _atom_site_type_symbol
 _atom_site_label
 _atom_site_symmetry_multiplicity
 _atom_site_fract_x
 _atom_site_fract_y
 _atom_site_fract_z
 _atom_site_occupancy
  Na  Na0  1  0.773410  0.760632  0.504064  1
  Na  Na1  1  0.492192  0.507808  0.017254  1
  Na  Na2  1  0.239368  0.226590  0.504064  1
  Zr  Zr3  1  0.951484  0.048516  0.932711  1
  F  F4  1  0.156049  0.843951  0.456725  1
  F  F5  1  0.642380  0.899008  0.983840  1
  F  F6  1  0.963999  0.669827  0.051967  1
  F  F7  1  0.100992  0.357620  0.983840  1
  F  F8  1  0.623622  0.376378  0.530222  1
  F  F9  1  0.330173  0.036001  0.051967  1
  F  F10  1  0.851332  0.148668  0.483346  1
