# generated using pymatgen
data_AsKrF7
_symmetry_space_group_name_H-M   'P 1'
_cell_length_a   5.38272060
_cell_length_b   10.46495286
_cell_length_c   11.09435973
_cell_angle_alpha   90.00000000
_cell_angle_beta   95.55759524
_cell_angle_gamma   90.00000000
_symmetry_Int_Tables_number   1
_chemical_formula_structural   AsKrF7
_chemical_formula_sum   'As4 Kr4 F28'
_cell_volume   622.00672071
_cell_formula_units_Z   4
loop_
 _symmetry_equiv_pos_site_id
 _symmetry_equiv_pos_as_xyz
  1  'x, y, z'
loop_
 _atom_site_type_symbol
 _atom_site_label
 _atom_site_symmetry_multiplicity
 _atom_site_fract_x
 _atom_site_fract_y
 _atom_site_fract_z
 _atom_site_occupancy
  As  As0  1  0.906765  0.987060  0.231218  1
  As  As1  1  0.093235  0.487060  0.268782  1
  As  As2  1  0.093235  0.012940  0.768782  1
  As  As3  1  0.906765  0.512940  0.731218  1
  Kr  Kr4  1  0.537059  0.221290  0.032947  1
  Kr  Kr5  1  0.462941  0.721290  0.467053  1
  Kr  Kr6  1  0.462941  0.778710  0.967053  1
  Kr  Kr7  1  0.537059  0.278710  0.532947  1
  F  F8  1  0.138101  0.093318  0.193144  1
  F  F9  1  0.861899  0.593318  0.306856  1
  F  F10  1  0.861899  0.906682  0.806856  1
  F  F11  1  0.138101  0.406682  0.693144  1
  F  F12  1  0.013313  0.873389  0.131892  1
  F  F13  1  0.986687  0.373389  0.368108  1
  F  F14  1  0.986687  0.126611  0.868108  1
  F  F15  1  0.013313  0.626611  0.631892  1
  F  F16  1  0.709573  0.452599  0.578540  1
  F  F17  1  0.290427  0.952599  0.921460  1
  F  F18  1  0.290427  0.547401  0.421460  1
  F  F19  1  0.709573  0.047401  0.078540  1
  F  F20  1  0.374669  0.129032  0.482785  1
  F  F21  1  0.625331  0.629032  0.017215  1
  F  F22  1  0.625331  0.870968  0.517215  1
  F  F23  1  0.374669  0.370968  0.982785  1
  F  F24  1  0.764083  0.388770  0.804262  1
  F  F25  1  0.235917  0.888770  0.695738  1
  F  F26  1  0.235917  0.611230  0.195738  1
  F  F27  1  0.764083  0.111230  0.304262  1
  F  F28  1  0.078137  0.572086  0.859694  1
  F  F29  1  0.921863  0.072086  0.640306  1
  F  F30  1  0.921863  0.427914  0.140306  1
  F  F31  1  0.078137  0.927914  0.359694  1
  F  F32  1  0.646126  0.610646  0.746054  1
  F  F33  1  0.353874  0.110646  0.753946  1
  F  F34  1  0.353874  0.389354  0.253946  1
  F  F35  1  0.646126  0.889354  0.246054  1
