# generated using pymatgen
data_ZnPS3
_symmetry_space_group_name_H-M   'P 1'
_cell_length_a   6.01046075
_cell_length_b   6.01046075
_cell_length_c   7.49258874
_cell_angle_alpha   82.38528912
_cell_angle_beta   97.61471088
_cell_angle_gamma   60.00355730
_symmetry_Int_Tables_number   1
_chemical_formula_structural   ZnPS3
_chemical_formula_sum   'Zn2 P2 S6'
_cell_volume   226.03808874
_cell_formula_units_Z   2
loop_
 _symmetry_equiv_pos_site_id
 _symmetry_equiv_pos_as_xyz
  1  'x, y, z'
loop_
 _atom_site_type_symbol
 _atom_site_label
 _atom_site_symmetry_multiplicity
 _atom_site_fract_x
 _atom_site_fract_y
 _atom_site_fract_z
 _atom_site_occupancy
  Zn  Zn0  1  0.333041  0.333041  0.000000  1
  Zn  Zn1  1  0.666959  0.666959  0.000000  1
  P  P2  1  0.949275  0.050725  0.846983  1
  P  P3  1  0.050725  0.949275  0.153017  1
  S  S4  1  0.926025  0.402891  0.776199  1
  S  S5  1  0.402891  0.926025  0.223801  1
  S  S6  1  0.745031  0.254969  0.223597  1
  S  S7  1  0.254969  0.745031  0.776403  1
  S  S8  1  0.073975  0.597109  0.223801  1
  S  S9  1  0.597109  0.073975  0.776199  1
