# generated using pymatgen
data_NaYO2
_symmetry_space_group_name_H-M   'P 1'
_cell_length_a   7.45361435
_cell_length_b   7.45361435
_cell_length_c   5.99629682
_cell_angle_alpha   75.96362056
_cell_angle_beta   104.03637944
_cell_angle_gamma   53.32926046
_symmetry_Int_Tables_number   1
_chemical_formula_structural   NaYO2
_chemical_formula_sum   'Na4 Y4 O8'
_cell_volume   224.81437247
_cell_formula_units_Z   4
loop_
 _symmetry_equiv_pos_site_id
 _symmetry_equiv_pos_as_xyz
  1  'x, y, z'
loop_
 _atom_site_type_symbol
 _atom_site_label
 _atom_site_symmetry_multiplicity
 _atom_site_fract_x
 _atom_site_fract_y
 _atom_site_fract_z
 _atom_site_occupancy
  Na  Na0  1  0.680820  0.680820  0.250000  1
  Na  Na1  1  0.444066  0.444066  0.250000  1
  Na  Na2  1  0.319180  0.319180  0.750000  1
  Na  Na3  1  0.555934  0.555934  0.750000  1
  Y  Y4  1  0.067040  0.067040  0.750000  1
  Y  Y5  1  0.932960  0.932960  0.250000  1
  Y  Y6  1  0.806817  0.806817  0.750000  1
  Y  Y7  1  0.193183  0.193183  0.250000  1
  O  O8  1  0.857650  0.269441  0.293720  1
  O  O9  1  0.269441  0.857650  0.206280  1
  O  O10  1  0.142350  0.730559  0.706280  1
  O  O11  1  0.730559  0.142350  0.793720  1
  O  O12  1  0.583231  0.040710  0.292003  1
  O  O13  1  0.959290  0.416769  0.792003  1
  O  O14  1  0.416769  0.959290  0.707997  1
  O  O15  1  0.040710  0.583231  0.207997  1
