# generated using pymatgen
data_MgSiN2
_symmetry_space_group_name_H-M   'P 1'
_cell_length_a   5.03054452
_cell_length_b   5.31004588
_cell_length_c   6.50364532
_cell_angle_alpha   90.00000000
_cell_angle_beta   90.00000000
_cell_angle_gamma   90.00000000
_symmetry_Int_Tables_number   1
_chemical_formula_structural   MgSiN2
_chemical_formula_sum   'Mg4 Si4 N8'
_cell_volume   173.72811964
_cell_formula_units_Z   4
loop_
 _symmetry_equiv_pos_site_id
 _symmetry_equiv_pos_as_xyz
  1  'x, y, z'
loop_
 _atom_site_type_symbol
 _atom_site_label
 _atom_site_symmetry_multiplicity
 _atom_site_fract_x
 _atom_site_fract_y
 _atom_site_fract_z
 _atom_site_occupancy
  Mg  Mg0  1  0.988576  0.584668  0.877199  1
  Mg  Mg1  1  0.488576  0.915332  0.377199  1
  Mg  Mg2  1  0.488576  0.415332  0.122801  1
  Mg  Mg3  1  0.988576  0.084668  0.622801  1
  Si  Si4  1  0.000067  0.069839  0.125446  1
  Si  Si5  1  0.500067  0.930161  0.874554  1
  Si  Si6  1  0.500067  0.430161  0.625446  1
  Si  Si7  1  0.000067  0.569839  0.374554  1
  N  N8  1  0.410800  0.609688  0.844182  1
  N  N9  1  0.910800  0.390312  0.155818  1
  N  N10  1  0.910800  0.890312  0.344182  1
  N  N11  1  0.410800  0.109688  0.655818  1
  N  N12  1  0.346577  0.548014  0.404881  1
  N  N13  1  0.346577  0.048014  0.095119  1
  N  N14  1  0.846577  0.951986  0.904881  1
  N  N15  1  0.846577  0.451986  0.595119  1
