# generated using pymatgen
data_Pr2Se3
_symmetry_space_group_name_H-M   'P 1'
_cell_length_a   14.92628306
_cell_length_b   14.92628306
_cell_length_c   14.92628306
_cell_angle_alpha   144.87027056
_cell_angle_beta   144.87027056
_cell_angle_gamma   50.52789285
_symmetry_Int_Tables_number   1
_chemical_formula_structural   Pr2Se3
_chemical_formula_sum   'Pr16 Se24'
_cell_volume   1095.59078349
_cell_formula_units_Z   8
loop_
 _symmetry_equiv_pos_site_id
 _symmetry_equiv_pos_as_xyz
  1  'x, y, z'
loop_
 _atom_site_type_symbol
 _atom_site_label
 _atom_site_symmetry_multiplicity
 _atom_site_fract_x
 _atom_site_fract_y
 _atom_site_fract_z
 _atom_site_occupancy
  Pr  Pr0  1  0.583346  0.083346  0.500000  1
  Pr  Pr1  1  0.375000  0.744686  0.869686  1
  Pr  Pr2  1  0.843998  0.952704  0.376455  1
  Pr  Pr3  1  0.166654  0.166654  0.000000  1
  Pr  Pr4  1  0.576249  0.467543  0.623545  1
  Pr  Pr5  1  0.875000  0.505314  0.130314  1
  Pr  Pr6  1  0.047296  0.423751  0.891295  1
  Pr  Pr7  1  0.494686  0.625000  0.369686  1
  Pr  Pr8  1  0.833346  0.833346  0.000000  1
  Pr  Pr9  1  0.255314  0.125000  0.630314  1
  Pr  Pr10  1  0.532457  0.156002  0.108705  1
  Pr  Pr11  1  0.916654  0.416654  0.500000  1
  Pr  Pr12  1  0.702704  0.093998  0.876455  1
  Pr  Pr13  1  0.173751  0.297296  0.391295  1
  Pr  Pr14  1  0.906002  0.782457  0.608705  1
  Pr  Pr15  1  0.217543  0.826249  0.123545  1
  Se  Se16  1  0.893086  0.140117  0.898877  1
  Se  Se17  1  0.529610  0.424147  0.746672  1
  Se  Se18  1  0.241240  0.994209  0.101123  1
  Se  Se19  1  0.508760  0.109883  0.252969  1
  Se  Se20  1  0.856914  0.255791  0.747031  1
  Se  Se21  1  0.677474  0.782938  0.253328  1
  Se  Se22  1  0.562551  0.814732  0.909081  1
  Se  Se23  1  0.072526  0.825853  0.605463  1
  Se  Se24  1  0.185268  0.094349  0.747820  1
  Se  Se25  1  0.905651  0.653470  0.090919  1
  Se  Se26  1  0.220390  0.467062  0.394537  1
  Se  Se27  1  0.174147  0.779610  0.246672  1
  Se  Se28  1  0.532938  0.927474  0.753328  1
  Se  Se29  1  0.346530  0.437449  0.252180  1
  Se  Se30  1  0.217062  0.470390  0.894537  1
  Se  Se31  1  0.744209  0.491240  0.601123  1
  Se  Se32  1  0.859883  0.758760  0.752969  1
  Se  Se33  1  0.575853  0.322526  0.105463  1
  Se  Se34  1  0.890117  0.143086  0.398877  1
  Se  Se35  1  0.844349  0.435268  0.247820  1
  Se  Se36  1  0.187449  0.596530  0.752180  1
  Se  Se37  1  0.005791  0.106914  0.247031  1
  Se  Se38  1  0.403470  0.155651  0.590919  1
  Se  Se39  1  0.564732  0.812551  0.409081  1
