# generated using pymatgen
data_As8S9
_symmetry_space_group_name_H-M   'P 1'
_cell_length_a   9.64053326
_cell_length_b   10.24247391
_cell_length_c   10.64344383
_cell_angle_alpha   90.00000000
_cell_angle_beta   101.22869051
_cell_angle_gamma   90.00000000
_symmetry_Int_Tables_number   1
_chemical_formula_structural   As8S9
_chemical_formula_sum   'As16 S18'
_cell_volume   1030.84681446
_cell_formula_units_Z   2
loop_
 _symmetry_equiv_pos_site_id
 _symmetry_equiv_pos_as_xyz
  1  'x, y, z'
loop_
 _atom_site_type_symbol
 _atom_site_label
 _atom_site_symmetry_multiplicity
 _atom_site_fract_x
 _atom_site_fract_y
 _atom_site_fract_z
 _atom_site_occupancy
  As  As0  1  0.181724  0.037439  0.382379  1
  As  As1  1  0.318276  0.037439  0.617621  1
  As  As2  1  0.818276  0.962561  0.617621  1
  As  As3  1  0.681724  0.962561  0.382379  1
  As  As4  1  0.428077  0.316436  0.439273  1
  As  As5  1  0.071923  0.316436  0.560727  1
  As  As6  1  0.571923  0.683564  0.560727  1
  As  As7  1  0.928077  0.683564  0.439273  1
  As  As8  1  0.847176  0.412391  0.158037  1
  As  As9  1  0.652824  0.412391  0.841963  1
  As  As10  1  0.152824  0.587609  0.841963  1
  As  As11  1  0.347176  0.587609  0.158037  1
  As  As12  1  0.935399  0.229363  0.017491  1
  As  As13  1  0.564601  0.229363  0.982509  1
  As  As14  1  0.064601  0.770637  0.982509  1
  As  As15  1  0.435399  0.770637  0.017491  1
  S  S16  1  0.996947  0.169529  0.400732  1
  S  S17  1  0.503053  0.169529  0.599268  1
  S  S18  1  0.003053  0.830471  0.599268  1
  S  S19  1  0.496947  0.830471  0.400732  1
  S  S20  1  0.250000  0.432847  0.500000  1
  S  S21  1  0.750000  0.567153  0.500000  1
  S  S22  1  0.322532  0.169063  0.291460  1
  S  S23  1  0.177468  0.169063  0.708540  1
  S  S24  1  0.677468  0.830937  0.708540  1
  S  S25  1  0.822532  0.830937  0.291460  1
  S  S26  1  0.638790  0.321254  0.176680  1
  S  S27  1  0.861210  0.321254  0.823320  1
  S  S28  1  0.361210  0.678746  0.823320  1
  S  S29  1  0.138790  0.678746  0.176680  1
  S  S30  1  0.750000  0.551108  0.000000  1
  S  S31  1  0.250000  0.448892  0.000000  1
  S  S32  1  0.250000  0.908774  0.000000  1
  S  S33  1  0.750000  0.091226  0.000000  1
