# generated using pymatgen
data_B2O3
_symmetry_space_group_name_H-M   'P 1'
_cell_length_a   4.40257519
_cell_length_b   4.40257519
_cell_length_c   8.81526782
_cell_angle_alpha   90.00000000
_cell_angle_beta   90.00000000
_cell_angle_gamma   120.00000000
_symmetry_Int_Tables_number   1
_chemical_formula_structural   B2O3
_chemical_formula_sum   'B6 O9'
_cell_volume   147.97205547
_cell_formula_units_Z   3
loop_
 _symmetry_equiv_pos_site_id
 _symmetry_equiv_pos_as_xyz
  1  'x, y, z'
loop_
 _atom_site_type_symbol
 _atom_site_label
 _atom_site_symmetry_multiplicity
 _atom_site_fract_x
 _atom_site_fract_y
 _atom_site_fract_z
 _atom_site_occupancy
  B  B0  1  0.782149  0.597246  0.775907  1
  B  B1  1  0.815098  0.217851  0.442574  1
  B  B2  1  0.402754  0.184902  0.109241  1
  B  B3  1  0.217851  0.815098  0.557426  1
  B  B4  1  0.597246  0.782149  0.224093  1
  B  B5  1  0.184902  0.402754  0.890759  1
  O  O6  1  0.124633  0.533824  0.462426  1
  O  O7  1  0.466176  0.590809  0.795760  1
  O  O8  1  0.409191  0.875367  0.129093  1
  O  O9  1  0.000000  0.821068  0.666667  1
  O  O10  1  0.821068  0.000000  0.333333  1
  O  O11  1  0.178932  0.178932  0.000000  1
  O  O12  1  0.533824  0.124633  0.537574  1
  O  O13  1  0.590809  0.466176  0.204240  1
  O  O14  1  0.875367  0.409191  0.870907  1
