# generated using pymatgen
data_Ag2S
_symmetry_space_group_name_H-M   'P 1'
_cell_length_a   4.26464050
_cell_length_b   4.26464050
_cell_length_c   7.58942180
_cell_angle_alpha   90.00000000
_cell_angle_beta   90.00000000
_cell_angle_gamma   111.82895163
_symmetry_Int_Tables_number   1
_chemical_formula_structural   Ag2S
_chemical_formula_sum   'Ag4 S2'
_cell_volume   128.13299746
_cell_formula_units_Z   2
loop_
 _symmetry_equiv_pos_site_id
 _symmetry_equiv_pos_as_xyz
  1  'x, y, z'
loop_
 _atom_site_type_symbol
 _atom_site_label
 _atom_site_symmetry_multiplicity
 _atom_site_fract_x
 _atom_site_fract_y
 _atom_site_fract_z
 _atom_site_occupancy
  Ag  Ag0  1  0.493457  0.506543  0.691216  1
  Ag  Ag1  1  0.506543  0.493457  0.191216  1
  Ag  Ag2  1  0.105995  0.894005  0.935349  1
  Ag  Ag3  1  0.894005  0.105995  0.435349  1
  S  S4  1  0.283290  0.716710  0.436182  1
  S  S5  1  0.716710  0.283290  0.936182  1
