# generated using pymatgen
data_LiCaN
_symmetry_space_group_name_H-M   'P 1'
_cell_length_a   3.67467384
_cell_length_b   5.55256336
_cell_length_c   8.50579550
_cell_angle_alpha   90.00000000
_cell_angle_beta   90.00000000
_cell_angle_gamma   90.00000000
_symmetry_Int_Tables_number   1
_chemical_formula_structural   LiCaN
_chemical_formula_sum   'Li4 Ca4 N4'
_cell_volume   173.55105482
_cell_formula_units_Z   4
loop_
 _symmetry_equiv_pos_site_id
 _symmetry_equiv_pos_as_xyz
  1  'x, y, z'
loop_
 _atom_site_type_symbol
 _atom_site_label
 _atom_site_symmetry_multiplicity
 _atom_site_fract_x
 _atom_site_fract_y
 _atom_site_fract_z
 _atom_site_occupancy
  Li  Li0  1  0.250000  0.574694  0.047551  1
  Li  Li1  1  0.750000  0.425306  0.952449  1
  Li  Li2  1  0.750000  0.074694  0.452449  1
  Li  Li3  1  0.250000  0.925306  0.547551  1
  Ca  Ca4  1  0.250000  0.473443  0.656335  1
  Ca  Ca5  1  0.750000  0.973443  0.843665  1
  Ca  Ca6  1  0.250000  0.026557  0.156335  1
  Ca  Ca7  1  0.750000  0.526557  0.343665  1
  N  N8  1  0.750000  0.740846  0.092830  1
  N  N9  1  0.750000  0.759154  0.592830  1
  N  N10  1  0.250000  0.259154  0.907170  1
  N  N11  1  0.250000  0.240846  0.407170  1
