# generated using pymatgen
data_CaScAlSiO6
_symmetry_space_group_name_H-M   'P 1'
_cell_length_a   5.51211636
_cell_length_b   9.08390019
_cell_length_c   10.02240350
_cell_angle_alpha   90.00000000
_cell_angle_beta   105.89066128
_cell_angle_gamma   90.00000000
_symmetry_Int_Tables_number   1
_chemical_formula_structural   CaScAlSiO6
_chemical_formula_sum   'Ca4 Sc4 Al4 Si4 O24'
_cell_volume   482.65970441
_cell_formula_units_Z   4
loop_
 _symmetry_equiv_pos_site_id
 _symmetry_equiv_pos_as_xyz
  1  'x, y, z'
loop_
 _atom_site_type_symbol
 _atom_site_label
 _atom_site_symmetry_multiplicity
 _atom_site_fract_x
 _atom_site_fract_y
 _atom_site_fract_z
 _atom_site_occupancy
  Ca  Ca0  1  0.751406  0.810554  0.003054  1
  Ca  Ca1  1  0.248594  0.310554  0.496946  1
  Ca  Ca2  1  0.751406  0.689446  0.503054  1
  Ca  Ca3  1  0.248594  0.189446  0.996946  1
  Sc  Sc4  1  0.260567  0.902468  0.502283  1
  Sc  Sc5  1  0.739433  0.402468  0.997717  1
  Sc  Sc6  1  0.260567  0.597532  0.002283  1
  Sc  Sc7  1  0.739433  0.097532  0.497717  1
  Al  Al8  1  0.444758  0.590119  0.711507  1
  Al  Al9  1  0.444758  0.909881  0.211507  1
  Al  Al10  1  0.555242  0.090119  0.788493  1
  Al  Al11  1  0.555242  0.409881  0.288493  1
  Si  Si12  1  0.059365  0.592815  0.292938  1
  Si  Si13  1  0.940635  0.092815  0.207062  1
  Si  Si14  1  0.059365  0.907185  0.792938  1
  Si  Si15  1  0.940635  0.407185  0.707062  1
  O  O16  1  0.133602  0.984262  0.149219  1
  O  O17  1  0.651970  0.474514  0.645047  1
  O  O18  1  0.467761  0.755683  0.629208  1
  O  O19  1  0.535077  0.591037  0.893801  1
  O  O20  1  0.983243  0.591732  0.121358  1
  O  O21  1  0.963748  0.252099  0.136728  1
  O  O22  1  0.348030  0.974514  0.854953  1
  O  O23  1  0.036252  0.752099  0.363272  1
  O  O24  1  0.016757  0.091732  0.378642  1
  O  O25  1  0.467761  0.744317  0.129208  1
  O  O26  1  0.133602  0.515738  0.649219  1
  O  O27  1  0.464923  0.091037  0.606199  1
  O  O28  1  0.535077  0.908963  0.393801  1
  O  O29  1  0.866398  0.484262  0.350781  1
  O  O30  1  0.532239  0.255683  0.870792  1
  O  O31  1  0.983243  0.908268  0.621358  1
  O  O32  1  0.963748  0.247901  0.636728  1
  O  O33  1  0.651970  0.025486  0.145047  1
  O  O34  1  0.036252  0.747901  0.863272  1
  O  O35  1  0.016757  0.408268  0.878642  1
  O  O36  1  0.464923  0.408963  0.106199  1
  O  O37  1  0.532239  0.244317  0.370792  1
  O  O38  1  0.348030  0.525486  0.354953  1
  O  O39  1  0.866398  0.015738  0.850781  1
