# generated using pymatgen
data_H2S
_symmetry_space_group_name_H-M   'P 1'
_cell_length_a   5.45928477
_cell_length_b   6.09328581
_cell_length_c   6.16520737
_cell_angle_alpha   83.65908685
_cell_angle_beta   88.21830241
_cell_angle_gamma   87.45253666
_symmetry_Int_Tables_number   1
_chemical_formula_structural   H2S
_chemical_formula_sum   'H8 S4'
_cell_volume   203.55862451
_cell_formula_units_Z   4
loop_
 _symmetry_equiv_pos_site_id
 _symmetry_equiv_pos_as_xyz
  1  'x, y, z'
loop_
 _atom_site_type_symbol
 _atom_site_label
 _atom_site_symmetry_multiplicity
 _atom_site_fract_x
 _atom_site_fract_y
 _atom_site_fract_z
 _atom_site_occupancy
  H  H0  1  0.702818  0.395227  0.068983  1
  H  H1  1  0.584041  0.111914  0.213743  1
  H  H2  1  0.630408  0.699423  0.604921  1
  H  H3  1  0.388086  0.764529  0.066364  1
  H  H4  1  0.113548  0.912635  0.214541  1
  H  H5  1  0.074349  0.192199  0.908179  1
  H  H6  1  0.098525  0.185295  0.593347  1
  H  H7  1  0.948238  0.599780  0.733930  1
  S  S8  1  0.742847  0.264240  0.258103  1
  S  S9  1  0.775010  0.764035  0.758391  1
  S  S10  1  0.262040  0.730241  0.258901  1
  S  S11  1  0.238089  0.256482  0.746598  1
