# generated using pymatgen
data_SrLiTa2O6F
_symmetry_space_group_name_H-M   'P 1'
_cell_length_a   7.46180867
_cell_length_b   7.46180867
_cell_length_c   7.46180867
_cell_angle_alpha   120.36437476
_cell_angle_beta   119.42573180
_cell_angle_gamma   90.18378542
_symmetry_Int_Tables_number   1
_chemical_formula_structural   SrLiTa2O6F
_chemical_formula_sum   'Sr2 Li2 Ta4 O12 F2'
_cell_volume   294.21647561
_cell_formula_units_Z   2
loop_
 _symmetry_equiv_pos_site_id
 _symmetry_equiv_pos_as_xyz
  1  'x, y, z'
loop_
 _atom_site_type_symbol
 _atom_site_label
 _atom_site_symmetry_multiplicity
 _atom_site_fract_x
 _atom_site_fract_y
 _atom_site_fract_z
 _atom_site_occupancy
  Sr  Sr0  1  0.500000  0.000000  0.000000  1
  Sr  Sr1  1  0.000000  0.000000  0.500000  1
  Li  Li2  1  0.000000  0.500000  0.500000  1
  Li  Li3  1  0.000000  0.000000  0.000000  1
  Ta  Ta4  1  0.500000  0.500000  0.000000  1
  Ta  Ta5  1  0.500000  0.500000  0.500000  1
  Ta  Ta6  1  0.500000  0.000000  0.500000  1
  Ta  Ta7  1  0.000000  0.500000  0.000000  1
  O  O8  1  0.436488  0.569459  0.754630  1
  O  O9  1  0.428887  0.178887  0.750000  1
  O  O10  1  0.436488  0.181858  0.367029  1
  O  O11  1  0.814829  0.569459  0.132971  1
  O  O12  1  0.563512  0.430541  0.245370  1
  O  O13  1  0.811395  0.561395  0.750000  1
  O  O14  1  0.571113  0.821113  0.250000  1
  O  O15  1  0.814829  0.181858  0.745370  1
  O  O16  1  0.563512  0.818142  0.632971  1
  O  O17  1  0.185171  0.430541  0.867029  1
  O  O18  1  0.185171  0.818142  0.254630  1
  O  O19  1  0.188605  0.438605  0.250000  1
  F  F20  1  0.899370  0.149370  0.250000  1
  F  F21  1  0.100630  0.850630  0.750000  1
