# generated using pymatgen
data_Na2BeF4
_symmetry_space_group_name_H-M   'P 1'
_cell_length_a   4.95492434
_cell_length_b   6.64661609
_cell_length_c   11.09084937
_cell_angle_alpha   90.00000000
_cell_angle_beta   90.00000000
_cell_angle_gamma   90.00000000
_symmetry_Int_Tables_number   1
_chemical_formula_structural   Na2BeF4
_chemical_formula_sum   'Na8 Be4 F16'
_cell_volume   365.26026417
_cell_formula_units_Z   4
loop_
 _symmetry_equiv_pos_site_id
 _symmetry_equiv_pos_as_xyz
  1  'x, y, z'
loop_
 _atom_site_type_symbol
 _atom_site_label
 _atom_site_symmetry_multiplicity
 _atom_site_fract_x
 _atom_site_fract_y
 _atom_site_fract_z
 _atom_site_occupancy
  Na  Na0  1  0.511654  0.250000  0.779700  1
  Na  Na1  1  0.011654  0.750000  0.720300  1
  Na  Na2  1  0.488346  0.750000  0.220300  1
  Na  Na3  1  0.988346  0.250000  0.279700  1
  Na  Na4  1  0.500000  0.500000  0.500000  1
  Na  Na5  1  0.000000  0.500000  0.000000  1
  Na  Na6  1  0.500000  0.000000  0.500000  1
  Na  Na7  1  0.000000  0.000000  0.000000  1
  Be  Be8  1  0.425657  0.250000  0.096031  1
  Be  Be9  1  0.574343  0.750000  0.903969  1
  Be  Be10  1  0.074343  0.250000  0.596031  1
  Be  Be11  1  0.925657  0.750000  0.403969  1
  F  F12  1  0.696198  0.940660  0.839453  1
  F  F13  1  0.196198  0.059340  0.660547  1
  F  F14  1  0.303802  0.440660  0.160547  1
  F  F15  1  0.803802  0.559340  0.339453  1
  F  F16  1  0.196198  0.440660  0.660547  1
  F  F17  1  0.303802  0.059340  0.160547  1
  F  F18  1  0.696198  0.559340  0.839453  1
  F  F19  1  0.803802  0.940660  0.339453  1
  F  F20  1  0.739747  0.250000  0.093807  1
  F  F21  1  0.239747  0.750000  0.406193  1
  F  F22  1  0.260253  0.750000  0.906193  1
  F  F23  1  0.760253  0.250000  0.593807  1
  F  F24  1  0.696089  0.750000  0.036493  1
  F  F25  1  0.196089  0.250000  0.463507  1
  F  F26  1  0.303911  0.250000  0.963507  1
  F  F27  1  0.803911  0.750000  0.536493  1
