# generated using pymatgen
data_Dy3GaO6
_symmetry_space_group_name_H-M   'P 1'
_cell_length_a   7.14296570
_cell_length_b   7.14296570
_cell_length_c   5.44631305
_cell_angle_alpha   90.00000000
_cell_angle_beta   90.00000000
_cell_angle_gamma   102.84988281
_symmetry_Int_Tables_number   1
_chemical_formula_structural   Dy3GaO6
_chemical_formula_sum   'Dy6 Ga2 O12'
_cell_volume   270.92232286
_cell_formula_units_Z   2
loop_
 _symmetry_equiv_pos_site_id
 _symmetry_equiv_pos_as_xyz
  1  'x, y, z'
loop_
 _atom_site_type_symbol
 _atom_site_label
 _atom_site_symmetry_multiplicity
 _atom_site_fract_x
 _atom_site_fract_y
 _atom_site_fract_z
 _atom_site_occupancy
  Dy  Dy0  1  0.398072  0.601928  0.922449  1
  Dy  Dy1  1  0.601928  0.398072  0.422449  1
  Dy  Dy2  1  0.298965  0.088212  0.969785  1
  Dy  Dy3  1  0.701035  0.911788  0.469785  1
  Dy  Dy4  1  0.911788  0.701035  0.969785  1
  Dy  Dy5  1  0.088212  0.298965  0.469785  1
  Ga  Ga6  1  0.192988  0.807012  0.500184  1
  Ga  Ga7  1  0.807012  0.192988  0.000184  1
  O  O8  1  0.215600  0.784400  0.162675  1
  O  O9  1  0.784400  0.215600  0.662675  1
  O  O10  1  0.038575  0.961425  0.642245  1
  O  O11  1  0.961425  0.038575  0.142245  1
  O  O12  1  0.355985  0.323751  0.697285  1
  O  O13  1  0.644015  0.676249  0.197285  1
  O  O14  1  0.676249  0.644015  0.697285  1
  O  O15  1  0.323751  0.355985  0.197285  1
  O  O16  1  0.894283  0.422028  0.179088  1
  O  O17  1  0.105717  0.577972  0.679088  1
  O  O18  1  0.577972  0.105717  0.179088  1
  O  O19  1  0.422028  0.894283  0.679088  1
