# generated using pymatgen
data_Sb2(AuF6)3
_symmetry_space_group_name_H-M   'P 1'
_cell_length_a   9.45132154
_cell_length_b   8.69836345
_cell_length_c   10.38718144
_cell_angle_alpha   90.00000000
_cell_angle_beta   120.41692590
_cell_angle_gamma   90.00000000
_symmetry_Int_Tables_number   1
_chemical_formula_structural   Sb2(AuF6)3
_chemical_formula_sum   'Sb4 Au6 F36'
_cell_volume   736.40799778
_cell_formula_units_Z   2
loop_
 _symmetry_equiv_pos_site_id
 _symmetry_equiv_pos_as_xyz
  1  'x, y, z'
loop_
 _atom_site_type_symbol
 _atom_site_label
 _atom_site_symmetry_multiplicity
 _atom_site_fract_x
 _atom_site_fract_y
 _atom_site_fract_z
 _atom_site_occupancy
  Sb  Sb0  1  0.141051  0.875746  0.284479  1
  Sb  Sb1  1  0.858949  0.375746  0.215521  1
  Sb  Sb2  1  0.858949  0.124254  0.715521  1
  Sb  Sb3  1  0.141051  0.624254  0.784479  1
  Au  Au4  1  0.500000  0.500000  0.500000  1
  Au  Au5  1  0.500000  0.000000  0.000000  1
  Au  Au6  1  0.338600  0.167991  0.632661  1
  Au  Au7  1  0.661400  0.667991  0.867339  1
  Au  Au8  1  0.661400  0.832009  0.367339  1
  Au  Au9  1  0.338600  0.332009  0.132661  1
  F  F10  1  0.062718  0.052346  0.161710  1
  F  F11  1  0.937282  0.552346  0.338290  1
  F  F12  1  0.937282  0.947654  0.838290  1
  F  F13  1  0.062718  0.447654  0.661710  1
  F  F14  1  0.979112  0.896586  0.339872  1
  F  F15  1  0.020888  0.396586  0.160128  1
  F  F16  1  0.408149  0.208560  0.307931  1
  F  F17  1  0.591851  0.708560  0.192069  1
  F  F18  1  0.591851  0.791440  0.692069  1
  F  F19  1  0.408149  0.291440  0.807931  1
  F  F20  1  0.359666  0.513175  0.259955  1
  F  F21  1  0.640334  0.013175  0.240045  1
  F  F22  1  0.640334  0.486825  0.740045  1
  F  F23  1  0.359666  0.986825  0.759955  1
  F  F24  1  0.320588  0.145341  0.011878  1
  F  F25  1  0.679412  0.645341  0.488122  1
  F  F26  1  0.679412  0.854659  0.988122  1
  F  F27  1  0.320588  0.354659  0.511878  1
  F  F28  1  0.020888  0.103414  0.660128  1
  F  F29  1  0.979112  0.603414  0.839872  1
  F  F30  1  0.249827  0.720328  0.433007  1
  F  F31  1  0.750173  0.220328  0.066993  1
  F  F32  1  0.286254  0.470777  0.956285  1
  F  F33  1  0.713746  0.970777  0.543715  1
  F  F34  1  0.713746  0.529223  0.043715  1
  F  F35  1  0.286254  0.029223  0.456285  1
  F  F36  1  0.019508  0.764907  0.626933  1
  F  F37  1  0.980492  0.264907  0.873067  1
  F  F38  1  0.980492  0.235093  0.373067  1
  F  F39  1  0.019508  0.735093  0.126933  1
  F  F40  1  0.327591  0.628352  0.758292  1
  F  F41  1  0.672409  0.128352  0.741708  1
  F  F42  1  0.672409  0.371648  0.241708  1
  F  F43  1  0.327591  0.871648  0.258292  1
  F  F44  1  0.249827  0.779672  0.933007  1
  F  F45  1  0.750173  0.279672  0.566993  1
