# generated using pymatgen
data_K3VS4
_symmetry_space_group_name_H-M   'P 1'
_cell_length_a   9.22006054
_cell_length_b   9.31987476
_cell_length_c   10.73988288
_cell_angle_alpha   90.00000000
_cell_angle_beta   90.00000000
_cell_angle_gamma   90.00000000
_symmetry_Int_Tables_number   1
_chemical_formula_structural   K3VS4
_chemical_formula_sum   'K12 V4 S16'
_cell_volume   922.87609006
_cell_formula_units_Z   4
loop_
 _symmetry_equiv_pos_site_id
 _symmetry_equiv_pos_as_xyz
  1  'x, y, z'
loop_
 _atom_site_type_symbol
 _atom_site_label
 _atom_site_symmetry_multiplicity
 _atom_site_fract_x
 _atom_site_fract_y
 _atom_site_fract_z
 _atom_site_occupancy
  K  K0  1  0.053990  0.208219  0.045825  1
  K  K1  1  0.136543  0.419267  0.750000  1
  K  K2  1  0.363457  0.919267  0.250000  1
  K  K3  1  0.636543  0.080733  0.750000  1
  K  K4  1  0.863457  0.580733  0.250000  1
  K  K5  1  0.946010  0.791781  0.545825  1
  K  K6  1  0.553990  0.291781  0.454175  1
  K  K7  1  0.446010  0.708219  0.954175  1
  K  K8  1  0.553990  0.291781  0.045825  1
  K  K9  1  0.053990  0.208219  0.454175  1
  K  K10  1  0.446010  0.708219  0.545825  1
  K  K11  1  0.946010  0.791781  0.954175  1
  V  V12  1  0.783546  0.013815  0.250000  1
  V  V13  1  0.716454  0.513815  0.750000  1
  V  V14  1  0.283546  0.486185  0.250000  1
  V  V15  1  0.216454  0.986185  0.750000  1
  S  S16  1  0.331266  0.050781  0.916069  1
  S  S17  1  0.196897  0.754536  0.750000  1
  S  S18  1  0.303103  0.254536  0.250000  1
  S  S19  1  0.696897  0.745464  0.750000  1
  S  S20  1  0.803103  0.245464  0.250000  1
  S  S21  1  0.001025  0.080066  0.750000  1
  S  S22  1  0.498975  0.580066  0.250000  1
  S  S23  1  0.501025  0.419934  0.750000  1
  S  S24  1  0.998975  0.919934  0.250000  1
  S  S25  1  0.668734  0.949219  0.416069  1
  S  S26  1  0.831266  0.449219  0.583931  1
  S  S27  1  0.168734  0.550781  0.083931  1
  S  S28  1  0.668734  0.949219  0.083931  1
  S  S29  1  0.331266  0.050781  0.583931  1
  S  S30  1  0.168734  0.550781  0.416069  1
  S  S31  1  0.831266  0.449219  0.916069  1
