# generated using pymatgen
data_SmScO3
_symmetry_space_group_name_H-M   'P 1'
_cell_length_a   5.55234086
_cell_length_b   5.81335218
_cell_length_c   8.04454077
_cell_angle_alpha   90.00000000
_cell_angle_beta   90.00000000
_cell_angle_gamma   90.00000000
_symmetry_Int_Tables_number   1
_chemical_formula_structural   SmScO3
_chemical_formula_sum   'Sm4 Sc4 O12'
_cell_volume   259.65937692
_cell_formula_units_Z   4
loop_
 _symmetry_equiv_pos_site_id
 _symmetry_equiv_pos_as_xyz
  1  'x, y, z'
loop_
 _atom_site_type_symbol
 _atom_site_label
 _atom_site_symmetry_multiplicity
 _atom_site_fract_x
 _atom_site_fract_y
 _atom_site_fract_z
 _atom_site_occupancy
  Sm  Sm0  1  0.982386  0.059327  0.750000  1
  Sm  Sm1  1  0.482386  0.440673  0.250000  1
  Sm  Sm2  1  0.517614  0.559327  0.750000  1
  Sm  Sm3  1  0.017614  0.940673  0.250000  1
  Sc  Sc4  1  0.000000  0.500000  0.500000  1
  Sc  Sc5  1  0.500000  0.000000  0.500000  1
  Sc  Sc6  1  0.500000  0.000000  0.000000  1
  Sc  Sc7  1  0.000000  0.500000  0.000000  1
  O  O8  1  0.695327  0.303052  0.562238  1
  O  O9  1  0.195327  0.196948  0.437762  1
  O  O10  1  0.804673  0.803052  0.937762  1
  O  O11  1  0.304673  0.696948  0.062238  1
  O  O12  1  0.304673  0.696948  0.437762  1
  O  O13  1  0.804673  0.803052  0.562238  1
  O  O14  1  0.195327  0.196948  0.062238  1
  O  O15  1  0.695327  0.303052  0.937762  1
  O  O16  1  0.881725  0.547626  0.250000  1
  O  O17  1  0.381725  0.952374  0.750000  1
  O  O18  1  0.618275  0.047626  0.250000  1
  O  O19  1  0.118275  0.452374  0.750000  1
