# generated using pymatgen
data_Ca(BO2)2
_symmetry_space_group_name_H-M   'P 1'
_cell_length_a   4.33156979
_cell_length_b   6.35395720
_cell_length_c   11.64533323
_cell_angle_alpha   90.00000000
_cell_angle_beta   90.00000000
_cell_angle_gamma   90.00000000
_symmetry_Int_Tables_number   1
_chemical_formula_structural   Ca(BO2)2
_chemical_formula_sum   'Ca4 B8 O16'
_cell_volume   320.50995380
_cell_formula_units_Z   4
loop_
 _symmetry_equiv_pos_site_id
 _symmetry_equiv_pos_as_xyz
  1  'x, y, z'
loop_
 _atom_site_type_symbol
 _atom_site_label
 _atom_site_symmetry_multiplicity
 _atom_site_fract_x
 _atom_site_fract_y
 _atom_site_fract_z
 _atom_site_occupancy
  Ca  Ca0  1  0.780480  0.250000  0.500000  1
  Ca  Ca1  1  0.719520  0.750000  0.000000  1
  Ca  Ca2  1  0.219520  0.750000  0.500000  1
  Ca  Ca3  1  0.280480  0.250000  0.000000  1
  B  B4  1  0.326381  0.124595  0.307674  1
  B  B5  1  0.326381  0.375405  0.692326  1
  B  B6  1  0.173619  0.624595  0.192326  1
  B  B7  1  0.173619  0.875405  0.807674  1
  B  B8  1  0.826381  0.124595  0.192326  1
  B  B9  1  0.826381  0.375405  0.807674  1
  B  B10  1  0.673619  0.624595  0.307674  1
  B  B11  1  0.673619  0.875405  0.692326  1
  O  O12  1  0.851790  0.851140  0.791799  1
  O  O13  1  0.851790  0.648860  0.208201  1
  O  O14  1  0.648210  0.351140  0.708201  1
  O  O15  1  0.648210  0.148860  0.291799  1
  O  O16  1  0.726916  0.087173  0.085990  1
  O  O17  1  0.726916  0.412827  0.914010  1
  O  O18  1  0.773084  0.587173  0.414010  1
  O  O19  1  0.773084  0.912827  0.585990  1
  O  O20  1  0.273084  0.912827  0.914010  1
  O  O21  1  0.273084  0.587173  0.085990  1
  O  O22  1  0.226916  0.412827  0.585990  1
  O  O23  1  0.226916  0.087173  0.414010  1
  O  O24  1  0.148210  0.148860  0.208201  1
  O  O25  1  0.148210  0.351140  0.791799  1
  O  O26  1  0.351790  0.648860  0.291799  1
  O  O27  1  0.351790  0.851140  0.708201  1
