# generated using pymatgen
data_Mn(PbO2)2
_symmetry_space_group_name_H-M   'P 1'
_cell_length_a   13.08537885
_cell_length_b   13.08537885
_cell_length_c   5.24550138
_cell_angle_alpha   90.00000000
_cell_angle_beta   90.00000000
_cell_angle_gamma   90.00000000
_symmetry_Int_Tables_number   1
_chemical_formula_structural   Mn(PbO2)2
_chemical_formula_sum   'Mn8 Pb16 O32'
_cell_volume   898.17219732
_cell_formula_units_Z   8
loop_
 _symmetry_equiv_pos_site_id
 _symmetry_equiv_pos_as_xyz
  1  'x, y, z'
loop_
 _atom_site_type_symbol
 _atom_site_label
 _atom_site_symmetry_multiplicity
 _atom_site_fract_x
 _atom_site_fract_y
 _atom_site_fract_z
 _atom_site_occupancy
  Mn  Mn0  1  0.771036  0.193810  0.260650  1
  Mn  Mn1  1  0.228964  0.806190  0.260650  1
  Mn  Mn2  1  0.193810  0.228964  0.739350  1
  Mn  Mn3  1  0.806190  0.771036  0.739350  1
  Mn  Mn4  1  0.693810  0.271036  0.760650  1
  Mn  Mn5  1  0.728964  0.693810  0.239350  1
  Mn  Mn6  1  0.271036  0.306190  0.239350  1
  Mn  Mn7  1  0.306190  0.728964  0.760650  1
  Pb  Pb8  1  0.827385  0.494229  0.793535  1
  Pb  Pb9  1  0.172615  0.505771  0.793535  1
  Pb  Pb10  1  0.494229  0.172615  0.206465  1
  Pb  Pb11  1  0.505771  0.827385  0.206465  1
  Pb  Pb12  1  0.994229  0.327385  0.293535  1
  Pb  Pb13  1  0.672615  0.994229  0.706465  1
  Pb  Pb14  1  0.327385  0.005771  0.706465  1
  Pb  Pb15  1  0.005771  0.672615  0.293535  1
  Pb  Pb16  1  0.623382  0.420428  0.243338  1
  Pb  Pb17  1  0.376618  0.579572  0.243338  1
  Pb  Pb18  1  0.420428  0.376618  0.756662  1
  Pb  Pb19  1  0.579572  0.623382  0.756662  1
  Pb  Pb20  1  0.920428  0.123382  0.743338  1
  Pb  Pb21  1  0.876618  0.920428  0.256662  1
  Pb  Pb22  1  0.123382  0.079572  0.256662  1
  Pb  Pb23  1  0.079572  0.876618  0.743338  1
  O  O24  1  0.057937  0.226487  0.599919  1
  O  O25  1  0.942063  0.773513  0.599919  1
  O  O26  1  0.226487  0.942063  0.400081  1
  O  O27  1  0.773513  0.057937  0.400081  1
  O  O28  1  0.726487  0.557937  0.099919  1
  O  O29  1  0.442063  0.726487  0.900081  1
  O  O30  1  0.557937  0.273513  0.900081  1
  O  O31  1  0.273513  0.442063  0.099919  1
  O  O32  1  0.256513  0.176052  0.426904  1
  O  O33  1  0.743487  0.823948  0.426904  1
  O  O34  1  0.176052  0.743487  0.573096  1
  O  O35  1  0.823948  0.256513  0.573096  1
  O  O36  1  0.676052  0.756513  0.926904  1
  O  O37  1  0.243487  0.676052  0.073096  1
  O  O38  1  0.756513  0.323948  0.073096  1
  O  O39  1  0.323948  0.243487  0.926904  1
  O  O40  1  0.641267  0.220339  0.433298  1
  O  O41  1  0.358733  0.779661  0.433298  1
  O  O42  1  0.220339  0.358733  0.566702  1
  O  O43  1  0.779661  0.641267  0.566702  1
  O  O44  1  0.720339  0.141267  0.933298  1
  O  O45  1  0.858733  0.720339  0.066702  1
  O  O46  1  0.141267  0.279661  0.066702  1
  O  O47  1  0.279661  0.858733  0.933298  1
  O  O48  1  0.314855  0.587456  0.654887  1
  O  O49  1  0.412544  0.314855  0.345113  1
  O  O50  1  0.587456  0.685145  0.345113  1
  O  O51  1  0.685145  0.412544  0.654887  1
  O  O52  1  0.814855  0.912544  0.845113  1
  O  O53  1  0.185145  0.087456  0.845113  1
  O  O54  1  0.087456  0.814855  0.154887  1
  O  O55  1  0.912544  0.185145  0.154887  1
