# generated using pymatgen
data_Zr7(NO2)4
_symmetry_space_group_name_H-M   'P 1'
_cell_length_a   6.23137739
_cell_length_b   6.28890735
_cell_length_c   6.48686720
_cell_angle_alpha   100.48192180
_cell_angle_beta   99.86744544
_cell_angle_gamma   99.13372314
_symmetry_Int_Tables_number   1
_chemical_formula_structural   Zr7(NO2)4
_chemical_formula_sum   'Zr7 N4 O8'
_cell_volume   241.49234520
_cell_formula_units_Z   1
loop_
 _symmetry_equiv_pos_site_id
 _symmetry_equiv_pos_as_xyz
  1  'x, y, z'
loop_
 _atom_site_type_symbol
 _atom_site_label
 _atom_site_symmetry_multiplicity
 _atom_site_fract_x
 _atom_site_fract_y
 _atom_site_fract_z
 _atom_site_occupancy
  Zr  Zr0  1  0.278874  0.126845  0.619286  1
  Zr  Zr1  1  0.000000  0.000000  0.000000  1
  Zr  Zr2  1  0.840799  0.385003  0.678237  1
  Zr  Zr3  1  0.604538  0.324479  0.134377  1
  Zr  Zr4  1  0.395462  0.675521  0.865623  1
  Zr  Zr5  1  0.159201  0.614997  0.321763  1
  Zr  Zr6  1  0.721126  0.873155  0.380714  1
  N  N7  1  0.931136  0.075278  0.682718  1
  N  N8  1  0.565575  0.406091  0.818272  1
  N  N9  1  0.434425  0.593909  0.181728  1
  N  N10  1  0.068864  0.924722  0.317282  1
  O  O11  1  0.323226  0.082450  0.952371  1
  O  O12  1  0.577655  0.169040  0.407061  1
  O  O13  1  0.943980  0.328052  0.108206  1
  O  O14  1  0.184202  0.428751  0.569521  1
  O  O15  1  0.815798  0.571249  0.430479  1
  O  O16  1  0.056020  0.671948  0.891794  1
  O  O17  1  0.422345  0.830960  0.592939  1
  O  O18  1  0.676774  0.917550  0.047629  1
