# generated using pymatgen
data_Sr(PrSe2)2
_symmetry_space_group_name_H-M   'P 1'
_cell_length_a   7.88669942
_cell_length_b   7.88669942
_cell_length_c   7.88669942
_cell_angle_alpha   109.44519584
_cell_angle_beta   109.44519584
_cell_angle_gamma   109.52328277
_symmetry_Int_Tables_number   1
_chemical_formula_structural   Sr(PrSe2)2
_chemical_formula_sum   'Sr2 Pr4 Se8'
_cell_volume   377.62758195
_cell_formula_units_Z   2
loop_
 _symmetry_equiv_pos_site_id
 _symmetry_equiv_pos_as_xyz
  1  'x, y, z'
loop_
 _atom_site_type_symbol
 _atom_site_label
 _atom_site_symmetry_multiplicity
 _atom_site_fract_x
 _atom_site_fract_y
 _atom_site_fract_z
 _atom_site_occupancy
  Sr  Sr0  1  1.000000  1.000000  0.000000  1
  Sr  Sr1  1  0.250000  0.750000  0.500000  1
  Pr  Pr2  1  0.125000  0.501729  0.876729  1
  Pr  Pr3  1  0.498271  0.375000  0.623271  1
  Pr  Pr4  1  0.625000  0.248271  0.123271  1
  Pr  Pr5  1  0.751729  0.875000  0.376729  1
  Se  Se6  1  0.020226  0.270842  0.403127  1
  Se  Se7  1  0.382285  0.479158  0.249384  1
  Se  Se8  1  0.229774  0.132901  0.750616  1
  Se  Se9  1  0.382901  0.979774  0.250616  1
  Se  Se10  1  0.520842  0.770226  0.903127  1
  Se  Se11  1  0.867099  0.617715  0.096873  1
  Se  Se12  1  0.729158  0.132285  0.749384  1
  Se  Se13  1  0.867715  0.617099  0.596873  1
