# generated using pymatgen
data_Tl3VO4
_symmetry_space_group_name_H-M   'P 1'
_cell_length_a   6.16752707
_cell_length_b   6.16752707
_cell_length_c   6.16752707
_cell_angle_alpha   121.57570371
_cell_angle_beta   114.98314159
_cell_angle_gamma   93.09683993
_symmetry_Int_Tables_number   1
_chemical_formula_structural   Tl3VO4
_chemical_formula_sum   'Tl3 V1 O4'
_cell_volume   169.27574400
_cell_formula_units_Z   1
loop_
 _symmetry_equiv_pos_site_id
 _symmetry_equiv_pos_as_xyz
  1  'x, y, z'
loop_
 _atom_site_type_symbol
 _atom_site_label
 _atom_site_symmetry_multiplicity
 _atom_site_fract_x
 _atom_site_fract_y
 _atom_site_fract_z
 _atom_site_occupancy
  Tl  Tl0  1  0.289140  0.768890  0.520250  1
  Tl  Tl1  1  0.056929  0.000000  0.056929  1
  Tl  Tl2  1  0.751360  0.231110  0.520250  1
  V  V3  1  0.510507  0.500000  0.010507  1
  O  O4  1  0.488803  0.330401  0.158402  1
  O  O5  1  0.828001  0.669599  0.158402  1
  O  O6  1  0.363130  0.744328  0.107458  1
  O  O7  1  0.363130  0.255672  0.618802  1
