# generated using pymatgen
data_Y7ReO14
_symmetry_space_group_name_H-M   'P 1'
_cell_length_a   7.57337862
_cell_length_b   7.63039780
_cell_length_c   10.67491333
_cell_angle_alpha   90.00000000
_cell_angle_beta   90.00000000
_cell_angle_gamma   90.00000000
_symmetry_Int_Tables_number   1
_chemical_formula_structural   Y7ReO14
_chemical_formula_sum   'Y14 Re2 O28'
_cell_volume   616.88073405
_cell_formula_units_Z   2
loop_
 _symmetry_equiv_pos_site_id
 _symmetry_equiv_pos_as_xyz
  1  'x, y, z'
loop_
 _atom_site_type_symbol
 _atom_site_label
 _atom_site_symmetry_multiplicity
 _atom_site_fract_x
 _atom_site_fract_y
 _atom_site_fract_z
 _atom_site_occupancy
  Y  Y0  1  0.000000  0.000000  0.000000  1
  Y  Y1  1  0.500000  0.500000  0.500000  1
  Y  Y2  1  0.500000  0.000000  0.000000  1
  Y  Y3  1  0.732894  0.258535  0.235383  1
  Y  Y4  1  0.000000  0.500000  0.500000  1
  Y  Y5  1  0.232894  0.241465  0.735383  1
  Y  Y6  1  0.267106  0.258535  0.235383  1
  Y  Y7  1  0.267106  0.741465  0.764617  1
  Y  Y8  1  0.500000  0.000000  0.500000  1
  Y  Y9  1  0.767106  0.758535  0.264617  1
  Y  Y10  1  0.732894  0.741465  0.764617  1
  Y  Y11  1  0.767106  0.241465  0.735383  1
  Y  Y12  1  0.000000  0.500000  0.000000  1
  Y  Y13  1  0.232894  0.758535  0.264617  1
  Re  Re14  1  0.500000  0.500000  0.000000  1
  Re  Re15  1  0.000000  0.000000  0.500000  1
  O  O16  1  0.500000  0.231821  0.362672  1
  O  O17  1  0.769835  0.510849  0.634593  1
  O  O18  1  0.000000  0.268179  0.862672  1
  O  O19  1  0.000000  0.225205  0.581265  1
  O  O20  1  0.000000  0.726076  0.865659  1
  O  O21  1  0.230165  0.510849  0.634593  1
  O  O22  1  0.269835  0.989151  0.134593  1
  O  O23  1  0.269835  0.010849  0.865407  1
  O  O24  1  0.320626  0.563272  0.112054  1
  O  O25  1  0.320626  0.436728  0.887946  1
  O  O26  1  0.500000  0.725205  0.918735  1
  O  O27  1  0.500000  0.226076  0.634341  1
  O  O28  1  0.500000  0.773924  0.365659  1
  O  O29  1  0.500000  0.274795  0.081265  1
  O  O30  1  0.679374  0.436728  0.887946  1
  O  O31  1  0.679374  0.563272  0.112054  1
  O  O32  1  0.730165  0.989151  0.134593  1
  O  O33  1  0.730165  0.010849  0.865407  1
  O  O34  1  0.769835  0.489151  0.365407  1
  O  O35  1  0.820626  0.936728  0.612054  1
  O  O36  1  0.820626  0.063272  0.387946  1
  O  O37  1  0.000000  0.273924  0.134341  1
  O  O38  1  0.000000  0.731821  0.137328  1
  O  O39  1  0.000000  0.774795  0.418735  1
  O  O40  1  0.179374  0.063272  0.387946  1
  O  O41  1  0.179374  0.936728  0.612054  1
  O  O42  1  0.230165  0.489151  0.365407  1
  O  O43  1  0.500000  0.768179  0.637328  1
