# generated using pymatgen
data_Nb2SnO6
_symmetry_space_group_name_H-M   'P 1'
_cell_length_a   9.05274797
_cell_length_b   9.05274797
_cell_length_c   5.70721637
_cell_angle_alpha   88.00236465
_cell_angle_beta   91.99763535
_cell_angle_gamma   148.19340413
_symmetry_Int_Tables_number   1
_chemical_formula_structural   Nb2SnO6
_chemical_formula_sum   'Nb4 Sn2 O12'
_cell_volume   246.35112186
_cell_formula_units_Z   2
loop_
 _symmetry_equiv_pos_site_id
 _symmetry_equiv_pos_as_xyz
  1  'x, y, z'
loop_
 _atom_site_type_symbol
 _atom_site_label
 _atom_site_symmetry_multiplicity
 _atom_site_fract_x
 _atom_site_fract_y
 _atom_site_fract_z
 _atom_site_occupancy
  Nb  Nb0  1  0.588021  0.928590  0.826096  1
  Nb  Nb1  1  0.928590  0.588021  0.673904  1
  Nb  Nb2  1  0.411979  0.071410  0.173904  1
  Nb  Nb3  1  0.071410  0.411979  0.326096  1
  Sn  Sn4  1  0.225246  0.225246  0.750000  1
  Sn  Sn5  1  0.774754  0.774754  0.250000  1
  O  O6  1  0.276050  0.837024  0.852819  1
  O  O7  1  0.837024  0.276050  0.647181  1
  O  O8  1  0.723950  0.162976  0.147181  1
  O  O9  1  0.162976  0.723950  0.352819  1
  O  O10  1  0.391203  0.677046  0.580962  1
  O  O11  1  0.677046  0.391203  0.919038  1
  O  O12  1  0.008828  0.154649  0.407296  1
  O  O13  1  0.154649  0.008828  0.092704  1
  O  O14  1  0.991172  0.845351  0.592704  1
  O  O15  1  0.845351  0.991172  0.907296  1
  O  O16  1  0.322954  0.608797  0.080962  1
  O  O17  1  0.608797  0.322954  0.419038  1
