# generated using pymatgen
data_Mg2SnO4
_symmetry_space_group_name_H-M   'P 1'
_cell_length_a   6.18023177
_cell_length_b   6.18023177
_cell_length_c   6.18023177
_cell_angle_alpha   120.61163393
_cell_angle_beta   118.71278631
_cell_angle_gamma   90.59385781
_symmetry_Int_Tables_number   1
_chemical_formula_structural   Mg2SnO4
_chemical_formula_sum   'Mg4 Sn2 O8'
_cell_volume   167.70211884
_cell_formula_units_Z   2
loop_
 _symmetry_equiv_pos_site_id
 _symmetry_equiv_pos_as_xyz
  1  'x, y, z'
loop_
 _atom_site_type_symbol
 _atom_site_label
 _atom_site_symmetry_multiplicity
 _atom_site_fract_x
 _atom_site_fract_y
 _atom_site_fract_z
 _atom_site_occupancy
  Mg  Mg0  1  0.887631  0.637631  0.750000  1
  Mg  Mg1  1  0.112369  0.362369  0.250000  1
  Mg  Mg2  1  0.500000  0.500000  0.000000  1
  Mg  Mg3  1  0.500000  1.000000  0.500000  1
  Sn  Sn4  1  0.000000  0.000000  0.500000  1
  Sn  Sn5  1  0.500000  0.000000  0.000000  1
  O  O6  1  0.253729  0.238110  0.984382  1
  O  O7  1  0.254640  0.236268  0.518372  1
  O  O8  1  0.253729  0.769347  0.515618  1
  O  O9  1  0.717897  0.236268  0.981628  1
  O  O10  1  0.282103  0.763732  0.018372  1
  O  O11  1  0.745360  0.763732  0.481628  1
  O  O12  1  0.746271  0.230653  0.484382  1
  O  O13  1  0.746271  0.761890  0.015618  1
