# generated using pymatgen
data_K2SiF6
_symmetry_space_group_name_H-M   'P 1'
_cell_length_a   5.83331398
_cell_length_b   5.83331398
_cell_length_c   5.83331398
_cell_angle_alpha   60.00000000
_cell_angle_beta   60.00000000
_cell_angle_gamma   60.00000000
_symmetry_Int_Tables_number   1
_chemical_formula_structural   K2SiF6
_chemical_formula_sum   'K2 Si1 F6'
_cell_volume   140.35602563
_cell_formula_units_Z   1
loop_
 _symmetry_equiv_pos_site_id
 _symmetry_equiv_pos_as_xyz
  1  'x, y, z'
loop_
 _atom_site_type_symbol
 _atom_site_label
 _atom_site_symmetry_multiplicity
 _atom_site_fract_x
 _atom_site_fract_y
 _atom_site_fract_z
 _atom_site_occupancy
  K  K0  1  0.250000  0.250000  0.250000  1
  K  K1  1  0.750000  0.750000  0.750000  1
  Si  Si2  1  0.000000  0.000000  0.000000  1
  F  F3  1  0.208499  0.791501  0.791501  1
  F  F4  1  0.208499  0.208499  0.791501  1
  F  F5  1  0.791501  0.791501  0.208499  1
  F  F6  1  0.791501  0.208499  0.208499  1
  F  F7  1  0.208499  0.791501  0.208499  1
  F  F8  1  0.791501  0.208499  0.791501  1
