# generated using pymatgen
data_Mo3(PO4)4
_symmetry_space_group_name_H-M   'P 1'
_cell_length_a   8.78882109
_cell_length_b   5.15703189
_cell_length_c   15.51266754
_cell_angle_alpha   90.00000000
_cell_angle_beta   118.65124703
_cell_angle_gamma   90.00000000
_symmetry_Int_Tables_number   1
_chemical_formula_structural   Mo3(PO4)4
_chemical_formula_sum   'Mo6 P8 O32'
_cell_volume   617.00830234
_cell_formula_units_Z   2
loop_
 _symmetry_equiv_pos_site_id
 _symmetry_equiv_pos_as_xyz
  1  'x, y, z'
loop_
 _atom_site_type_symbol
 _atom_site_label
 _atom_site_symmetry_multiplicity
 _atom_site_fract_x
 _atom_site_fract_y
 _atom_site_fract_z
 _atom_site_occupancy
  Mo  Mo0  1  0.803316  0.969807  0.798352  1
  Mo  Mo1  1  0.803316  0.530193  0.298352  1
  Mo  Mo2  1  0.196684  0.469807  0.701648  1
  Mo  Mo3  1  0.500000  0.500000  0.000000  1
  Mo  Mo4  1  0.196684  0.030193  0.201648  1
  Mo  Mo5  1  0.500000  0.000000  0.500000  1
  P  P6  1  0.538222  0.999112  0.153870  1
  P  P7  1  0.461778  0.000888  0.846130  1
  P  P8  1  0.073237  0.004965  0.384722  1
  P  P9  1  0.926763  0.995035  0.615278  1
  P  P10  1  0.926763  0.504965  0.115278  1
  P  P11  1  0.073237  0.495035  0.884722  1
  P  P12  1  0.538222  0.500888  0.653870  1
  P  P13  1  0.461778  0.499112  0.346130  1
  O  O14  1  0.046356  0.780425  0.617881  1
  O  O15  1  0.466244  0.160997  0.931022  1
  O  O16  1  0.466244  0.339003  0.431022  1
  O  O17  1  0.046356  0.719575  0.117881  1
  O  O18  1  0.323725  0.389951  0.248457  1
  O  O19  1  0.745849  0.976412  0.523020  1
  O  O20  1  0.999649  0.234231  0.106148  1
  O  O21  1  0.676275  0.889951  0.251543  1
  O  O22  1  0.356044  0.972927  0.145900  1
  O  O23  1  0.745849  0.523588  0.023020  1
  O  O24  1  0.000351  0.765769  0.893852  1
  O  O25  1  0.323725  0.110049  0.748457  1
  O  O26  1  0.583885  0.210052  0.644471  1
  O  O27  1  0.905924  0.505057  0.208586  1
  O  O28  1  0.416115  0.789948  0.355529  1
  O  O29  1  0.254151  0.476412  0.976980  1
  O  O30  1  0.583885  0.289948  0.144471  1
  O  O31  1  0.999649  0.265769  0.606148  1
  O  O32  1  0.000351  0.734231  0.393852  1
  O  O33  1  0.953644  0.219575  0.382119  1
  O  O34  1  0.356044  0.527073  0.645900  1
  O  O35  1  0.094076  0.494943  0.791414  1
  O  O36  1  0.905924  0.994943  0.708586  1
  O  O37  1  0.643956  0.027073  0.854100  1
  O  O38  1  0.254151  0.023588  0.476980  1
  O  O39  1  0.643956  0.472927  0.354100  1
  O  O40  1  0.533756  0.839003  0.068978  1
  O  O41  1  0.533756  0.660997  0.568978  1
  O  O42  1  0.953644  0.280425  0.882119  1
  O  O43  1  0.676275  0.610049  0.751543  1
  O  O44  1  0.416115  0.710052  0.855529  1
  O  O45  1  0.094076  0.005057  0.291414  1
