# generated using pymatgen
data_Cs(SbSe2)2
_symmetry_space_group_name_H-M   'P 1'
_cell_length_a   6.98987974
_cell_length_b   7.11194719
_cell_length_c   10.11657242
_cell_angle_alpha   99.91526986
_cell_angle_beta   87.62764004
_cell_angle_gamma   104.61380489
_symmetry_Int_Tables_number   1
_chemical_formula_structural   Cs(SbSe2)2
_chemical_formula_sum   'Cs2 Sb4 Se8'
_cell_volume   479.37172891
_cell_formula_units_Z   2
loop_
 _symmetry_equiv_pos_site_id
 _symmetry_equiv_pos_as_xyz
  1  'x, y, z'
loop_
 _atom_site_type_symbol
 _atom_site_label
 _atom_site_symmetry_multiplicity
 _atom_site_fract_x
 _atom_site_fract_y
 _atom_site_fract_z
 _atom_site_occupancy
  Cs  Cs0  1  0.311493  0.670420  0.929716  1
  Cs  Cs1  1  0.688507  0.329580  0.070284  1
  Sb  Sb2  1  0.352916  0.688366  0.456896  1
  Sb  Sb3  1  0.647084  0.311634  0.543104  1
  Sb  Sb4  1  0.093926  0.101381  0.330122  1
  Sb  Sb5  1  0.906074  0.898619  0.669878  1
  Se  Se6  1  0.289744  0.343078  0.597868  1
  Se  Se7  1  0.710256  0.656922  0.402132  1
  Se  Se8  1  0.419058  0.979828  0.287117  1
  Se  Se9  1  0.580942  0.020172  0.712883  1
  Se  Se10  1  0.910418  0.918112  0.087084  1
  Se  Se11  1  0.089582  0.081888  0.912916  1
  Se  Se12  1  0.805515  0.567195  0.764063  1
  Se  Se13  1  0.194485  0.432805  0.235937  1
