# generated using pymatgen
data_Na4Al3Si3HO13
_symmetry_space_group_name_H-M   'P 1'
_cell_length_a   8.83353768
_cell_length_b   8.83353768
_cell_length_c   8.83353768
_cell_angle_alpha   90.35149770
_cell_angle_beta   90.35149770
_cell_angle_gamma   90.35149770
_symmetry_Int_Tables_number   1
_chemical_formula_structural   Na4Al3Si3HO13
_chemical_formula_sum   'Na8 Al6 Si6 H2 O26'
_cell_volume   689.25413305
_cell_formula_units_Z   2
loop_
 _symmetry_equiv_pos_site_id
 _symmetry_equiv_pos_as_xyz
  1  'x, y, z'
loop_
 _atom_site_type_symbol
 _atom_site_label
 _atom_site_symmetry_multiplicity
 _atom_site_fract_x
 _atom_site_fract_y
 _atom_site_fract_z
 _atom_site_occupancy
  Na  Na0  1  0.841695  0.841998  0.168902  1
  Na  Na1  1  0.149712  0.149712  0.149712  1
  Na  Na2  1  0.341695  0.668902  0.341998  1
  Na  Na3  1  0.668902  0.341998  0.341695  1
  Na  Na4  1  0.649712  0.649712  0.649712  1
  Na  Na5  1  0.341998  0.341695  0.668902  1
  Na  Na6  1  0.168902  0.841695  0.841998  1
  Na  Na7  1  0.841998  0.168902  0.841695  1
  Al  Al8  1  0.501484  0.749912  0.000333  1
  Al  Al9  1  0.001484  0.500333  0.249912  1
  Al  Al10  1  0.249912  0.001484  0.500333  1
  Al  Al11  1  0.749912  0.000333  0.501484  1
  Al  Al12  1  0.000333  0.501484  0.749912  1
  Al  Al13  1  0.500333  0.249912  0.001484  1
  Si  Si14  1  0.750484  0.501560  0.999745  1
  Si  Si15  1  0.250484  0.499745  0.001560  1
  Si  Si16  1  0.499745  0.001560  0.250484  1
  Si  Si17  1  0.001560  0.250484  0.499745  1
  Si  Si18  1  0.999745  0.750484  0.501560  1
  Si  Si19  1  0.501560  0.999745  0.750484  1
  H  H20  1  0.425380  0.425380  0.425380  1
  H  H21  1  0.925380  0.925380  0.925380  1
  O  O22  1  0.989501  0.989501  0.989501  1
  O  O23  1  0.354541  0.636866  0.073999  1
  O  O24  1  0.648249  0.364745  0.072672  1
  O  O25  1  0.854541  0.573999  0.136866  1
  O  O26  1  0.147361  0.426331  0.136904  1
  O  O27  1  0.572672  0.864745  0.148249  1
  O  O28  1  0.426331  0.136904  0.147361  1
  O  O29  1  0.362857  0.929803  0.352964  1
  O  O30  1  0.636866  0.073999  0.354541  1
  O  O31  1  0.072672  0.648249  0.364745  1
  O  O32  1  0.929803  0.352964  0.362857  1
  O  O33  1  0.862857  0.852964  0.429803  1
  O  O34  1  0.136904  0.147361  0.426331  1
  O  O35  1  0.489501  0.489501  0.489501  1
  O  O36  1  0.136866  0.854541  0.573999  1
  O  O37  1  0.864745  0.148249  0.572672  1
  O  O38  1  0.926331  0.647361  0.636904  1
  O  O39  1  0.073999  0.354541  0.636866  1
  O  O40  1  0.636904  0.926331  0.647361  1
  O  O41  1  0.364745  0.072672  0.648249  1
  O  O42  1  0.429803  0.862857  0.852964  1
  O  O43  1  0.573999  0.136866  0.854541  1
  O  O44  1  0.852964  0.429803  0.862857  1
  O  O45  1  0.148249  0.572672  0.864745  1
  O  O46  1  0.647361  0.636904  0.926331  1
  O  O47  1  0.352964  0.362857  0.929803  1
