# generated using pymatgen
data_SrAl2O4
_symmetry_space_group_name_H-M   'P 1'
_cell_length_a   5.19050324
_cell_length_b   5.19050324
_cell_length_c   25.38105409
_cell_angle_alpha   90.00000000
_cell_angle_beta   90.00000000
_cell_angle_gamma   120.00000000
_symmetry_Int_Tables_number   1
_chemical_formula_structural   SrAl2O4
_chemical_formula_sum   'Sr6 Al12 O24'
_cell_volume   592.18747650
_cell_formula_units_Z   6
loop_
 _symmetry_equiv_pos_site_id
 _symmetry_equiv_pos_as_xyz
  1  'x, y, z'
loop_
 _atom_site_type_symbol
 _atom_site_label
 _atom_site_symmetry_multiplicity
 _atom_site_fract_x
 _atom_site_fract_y
 _atom_site_fract_z
 _atom_site_occupancy
  Sr  Sr0  1  0.997706  0.995412  0.250000  1
  Sr  Sr1  1  0.002294  0.004588  0.750000  1
  Sr  Sr2  1  0.004588  0.002294  0.583333  1
  Sr  Sr3  1  0.997706  0.002294  0.916667  1
  Sr  Sr4  1  0.995412  0.997706  0.083333  1
  Sr  Sr5  1  0.002294  0.997706  0.416667  1
  Al  Al6  1  0.349835  0.642144  0.851302  1
  Al  Al7  1  0.349835  0.707691  0.315364  1
  Al  Al8  1  0.357856  0.707691  0.184636  1
  Al  Al9  1  0.292309  0.642144  0.648698  1
  Al  Al10  1  0.292309  0.650165  0.517969  1
  Al  Al11  1  0.357856  0.650165  0.982031  1
  Al  Al12  1  0.707691  0.357856  0.148698  1
  Al  Al13  1  0.642144  0.349835  0.482031  1
  Al  Al14  1  0.650165  0.292309  0.815364  1
  Al  Al15  1  0.642144  0.292309  0.684636  1
  Al  Al16  1  0.707691  0.349835  0.017969  1
  Al  Al17  1  0.650165  0.357856  0.351302  1
  O  O18  1  0.845085  0.422543  0.083333  1
  O  O19  1  0.577457  0.154915  0.750000  1
  O  O20  1  0.577457  0.422543  0.416667  1
  O  O21  1  0.637312  0.008408  0.351153  1
  O  O22  1  0.628903  0.991592  0.648847  1
  O  O23  1  0.371097  0.362688  0.017820  1
  O  O24  1  0.362688  0.371097  0.315514  1
  O  O25  1  0.340428  0.340428  0.666667  1
  O  O26  1  0.637312  0.628903  0.815514  1
  O  O27  1  0.659572  0.659572  0.166667  1
  O  O28  1  0.628903  0.637312  0.517820  1
  O  O29  1  0.362688  0.991592  0.851153  1
  O  O30  1  0.371097  0.008408  0.148847  1
  O  O31  1  0.340428  0.000000  0.500000  1
  O  O32  1  0.422543  0.577457  0.916667  1
  O  O33  1  0.422543  0.845085  0.250000  1
  O  O34  1  0.154915  0.577457  0.583333  1
  O  O35  1  0.659572  0.000000  0.000000  1
  O  O36  1  0.008408  0.637312  0.982180  1
  O  O37  1  0.000000  0.659572  0.333333  1
  O  O38  1  0.991592  0.628903  0.684486  1
  O  O39  1  0.000000  0.340428  0.833333  1
  O  O40  1  0.008408  0.371097  0.184486  1
  O  O41  1  0.991592  0.362688  0.482180  1
