# generated using pymatgen
data_Na2Al2Sb3
_symmetry_space_group_name_H-M   'P 1'
_cell_length_a   14.22666874
_cell_length_b   7.30201852
_cell_length_c   15.55216016
_cell_angle_alpha   90.00000000
_cell_angle_beta   90.26407960
_cell_angle_gamma   90.00000000
_symmetry_Int_Tables_number   1
_chemical_formula_structural   Na2Al2Sb3
_chemical_formula_sum   'Na16 Al16 Sb24'
_cell_volume   1615.59409229
_cell_formula_units_Z   8
loop_
 _symmetry_equiv_pos_site_id
 _symmetry_equiv_pos_as_xyz
  1  'x, y, z'
loop_
 _atom_site_type_symbol
 _atom_site_label
 _atom_site_symmetry_multiplicity
 _atom_site_fract_x
 _atom_site_fract_y
 _atom_site_fract_z
 _atom_site_occupancy
  Na  Na0  1  0.560745  0.932171  0.097421  1
  Na  Na1  1  0.560745  0.567829  0.597421  1
  Na  Na2  1  0.439255  0.067829  0.902579  1
  Na  Na3  1  0.439255  0.432171  0.402579  1
  Na  Na4  1  0.079129  0.957954  0.387321  1
  Na  Na5  1  0.920871  0.457954  0.112679  1
  Na  Na6  1  0.920871  0.042046  0.612679  1
  Na  Na7  1  0.079129  0.542046  0.887321  1
  Na  Na8  1  0.351280  0.933053  0.478778  1
  Na  Na9  1  0.648720  0.433053  0.021222  1
  Na  Na10  1  0.648720  0.066947  0.521222  1
  Na  Na11  1  0.351280  0.566947  0.978778  1
  Na  Na12  1  0.864948  0.544894  0.511925  1
  Na  Na13  1  0.135052  0.044894  0.988075  1
  Na  Na14  1  0.135052  0.455106  0.488075  1
  Na  Na15  1  0.864948  0.955106  0.011925  1
  Al  Al16  1  0.312815  0.289639  0.161512  1
  Al  Al17  1  0.591987  0.229667  0.761573  1
  Al  Al18  1  0.591987  0.270333  0.261573  1
  Al  Al19  1  0.408013  0.770333  0.238427  1
  Al  Al20  1  0.188199  0.735318  0.668743  1
  Al  Al21  1  0.811801  0.235318  0.831257  1
  Al  Al22  1  0.811801  0.264682  0.331257  1
  Al  Al23  1  0.188199  0.764682  0.168743  1
  Al  Al24  1  0.905122  0.707781  0.771312  1
  Al  Al25  1  0.094878  0.207781  0.728688  1
  Al  Al26  1  0.094878  0.292219  0.228688  1
  Al  Al27  1  0.905122  0.792219  0.271312  1
  Al  Al28  1  0.687185  0.789639  0.338488  1
  Al  Al29  1  0.312815  0.210361  0.661512  1
  Al  Al30  1  0.687185  0.710361  0.838488  1
  Al  Al31  1  0.408013  0.729667  0.738427  1
  Sb  Sb32  1  0.157837  0.452963  0.081345  1
  Sb  Sb33  1  0.971354  0.469251  0.331682  1
  Sb  Sb34  1  0.971354  0.030749  0.831682  1
  Sb  Sb35  1  0.028646  0.530749  0.668318  1
  Sb  Sb36  1  0.028646  0.969251  0.168318  1
  Sb  Sb37  1  0.842163  0.952963  0.418655  1
  Sb  Sb38  1  0.842163  0.547037  0.918655  1
  Sb  Sb39  1  0.157837  0.047037  0.581345  1
  Sb  Sb40  1  0.337652  0.951662  0.096491  1
  Sb  Sb41  1  0.662348  0.451662  0.403509  1
  Sb  Sb42  1  0.662348  0.048338  0.903509  1
  Sb  Sb43  1  0.337652  0.548338  0.596491  1
  Sb  Sb44  1  0.249923  0.826092  0.830619  1
  Sb  Sb45  1  0.750077  0.326092  0.669381  1
  Sb  Sb46  1  0.750077  0.173908  0.169381  1
  Sb  Sb47  1  0.249923  0.673908  0.330619  1
  Sb  Sb48  1  0.478993  0.474155  0.156568  1
  Sb  Sb49  1  0.521007  0.974155  0.343432  1
  Sb  Sb50  1  0.521007  0.525845  0.843432  1
  Sb  Sb51  1  0.478993  0.025845  0.656568  1
  Sb  Sb52  1  0.253479  0.227334  0.826652  1
  Sb  Sb53  1  0.746521  0.727334  0.673348  1
  Sb  Sb54  1  0.746521  0.772666  0.173348  1
  Sb  Sb55  1  0.253479  0.272666  0.326652  1
