# generated using pymatgen
data_Na10Zn4O9
_symmetry_space_group_name_H-M   'P 1'
_cell_length_a   8.75605438
_cell_length_b   8.75605438
_cell_length_c   8.74267163
_cell_angle_alpha   77.51135898
_cell_angle_beta   102.48864102
_cell_angle_gamma   103.08248637
_symmetry_Int_Tables_number   1
_chemical_formula_structural   Na10Zn4O9
_chemical_formula_sum   'Na20 Zn8 O18'
_cell_volume   627.50108342
_cell_formula_units_Z   2
loop_
 _symmetry_equiv_pos_site_id
 _symmetry_equiv_pos_as_xyz
  1  'x, y, z'
loop_
 _atom_site_type_symbol
 _atom_site_label
 _atom_site_symmetry_multiplicity
 _atom_site_fract_x
 _atom_site_fract_y
 _atom_site_fract_z
 _atom_site_occupancy
  Na  Na0  1  0.999873  0.999873  0.000000  1
  Na  Na1  1  0.948302  0.356195  0.368186  1
  Na  Na2  1  0.914796  0.671882  0.291672  1
  Na  Na3  1  0.801436  0.249219  0.638993  1
  Na  Na4  1  0.699676  0.699676  0.000000  1
  Na  Na5  1  0.609532  0.059298  0.374574  1
  Na  Na6  1  0.617777  0.369275  0.061599  1
  Na  Na7  1  0.772237  0.772237  0.500000  1
  Na  Na8  1  0.768440  0.514931  0.774526  1
  Na  Na9  1  0.671882  0.914796  0.708328  1
  Na  Na10  1  0.514931  0.768440  0.225474  1
  Na  Na11  1  0.507649  0.228508  0.772353  1
  Na  Na12  1  0.347199  0.220300  0.210907  1
  Na  Na13  1  0.228508  0.507649  0.227647  1
  Na  Na14  1  0.237156  0.237156  0.500000  1
  Na  Na15  1  0.369275  0.617777  0.938401  1
  Na  Na16  1  0.356195  0.948302  0.631814  1
  Na  Na17  1  0.220300  0.347199  0.789093  1
  Na  Na18  1  0.249219  0.801436  0.361007  1
  Na  Na19  1  0.059298  0.609532  0.625426  1
  Zn  Zn20  1  0.963839  0.026773  0.331370  1
  Zn  Zn21  1  0.963831  0.336110  0.030366  1
  Zn  Zn22  1  0.671479  0.031969  0.031434  1
  Zn  Zn23  1  0.589581  0.422890  0.404523  1
  Zn  Zn24  1  0.422890  0.589581  0.595477  1
  Zn  Zn25  1  0.336110  0.963831  0.969634  1
  Zn  Zn26  1  0.031969  0.671479  0.968566  1
  Zn  Zn27  1  0.026773  0.963839  0.668630  1
  O  O28  1  0.882515  0.508330  0.106175  1
  O  O29  1  0.873037  0.087835  0.505336  1
  O  O30  1  0.800155  0.509449  0.508099  1
  O  O31  1  0.890222  0.799668  0.807193  1
  O  O32  1  0.799668  0.890222  0.192807  1
  O  O33  1  0.790717  0.209067  0.897669  1
  O  O34  1  0.500654  0.101813  0.109068  1
  O  O35  1  0.498727  0.206010  0.503813  1
  O  O36  1  0.486291  0.502527  0.194778  1
  O  O37  1  0.502527  0.486291  0.805222  1
  O  O38  1  0.509449  0.800155  0.491901  1
  O  O39  1  0.508330  0.882515  0.893825  1
  O  O40  1  0.209067  0.790717  0.102331  1
  O  O41  1  0.221271  0.089756  0.777699  1
  O  O42  1  0.089756  0.221271  0.222301  1
  O  O43  1  0.206010  0.498727  0.496187  1
  O  O44  1  0.087835  0.873037  0.494664  1
  O  O45  1  0.101813  0.500654  0.890932  1
