# generated using pymatgen
data_HgSO4
_symmetry_space_group_name_H-M   'P 1'
_cell_length_a   4.92999414
_cell_length_b   4.98348535
_cell_length_c   6.66510994
_cell_angle_alpha   90.00000000
_cell_angle_beta   90.00000000
_cell_angle_gamma   90.00000000
_symmetry_Int_Tables_number   1
_chemical_formula_structural   HgSO4
_chemical_formula_sum   'Hg2 S2 O8'
_cell_volume   163.75211063
_cell_formula_units_Z   2
loop_
 _symmetry_equiv_pos_site_id
 _symmetry_equiv_pos_as_xyz
  1  'x, y, z'
loop_
 _atom_site_type_symbol
 _atom_site_label
 _atom_site_symmetry_multiplicity
 _atom_site_fract_x
 _atom_site_fract_y
 _atom_site_fract_z
 _atom_site_occupancy
  Hg  Hg0  1  0.823648  0.753800  0.000000  1
  Hg  Hg1  1  0.176352  0.253800  0.500000  1
  S  S2  1  0.319025  0.239360  0.000000  1
  S  S3  1  0.680975  0.739360  0.500000  1
  O  O4  1  0.819580  0.609778  0.322828  1
  O  O5  1  0.180420  0.109778  0.177172  1
  O  O6  1  0.180420  0.109778  0.822828  1
  O  O7  1  0.819580  0.609778  0.677172  1
  O  O8  1  0.385189  0.680296  0.500000  1
  O  O9  1  0.614811  0.180296  0.000000  1
  O  O10  1  0.714684  0.034887  0.500000  1
  O  O11  1  0.285316  0.534887  0.000000  1
