# generated using pymatgen
data_B10H13I
_symmetry_space_group_name_H-M   'P 1'
_cell_length_a   14.64210205
_cell_length_b   12.56058828
_cell_length_c   14.87971937
_cell_angle_alpha   90.00000000
_cell_angle_beta   120.14033282
_cell_angle_gamma   90.00000000
_symmetry_Int_Tables_number   1
_chemical_formula_structural   B10H13I
_chemical_formula_sum   'B80 H104 I8'
_cell_volume   2366.58939073
_cell_formula_units_Z   8
loop_
 _symmetry_equiv_pos_site_id
 _symmetry_equiv_pos_as_xyz
  1  'x, y, z'
loop_
 _atom_site_type_symbol
 _atom_site_label
 _atom_site_symmetry_multiplicity
 _atom_site_fract_x
 _atom_site_fract_y
 _atom_site_fract_z
 _atom_site_occupancy
  B  B0  1  0.494694  0.229684  0.829365  1
  B  B1  1  0.505306  0.729684  0.670635  1
  B  B2  1  0.505306  0.770316  0.170635  1
  B  B3  1  0.494694  0.270316  0.329365  1
  B  B4  1  0.357796  0.201196  0.746636  1
  B  B5  1  0.642204  0.701196  0.753364  1
  B  B6  1  0.642204  0.798804  0.253364  1
  B  B7  1  0.357796  0.298804  0.246636  1
  B  B8  1  0.310489  0.302550  0.649402  1
  B  B9  1  0.689511  0.802550  0.850598  1
  B  B10  1  0.689511  0.697450  0.350598  1
  B  B11  1  0.310489  0.197450  0.149402  1
  B  B12  1  0.395538  0.328040  0.581097  1
  B  B13  1  0.604462  0.828040  0.918903  1
  B  B14  1  0.604462  0.671960  0.418903  1
  B  B15  1  0.395538  0.171960  0.081097  1
  B  B16  1  0.511255  0.248452  0.623884  1
  B  B17  1  0.488745  0.748452  0.876116  1
  B  B18  1  0.488745  0.751548  0.376116  1
  B  B19  1  0.511255  0.251548  0.123884  1
  B  B20  1  0.579443  0.256711  0.762023  1
  B  B21  1  0.420557  0.756711  0.737977  1
  B  B22  1  0.420557  0.743289  0.237977  1
  B  B23  1  0.579443  0.243289  0.262023  1
  B  B24  1  0.395322  0.331736  0.784279  1
  B  B25  1  0.604678  0.831736  0.715721  1
  B  B26  1  0.604678  0.668264  0.215721  1
  B  B27  1  0.395322  0.168264  0.284279  1
  B  B28  1  0.406366  0.402243  0.685808  1
  B  B29  1  0.593634  0.902243  0.814192  1
  B  B30  1  0.593634  0.597757  0.314192  1
  B  B31  1  0.406366  0.097757  0.185808  1
  B  B32  1  0.522798  0.371595  0.680848  1
  B  B33  1  0.477202  0.871595  0.819152  1
  B  B34  1  0.477202  0.628405  0.319152  1
  B  B35  1  0.522798  0.128405  0.180848  1
  B  B36  1  0.521485  0.357100  0.799023  1
  B  B37  1  0.478515  0.857100  0.700977  1
  B  B38  1  0.478515  0.642900  0.200977  1
  B  B39  1  0.521485  0.142900  0.299023  1
  B  B40  1  0.997465  0.144862  0.167492  1
  B  B41  1  0.002535  0.644862  0.332508  1
  B  B42  1  0.002535  0.855138  0.832508  1
  B  B43  1  0.997465  0.355138  0.667492  1
  B  B44  1  0.858847  0.168409  0.106723  1
  B  B45  1  0.141153  0.668409  0.393277  1
  B  B46  1  0.141153  0.831591  0.893277  1
  B  B47  1  0.858847  0.331591  0.606723  1
  B  B48  1  0.810633  0.068752  0.157901  1
  B  B49  1  0.189367  0.568752  0.342099  1
  B  B50  1  0.189367  0.931248  0.842099  1
  B  B51  1  0.810633  0.431248  0.657901  1
  B  B52  1  0.889149  0.052464  0.311648  1
  B  B53  1  0.110851  0.552464  0.188352  1
  B  B54  1  0.110851  0.947536  0.688352  1
  B  B55  1  0.889149  0.447536  0.811648  1
  B  B56  1  0.000849  0.136900  0.383946  1
  B  B57  1  0.999151  0.636900  0.116054  1
  B  B58  1  0.999151  0.863100  0.616054  1
  B  B59  1  0.000849  0.363100  0.883946  1
  B  B60  1  0.076453  0.126238  0.320658  1
  B  B61  1  0.923547  0.626238  0.179342  1
  B  B62  1  0.923547  0.873762  0.679342  1
  B  B63  1  0.076453  0.373762  0.820658  1
  B  B64  1  0.902542  0.038678  0.115712  1
  B  B65  1  0.097458  0.538678  0.384288  1
  B  B66  1  0.097458  0.961322  0.884288  1
  B  B67  1  0.902542  0.461322  0.615712  1
  B  B68  1  0.909396  0.973894  0.225855  1
  B  B69  1  0.090604  0.473894  0.274145  1
  B  B70  1  0.090604  0.026106  0.774145  1
  B  B71  1  0.909396  0.526106  0.725855  1
  B  B72  1  0.020259  0.011965  0.347354  1
  B  B73  1  0.979741  0.511965  0.152646  1
  B  B74  1  0.979741  0.988035  0.652646  1
  B  B75  1  0.020259  0.488035  0.847354  1
  B  B76  1  0.026246  0.020918  0.231092  1
  B  B77  1  0.973754  0.520918  0.268908  1
  B  B78  1  0.973754  0.979082  0.768908  1
  B  B79  1  0.026246  0.479082  0.731092  1
  H  H80  1  0.445432  0.147563  0.767361  1
  H  H81  1  0.554568  0.647563  0.732639  1
  H  H82  1  0.554568  0.852437  0.232639  1
  H  H83  1  0.445432  0.352437  0.267361  1
  H  H84  1  0.318357  0.197702  0.643642  1
  H  H85  1  0.681643  0.697702  0.856358  1
  H  H86  1  0.681643  0.802298  0.356358  1
  H  H87  1  0.318357  0.302298  0.143642  1
  H  H88  1  0.408130  0.224228  0.573471  1
  H  H89  1  0.591870  0.724228  0.926529  1
  H  H90  1  0.591870  0.775772  0.426529  1
  H  H91  1  0.408130  0.275772  0.073471  1
  H  H92  1  0.535168  0.175031  0.698055  1
  H  H93  1  0.464832  0.675031  0.801945  1
  H  H94  1  0.464832  0.824969  0.301945  1
  H  H95  1  0.535168  0.324969  0.198055  1
  H  H96  1  0.541044  0.191590  0.913925  1
  H  H97  1  0.458956  0.691590  0.586075  1
  H  H98  1  0.458956  0.808410  0.086075  1
  H  H99  1  0.541044  0.308410  0.413925  1
  H  H100  1  0.305786  0.142444  0.765086  1
  H  H101  1  0.694214  0.642444  0.734914  1
  H  H102  1  0.694214  0.857556  0.234914  1
  H  H103  1  0.305786  0.357556  0.265086  1
  H  H104  1  0.218394  0.320157  0.599356  1
  H  H105  1  0.781606  0.820157  0.900644  1
  H  H106  1  0.781606  0.679843  0.400644  1
  H  H107  1  0.218394  0.179843  0.099356  1
  H  H108  1  0.349063  0.358365  0.493567  1
  H  H109  1  0.650937  0.858365  0.006433  1
  H  H110  1  0.650937  0.641635  0.506433  1
  H  H111  1  0.349063  0.141635  0.993567  1
  H  H112  1  0.545867  0.215968  0.572102  1
  H  H113  1  0.454133  0.715968  0.927898  1
  H  H114  1  0.454133  0.784032  0.427898  1
  H  H115  1  0.545867  0.284032  0.072102  1
  H  H116  1  0.670673  0.234328  0.811245  1
  H  H117  1  0.329327  0.734328  0.688755  1
  H  H118  1  0.329327  0.765672  0.188755  1
  H  H119  1  0.670673  0.265672  0.311245  1
  H  H120  1  0.368457  0.376636  0.837387  1
  H  H121  1  0.631543  0.876636  0.662613  1
  H  H122  1  0.631543  0.623364  0.162613  1
  H  H123  1  0.368457  0.123364  0.337387  1
  H  H124  1  0.372604  0.490857  0.665427  1
  H  H125  1  0.627396  0.990857  0.834573  1
  H  H126  1  0.627396  0.509143  0.334573  1
  H  H127  1  0.167016  0.151606  0.364497  1
  H  H128  1  0.372604  0.009143  0.165427  1
  H  H129  1  0.427334  0.940410  0.829110  1
  H  H130  1  0.427334  0.559590  0.329110  1
  H  H131  1  0.572666  0.059590  0.170890  1
  H  H132  1  0.942742  0.226450  0.173324  1
  H  H133  1  0.057258  0.726450  0.326676  1
  H  H134  1  0.057258  0.773550  0.826676  1
  H  H135  1  0.942742  0.273550  0.673324  1
  H  H136  1  0.813478  0.174118  0.165622  1
  H  H137  1  0.186522  0.674118  0.334378  1
  H  H138  1  0.186522  0.825882  0.834378  1
  H  H139  1  0.813478  0.325882  0.665622  1
  H  H140  1  0.897301  0.157403  0.325616  1
  H  H141  1  0.102699  0.657403  0.174384  1
  H  H142  1  0.102699  0.842597  0.674384  1
  H  H143  1  0.897301  0.342597  0.825616  1
  H  H144  1  0.026974  0.208289  0.333460  1
  H  H145  1  0.973026  0.708289  0.166540  1
  H  H146  1  0.973026  0.791711  0.666540  1
  H  H147  1  0.026974  0.291711  0.833460  1
  H  H148  1  0.046160  0.181738  0.130680  1
  H  H149  1  0.953840  0.681738  0.369320  1
  H  H150  1  0.953840  0.818262  0.869320  1
  H  H151  1  0.046160  0.318262  0.630680  1
  H  H152  1  0.807574  0.223075  0.033022  1
  H  H153  1  0.192426  0.723075  0.466978  1
  H  H154  1  0.192426  0.776925  0.966978  1
  H  H155  1  0.807574  0.276925  0.533022  1
  H  H156  1  0.719162  0.047406  0.113487  1
  H  H157  1  0.280838  0.547406  0.386513  1
  H  H158  1  0.280838  0.952594  0.886513  1
  H  H159  1  0.719162  0.452594  0.613487  1
  H  H160  1  0.839276  0.024390  0.350488  1
  H  H161  1  0.160724  0.524390  0.149512  1
  H  H162  1  0.160724  0.975610  0.649512  1
  H  H163  1  0.839276  0.475610  0.850488  1
  H  H164  1  0.028910  0.173306  0.467524  1
  H  H165  1  0.971090  0.673306  0.032476  1
  H  H166  1  0.971090  0.826694  0.532476  1
  H  H167  1  0.028910  0.326694  0.967524  1
  H  H168  1  0.070111  0.553241  0.911310  1
  H  H169  1  0.929889  0.053241  0.588690  1
  H  H170  1  0.929889  0.446759  0.088690  1
  H  H171  1  0.070111  0.946759  0.411310  1
  H  H172  1  0.878974  0.615862  0.716250  1
  H  H173  1  0.121026  0.115862  0.783750  1
  H  H174  1  0.121026  0.384138  0.283750  1
  H  H175  1  0.878974  0.884138  0.216250  1
  H  H176  1  0.882022  0.510158  0.539594  1
  H  H177  1  0.117978  0.010158  0.960406  1
  H  H178  1  0.117978  0.489842  0.460406  1
  H  H179  1  0.882022  0.989842  0.039594  1
  H  H180  1  0.167016  0.348394  0.864497  1
  H  H181  1  0.832984  0.848394  0.635503  1
  H  H182  1  0.832984  0.651606  0.135503  1
  H  H183  1  0.572666  0.440410  0.670890  1
  I  I184  1  0.630880  0.455316  0.931897  1
  I  I185  1  0.369120  0.955316  0.568103  1
  I  I186  1  0.369120  0.544684  0.068103  1
  I  I187  1  0.630880  0.044684  0.431897  1
  I  I188  1  0.143714  0.922949  0.218814  1
  I  I189  1  0.856286  0.422949  0.281186  1
  I  I190  1  0.856286  0.077051  0.781186  1
  I  I191  1  0.143714  0.577051  0.718814  1
