# generated using pymatgen
data_Li4TaN3
_symmetry_space_group_name_H-M   'P 1'
_cell_length_a   8.96926090
_cell_length_b   8.96926090
_cell_length_c   8.96926090
_cell_angle_alpha   148.06461988
_cell_angle_beta   114.03993971
_cell_angle_gamma   75.16605122
_symmetry_Int_Tables_number   1
_chemical_formula_structural   Li4TaN3
_chemical_formula_sum   'Li16 Ta4 N12'
_cell_volume   342.50874368
_cell_formula_units_Z   4
loop_
 _symmetry_equiv_pos_site_id
 _symmetry_equiv_pos_as_xyz
  1  'x, y, z'
loop_
 _atom_site_type_symbol
 _atom_site_label
 _atom_site_symmetry_multiplicity
 _atom_site_fract_x
 _atom_site_fract_y
 _atom_site_fract_z
 _atom_site_occupancy
  Li  Li0  1  0.450521  0.938490  0.059446  1
  Li  Li1  1  0.049478  0.608924  0.987969  1
  Li  Li2  1  0.620955  0.561510  0.512031  1
  Li  Li3  1  0.879044  0.891076  0.440555  1
  Li  Li4  1  0.549478  0.061510  0.940555  1
  Li  Li5  1  0.950521  0.391076  0.012031  1
  Li  Li6  1  0.379045  0.438490  0.487969  1
  Li  Li7  1  0.120955  0.108924  0.559445  1
  Li  Li8  1  0.475700  0.225700  0.750000  1
  Li  Li9  1  0.024300  0.274300  0.250000  1
  Li  Li10  1  0.524300  0.774300  0.250000  1
  Li  Li11  1  0.975700  0.725700  0.750000  1
  Li  Li12  1  0.750000  0.654678  0.404678  1
  Li  Li13  1  0.250000  0.845322  0.095322  1
  Li  Li14  1  0.250000  0.345322  0.595322  1
  Li  Li15  1  0.750000  0.154678  0.904678  1
  Ta  Ta16  1  0.669333  0.419333  0.750000  1
  Ta  Ta17  1  0.830667  0.080667  0.250000  1
  Ta  Ta18  1  0.330667  0.580667  0.250000  1
  Ta  Ta19  1  0.169333  0.919333  0.750000  1
  N  N20  1  0.634537  0.750000  0.884537  1
  N  N21  1  0.865463  0.250000  0.615463  1
  N  N22  1  0.365463  0.250000  0.115463  1
  N  N23  1  0.134537  0.750000  0.384537  1
  N  N24  1  0.711853  0.517450  0.056375  1
  N  N25  1  0.788147  0.344522  0.305597  1
  N  N26  1  0.038925  0.982550  0.194403  1
  N  N27  1  0.461075  0.155478  0.443625  1
  N  N28  1  0.288147  0.482550  0.943625  1
  N  N29  1  0.211853  0.655478  0.694403  1
  N  N30  1  0.961075  0.017450  0.805597  1
  N  N31  1  0.538925  0.844522  0.556375  1
