# generated using pymatgen
data_SrLiBi
_symmetry_space_group_name_H-M   'P 1'
_cell_length_a   4.94864727
_cell_length_b   8.23367775
_cell_length_c   8.69123759
_cell_angle_alpha   90.00000000
_cell_angle_beta   90.00000000
_cell_angle_gamma   90.00000000
_symmetry_Int_Tables_number   1
_chemical_formula_structural   SrLiBi
_chemical_formula_sum   'Sr4 Li4 Bi4'
_cell_volume   354.12940284
_cell_formula_units_Z   4
loop_
 _symmetry_equiv_pos_site_id
 _symmetry_equiv_pos_as_xyz
  1  'x, y, z'
loop_
 _atom_site_type_symbol
 _atom_site_label
 _atom_site_symmetry_multiplicity
 _atom_site_fract_x
 _atom_site_fract_y
 _atom_site_fract_z
 _atom_site_occupancy
  Sr  Sr0  1  0.750000  0.496883  0.708591  1
  Sr  Sr1  1  0.250000  0.503117  0.291409  1
  Sr  Sr2  1  0.750000  0.996883  0.791409  1
  Sr  Sr3  1  0.250000  0.003117  0.208591  1
  Li  Li4  1  0.750000  0.337085  0.074907  1
  Li  Li5  1  0.250000  0.662915  0.925093  1
  Li  Li6  1  0.750000  0.837085  0.425093  1
  Li  Li7  1  0.250000  0.162915  0.574907  1
  Bi  Bi8  1  0.750000  0.723773  0.093813  1
  Bi  Bi9  1  0.250000  0.276227  0.906187  1
  Bi  Bi10  1  0.750000  0.223773  0.406187  1
  Bi  Bi11  1  0.250000  0.776227  0.593813  1
