# generated using pymatgen
data_Li3V3(PO4)4
_symmetry_space_group_name_H-M   'P 1'
_cell_length_a   7.67040927
_cell_length_b   8.11389744
_cell_length_c   10.19882526
_cell_angle_alpha   90.00000000
_cell_angle_beta   94.28177121
_cell_angle_gamma   90.00000000
_symmetry_Int_Tables_number   1
_chemical_formula_structural   Li3V3(PO4)4
_chemical_formula_sum   'Li6 V6 P8 O32'
_cell_volume   632.97180395
_cell_formula_units_Z   2
loop_
 _symmetry_equiv_pos_site_id
 _symmetry_equiv_pos_as_xyz
  1  'x, y, z'
loop_
 _atom_site_type_symbol
 _atom_site_label
 _atom_site_symmetry_multiplicity
 _atom_site_fract_x
 _atom_site_fract_y
 _atom_site_fract_z
 _atom_site_occupancy
  Li  Li0  1  0.158267  0.631188  0.828769  1
  Li  Li1  1  0.347550  0.366726  0.923691  1
  Li  Li2  1  0.652450  0.866726  0.076309  1
  Li  Li3  1  0.841733  0.131188  0.171231  1
  Li  Li4  1  0.638613  0.858599  0.577914  1
  Li  Li5  1  0.361387  0.358599  0.422086  1
  V  V6  1  0.142786  0.639526  0.322331  1
  V  V7  1  0.741485  0.511494  0.629511  1
  V  V8  1  0.857214  0.139526  0.677669  1
  V  V9  1  0.736371  0.494670  0.124563  1
  V  V10  1  0.263629  0.994670  0.875437  1
  V  V11  1  0.258515  0.011494  0.370489  1
  P  P12  1  0.450431  0.188239  0.141417  1
  P  P13  1  0.950159  0.302654  0.393795  1
  P  P14  1  0.548134  0.698573  0.353923  1
  P  P15  1  0.549569  0.688239  0.858583  1
  P  P16  1  0.948563  0.314972  0.900766  1
  P  P17  1  0.051437  0.814972  0.099234  1
  P  P18  1  0.451866  0.198573  0.646077  1
  P  P19  1  0.049841  0.802654  0.606205  1
  O  O20  1  0.003100  0.135126  0.848109  1
  O  O21  1  0.318388  0.141694  0.535073  1
  O  O22  1  0.192900  0.853812  0.216754  1
  O  O23  1  0.100729  0.430123  0.907910  1
  O  O24  1  0.193096  0.859367  0.709165  1
  O  O25  1  0.398640  0.569637  0.843512  1
  O  O26  1  0.806904  0.359367  0.290835  1
  O  O27  1  0.104826  0.424981  0.405860  1
  O  O28  1  0.692774  0.636235  0.967641  1
  O  O29  1  0.644550  0.695585  0.726079  1
  O  O30  1  0.130270  0.803686  0.466438  1
  O  O31  1  0.601360  0.069637  0.156488  1
  O  O32  1  0.307226  0.136235  0.032359  1
  O  O33  1  0.485602  0.872169  0.394459  1
  O  O34  1  0.986528  0.629427  0.641742  1
  O  O35  1  0.386824  0.578537  0.345058  1
  O  O36  1  0.364807  0.190989  0.777414  1
  O  O37  1  0.681612  0.641694  0.464927  1
  O  O38  1  0.505119  0.366740  0.103765  1
  O  O39  1  0.807100  0.353812  0.783246  1
  O  O40  1  0.494881  0.866740  0.896235  1
  O  O41  1  0.869730  0.303686  0.533562  1
  O  O42  1  0.144071  0.805251  0.970584  1
  O  O43  1  0.355450  0.195585  0.273921  1
  O  O44  1  0.996900  0.635126  0.151891  1
  O  O45  1  0.635193  0.690989  0.222586  1
  O  O46  1  0.855929  0.305251  0.029416  1
  O  O47  1  0.613176  0.078537  0.654942  1
  O  O48  1  0.895174  0.924981  0.594140  1
  O  O49  1  0.899271  0.930123  0.092090  1
  O  O50  1  0.013472  0.129427  0.358258  1
  O  O51  1  0.514398  0.372169  0.605541  1
