# generated using pymatgen
data_Li3Co3(PO4)4
_symmetry_space_group_name_H-M   'P 1'
_cell_length_a   8.07262970
_cell_length_b   4.93961650
_cell_length_c   15.24189575
_cell_angle_alpha   90.00000000
_cell_angle_beta   111.33767688
_cell_angle_gamma   90.00000000
_symmetry_Int_Tables_number   1
_chemical_formula_structural   Li3Co3(PO4)4
_chemical_formula_sum   'Li6 Co6 P8 O32'
_cell_volume   566.11909527
_cell_formula_units_Z   2
loop_
 _symmetry_equiv_pos_site_id
 _symmetry_equiv_pos_as_xyz
  1  'x, y, z'
loop_
 _atom_site_type_symbol
 _atom_site_label
 _atom_site_symmetry_multiplicity
 _atom_site_fract_x
 _atom_site_fract_y
 _atom_site_fract_z
 _atom_site_occupancy
  Li  Li0  1  0.201061  0.484482  0.877831  1
  Li  Li1  1  0.201061  0.015518  0.377831  1
  Li  Li2  1  0.500000  0.500000  0.500000  1
  Li  Li3  1  0.798939  0.515518  0.122169  1
  Li  Li4  1  0.798939  0.984482  0.622169  1
  Li  Li5  1  0.500000  0.000000  0.000000  1
  Co  Co6  1  0.000000  0.000000  0.500000  1
  Co  Co7  1  0.317230  0.568383  0.295085  1
  Co  Co8  1  0.317230  0.931617  0.795085  1
  Co  Co9  1  0.682770  0.068383  0.204915  1
  Co  Co10  1  0.682770  0.431617  0.704915  1
  Co  Co11  1  0.000000  0.500000  0.000000  1
  P  P12  1  0.026749  0.510467  0.644449  1
  P  P13  1  0.414632  0.980360  0.606542  1
  P  P14  1  0.585368  0.480360  0.893458  1
  P  P15  1  0.414632  0.519640  0.106542  1
  P  P16  1  0.973251  0.489533  0.355551  1
  P  P17  1  0.585368  0.019640  0.393458  1
  P  P18  1  0.026749  0.989533  0.144449  1
  P  P19  1  0.973251  0.010467  0.855551  1
  O  O20  1  0.517389  0.190968  0.892681  1
  O  O21  1  0.938655  0.180619  0.930377  1
  O  O22  1  0.561507  0.318722  0.100742  1
  O  O23  1  0.938655  0.319381  0.430377  1
  O  O24  1  0.247931  0.450264  0.019354  1
  O  O25  1  0.482611  0.690968  0.607319  1
  O  O26  1  0.752069  0.950264  0.480646  1
  O  O27  1  0.615245  0.542792  0.800222  1
  O  O28  1  0.482611  0.809032  0.107319  1
  O  O29  1  0.384755  0.457208  0.199778  1
  O  O30  1  0.980623  0.796058  0.379254  1
  O  O31  1  0.561507  0.181278  0.600742  1
  O  O32  1  0.171476  0.582430  0.741596  1
  O  O33  1  0.019377  0.203942  0.620746  1
  O  O34  1  0.752069  0.549736  0.980646  1
  O  O35  1  0.160503  0.084990  0.849380  1
  O  O36  1  0.839497  0.584990  0.650620  1
  O  O37  1  0.839497  0.915010  0.150620  1
  O  O38  1  0.019377  0.296058  0.120746  1
  O  O39  1  0.828524  0.082430  0.758404  1
  O  O40  1  0.828524  0.417570  0.258404  1
  O  O41  1  0.061345  0.819381  0.069623  1
  O  O42  1  0.160503  0.415010  0.349380  1
  O  O43  1  0.517389  0.309032  0.392681  1
  O  O44  1  0.384755  0.042792  0.699778  1
  O  O45  1  0.247931  0.049736  0.519354  1
  O  O46  1  0.171476  0.917570  0.241596  1
  O  O47  1  0.980623  0.703942  0.879254  1
  O  O48  1  0.438493  0.681278  0.899258  1
  O  O49  1  0.438493  0.818722  0.399258  1
  O  O50  1  0.615245  0.957208  0.300222  1
  O  O51  1  0.061345  0.680619  0.569623  1
