# generated using pymatgen
data_K2Ta3Cl9
_symmetry_space_group_name_H-M   'P 1'
_cell_length_a   9.89033234
_cell_length_b   9.89033234
_cell_length_c   9.74115345
_cell_angle_alpha   77.36647027
_cell_angle_beta   102.63352973
_cell_angle_gamma   62.26785532
_symmetry_Int_Tables_number   1
_chemical_formula_structural   K2Ta3Cl9
_chemical_formula_sum   'K4 Ta6 Cl18'
_cell_volume   764.23720852
_cell_formula_units_Z   2
loop_
 _symmetry_equiv_pos_site_id
 _symmetry_equiv_pos_as_xyz
  1  'x, y, z'
loop_
 _atom_site_type_symbol
 _atom_site_label
 _atom_site_symmetry_multiplicity
 _atom_site_fract_x
 _atom_site_fract_y
 _atom_site_fract_z
 _atom_site_occupancy
  K  K0  1  0.229227  0.449727  0.174208  1
  K  K1  1  0.449727  0.229227  0.825792  1
  K  K2  1  0.770773  0.550273  0.825792  1
  K  K3  1  0.550273  0.770773  0.174208  1
  Ta  Ta4  1  0.118191  0.881809  0.373475  1
  Ta  Ta5  1  0.881809  0.118191  0.626525  1
  Ta  Ta6  1  0.217850  0.953353  0.638333  1
  Ta  Ta7  1  0.953353  0.217850  0.361667  1
  Ta  Ta8  1  0.782150  0.046647  0.361667  1
  Ta  Ta9  1  0.046647  0.782150  0.638333  1
  Cl  Cl10  1  0.795048  0.795048  0.500000  1
  Cl  Cl11  1  0.892002  0.497414  0.179822  1
  Cl  Cl12  1  0.502586  0.107998  0.179822  1
  Cl  Cl13  1  0.107998  0.502586  0.820178  1
  Cl  Cl14  1  0.731765  0.268235  0.784393  1
  Cl  Cl15  1  0.268235  0.731765  0.215607  1
  Cl  Cl16  1  0.194953  0.598486  0.514217  1
  Cl  Cl17  1  0.598486  0.194953  0.485783  1
  Cl  Cl18  1  0.805047  0.401514  0.485783  1
  Cl  Cl19  1  0.401514  0.805047  0.514217  1
  Cl  Cl20  1  0.681860  0.318140  0.171434  1
  Cl  Cl21  1  0.119896  0.084466  0.814530  1
  Cl  Cl22  1  0.915534  0.880104  0.814530  1
  Cl  Cl23  1  0.880104  0.915534  0.185470  1
  Cl  Cl24  1  0.084466  0.119896  0.185470  1
  Cl  Cl25  1  0.204952  0.204952  0.500000  1
  Cl  Cl26  1  0.318140  0.681860  0.828566  1
  Cl  Cl27  1  0.497414  0.892002  0.820178  1
