# generated using pymatgen
data_Li2CoP2O7
_symmetry_space_group_name_H-M   'P 1'
_cell_length_a   8.51815737
_cell_length_b   5.05138915
_cell_length_c   13.88728881
_cell_angle_alpha   90.00000000
_cell_angle_beta   114.73711406
_cell_angle_gamma   90.00000000
_symmetry_Int_Tables_number   1
_chemical_formula_structural   Li2CoP2O7
_chemical_formula_sum   'Li8 Co4 P8 O28'
_cell_volume   542.71683265
_cell_formula_units_Z   4
loop_
 _symmetry_equiv_pos_site_id
 _symmetry_equiv_pos_as_xyz
  1  'x, y, z'
loop_
 _atom_site_type_symbol
 _atom_site_label
 _atom_site_symmetry_multiplicity
 _atom_site_fract_x
 _atom_site_fract_y
 _atom_site_fract_z
 _atom_site_occupancy
  Li  Li0  1  0.507694  0.219020  0.423263  1
  Li  Li1  1  0.045720  0.237912  0.173319  1
  Li  Li2  1  0.492306  0.719020  0.076737  1
  Li  Li3  1  0.954280  0.737912  0.326681  1
  Li  Li4  1  0.492306  0.780980  0.576737  1
  Li  Li5  1  0.954280  0.762088  0.826681  1
  Li  Li6  1  0.045720  0.262088  0.673319  1
  Li  Li7  1  0.507694  0.280980  0.923263  1
  Co  Co8  1  0.776099  0.740210  0.522034  1
  Co  Co9  1  0.776099  0.759790  0.022034  1
  Co  Co10  1  0.223901  0.259790  0.477966  1
  Co  Co11  1  0.223901  0.240210  0.977966  1
  P  P12  1  0.673282  0.267331  0.646829  1
  P  P13  1  0.188958  0.735616  0.119647  1
  P  P14  1  0.811042  0.264384  0.880353  1
  P  P15  1  0.326718  0.767331  0.853171  1
  P  P16  1  0.673282  0.232669  0.146829  1
  P  P17  1  0.326718  0.732669  0.353171  1
  P  P18  1  0.188958  0.764384  0.619647  1
  P  P19  1  0.811042  0.235616  0.380353  1
  O  O20  1  0.816985  0.092593  0.641435  1
  O  O21  1  0.296925  0.066166  0.860624  1
  O  O22  1  0.506443  0.824432  0.432514  1
  O  O23  1  0.703075  0.933834  0.139376  1
  O  O24  1  0.703075  0.566166  0.639376  1
  O  O25  1  0.506443  0.675568  0.932514  1
  O  O26  1  0.271607  0.623511  0.555282  1
  O  O27  1  0.832083  0.563378  0.902482  1
  O  O28  1  0.832083  0.936622  0.402482  1
  O  O29  1  0.296925  0.433834  0.360624  1
  O  O30  1  0.493557  0.175568  0.567486  1
  O  O31  1  0.167917  0.063378  0.597518  1
  O  O32  1  0.665092  0.220465  0.759832  1
  O  O33  1  0.728393  0.123511  0.944718  1
  O  O34  1  0.183015  0.592593  0.858565  1
  O  O35  1  0.024810  0.868139  0.116575  1
  O  O36  1  0.493557  0.324432  0.067486  1
  O  O37  1  0.334908  0.779535  0.240168  1
  O  O38  1  0.975190  0.131861  0.883425  1
  O  O39  1  0.271607  0.876489  0.055282  1
  O  O40  1  0.167917  0.436622  0.097518  1
  O  O41  1  0.334908  0.720465  0.740168  1
  O  O42  1  0.665092  0.279535  0.259832  1
  O  O43  1  0.183015  0.907407  0.358565  1
  O  O44  1  0.728393  0.376489  0.444718  1
  O  O45  1  0.975190  0.368139  0.383425  1
  O  O46  1  0.024810  0.631861  0.616575  1
  O  O47  1  0.816985  0.407407  0.141435  1
