# generated using pymatgen
data_HfF4
_symmetry_space_group_name_H-M   'P 1'
_cell_length_a   7.72809427
_cell_length_b   7.72809427
_cell_length_c   7.72134714
_cell_angle_alpha   63.34202654
_cell_angle_beta   116.65797346
_cell_angle_gamma   99.83746056
_symmetry_Int_Tables_number   1
_chemical_formula_structural   HfF4
_chemical_formula_sum   'Hf6 F24'
_cell_volume   368.04961786
_cell_formula_units_Z   6
loop_
 _symmetry_equiv_pos_site_id
 _symmetry_equiv_pos_as_xyz
  1  'x, y, z'
loop_
 _atom_site_type_symbol
 _atom_site_label
 _atom_site_symmetry_multiplicity
 _atom_site_fract_x
 _atom_site_fract_y
 _atom_site_fract_z
 _atom_site_occupancy
  Hf  Hf0  1  0.785873  0.785873  0.750000  1
  Hf  Hf1  1  0.214127  0.214127  0.250000  1
  Hf  Hf2  1  0.634045  0.223519  0.833170  1
  Hf  Hf3  1  0.223519  0.634045  0.666830  1
  Hf  Hf4  1  0.365955  0.776481  0.166830  1
  Hf  Hf5  1  0.776481  0.365955  0.333170  1
  F  F6  1  0.741552  0.317057  0.606596  1
  F  F7  1  0.317057  0.741552  0.893404  1
  F  F8  1  0.258448  0.682943  0.393404  1
  F  F9  1  0.682943  0.258448  0.106596  1
  F  F10  1  0.597873  0.815617  0.424190  1
  F  F11  1  0.815617  0.597873  0.075810  1
  F  F12  1  0.606399  0.606399  0.250000  1
  F  F13  1  0.393601  0.393601  0.750000  1
  F  F14  1  0.497535  0.261184  0.282668  1
  F  F15  1  0.261184  0.497535  0.217332  1
  F  F16  1  0.502465  0.738816  0.717332  1
  F  F17  1  0.738816  0.502465  0.782668  1
  F  F18  1  0.276333  0.029986  0.149973  1
  F  F19  1  0.029986  0.276333  0.350027  1
  F  F20  1  0.723667  0.970014  0.850027  1
  F  F21  1  0.970014  0.723667  0.649973  1
  F  F22  1  0.500000  0.000000  0.000000  1
  F  F23  1  0.000000  0.500000  0.500000  1
  F  F24  1  0.937387  0.172531  0.044184  1
  F  F25  1  0.172531  0.937387  0.455816  1
  F  F26  1  0.062613  0.827469  0.955816  1
  F  F27  1  0.827469  0.062613  0.544184  1
  F  F28  1  0.184383  0.402127  0.924190  1
  F  F29  1  0.402127  0.184383  0.575810  1
