# generated using pymatgen
data_ErAgS2
_symmetry_space_group_name_H-M   'P 1'
_cell_length_a   7.15902355
_cell_length_b   7.15902355
_cell_length_c   7.15902355
_cell_angle_alpha   135.81122608
_cell_angle_beta   135.81122608
_cell_angle_gamma   64.27231802
_symmetry_Int_Tables_number   1
_chemical_formula_structural   ErAgS2
_chemical_formula_sum   'Er2 Ag2 S4'
_cell_volume   175.82444192
_cell_formula_units_Z   2
loop_
 _symmetry_equiv_pos_site_id
 _symmetry_equiv_pos_as_xyz
  1  'x, y, z'
loop_
 _atom_site_type_symbol
 _atom_site_label
 _atom_site_symmetry_multiplicity
 _atom_site_fract_x
 _atom_site_fract_y
 _atom_site_fract_z
 _atom_site_occupancy
  Er  Er0  1  0.500000  0.500000  0.000000  1
  Er  Er1  1  0.250000  0.750000  0.500000  1
  Ag  Ag2  1  0.750000  0.250000  0.500000  1
  Ag  Ag3  1  0.000000  0.000000  0.000000  1
  S  S4  1  0.724671  0.724671  0.000000  1
  S  S5  1  0.025329  0.525329  0.500000  1
  S  S6  1  0.474671  0.974671  0.500000  1
  S  S7  1  0.275329  0.275329  0.000000  1
