# generated using pymatgen
data_CsSn2Cl5
_symmetry_space_group_name_H-M   'P 1'
_cell_length_a   9.69879298
_cell_length_b   9.69879298
_cell_length_c   9.69879298
_cell_angle_alpha   129.74556163
_cell_angle_beta   129.74556163
_cell_angle_gamma   73.81385497
_symmetry_Int_Tables_number   1
_chemical_formula_structural   CsSn2Cl5
_chemical_formula_sum   'Cs2 Sn4 Cl10'
_cell_volume   526.15400363
_cell_formula_units_Z   2
loop_
 _symmetry_equiv_pos_site_id
 _symmetry_equiv_pos_as_xyz
  1  'x, y, z'
loop_
 _atom_site_type_symbol
 _atom_site_label
 _atom_site_symmetry_multiplicity
 _atom_site_fract_x
 _atom_site_fract_y
 _atom_site_fract_z
 _atom_site_occupancy
  Cs  Cs0  1  0.250000  0.250000  0.000000  1
  Cs  Cs1  1  0.750000  0.750000  0.000000  1
  Sn  Sn2  1  0.818164  0.318164  0.136328  1
  Sn  Sn3  1  0.318164  0.181836  0.500000  1
  Sn  Sn4  1  0.681836  0.818164  0.500000  1
  Sn  Sn5  1  0.181836  0.681836  0.863672  1
  Cl  Cl6  1  0.786462  0.286462  0.829414  1
  Cl  Cl7  1  0.542952  0.042952  0.829414  1
  Cl  Cl8  1  0.213538  0.713538  0.170586  1
  Cl  Cl9  1  0.713538  0.542952  0.500000  1
  Cl  Cl10  1  0.042952  0.213538  0.500000  1
  Cl  Cl11  1  0.286462  0.457048  0.500000  1
  Cl  Cl12  1  0.500000  0.500000  0.000000  1
  Cl  Cl13  1  0.000000  0.000000  0.000000  1
  Cl  Cl14  1  0.457048  0.957048  0.170586  1
  Cl  Cl15  1  0.957048  0.786462  0.500000  1
