# generated using pymatgen
data_K2Mo2O7
_symmetry_space_group_name_H-M   'P 1'
_cell_length_a   7.11075899
_cell_length_b   7.42397499
_cell_length_c   7.74443459
_cell_angle_alpha   81.66315450
_cell_angle_beta   68.97003463
_cell_angle_gamma   85.90673477
_symmetry_Int_Tables_number   1
_chemical_formula_structural   K2Mo2O7
_chemical_formula_sum   'K4 Mo4 O14'
_cell_volume   377.48317873
_cell_formula_units_Z   2
loop_
 _symmetry_equiv_pos_site_id
 _symmetry_equiv_pos_as_xyz
  1  'x, y, z'
loop_
 _atom_site_type_symbol
 _atom_site_label
 _atom_site_symmetry_multiplicity
 _atom_site_fract_x
 _atom_site_fract_y
 _atom_site_fract_z
 _atom_site_occupancy
  K  K0  1  0.694253  0.837118  0.840532  1
  K  K1  1  0.305747  0.162882  0.159468  1
  K  K2  1  0.754380  0.379428  0.565006  1
  K  K3  1  0.245620  0.620572  0.434994  1
  Mo  Mo4  1  0.240888  0.090695  0.698687  1
  Mo  Mo5  1  0.759112  0.909305  0.301313  1
  Mo  Mo6  1  0.170183  0.650052  0.945950  1
  Mo  Mo7  1  0.829817  0.349948  0.054050  1
  O  O8  1  0.503111  0.094312  0.655794  1
  O  O9  1  0.496889  0.905688  0.344206  1
  O  O10  1  0.940091  0.535361  0.860540  1
  O  O11  1  0.059909  0.464639  0.139460  1
  O  O12  1  0.117472  0.187637  0.910447  1
  O  O13  1  0.882528  0.812363  0.089553  1
  O  O14  1  0.826101  0.770375  0.478284  1
  O  O15  1  0.173899  0.229625  0.521716  1
  O  O16  1  0.851457  0.146610  0.265250  1
  O  O17  1  0.148543  0.853390  0.734750  1
  O  O18  1  0.288099  0.785175  0.047725  1
  O  O19  1  0.711901  0.214825  0.952275  1
  O  O20  1  0.622982  0.457352  0.210621  1
  O  O21  1  0.377018  0.542648  0.789379  1
