# generated using pymatgen
data_Ca5P3ClO12
_symmetry_space_group_name_H-M   'P 1'
_cell_length_a   9.82756392
_cell_length_b   9.82756392
_cell_length_c   6.76295874
_cell_angle_alpha   90.00000000
_cell_angle_beta   90.00000000
_cell_angle_gamma   120.00000000
_symmetry_Int_Tables_number   1
_chemical_formula_structural   Ca5P3ClO12
_chemical_formula_sum   'Ca10 P6 Cl2 O24'
_cell_volume   565.66476007
_cell_formula_units_Z   2
loop_
 _symmetry_equiv_pos_site_id
 _symmetry_equiv_pos_as_xyz
  1  'x, y, z'
loop_
 _atom_site_type_symbol
 _atom_site_label
 _atom_site_symmetry_multiplicity
 _atom_site_fract_x
 _atom_site_fract_y
 _atom_site_fract_z
 _atom_site_occupancy
  Ca  Ca0  1  0.249321  0.983552  0.247961  1
  Ca  Ca1  1  0.016448  0.265769  0.247961  1
  Ca  Ca2  1  0.333333  0.666667  0.995073  1
  Ca  Ca3  1  0.333333  0.666667  0.503524  1
  Ca  Ca4  1  0.265769  0.249321  0.747961  1
  Ca  Ca5  1  0.734231  0.750679  0.247961  1
  Ca  Ca6  1  0.666667  0.333333  0.495073  1
  Ca  Ca7  1  0.666667  0.333333  0.003524  1
  Ca  Ca8  1  0.983552  0.734231  0.747961  1
  Ca  Ca9  1  0.750679  0.016448  0.747961  1
  P  P10  1  0.032099  0.622728  0.251698  1
  P  P11  1  0.590629  0.967901  0.251698  1
  P  P12  1  0.377272  0.409371  0.251698  1
  P  P13  1  0.622728  0.590629  0.751698  1
  P  P14  1  0.409371  0.032099  0.751698  1
  P  P15  1  0.967901  0.377272  0.751698  1
  Cl  Cl16  1  0.000000  0.000000  0.431888  1
  Cl  Cl17  1  0.000000  0.000000  0.931888  1
  O  O18  1  0.081230  0.734063  0.069412  1
  O  O19  1  0.088302  0.728800  0.438807  1
  O  O20  1  0.130302  0.536650  0.245139  1
  O  O21  1  0.146076  0.496825  0.753321  1
  O  O22  1  0.350749  0.853924  0.753321  1
  O  O23  1  0.406349  0.869698  0.245139  1
  O  O24  1  0.271200  0.359502  0.438807  1
  O  O25  1  0.265937  0.347167  0.069412  1
  O  O26  1  0.463350  0.593651  0.245139  1
  O  O27  1  0.503175  0.649251  0.753321  1
  O  O28  1  0.640498  0.911698  0.438807  1
  O  O29  1  0.652833  0.918770  0.069412  1
  O  O30  1  0.359502  0.088302  0.938807  1
  O  O31  1  0.347167  0.081230  0.569412  1
  O  O32  1  0.496825  0.350749  0.253321  1
  O  O33  1  0.536650  0.406349  0.745139  1
  O  O34  1  0.728800  0.640498  0.938807  1
  O  O35  1  0.734063  0.652833  0.569412  1
  O  O36  1  0.593651  0.130302  0.745139  1
  O  O37  1  0.649251  0.146076  0.253321  1
  O  O38  1  0.853924  0.503175  0.253321  1
  O  O39  1  0.869698  0.463350  0.745139  1
  O  O40  1  0.918770  0.265937  0.569412  1
  O  O41  1  0.911698  0.271200  0.938807  1
