# generated using pymatgen
data_KSnSb
_symmetry_space_group_name_H-M   'P 1'
_cell_length_a   4.44680295
_cell_length_b   4.44680295
_cell_length_c   13.29794044
_cell_angle_alpha   90.00000000
_cell_angle_beta   90.00000000
_cell_angle_gamma   120.00000000
_symmetry_Int_Tables_number   1
_chemical_formula_structural   KSnSb
_chemical_formula_sum   'K2 Sn2 Sb2'
_cell_volume   227.72503924
_cell_formula_units_Z   2
loop_
 _symmetry_equiv_pos_site_id
 _symmetry_equiv_pos_as_xyz
  1  'x, y, z'
loop_
 _atom_site_type_symbol
 _atom_site_label
 _atom_site_symmetry_multiplicity
 _atom_site_fract_x
 _atom_site_fract_y
 _atom_site_fract_z
 _atom_site_occupancy
  K  K0  1  0.333333  0.666667  0.999511  1
  K  K1  1  0.666667  0.333333  0.499511  1
  Sn  Sn2  1  0.000000  0.000000  0.296641  1
  Sn  Sn3  1  0.000000  0.000000  0.796641  1
  Sb  Sb4  1  0.333333  0.666667  0.688348  1
  Sb  Sb5  1  0.666667  0.333333  0.188348  1
