# generated using pymatgen
data_Ba(CuTe)2
_symmetry_space_group_name_H-M   'P 1'
_cell_length_a   4.46979370
_cell_length_b   10.13981281
_cell_length_c   11.55934518
_cell_angle_alpha   90.00000000
_cell_angle_beta   90.00000000
_cell_angle_gamma   90.00000000
_symmetry_Int_Tables_number   1
_chemical_formula_structural   Ba(CuTe)2
_chemical_formula_sum   'Ba4 Cu8 Te8'
_cell_volume   523.90271526
_cell_formula_units_Z   4
loop_
 _symmetry_equiv_pos_site_id
 _symmetry_equiv_pos_as_xyz
  1  'x, y, z'
loop_
 _atom_site_type_symbol
 _atom_site_label
 _atom_site_symmetry_multiplicity
 _atom_site_fract_x
 _atom_site_fract_y
 _atom_site_fract_z
 _atom_site_occupancy
  Ba  Ba0  1  0.750000  0.757800  0.821852  1
  Ba  Ba1  1  0.250000  0.242200  0.178148  1
  Ba  Ba2  1  0.750000  0.257800  0.678148  1
  Ba  Ba3  1  0.250000  0.742200  0.321852  1
  Cu  Cu4  1  0.250000  0.074575  0.455828  1
  Cu  Cu5  1  0.750000  0.925425  0.544172  1
  Cu  Cu6  1  0.750000  0.425425  0.955828  1
  Cu  Cu7  1  0.250000  0.574575  0.044172  1
  Cu  Cu8  1  0.750000  0.943623  0.112830  1
  Cu  Cu9  1  0.250000  0.056377  0.887170  1
  Cu  Cu10  1  0.750000  0.443623  0.387170  1
  Cu  Cu11  1  0.250000  0.556377  0.612830  1
  Te  Te12  1  0.250000  0.839560  0.037709  1
  Te  Te13  1  0.750000  0.160440  0.962291  1
  Te  Te14  1  0.750000  0.660440  0.537709  1
  Te  Te15  1  0.250000  0.339560  0.462291  1
  Te  Te16  1  0.750000  0.523174  0.169746  1
  Te  Te17  1  0.250000  0.476826  0.830254  1
  Te  Te18  1  0.750000  0.023174  0.330254  1
  Te  Te19  1  0.250000  0.976826  0.669746  1
