# generated using pymatgen
data_RbAsO2
_symmetry_space_group_name_H-M   'P 1'
_cell_length_a   5.61003391
_cell_length_b   7.66131000
_cell_length_c   7.93463002
_cell_angle_alpha   90.00000000
_cell_angle_beta   90.00000000
_cell_angle_gamma   90.00000000
_symmetry_Int_Tables_number   1
_chemical_formula_structural   RbAsO2
_chemical_formula_sum   'Rb4 As4 O8'
_cell_volume   341.03205576
_cell_formula_units_Z   4
loop_
 _symmetry_equiv_pos_site_id
 _symmetry_equiv_pos_as_xyz
  1  'x, y, z'
loop_
 _atom_site_type_symbol
 _atom_site_label
 _atom_site_symmetry_multiplicity
 _atom_site_fract_x
 _atom_site_fract_y
 _atom_site_fract_z
 _atom_site_occupancy
  Rb  Rb0  1  0.250000  0.359082  0.402031  1
  Rb  Rb1  1  0.750000  0.640918  0.597969  1
  Rb  Rb2  1  0.750000  0.359082  0.097969  1
  Rb  Rb3  1  0.250000  0.640918  0.902031  1
  As  As4  1  0.250000  0.846221  0.365314  1
  As  As5  1  0.750000  0.846221  0.134686  1
  As  As6  1  0.750000  0.153779  0.634686  1
  As  As7  1  0.250000  0.153779  0.865314  1
  O  O8  1  0.500000  0.268790  0.750000  1
  O  O9  1  0.000000  0.731210  0.250000  1
  O  O10  1  0.500000  0.731210  0.250000  1
  O  O11  1  0.000000  0.268790  0.750000  1
  O  O12  1  0.250000  0.719795  0.544432  1
  O  O13  1  0.250000  0.280205  0.044432  1
  O  O14  1  0.750000  0.719795  0.955568  1
  O  O15  1  0.750000  0.280205  0.455568  1
