# generated using pymatgen
data_K2CO3
_symmetry_space_group_name_H-M   'P 1'
_cell_length_a   5.73175924
_cell_length_b   9.87039588
_cell_length_c   7.14730839
_cell_angle_alpha   90.00000000
_cell_angle_beta   97.32860826
_cell_angle_gamma   90.00000000
_symmetry_Int_Tables_number   1
_chemical_formula_structural   K2CO3
_chemical_formula_sum   'K8 C4 O12'
_cell_volume   401.05381871
_cell_formula_units_Z   4
loop_
 _symmetry_equiv_pos_site_id
 _symmetry_equiv_pos_as_xyz
  1  'x, y, z'
loop_
 _atom_site_type_symbol
 _atom_site_label
 _atom_site_symmetry_multiplicity
 _atom_site_fract_x
 _atom_site_fract_y
 _atom_site_fract_z
 _atom_site_occupancy
  K  K0  1  0.742042  0.768176  0.475363  1
  K  K1  1  0.257958  0.268176  0.024637  1
  K  K2  1  0.257958  0.231824  0.524637  1
  K  K3  1  0.742042  0.731824  0.975363  1
  K  K4  1  0.241538  0.581558  0.693560  1
  K  K5  1  0.758462  0.081558  0.806440  1
  K  K6  1  0.758462  0.418442  0.306440  1
  K  K7  1  0.241538  0.918442  0.193560  1
  C  C8  1  0.251097  0.584112  0.255824  1
  C  C9  1  0.251097  0.915888  0.755824  1
  C  C10  1  0.748903  0.415888  0.744176  1
  C  C11  1  0.748903  0.084112  0.244176  1
  O  O12  1  0.062473  0.845734  0.775807  1
  O  O13  1  0.937527  0.345734  0.724193  1
  O  O14  1  0.937527  0.154266  0.224193  1
  O  O15  1  0.062473  0.654266  0.275807  1
  O  O16  1  0.428232  0.859015  0.689213  1
  O  O17  1  0.428232  0.640985  0.189213  1
  O  O18  1  0.571768  0.140985  0.310787  1
  O  O19  1  0.571768  0.359015  0.810787  1
  O  O20  1  0.738086  0.956696  0.193586  1
  O  O21  1  0.261914  0.456696  0.306414  1
  O  O22  1  0.261914  0.043304  0.806414  1
  O  O23  1  0.738086  0.543304  0.693586  1
