# generated using pymatgen
data_Li3V3(PO4)4
_symmetry_space_group_name_H-M   'P 1'
_cell_length_a   8.23030580
_cell_length_b   4.98265650
_cell_length_c   15.53312313
_cell_angle_alpha   90.00000000
_cell_angle_beta   112.04907542
_cell_angle_gamma   90.00000000
_symmetry_Int_Tables_number   1
_chemical_formula_structural   Li3V3(PO4)4
_chemical_formula_sum   'Li6 V6 P8 O32'
_cell_volume   590.40644348
_cell_formula_units_Z   2
loop_
 _symmetry_equiv_pos_site_id
 _symmetry_equiv_pos_as_xyz
  1  'x, y, z'
loop_
 _atom_site_type_symbol
 _atom_site_label
 _atom_site_symmetry_multiplicity
 _atom_site_fract_x
 _atom_site_fract_y
 _atom_site_fract_z
 _atom_site_occupancy
  Li  Li0  1  0.298415  0.521908  0.122160  1
  Li  Li1  1  0.701585  0.021908  0.377840  1
  Li  Li2  1  0.298415  0.978092  0.622160  1
  Li  Li3  1  0.701585  0.478092  0.877840  1
  Li  Li4  1  0.000000  0.000000  0.000000  1
  Li  Li5  1  0.000000  0.500000  0.500000  1
  V  V6  1  0.500000  0.000000  0.500000  1
  V  V7  1  0.821829  0.926597  0.791787  1
  V  V8  1  0.178171  0.426597  0.708213  1
  V  V9  1  0.821829  0.573403  0.291787  1
  V  V10  1  0.500000  0.500000  0.000000  1
  V  V11  1  0.178171  0.073403  0.208213  1
  P  P12  1  0.526516  0.504902  0.650156  1
  P  P13  1  0.473484  0.495098  0.349844  1
  P  P14  1  0.526516  0.995098  0.150156  1
  P  P15  1  0.927003  0.511133  0.107228  1
  P  P16  1  0.072997  0.011133  0.392772  1
  P  P17  1  0.072997  0.488867  0.892772  1
  P  P18  1  0.927003  0.988867  0.607228  1
  P  P19  1  0.473484  0.004902  0.849844  1
  O  O20  1  0.907911  0.427601  0.199322  1
  O  O21  1  0.653814  0.082182  0.841993  1
  O  O22  1  0.522719  0.201792  0.627858  1
  O  O23  1  0.346186  0.582182  0.658007  1
  O  O24  1  0.000133  0.203571  0.888333  1
  O  O25  1  0.346186  0.917818  0.158007  1
  O  O26  1  0.999867  0.796429  0.111667  1
  O  O27  1  0.677643  0.583022  0.742860  1
  O  O28  1  0.758338  0.468460  0.021255  1
  O  O29  1  0.451649  0.327196  0.426877  1
  O  O30  1  0.999867  0.703571  0.611667  1
  O  O31  1  0.548351  0.672804  0.573123  1
  O  O32  1  0.907911  0.072399  0.699322  1
  O  O33  1  0.092089  0.572399  0.800678  1
  O  O34  1  0.000133  0.296429  0.388333  1
  O  O35  1  0.322357  0.083022  0.757140  1
  O  O36  1  0.451649  0.172804  0.926877  1
  O  O37  1  0.522719  0.298208  0.127858  1
  O  O38  1  0.677643  0.916978  0.242860  1
  O  O39  1  0.241662  0.968460  0.478745  1
  O  O40  1  0.548351  0.827196  0.073123  1
  O  O41  1  0.241662  0.531540  0.978745  1
  O  O42  1  0.092089  0.927601  0.300678  1
  O  O43  1  0.934815  0.694180  0.903244  1
  O  O44  1  0.653814  0.417818  0.341993  1
  O  O45  1  0.065185  0.305820  0.096756  1
  O  O46  1  0.477281  0.798208  0.372142  1
  O  O47  1  0.322357  0.416978  0.257140  1
  O  O48  1  0.477281  0.701792  0.872142  1
  O  O49  1  0.758338  0.031540  0.521255  1
  O  O50  1  0.065185  0.194180  0.596756  1
  O  O51  1  0.934815  0.805820  0.403244  1
