# generated using pymatgen
data_Li4Co(PO4)2
_symmetry_space_group_name_H-M   'P 1'
_cell_length_a   8.20747403
_cell_length_b   10.42492941
_cell_length_c   8.24263110
_cell_angle_alpha   90.00000000
_cell_angle_beta   104.80631640
_cell_angle_gamma   90.00000000
_symmetry_Int_Tables_number   1
_chemical_formula_structural   Li4Co(PO4)2
_chemical_formula_sum   'Li16 Co4 P8 O32'
_cell_volume   681.84082173
_cell_formula_units_Z   4
loop_
 _symmetry_equiv_pos_site_id
 _symmetry_equiv_pos_as_xyz
  1  'x, y, z'
loop_
 _atom_site_type_symbol
 _atom_site_label
 _atom_site_symmetry_multiplicity
 _atom_site_fract_x
 _atom_site_fract_y
 _atom_site_fract_z
 _atom_site_occupancy
  Li  Li0  1  0.227691  0.427430  0.477864  1
  Li  Li1  1  0.272309  0.927430  0.522136  1
  Li  Li2  1  0.849759  0.651582  0.851171  1
  Li  Li3  1  0.342508  0.662639  0.345366  1
  Li  Li4  1  0.150241  0.348418  0.148829  1
  Li  Li5  1  0.099500  0.664225  0.602078  1
  Li  Li6  1  0.650241  0.151582  0.148829  1
  Li  Li7  1  0.599500  0.835775  0.602078  1
  Li  Li8  1  0.157492  0.162639  0.654634  1
  Li  Li9  1  0.727691  0.072570  0.477864  1
  Li  Li10  1  0.349759  0.848418  0.851171  1
  Li  Li11  1  0.842508  0.837361  0.345366  1
  Li  Li12  1  0.400500  0.164225  0.397922  1
  Li  Li13  1  0.657492  0.337361  0.654634  1
  Li  Li14  1  0.900500  0.335775  0.397922  1
  Li  Li15  1  0.772309  0.572570  0.522136  1
  Co  Co16  1  0.589397  0.656173  0.093851  1
  Co  Co17  1  0.089397  0.843827  0.093851  1
  Co  Co18  1  0.910603  0.156173  0.906149  1
  Co  Co19  1  0.410603  0.343827  0.906149  1
  P  P20  1  0.473916  0.592017  0.710221  1
  P  P21  1  0.026084  0.092017  0.289779  1
  P  P22  1  0.973916  0.907983  0.710221  1
  P  P23  1  0.465324  0.906707  0.232430  1
  P  P24  1  0.526084  0.407983  0.289779  1
  P  P25  1  0.534676  0.093293  0.767570  1
  P  P26  1  0.965324  0.593293  0.232430  1
  P  P27  1  0.034676  0.406707  0.767570  1
  O  O28  1  0.115446  0.670150  0.196033  1
  O  O29  1  0.814972  0.604186  0.072089  1
  O  O30  1  0.615446  0.829850  0.196033  1
  O  O31  1  0.628833  0.650217  0.661437  1
  O  O32  1  0.813094  0.898724  0.562412  1
  O  O33  1  0.058721  0.167226  0.137389  1
  O  O34  1  0.185028  0.395814  0.927911  1
  O  O35  1  0.521406  0.047082  0.273950  1
  O  O36  1  0.509075  0.447140  0.754547  1
  O  O37  1  0.978594  0.547082  0.726050  1
  O  O38  1  0.478594  0.952918  0.726050  1
  O  O39  1  0.686906  0.398724  0.437588  1
  O  O40  1  0.411848  0.845291  0.383251  1
  O  O41  1  0.088152  0.345291  0.616749  1
  O  O42  1  0.128833  0.849783  0.661437  1
  O  O43  1  0.021406  0.452918  0.273950  1
  O  O44  1  0.588152  0.154709  0.616749  1
  O  O45  1  0.558721  0.332774  0.137389  1
  O  O46  1  0.990925  0.947140  0.245453  1
  O  O47  1  0.186906  0.101276  0.437588  1
  O  O48  1  0.371167  0.349783  0.338563  1
  O  O49  1  0.009075  0.052860  0.754547  1
  O  O50  1  0.871167  0.150217  0.338563  1
  O  O51  1  0.441279  0.667226  0.862611  1
  O  O52  1  0.384554  0.170150  0.803967  1
  O  O53  1  0.313094  0.601276  0.562412  1
  O  O54  1  0.911848  0.654709  0.383251  1
  O  O55  1  0.884554  0.329850  0.803967  1
  O  O56  1  0.314972  0.895814  0.072089  1
  O  O57  1  0.490925  0.552860  0.245453  1
  O  O58  1  0.685028  0.104186  0.927911  1
  O  O59  1  0.941279  0.832774  0.862611  1
