# generated using pymatgen
data_Nd3TaO7
_symmetry_space_group_name_H-M   'P 1'
_cell_length_a   6.68158448
_cell_length_b   6.68158448
_cell_length_c   7.74357138
_cell_angle_alpha   90.00000000
_cell_angle_beta   90.00000000
_cell_angle_gamma   109.65322459
_symmetry_Int_Tables_number   1
_chemical_formula_structural   Nd3TaO7
_chemical_formula_sum   'Nd6 Ta2 O14'
_cell_volume   325.56203553
_cell_formula_units_Z   2
loop_
 _symmetry_equiv_pos_site_id
 _symmetry_equiv_pos_as_xyz
  1  'x, y, z'
loop_
 _atom_site_type_symbol
 _atom_site_label
 _atom_site_symmetry_multiplicity
 _atom_site_fract_x
 _atom_site_fract_y
 _atom_site_fract_z
 _atom_site_occupancy
  Nd  Nd0  1  0.500000  0.500000  0.500000  1
  Nd  Nd1  1  0.500000  0.500000  0.000000  1
  Nd  Nd2  1  0.535283  0.999259  0.750000  1
  Nd  Nd3  1  0.464717  0.000741  0.250000  1
  Nd  Nd4  1  0.999259  0.535283  0.250000  1
  Nd  Nd5  1  0.000741  0.464717  0.750000  1
  Ta  Ta6  1  0.000000  0.000000  0.500000  1
  Ta  Ta7  1  0.000000  0.000000  0.000000  1
  O  O8  1  0.057120  0.942880  0.250000  1
  O  O9  1  0.942880  0.057120  0.750000  1
  O  O10  1  0.635107  0.364893  0.750000  1
  O  O11  1  0.364893  0.635107  0.250000  1
  O  O12  1  0.629427  0.370573  0.250000  1
  O  O13  1  0.370573  0.629427  0.750000  1
  O  O14  1  0.068979  0.313619  0.029455  1
  O  O15  1  0.931021  0.686381  0.529455  1
  O  O16  1  0.068979  0.313619  0.470545  1
  O  O17  1  0.931021  0.686381  0.970545  1
  O  O18  1  0.313619  0.068979  0.529455  1
  O  O19  1  0.686381  0.931021  0.029455  1
  O  O20  1  0.686381  0.931021  0.470545  1
  O  O21  1  0.313619  0.068979  0.970545  1
