# generated using pymatgen
data_RbAuBr4
_symmetry_space_group_name_H-M   'P 1'
_cell_length_a   7.68337194
_cell_length_b   6.37477458
_cell_length_c   10.93193860
_cell_angle_alpha   90.00000000
_cell_angle_beta   122.66039889
_cell_angle_gamma   90.00000000
_symmetry_Int_Tables_number   1
_chemical_formula_structural   RbAuBr4
_chemical_formula_sum   'Rb2 Au2 Br8'
_cell_volume   450.78153476
_cell_formula_units_Z   2
loop_
 _symmetry_equiv_pos_site_id
 _symmetry_equiv_pos_as_xyz
  1  'x, y, z'
loop_
 _atom_site_type_symbol
 _atom_site_label
 _atom_site_symmetry_multiplicity
 _atom_site_fract_x
 _atom_site_fract_y
 _atom_site_fract_z
 _atom_site_occupancy
  Rb  Rb0  1  0.500000  0.000000  0.500000  1
  Rb  Rb1  1  0.500000  0.500000  0.000000  1
  Au  Au2  1  0.000000  0.500000  0.500000  1
  Au  Au3  1  0.000000  0.000000  0.000000  1
  Br  Br4  1  0.961362  0.218597  0.329882  1
  Br  Br5  1  0.038638  0.718597  0.170118  1
  Br  Br6  1  0.038638  0.781403  0.670118  1
  Br  Br7  1  0.961362  0.281403  0.829882  1
  Br  Br8  1  0.619737  0.984957  0.878525  1
  Br  Br9  1  0.380263  0.484957  0.621475  1
  Br  Br10  1  0.380263  0.015043  0.121475  1
  Br  Br11  1  0.619737  0.515043  0.378525  1
