# generated using pymatgen
data_NbAg7S6
_symmetry_space_group_name_H-M   'P 1'
_cell_length_a   7.73605086
_cell_length_b   7.45306846
_cell_length_c   13.35381882
_cell_angle_alpha   90.00000000
_cell_angle_beta   124.76909957
_cell_angle_gamma   90.00000000
_symmetry_Int_Tables_number   1
_chemical_formula_structural   NbAg7S6
_chemical_formula_sum   'Nb2 Ag14 S12'
_cell_volume   632.47691628
_cell_formula_units_Z   2
loop_
 _symmetry_equiv_pos_site_id
 _symmetry_equiv_pos_as_xyz
  1  'x, y, z'
loop_
 _atom_site_type_symbol
 _atom_site_label
 _atom_site_symmetry_multiplicity
 _atom_site_fract_x
 _atom_site_fract_y
 _atom_site_fract_z
 _atom_site_occupancy
  Nb  Nb0  1  0.006651  0.744188  0.503368  1
  Nb  Nb1  1  0.006651  0.255812  0.003368  1
  Ag  Ag2  1  0.105773  0.379362  0.410081  1
  Ag  Ag3  1  0.105773  0.620638  0.910081  1
  Ag  Ag4  1  0.480458  0.457090  0.151331  1
  Ag  Ag5  1  0.480458  0.542910  0.651331  1
  Ag  Ag6  1  0.915386  0.100754  0.194813  1
  Ag  Ag7  1  0.915386  0.899246  0.694813  1
  Ag  Ag8  1  0.311114  0.283462  0.281729  1
  Ag  Ag9  1  0.311114  0.716538  0.781729  1
  Ag  Ag10  1  0.697670  0.180579  0.732727  1
  Ag  Ag11  1  0.697670  0.819421  0.232727  1
  Ag  Ag12  1  0.307731  0.986777  0.990088  1
  Ag  Ag13  1  0.307731  0.013223  0.490088  1
  Ag  Ag14  1  0.718852  0.085006  0.454584  1
  Ag  Ag15  1  0.718852  0.914994  0.954584  1
  S  S16  1  0.510702  0.714506  0.012811  1
  S  S17  1  0.510702  0.285494  0.512811  1
  S  S18  1  0.748252  0.767657  0.784063  1
  S  S19  1  0.748252  0.232343  0.284063  1
  S  S20  1  0.148809  0.998401  0.631979  1
  S  S21  1  0.148809  0.001599  0.131979  1
  S  S22  1  0.119076  0.477379  0.614498  1
  S  S23  1  0.119076  0.522621  0.114498  1
  S  S24  1  0.107787  0.745147  0.367358  1
  S  S25  1  0.107787  0.254853  0.867358  1
  S  S26  1  0.644739  0.742353  0.398568  1
  S  S27  1  0.644739  0.257647  0.898568  1
