# generated using pymatgen
data_Dy5AgS8
_symmetry_space_group_name_H-M   'P 1'
_cell_length_a   7.22257652
_cell_length_b   7.22257652
_cell_length_c   7.22257652
_cell_angle_alpha   109.60710564
_cell_angle_beta   109.60710564
_cell_angle_gamma   109.19979111
_symmetry_Int_Tables_number   1
_chemical_formula_structural   Dy5AgS8
_chemical_formula_sum   'Dy5 Ag1 S8'
_cell_volume   290.03289587
_cell_formula_units_Z   1
loop_
 _symmetry_equiv_pos_site_id
 _symmetry_equiv_pos_as_xyz
  1  'x, y, z'
loop_
 _atom_site_type_symbol
 _atom_site_label
 _atom_site_symmetry_multiplicity
 _atom_site_fract_x
 _atom_site_fract_y
 _atom_site_fract_z
 _atom_site_occupancy
  Dy  Dy0  1  0.233740  0.621463  0.118036  1
  Dy  Dy1  1  0.378537  0.496572  0.612276  1
  Dy  Dy2  1  0.503428  0.115704  0.881964  1
  Dy  Dy3  1  0.750000  0.250000  0.500000  1
  Dy  Dy4  1  0.884296  0.766260  0.387724  1
  Ag  Ag5  1  0.000000  0.000000  0.000000  1
  S  S6  1  0.268685  0.017014  0.389639  1
  S  S7  1  0.505311  0.391194  0.259605  1
  S  S8  1  0.754295  0.494689  0.885883  1
  S  S9  1  0.608806  0.868412  0.114117  1
  S  S10  1  0.627375  0.879046  0.610361  1
  S  S11  1  0.120954  0.731315  0.748329  1
  S  S12  1  0.982986  0.372625  0.251671  1
  S  S13  1  0.131588  0.245705  0.740395  1
