# generated using pymatgen
data_CsTaN2
_symmetry_space_group_name_H-M   'P 1'
_cell_length_a   6.29363060
_cell_length_b   6.29363060
_cell_length_c   6.29363060
_cell_angle_alpha   120.08740032
_cell_angle_beta   120.08740032
_cell_angle_gamma   89.84868475
_symmetry_Int_Tables_number   1
_chemical_formula_structural   CsTaN2
_chemical_formula_sum   'Cs2 Ta2 N4'
_cell_volume   176.04066501
_cell_formula_units_Z   2
loop_
 _symmetry_equiv_pos_site_id
 _symmetry_equiv_pos_as_xyz
  1  'x, y, z'
loop_
 _atom_site_type_symbol
 _atom_site_label
 _atom_site_symmetry_multiplicity
 _atom_site_fract_x
 _atom_site_fract_y
 _atom_site_fract_z
 _atom_site_occupancy
  Cs  Cs0  1  0.500000  0.500000  0.000000  1
  Cs  Cs1  1  0.250000  0.750000  0.500000  1
  Ta  Ta2  1  0.000000  0.000000  0.000000  1
  Ta  Ta3  1  0.750000  0.250000  0.500000  1
  N  N4  1  0.375000  0.168586  0.293586  1
  N  N5  1  0.918586  0.625000  0.793586  1
  N  N6  1  0.831414  0.125000  0.206414  1
  N  N7  1  0.875000  0.081414  0.706414  1
