# generated using pymatgen
data_BaV3O8
_symmetry_space_group_name_H-M   'P 1'
_cell_length_a   7.60836582
_cell_length_b   5.63825440
_cell_length_c   8.38565701
_cell_angle_alpha   90.00000000
_cell_angle_beta   107.39485789
_cell_angle_gamma   90.00000000
_symmetry_Int_Tables_number   1
_chemical_formula_structural   BaV3O8
_chemical_formula_sum   'Ba2 V6 O16'
_cell_volume   343.27575258
_cell_formula_units_Z   2
loop_
 _symmetry_equiv_pos_site_id
 _symmetry_equiv_pos_as_xyz
  1  'x, y, z'
loop_
 _atom_site_type_symbol
 _atom_site_label
 _atom_site_symmetry_multiplicity
 _atom_site_fract_x
 _atom_site_fract_y
 _atom_site_fract_z
 _atom_site_occupancy
  Ba  Ba0  1  0.784277  0.250000  0.101833  1
  Ba  Ba1  1  0.215723  0.750000  0.898167  1
  V  V2  1  0.069377  0.750000  0.361098  1
  V  V3  1  0.414533  0.250000  0.681779  1
  V  V4  1  0.295058  0.250000  0.221905  1
  V  V5  1  0.585467  0.750000  0.318221  1
  V  V6  1  0.704942  0.750000  0.778095  1
  V  V7  1  0.930623  0.250000  0.638902  1
  O  O8  1  0.476830  0.502990  0.201326  1
  O  O9  1  0.476830  0.997010  0.201326  1
  O  O10  1  0.869521  0.997243  0.728879  1
  O  O11  1  0.427794  0.250000  0.485612  1
  O  O12  1  0.167891  0.750000  0.566807  1
  O  O13  1  0.523170  0.002990  0.798674  1
  O  O14  1  0.177242  0.250000  0.016402  1
  O  O15  1  0.817944  0.750000  0.311398  1
  O  O16  1  0.869521  0.502757  0.728879  1
  O  O17  1  0.523170  0.497010  0.798674  1
  O  O18  1  0.822758  0.750000  0.983598  1
  O  O19  1  0.572206  0.750000  0.514388  1
  O  O20  1  0.130479  0.497243  0.271121  1
  O  O21  1  0.832109  0.250000  0.433193  1
  O  O22  1  0.130479  0.002757  0.271121  1
  O  O23  1  0.182056  0.250000  0.688602  1
