# generated using pymatgen
data_Ta2MnO6
_symmetry_space_group_name_H-M   'P 1'
_cell_length_a   4.79382678
_cell_length_b   5.20069692
_cell_length_c   17.41658900
_cell_angle_alpha   90.00000000
_cell_angle_beta   90.00000000
_cell_angle_gamma   90.00000000
_symmetry_Int_Tables_number   1
_chemical_formula_structural   Ta2MnO6
_chemical_formula_sum   'Ta8 Mn4 O24'
_cell_volume   434.21716312
_cell_formula_units_Z   4
loop_
 _symmetry_equiv_pos_site_id
 _symmetry_equiv_pos_as_xyz
  1  'x, y, z'
loop_
 _atom_site_type_symbol
 _atom_site_label
 _atom_site_symmetry_multiplicity
 _atom_site_fract_x
 _atom_site_fract_y
 _atom_site_fract_z
 _atom_site_occupancy
  Ta  Ta0  1  0.000000  0.250000  0.218596  1
  Ta  Ta1  1  0.000000  0.250000  0.553984  1
  Ta  Ta2  1  0.500000  0.750000  0.281404  1
  Ta  Ta3  1  0.500000  0.750000  0.946016  1
  Ta  Ta4  1  0.500000  0.250000  0.053984  1
  Ta  Ta5  1  0.500000  0.250000  0.718596  1
  Ta  Ta6  1  0.000000  0.750000  0.446016  1
  Ta  Ta7  1  0.000000  0.750000  0.781404  1
  Mn  Mn8  1  0.000000  0.250000  0.892793  1
  Mn  Mn9  1  0.500000  0.750000  0.607207  1
  Mn  Mn10  1  0.500000  0.250000  0.392793  1
  Mn  Mn11  1  0.000000  0.750000  0.107207  1
  O  O12  1  0.230586  0.108392  0.128394  1
  O  O13  1  0.214633  0.067214  0.465434  1
  O  O14  1  0.238072  0.072881  0.787347  1
  O  O15  1  0.261928  0.072881  0.287347  1
  O  O16  1  0.269414  0.108392  0.628394  1
  O  O17  1  0.285367  0.067214  0.965434  1
  O  O18  1  0.238072  0.572881  0.212653  1
  O  O19  1  0.214633  0.567214  0.534566  1
  O  O20  1  0.230586  0.608392  0.871606  1
  O  O21  1  0.285367  0.567214  0.034566  1
  O  O22  1  0.269414  0.608392  0.371606  1
  O  O23  1  0.261928  0.572881  0.712653  1
  O  O24  1  0.738072  0.427119  0.287347  1
  O  O25  1  0.730586  0.391608  0.628394  1
  O  O26  1  0.714633  0.432786  0.965434  1
  O  O27  1  0.769414  0.391608  0.128394  1
  O  O28  1  0.785367  0.432786  0.465434  1
  O  O29  1  0.761928  0.427119  0.787347  1
  O  O30  1  0.714633  0.932786  0.034566  1
  O  O31  1  0.730586  0.891608  0.371606  1
  O  O32  1  0.738072  0.927119  0.712653  1
  O  O33  1  0.761928  0.927119  0.212653  1
  O  O34  1  0.785367  0.932786  0.534566  1
  O  O35  1  0.769414  0.891608  0.871606  1
