# generated using pymatgen
data_LiBiS2
_symmetry_space_group_name_H-M   'P 1'
_cell_length_a   6.88097101
_cell_length_b   6.88097101
_cell_length_c   6.88097101
_cell_angle_alpha   132.16920893
_cell_angle_beta   132.16920893
_cell_angle_gamma   69.96191072
_symmetry_Int_Tables_number   1
_chemical_formula_structural   LiBiS2
_chemical_formula_sum   'Li2 Bi2 S4'
_cell_volume   175.47484882
_cell_formula_units_Z   2
loop_
 _symmetry_equiv_pos_site_id
 _symmetry_equiv_pos_as_xyz
  1  'x, y, z'
loop_
 _atom_site_type_symbol
 _atom_site_label
 _atom_site_symmetry_multiplicity
 _atom_site_fract_x
 _atom_site_fract_y
 _atom_site_fract_z
 _atom_site_occupancy
  Li  Li0  1  0.000000  0.000000  0.000000  1
  Li  Li1  1  0.750000  0.250000  0.500000  1
  Bi  Bi2  1  0.250000  0.750000  0.500000  1
  Bi  Bi3  1  0.500000  0.500000  0.000000  1
  S  S4  1  0.999309  0.499309  0.500000  1
  S  S5  1  0.750691  0.750691  0.000000  1
  S  S6  1  0.500691  0.000691  0.500000  1
  S  S7  1  0.249309  0.249309  0.000000  1
