# generated using pymatgen
data_Te3P2O11
_symmetry_space_group_name_H-M   'P 1'
_cell_length_a   10.14537442
_cell_length_b   7.49866687
_cell_length_c   12.66163053
_cell_angle_alpha   90.00000000
_cell_angle_beta   98.02635129
_cell_angle_gamma   90.00000000
_symmetry_Int_Tables_number   1
_chemical_formula_structural   Te3P2O11
_chemical_formula_sum   'Te12 P8 O44'
_cell_volume   953.82001945
_cell_formula_units_Z   4
loop_
 _symmetry_equiv_pos_site_id
 _symmetry_equiv_pos_as_xyz
  1  'x, y, z'
loop_
 _atom_site_type_symbol
 _atom_site_label
 _atom_site_symmetry_multiplicity
 _atom_site_fract_x
 _atom_site_fract_y
 _atom_site_fract_z
 _atom_site_occupancy
  Te  Te0  1  0.132721  0.278457  0.641091  1
  Te  Te1  1  0.367279  0.778457  0.358909  1
  Te  Te2  1  0.867279  0.721543  0.358909  1
  Te  Te3  1  0.632721  0.221543  0.641091  1
  Te  Te4  1  0.946338  0.255919  0.849451  1
  Te  Te5  1  0.553662  0.755919  0.150549  1
  Te  Te6  1  0.053662  0.744081  0.150549  1
  Te  Te7  1  0.446338  0.244081  0.849451  1
  Te  Te8  1  0.030603  0.804749  0.763501  1
  Te  Te9  1  0.469397  0.304749  0.236499  1
  Te  Te10  1  0.969397  0.195251  0.236499  1
  Te  Te11  1  0.530603  0.695251  0.763501  1
  P  P12  1  0.231571  0.694778  0.587403  1
  P  P13  1  0.268429  0.194778  0.412597  1
  P  P14  1  0.768429  0.305222  0.412597  1
  P  P15  1  0.731571  0.805222  0.587403  1
  P  P16  1  0.826836  0.685733  0.927241  1
  P  P17  1  0.673164  0.185733  0.072759  1
  P  P18  1  0.173164  0.314267  0.072759  1
  P  P19  1  0.326836  0.814267  0.927241  1
  O  O20  1  0.211891  0.752226  0.470088  1
  O  O21  1  0.288109  0.252226  0.529912  1
  O  O22  1  0.788109  0.247774  0.529912  1
  O  O23  1  0.711891  0.747774  0.470088  1
  O  O24  1  0.377565  0.643385  0.625306  1
  O  O25  1  0.122435  0.143385  0.374694  1
  O  O26  1  0.622435  0.356615  0.374694  1
  O  O27  1  0.877565  0.856615  0.625306  1
  O  O28  1  0.131863  0.532605  0.595240  1
  O  O29  1  0.368137  0.032605  0.404760  1
  O  O30  1  0.868137  0.467395  0.404760  1
  O  O31  1  0.631863  0.967395  0.595240  1
  O  O32  1  0.182844  0.843247  0.659512  1
  O  O33  1  0.317156  0.343247  0.340488  1
  O  O34  1  0.817156  0.156753  0.340488  1
  O  O35  1  0.673139  0.708878  0.903748  1
  O  O36  1  0.682844  0.656753  0.659512  1
  O  O37  1  0.636778  0.190325  0.950614  1
  O  O38  1  0.136778  0.309675  0.950614  1
  O  O39  1  0.363222  0.809675  0.049386  1
  O  O40  1  0.549014  0.441852  0.769918  1
  O  O41  1  0.950986  0.941852  0.230082  1
  O  O42  1  0.450986  0.558148  0.230082  1
  O  O43  1  0.049014  0.058148  0.769918  1
  O  O44  1  0.519863  0.106335  0.744223  1
  O  O45  1  0.980137  0.606335  0.255777  1
  O  O46  1  0.480137  0.893665  0.255777  1
  O  O47  1  0.019863  0.393665  0.744223  1
  O  O48  1  0.780771  0.200852  0.744837  1
  O  O49  1  0.719229  0.700852  0.255163  1
  O  O50  1  0.219229  0.799148  0.255163  1
  O  O51  1  0.280771  0.299148  0.744837  1
  O  O52  1  0.395089  0.654439  0.874544  1
  O  O53  1  0.104911  0.154439  0.125456  1
  O  O54  1  0.604911  0.345561  0.125456  1
  O  O55  1  0.895089  0.845561  0.874544  1
  O  O56  1  0.371767  0.987796  0.877838  1
  O  O57  1  0.128233  0.487796  0.122162  1
  O  O58  1  0.628233  0.012204  0.122162  1
  O  O59  1  0.871767  0.512204  0.877838  1
  O  O60  1  0.173139  0.791122  0.903748  1
  O  O61  1  0.326861  0.291122  0.096252  1
  O  O62  1  0.826861  0.208878  0.096252  1
  O  O63  1  0.863222  0.690325  0.049386  1
