# generated using pymatgen
data_Li7SbO6
_symmetry_space_group_name_H-M   'P 1'
_cell_length_a   5.42292235
_cell_length_b   5.47258058
_cell_length_c   5.89679954
_cell_angle_alpha   63.57776163
_cell_angle_beta   64.33871379
_cell_angle_gamma   60.97611499
_symmetry_Int_Tables_number   1
_chemical_formula_structural   Li7SbO6
_chemical_formula_sum   'Li7 Sb1 O6'
_cell_volume   131.66467484
_cell_formula_units_Z   1
loop_
 _symmetry_equiv_pos_site_id
 _symmetry_equiv_pos_as_xyz
  1  'x, y, z'
loop_
 _atom_site_type_symbol
 _atom_site_label
 _atom_site_symmetry_multiplicity
 _atom_site_fract_x
 _atom_site_fract_y
 _atom_site_fract_z
 _atom_site_occupancy
  Li  Li0  1  0.104613  0.739810  0.620592  1
  Li  Li1  1  0.476086  0.143932  0.618538  1
  Li  Li2  1  0.348247  0.345763  0.992946  1
  Li  Li3  1  0.623490  0.641016  0.051339  1
  Li  Li4  1  0.498245  0.901450  0.367050  1
  Li  Li5  1  0.912259  0.239921  0.355218  1
  Li  Li6  1  0.792301  0.499637  0.625344  1
  Sb  Sb7  1  0.004764  0.986383  0.006406  1
  O  O8  1  0.087036  0.362817  0.791760  1
  O  O9  1  0.234801  0.917449  0.235102  1
  O  O10  1  0.633825  0.217981  0.231753  1
  O  O11  1  0.380546  0.765869  0.766235  1
  O  O12  1  0.783345  0.094531  0.747475  1
  O  O13  1  0.891343  0.632439  0.232942  1
