# generated using pymatgen
data_BaY2O4
_symmetry_space_group_name_H-M   'P 1'
_cell_length_a   3.48858638
_cell_length_b   10.52326119
_cell_length_c   12.24543782
_cell_angle_alpha   90.00000000
_cell_angle_beta   90.00000000
_cell_angle_gamma   90.00000000
_symmetry_Int_Tables_number   1
_chemical_formula_structural   BaY2O4
_chemical_formula_sum   'Ba4 Y8 O16'
_cell_volume   449.54601076
_cell_formula_units_Z   4
loop_
 _symmetry_equiv_pos_site_id
 _symmetry_equiv_pos_as_xyz
  1  'x, y, z'
loop_
 _atom_site_type_symbol
 _atom_site_label
 _atom_site_symmetry_multiplicity
 _atom_site_fract_x
 _atom_site_fract_y
 _atom_site_fract_z
 _atom_site_occupancy
  Ba  Ba0  1  0.250000  0.253419  0.148950  1
  Ba  Ba1  1  0.750000  0.746581  0.851050  1
  Ba  Ba2  1  0.250000  0.753419  0.351050  1
  Ba  Ba3  1  0.750000  0.246581  0.648950  1
  Y  Y4  1  0.250000  0.926597  0.110933  1
  Y  Y5  1  0.750000  0.073403  0.889067  1
  Y  Y6  1  0.250000  0.426597  0.389067  1
  Y  Y7  1  0.750000  0.573403  0.610933  1
  Y  Y8  1  0.750000  0.577752  0.109014  1
  Y  Y9  1  0.250000  0.422248  0.890986  1
  Y  Y10  1  0.750000  0.077752  0.390986  1
  Y  Y11  1  0.250000  0.922248  0.609014  1
  O  O12  1  0.750000  0.790760  0.159136  1
  O  O13  1  0.250000  0.209240  0.840864  1
  O  O14  1  0.750000  0.290760  0.340864  1
  O  O15  1  0.250000  0.709240  0.659136  1
  O  O16  1  0.750000  0.884330  0.481530  1
  O  O17  1  0.250000  0.115670  0.518470  1
  O  O18  1  0.750000  0.384330  0.018470  1
  O  O19  1  0.250000  0.615670  0.981530  1
  O  O20  1  0.750000  0.481040  0.782916  1
  O  O21  1  0.250000  0.518960  0.217084  1
  O  O22  1  0.750000  0.981040  0.717084  1
  O  O23  1  0.250000  0.018960  0.282916  1
  O  O24  1  0.750000  0.570966  0.425875  1
  O  O25  1  0.250000  0.429034  0.574125  1
  O  O26  1  0.750000  0.070966  0.074125  1
  O  O27  1  0.250000  0.929034  0.925875  1
