# generated using pymatgen
data_CuI
_symmetry_space_group_name_H-M   'P 1'
_cell_length_a   14.26864806
_cell_length_b   14.26864806
_cell_length_c   14.26864806
_cell_angle_alpha   17.24992016
_cell_angle_beta   17.24992016
_cell_angle_gamma   17.24992016
_symmetry_Int_Tables_number   1
_chemical_formula_structural   CuI
_chemical_formula_sum   'Cu4 I4'
_cell_volume   222.90202213
_cell_formula_units_Z   4
loop_
 _symmetry_equiv_pos_site_id
 _symmetry_equiv_pos_as_xyz
  1  'x, y, z'
loop_
 _atom_site_type_symbol
 _atom_site_label
 _atom_site_symmetry_multiplicity
 _atom_site_fract_x
 _atom_site_fract_y
 _atom_site_fract_z
 _atom_site_occupancy
  Cu  Cu0  1  0.729668  0.729668  0.729668  1
  Cu  Cu1  1  0.562517  0.562517  0.562517  1
  Cu  Cu2  1  0.312869  0.312869  0.312869  1
  Cu  Cu3  1  0.146076  0.146076  0.146076  1
  I  I4  1  0.791773  0.791773  0.791773  1
  I  I5  1  0.624924  0.624924  0.624924  1
  I  I6  1  0.375121  0.375121  0.375121  1
  I  I7  1  0.208251  0.208251  0.208251  1
