# generated using pymatgen
data_Nd5AgSe8
_symmetry_space_group_name_H-M   'P 1'
_cell_length_a   7.74477546
_cell_length_b   7.74477546
_cell_length_c   7.74477546
_cell_angle_alpha   109.81549563
_cell_angle_beta   109.81549563
_cell_angle_gamma   108.78484328
_symmetry_Int_Tables_number   1
_chemical_formula_structural   Nd5AgSe8
_chemical_formula_sum   'Nd5 Ag1 Se8'
_cell_volume   357.56740532
_cell_formula_units_Z   1
loop_
 _symmetry_equiv_pos_site_id
 _symmetry_equiv_pos_as_xyz
  1  'x, y, z'
loop_
 _atom_site_type_symbol
 _atom_site_label
 _atom_site_symmetry_multiplicity
 _atom_site_fract_x
 _atom_site_fract_y
 _atom_site_fract_z
 _atom_site_occupancy
  Nd  Nd0  1  0.239985  0.622284  0.121809  1
  Nd  Nd1  1  0.377716  0.499525  0.617701  1
  Nd  Nd2  1  0.500475  0.118176  0.878191  1
  Nd  Nd3  1  0.750000  0.250000  0.500000  1
  Nd  Nd4  1  0.881824  0.760015  0.382299  1
  Ag  Ag5  1  1.000000  1.000000  0.000000  1
  Se  Se6  1  0.117514  0.725921  0.750636  1
  Se  Se7  1  0.131768  0.236119  0.743046  1
  Se  Se8  1  0.611278  0.868232  0.104351  1
  Se  Se9  1  0.274079  0.024715  0.391593  1
  Se  Se10  1  0.493073  0.388722  0.256954  1
  Se  Se11  1  0.763881  0.506927  0.895649  1
  Se  Se12  1  0.633122  0.882486  0.608407  1
  Se  Se13  1  0.975285  0.366878  0.249364  1
