# generated using pymatgen
data_LiPN2
_symmetry_space_group_name_H-M   'P 1'
_cell_length_a   4.87181098
_cell_length_b   4.87181098
_cell_length_c   4.87181098
_cell_angle_alpha   124.03869308
_cell_angle_beta   124.03869308
_cell_angle_gamma   83.13644791
_symmetry_Int_Tables_number   1
_chemical_formula_structural   LiPN2
_chemical_formula_sum   'Li2 P2 N4'
_cell_volume   76.17213351
_cell_formula_units_Z   2
loop_
 _symmetry_equiv_pos_site_id
 _symmetry_equiv_pos_as_xyz
  1  'x, y, z'
loop_
 _atom_site_type_symbol
 _atom_site_label
 _atom_site_symmetry_multiplicity
 _atom_site_fract_x
 _atom_site_fract_y
 _atom_site_fract_z
 _atom_site_occupancy
  Li  Li0  1  0.250000  0.750000  0.500000  1
  Li  Li1  1  0.500000  0.500000  0.000000  1
  P  P2  1  0.750000  0.250000  0.500000  1
  P  P3  1  0.000000  0.000000  0.000000  1
  N  N4  1  0.042003  0.125000  0.417003  1
  N  N5  1  0.707997  0.625000  0.582997  1
  N  N6  1  0.875000  0.292003  0.917003  1
  N  N7  1  0.375000  0.957997  0.082997  1
