# generated using pymatgen
data_B36O5
_symmetry_space_group_name_H-M   'P 1'
_cell_length_a   7.41053242
_cell_length_b   7.41035390
_cell_length_c   11.59296605
_cell_angle_alpha   87.34021059
_cell_angle_beta   73.46900417
_cell_angle_gamma   87.94909392
_symmetry_Int_Tables_number   1
_chemical_formula_structural   B36O5
_chemical_formula_sum   'B72 O10'
_cell_volume   609.48259231
_cell_formula_units_Z   2
loop_
 _symmetry_equiv_pos_site_id
 _symmetry_equiv_pos_as_xyz
  1  'x, y, z'
loop_
 _atom_site_type_symbol
 _atom_site_label
 _atom_site_symmetry_multiplicity
 _atom_site_fract_x
 _atom_site_fract_y
 _atom_site_fract_z
 _atom_site_occupancy
  B  B0  1  0.614015  0.938591  0.373894  1
  B  B1  1  0.669360  0.167480  0.331405  1
  B  B2  1  0.215452  0.165263  0.556229  1
  B  B3  1  0.285874  0.283916  0.285897  1
  B  B4  1  0.459850  0.433506  0.198147  1
  B  B5  1  0.540150  0.566494  0.801853  1
  B  B6  1  0.111751  0.434966  0.372361  1
  B  B7  1  0.387763  0.664028  0.220660  1
  B  B8  1  0.220813  0.496426  0.220077  1
  B  B9  1  0.461042  0.799621  0.958887  1
  B  B10  1  0.639757  0.930608  0.859200  1
  B  B11  1  0.167190  0.664667  0.331188  1
  B  B12  1  0.330640  0.832520  0.668595  1
  B  B13  1  0.278981  0.940535  0.041148  1
  B  B14  1  0.557408  0.165493  0.885712  1
  B  B15  1  0.391724  0.999735  0.885719  1
  B  B16  1  0.723494  0.675111  0.557077  1
  B  B17  1  0.274819  0.997906  0.779172  1
  B  B18  1  0.625310  0.301846  0.626387  1
  B  B19  1  0.385985  0.061409  0.626106  1
  B  B20  1  0.332868  0.167875  0.998545  1
  B  B21  1  0.795917  0.799366  0.291819  1
  B  B22  1  0.967149  0.941377  0.197976  1
  B  B23  1  0.498258  0.325411  0.332570  1
  B  B24  1  0.032851  0.058623  0.802024  1
  B  B25  1  0.204083  0.200634  0.708181  1
  B  B26  1  0.445182  0.442333  0.708075  1
  B  B27  1  0.555356  0.505810  0.555378  1
  B  B28  1  0.725181  0.002094  0.220828  1
  B  B29  1  0.893302  0.169517  0.220270  1
  B  B30  1  0.444644  0.494190  0.444622  1
  B  B31  1  0.276506  0.324889  0.442923  1
  B  B32  1  0.554818  0.557667  0.291925  1
  B  B33  1  0.501742  0.674589  0.667430  1
  B  B34  1  0.958795  0.298482  0.958979  1
  B  B35  1  0.128338  0.438813  0.865663  1
  B  B36  1  0.204968  0.557664  0.466568  1
  B  B37  1  0.374690  0.698154  0.373613  1
  B  B38  1  0.832810  0.335333  0.668812  1
  B  B39  1  0.778036  0.438250  0.041032  1
  B  B40  1  0.053872  0.667086  0.889197  1
  B  B41  1  0.888259  0.501515  0.889208  1
  B  B42  1  0.608276  0.000265  0.114281  1
  B  B43  1  0.442592  0.834507  0.114288  1
  B  B44  1  0.779187  0.503574  0.779923  1
  B  B45  1  0.121505  0.796954  0.627341  1
  B  B46  1  0.888249  0.565034  0.627639  1
  B  B47  1  0.292089  0.937168  0.533356  1
  B  B48  1  0.832394  0.667471  0.000278  1
  B  B49  1  0.360243  0.069392  0.140800  1
  B  B50  1  0.538958  0.200379  0.041113  1
  B  B51  1  0.008468  0.835544  0.331827  1
  B  B52  1  0.714126  0.716084  0.714103  1
  B  B53  1  0.927156  0.928462  0.714090  1
  B  B54  1  0.047617  0.998481  0.557949  1
  B  B55  1  0.612237  0.335972  0.779340  1
  B  B56  1  0.952383  0.001519  0.442051  1
  B  B57  1  0.784548  0.834737  0.443771  1
  B  B58  1  0.072844  0.071538  0.285910  1
  B  B59  1  0.991532  0.164456  0.668173  1
  B  B60  1  0.167606  0.332529  0.999722  1
  B  B61  1  0.707911  0.062832  0.466644  1
  B  B62  1  0.878495  0.203046  0.372659  1
  B  B63  1  0.111741  0.498485  0.110792  1
  B  B64  1  0.946128  0.332914  0.110803  1
  B  B65  1  0.221964  0.561750  0.958968  1
  B  B66  1  0.795032  0.442336  0.533432  1
  B  B67  1  0.871662  0.561187  0.134337  1
  B  B68  1  0.041205  0.701518  0.041021  1
  B  B69  1  0.106698  0.830483  0.779730  1
  B  B70  1  0.667132  0.832125  0.001455  1
  B  B71  1  0.721019  0.059465  0.958852  1
  O  O72  1  0.580879  0.377520  0.079785  1
  O  O73  1  0.419121  0.622480  0.920215  1
  O  O74  1  0.585422  0.123067  0.585775  1
  O  O75  1  0.082396  0.879491  0.079603  1
  O  O76  1  0.247004  0.379478  0.747202  1
  O  O77  1  0.917604  0.120509  0.920397  1
  O  O78  1  0.414578  0.876933  0.414225  1
  O  O79  1  0.086452  0.619575  0.585245  1
  O  O80  1  0.913548  0.380425  0.414755  1
  O  O81  1  0.752996  0.620522  0.252798  1
