# generated using pymatgen
data_Zn3S2O9
_symmetry_space_group_name_H-M   'P 1'
_cell_length_a   7.53965913
_cell_length_b   6.72015117
_cell_length_c   8.03491700
_cell_angle_alpha   90.00000000
_cell_angle_beta   117.52224764
_cell_angle_gamma   90.00000000
_symmetry_Int_Tables_number   1
_chemical_formula_structural   Zn3S2O9
_chemical_formula_sum   'Zn6 S4 O18'
_cell_volume   361.03827553
_cell_formula_units_Z   2
loop_
 _symmetry_equiv_pos_site_id
 _symmetry_equiv_pos_as_xyz
  1  'x, y, z'
loop_
 _atom_site_type_symbol
 _atom_site_label
 _atom_site_symmetry_multiplicity
 _atom_site_fract_x
 _atom_site_fract_y
 _atom_site_fract_z
 _atom_site_occupancy
  Zn  Zn0  1  0.000000  0.500000  0.000000  1
  Zn  Zn1  1  0.000000  0.000000  0.000000  1
  Zn  Zn2  1  0.377213  0.250000  0.255606  1
  Zn  Zn3  1  0.622787  0.750000  0.744394  1
  Zn  Zn4  1  0.167092  0.250000  0.774198  1
  Zn  Zn5  1  0.832908  0.750000  0.225802  1
  S  S6  1  0.557037  0.250000  0.714124  1
  S  S7  1  0.442963  0.750000  0.285876  1
  S  S8  1  0.847973  0.250000  0.300208  1
  S  S9  1  0.152027  0.750000  0.699792  1
  O  O10  1  0.131281  0.250000  0.007411  1
  O  O11  1  0.868719  0.750000  0.992589  1
  O  O12  1  0.310654  0.929059  0.240784  1
  O  O13  1  0.689346  0.429059  0.759216  1
  O  O14  1  0.689346  0.070941  0.759216  1
  O  O15  1  0.310654  0.570941  0.240784  1
  O  O16  1  0.109153  0.929857  0.786199  1
  O  O17  1  0.890847  0.429857  0.213801  1
  O  O18  1  0.890847  0.070143  0.213801  1
  O  O19  1  0.109153  0.570143  0.786199  1
  O  O20  1  0.548055  0.750000  0.168712  1
  O  O21  1  0.451945  0.250000  0.831288  1
  O  O22  1  0.594577  0.750000  0.485662  1
  O  O23  1  0.405423  0.250000  0.514338  1
  O  O24  1  0.025954  0.750000  0.495859  1
  O  O25  1  0.974046  0.250000  0.504141  1
  O  O26  1  0.635606  0.250000  0.255946  1
  O  O27  1  0.364394  0.750000  0.744054  1
