# generated using pymatgen
data_LiMn2(PO4)3
_symmetry_space_group_name_H-M   'P 1'
_cell_length_a   8.18368501
_cell_length_b   8.25892923
_cell_length_c   8.76222090
_cell_angle_alpha   62.01696153
_cell_angle_beta   62.25134630
_cell_angle_gamma   60.31171857
_symmetry_Int_Tables_number   1
_chemical_formula_structural   LiMn2(PO4)3
_chemical_formula_sum   'Li2 Mn4 P6 O24'
_cell_volume   432.83536341
_cell_formula_units_Z   2
loop_
 _symmetry_equiv_pos_site_id
 _symmetry_equiv_pos_as_xyz
  1  'x, y, z'
loop_
 _atom_site_type_symbol
 _atom_site_label
 _atom_site_symmetry_multiplicity
 _atom_site_fract_x
 _atom_site_fract_y
 _atom_site_fract_z
 _atom_site_occupancy
  Li  Li0  1  0.248012  0.928374  0.132541  1
  Li  Li1  1  0.751988  0.071626  0.867459  1
  Mn  Mn2  1  0.650915  0.645899  0.051686  1
  Mn  Mn3  1  0.142325  0.147151  0.570158  1
  Mn  Mn4  1  0.857675  0.852849  0.429842  1
  Mn  Mn5  1  0.349085  0.354101  0.948314  1
  P  P6  1  0.466624  0.034186  0.749188  1
  P  P7  1  0.748380  0.469459  0.750869  1
  P  P8  1  0.036939  0.748760  0.748265  1
  P  P9  1  0.963061  0.251240  0.251735  1
  P  P10  1  0.533376  0.965814  0.250812  1
  P  P11  1  0.251620  0.530541  0.249131  1
  O  O12  1  0.113229  0.740704  0.262082  1
  O  O13  1  0.829661  0.789842  0.898296  1
  O  O14  1  0.465845  0.840007  0.913963  1
  O  O15  1  0.499374  0.174895  0.794481  1
  O  O16  1  0.213667  0.514740  0.099584  1
  O  O17  1  0.170339  0.210158  0.101704  1
  O  O18  1  0.534155  0.159993  0.086037  1
  O  O19  1  0.500626  0.825105  0.205519  1
  O  O20  1  0.741452  0.878256  0.267820  1
  O  O21  1  0.373837  0.000135  0.427124  1
  O  O22  1  0.786333  0.485260  0.900416  1
  O  O23  1  0.465781  0.509051  0.204168  1
  O  O24  1  0.821332  0.463425  0.202654  1
  O  O25  1  0.016713  0.795721  0.564495  1
  O  O26  1  0.106538  0.899504  0.735382  1
  O  O27  1  0.802843  0.618485  0.565017  1
  O  O28  1  0.258548  0.121744  0.732180  1
  O  O29  1  0.893462  0.100496  0.264618  1
  O  O30  1  0.983287  0.204279  0.435505  1
  O  O31  1  0.178668  0.536575  0.797346  1
  O  O32  1  0.534219  0.490949  0.795832  1
  O  O33  1  0.886771  0.259296  0.737918  1
  O  O34  1  0.626163  0.999865  0.572876  1
  O  O35  1  0.197157  0.381515  0.434983  1
