# generated using pymatgen
data_Sn(NO3)4
_symmetry_space_group_name_H-M   'P 1'
_cell_length_a   8.07013965
_cell_length_b   14.30038515
_cell_length_c   10.69694997
_cell_angle_alpha   90.00000000
_cell_angle_beta   124.21721636
_cell_angle_gamma   90.00000000
_symmetry_Int_Tables_number   1
_chemical_formula_structural   Sn(NO3)4
_chemical_formula_sum   'Sn4 N16 O48'
_cell_volume   1020.81690867
_cell_formula_units_Z   4
loop_
 _symmetry_equiv_pos_site_id
 _symmetry_equiv_pos_as_xyz
  1  'x, y, z'
loop_
 _atom_site_type_symbol
 _atom_site_label
 _atom_site_symmetry_multiplicity
 _atom_site_fract_x
 _atom_site_fract_y
 _atom_site_fract_z
 _atom_site_occupancy
  Sn  Sn0  1  0.181047  0.671237  0.465719  1
  Sn  Sn1  1  0.818953  0.171237  0.034281  1
  Sn  Sn2  1  0.818953  0.328763  0.534281  1
  Sn  Sn3  1  0.181047  0.828763  0.965719  1
  N  N4  1  0.491386  0.934369  0.158966  1
  N  N5  1  0.865049  0.757861  0.947725  1
  N  N6  1  0.134951  0.257861  0.552275  1
  N  N7  1  0.134951  0.242139  0.052275  1
  N  N8  1  0.865049  0.742139  0.447725  1
  N  N9  1  0.508614  0.434369  0.341034  1
  N  N10  1  0.508614  0.065631  0.841034  1
  N  N11  1  0.491386  0.565631  0.658966  1
  N  N12  1  0.398022  0.675339  0.031213  1
  N  N13  1  0.601978  0.175339  0.468787  1
  N  N14  1  0.601978  0.324661  0.968787  1
  N  N15  1  0.398022  0.824661  0.531213  1
  N  N16  1  0.993596  0.946885  0.735198  1
  N  N17  1  0.006404  0.446885  0.764802  1
  N  N18  1  0.006404  0.053115  0.264802  1
  N  N19  1  0.993596  0.553115  0.235198  1
  O  O20  1  0.924381  0.130375  0.269979  1
  O  O21  1  0.721995  0.722516  0.937238  1
  O  O22  1  0.278005  0.222516  0.562762  1
  O  O23  1  0.278005  0.277484  0.062762  1
  O  O24  1  0.346563  0.916705  0.175087  1
  O  O25  1  0.653437  0.416705  0.324913  1
  O  O26  1  0.653437  0.083295  0.824913  1
  O  O27  1  0.346563  0.583295  0.675087  1
  O  O28  1  0.463483  0.896500  0.035081  1
  O  O29  1  0.536517  0.396500  0.464919  1
  O  O30  1  0.536517  0.103500  0.964919  1
  O  O31  1  0.463483  0.603500  0.535081  1
  O  O32  1  0.637646  0.980193  0.246188  1
  O  O33  1  0.362354  0.480193  0.253812  1
  O  O34  1  0.362354  0.019807  0.753812  1
  O  O35  1  0.637646  0.519807  0.746188  1
  O  O36  1  0.357965  0.716201  0.122922  1
  O  O37  1  0.642035  0.216201  0.377078  1
  O  O38  1  0.642035  0.283799  0.877078  1
  O  O39  1  0.357965  0.783799  0.622922  1
  O  O40  1  0.308254  0.715309  0.899345  1
  O  O41  1  0.691746  0.215309  0.600655  1
  O  O42  1  0.691746  0.284691  0.100655  1
  O  O43  1  0.308254  0.784691  0.399345  1
  O  O44  1  0.507888  0.608754  0.069275  1
  O  O45  1  0.492112  0.108754  0.430725  1
  O  O46  1  0.492112  0.391246  0.930725  1
  O  O47  1  0.507888  0.891246  0.569275  1
  O  O48  1  0.075619  0.869625  0.730021  1
  O  O49  1  0.924381  0.369625  0.769979  1
  O  O50  1  0.721995  0.777484  0.437238  1
  O  O51  1  0.075619  0.630375  0.230021  1
  O  O52  1  0.013991  0.958312  0.866193  1
  O  O53  1  0.986009  0.458312  0.633807  1
  O  O54  1  0.986009  0.041688  0.133807  1
  O  O55  1  0.988692  0.684894  0.554886  1
  O  O56  1  0.908554  0.002308  0.633211  1
  O  O57  1  0.091446  0.502308  0.866789  1
  O  O58  1  0.091446  0.997692  0.366789  1
  O  O59  1  0.908554  0.497692  0.133211  1
  O  O60  1  0.911652  0.741431  0.849081  1
  O  O61  1  0.088348  0.241431  0.650919  1
  O  O62  1  0.088348  0.258569  0.150919  1
  O  O63  1  0.911652  0.758569  0.349081  1
  O  O64  1  0.988692  0.815106  0.054886  1
  O  O65  1  0.011308  0.315106  0.445114  1
  O  O66  1  0.011308  0.184894  0.945114  1
  O  O67  1  0.013991  0.541688  0.366193  1
