# generated using pymatgen
data_LiB3O5
_symmetry_space_group_name_H-M   'P 1'
_cell_length_a   5.25846778
_cell_length_b   7.42427595
_cell_length_c   8.51853558
_cell_angle_alpha   90.00000000
_cell_angle_beta   90.00000000
_cell_angle_gamma   90.00000000
_symmetry_Int_Tables_number   1
_chemical_formula_structural   LiB3O5
_chemical_formula_sum   'Li4 B12 O20'
_cell_volume   332.56631982
_cell_formula_units_Z   4
loop_
 _symmetry_equiv_pos_site_id
 _symmetry_equiv_pos_as_xyz
  1  'x, y, z'
loop_
 _atom_site_type_symbol
 _atom_site_label
 _atom_site_symmetry_multiplicity
 _atom_site_fract_x
 _atom_site_fract_y
 _atom_site_fract_z
 _atom_site_occupancy
  Li  Li0  1  0.013790  0.431072  0.419500  1
  Li  Li1  1  0.513790  0.568928  0.580500  1
  Li  Li2  1  0.013790  0.068928  0.919500  1
  Li  Li3  1  0.513790  0.931072  0.080500  1
  B  B4  1  0.642451  0.164217  0.508932  1
  B  B5  1  0.142451  0.835783  0.491068  1
  B  B6  1  0.642451  0.335783  0.008932  1
  B  B7  1  0.142451  0.664217  0.991068  1
  B  B8  1  0.449773  0.940979  0.692440  1
  B  B9  1  0.949773  0.059021  0.307560  1
  B  B10  1  0.449773  0.559021  0.192440  1
  B  B11  1  0.949773  0.440979  0.807560  1
  B  B12  1  0.268830  0.246985  0.659152  1
  B  B13  1  0.768830  0.753015  0.340848  1
  B  B14  1  0.268830  0.253015  0.159152  1
  B  B15  1  0.768830  0.746985  0.840848  1
  O  O16  1  0.646082  0.002891  0.583043  1
  O  O17  1  0.146082  0.997109  0.416957  1
  O  O18  1  0.646082  0.497109  0.083043  1
  O  O19  1  0.146082  0.502891  0.916957  1
  O  O20  1  0.801090  0.206106  0.385870  1
  O  O21  1  0.301090  0.793894  0.614130  1
  O  O22  1  0.801090  0.293894  0.885870  1
  O  O23  1  0.301090  0.706106  0.114130  1
  O  O24  1  0.468429  0.297327  0.558467  1
  O  O25  1  0.968429  0.702673  0.441533  1
  O  O26  1  0.468429  0.202673  0.058467  1
  O  O27  1  0.968429  0.797327  0.941533  1
  O  O28  1  0.270984  0.088143  0.740205  1
  O  O29  1  0.770984  0.911857  0.259795  1
  O  O30  1  0.270984  0.411857  0.240205  1
  O  O31  1  0.770984  0.588143  0.759795  1
  O  O32  1  0.075572  0.371638  0.665088  1
  O  O33  1  0.575572  0.628362  0.334912  1
  O  O34  1  0.075572  0.128362  0.165088  1
  O  O35  1  0.575572  0.871638  0.834912  1
