# generated using pymatgen
data_Re2Ni(H2O3)4
_symmetry_space_group_name_H-M   'P 1'
_cell_length_a   6.88103231
_cell_length_b   6.93151559
_cell_length_c   7.26477805
_cell_angle_alpha   63.80171614
_cell_angle_beta   69.14115069
_cell_angle_gamma   70.03102315
_symmetry_Int_Tables_number   1
_chemical_formula_structural   Re2Ni(H2O3)4
_chemical_formula_sum   'Re2 Ni1 H8 O12'
_cell_volume   283.42216491
_cell_formula_units_Z   1
loop_
 _symmetry_equiv_pos_site_id
 _symmetry_equiv_pos_as_xyz
  1  'x, y, z'
loop_
 _atom_site_type_symbol
 _atom_site_label
 _atom_site_symmetry_multiplicity
 _atom_site_fract_x
 _atom_site_fract_y
 _atom_site_fract_z
 _atom_site_occupancy
  Re  Re0  1  0.913252  0.681181  0.707249  1
  Re  Re1  1  0.086748  0.318819  0.292751  1
  Ni  Ni2  1  0.500000  0.000000  0.000000  1
  H  H3  1  0.378819  0.694894  0.366781  1
  H  H4  1  0.621181  0.305106  0.633219  1
  H  H5  1  0.612174  0.578331  0.270879  1
  H  H6  1  0.708643  0.976931  0.264282  1
  H  H7  1  0.291357  0.023069  0.735718  1
  H  H8  1  0.723412  0.201537  0.063102  1
  H  H9  1  0.276588  0.798463  0.936898  1
  H  H10  1  0.387826  0.421669  0.729121  1
  O  O11  1  0.859179  0.428910  0.896021  1
  O  O12  1  0.201265  0.115070  0.178723  1
  O  O13  1  0.798735  0.884930  0.821277  1
  O  O14  1  0.363017  0.910203  0.846887  1
  O  O15  1  0.636983  0.089797  0.153113  1
  O  O16  1  0.810995  0.754737  0.491529  1
  O  O17  1  0.189005  0.245263  0.508471  1
  O  O18  1  0.191732  0.658608  0.619081  1
  O  O19  1  0.808268  0.341392  0.380919  1
  O  O20  1  0.512918  0.303578  0.766544  1
  O  O21  1  0.487082  0.696422  0.233456  1
  O  O22  1  0.140821  0.571090  0.103979  1
