# generated using pymatgen
data_Sr4Re2NiO12
_symmetry_space_group_name_H-M   'P 1'
_cell_length_a   9.60547768
_cell_length_b   9.60547768
_cell_length_c   9.60547768
_cell_angle_alpha   33.85219022
_cell_angle_beta   33.85219022
_cell_angle_gamma   33.85219022
_symmetry_Int_Tables_number   1
_chemical_formula_structural   Sr4Re2NiO12
_chemical_formula_sum   'Sr4 Re2 Ni1 O12'
_cell_volume   245.07739457
_cell_formula_units_Z   1
loop_
 _symmetry_equiv_pos_site_id
 _symmetry_equiv_pos_as_xyz
  1  'x, y, z'
loop_
 _atom_site_type_symbol
 _atom_site_label
 _atom_site_symmetry_multiplicity
 _atom_site_fract_x
 _atom_site_fract_y
 _atom_site_fract_z
 _atom_site_occupancy
  Sr  Sr0  1  0.132529  0.132529  0.132529  1
  Sr  Sr1  1  0.708185  0.708185  0.708185  1
  Sr  Sr2  1  0.867471  0.867471  0.867471  1
  Sr  Sr3  1  0.291815  0.291815  0.291815  1
  Re  Re4  1  0.420238  0.420238  0.420238  1
  Re  Re5  1  0.579762  0.579762  0.579762  1
  Ni  Ni6  1  0.000000  0.000000  0.000000  1
  O  O7  1  0.618818  0.131322  0.618818  1
  O  O8  1  0.131322  0.618818  0.618818  1
  O  O9  1  0.618818  0.618818  0.131322  1
  O  O10  1  0.381182  0.381182  0.868678  1
  O  O11  1  0.381182  0.868678  0.381182  1
  O  O12  1  0.868678  0.381182  0.381182  1
  O  O13  1  0.782927  0.303965  0.782927  1
  O  O14  1  0.696035  0.217074  0.217073  1
  O  O15  1  0.217074  0.696035  0.217073  1
  O  O16  1  0.217074  0.217074  0.696035  1
  O  O17  1  0.782927  0.782927  0.303965  1
  O  O18  1  0.303965  0.782927  0.782926  1
