# generated using pymatgen
data_Na2Sb4O7
_symmetry_space_group_name_H-M   'P 1'
_cell_length_a   10.30880301
_cell_length_b   10.30880301
_cell_length_c   5.76979070
_cell_angle_alpha   75.22878058
_cell_angle_beta   104.77121942
_cell_angle_gamma   66.60415294
_symmetry_Int_Tables_number   1
_chemical_formula_structural   Na2Sb4O7
_chemical_formula_sum   'Na4 Sb8 O14'
_cell_volume   498.39805973
_cell_formula_units_Z   2
loop_
 _symmetry_equiv_pos_site_id
 _symmetry_equiv_pos_as_xyz
  1  'x, y, z'
loop_
 _atom_site_type_symbol
 _atom_site_label
 _atom_site_symmetry_multiplicity
 _atom_site_fract_x
 _atom_site_fract_y
 _atom_site_fract_z
 _atom_site_occupancy
  Na  Na0  1  0.004161  0.179849  0.416852  1
  Na  Na1  1  0.179849  0.004161  0.083148  1
  Na  Na2  1  0.995839  0.820151  0.583148  1
  Na  Na3  1  0.820151  0.995839  0.916852  1
  Sb  Sb4  1  0.901912  0.617031  0.182709  1
  Sb  Sb5  1  0.382969  0.098088  0.682709  1
  Sb  Sb6  1  0.098088  0.382969  0.817291  1
  Sb  Sb7  1  0.617031  0.901912  0.317291  1
  Sb  Sb8  1  0.773285  0.364145  0.757280  1
  Sb  Sb9  1  0.364145  0.773285  0.742720  1
  Sb  Sb10  1  0.226715  0.635855  0.242720  1
  Sb  Sb11  1  0.635855  0.226715  0.257280  1
  O  O12  1  0.007418  0.729692  0.003765  1
  O  O13  1  0.517180  0.113543  0.031076  1
  O  O14  1  0.992582  0.270308  0.996235  1
  O  O15  1  0.270308  0.992582  0.503765  1
  O  O16  1  0.190604  0.190604  0.750000  1
  O  O17  1  0.809396  0.809396  0.250000  1
  O  O18  1  0.886457  0.482820  0.531076  1
  O  O19  1  0.482820  0.886457  0.968924  1
  O  O20  1  0.113543  0.517180  0.468924  1
  O  O21  1  0.220569  0.805463  0.923863  1
  O  O22  1  0.194537  0.779431  0.423863  1
  O  O23  1  0.779431  0.194537  0.076137  1
  O  O24  1  0.729692  0.007418  0.496235  1
  O  O25  1  0.805463  0.220569  0.576137  1
