# generated using pymatgen
data_Ba2CuF6
_symmetry_space_group_name_H-M   'P 1'
_cell_length_a   8.54215276
_cell_length_b   8.54215276
_cell_length_c   6.06865458
_cell_angle_alpha   90.00000000
_cell_angle_beta   90.00000000
_cell_angle_gamma   139.33452752
_symmetry_Int_Tables_number   1
_chemical_formula_structural   Ba2CuF6
_chemical_formula_sum   'Ba4 Cu2 F12'
_cell_volume   288.55975944
_cell_formula_units_Z   2
loop_
 _symmetry_equiv_pos_site_id
 _symmetry_equiv_pos_as_xyz
  1  'x, y, z'
loop_
 _atom_site_type_symbol
 _atom_site_label
 _atom_site_symmetry_multiplicity
 _atom_site_fract_x
 _atom_site_fract_y
 _atom_site_fract_z
 _atom_site_occupancy
  Ba  Ba0  1  0.151110  0.848890  0.500000  1
  Ba  Ba1  1  0.348890  0.651110  0.000000  1
  Ba  Ba2  1  0.848890  0.151110  0.500000  1
  Ba  Ba3  1  0.651110  0.348890  0.000000  1
  Cu  Cu4  1  0.500000  0.500000  0.500000  1
  Cu  Cu5  1  0.000000  0.000000  0.000000  1
  F  F6  1  0.381389  0.618611  0.500000  1
  F  F7  1  0.118611  0.881389  0.000000  1
  F  F8  1  0.618611  0.381389  0.500000  1
  F  F9  1  0.881389  0.118611  0.000000  1
  F  F10  1  0.788905  0.788905  0.342830  1
  F  F11  1  0.711095  0.711095  0.842830  1
  F  F12  1  0.002214  0.502214  0.750000  1
  F  F13  1  0.497786  0.997786  0.250000  1
  F  F14  1  0.997786  0.497786  0.250000  1
  F  F15  1  0.502214  0.002214  0.750000  1
  F  F16  1  0.211095  0.211095  0.657170  1
  F  F17  1  0.288905  0.288905  0.157170  1
