# generated using pymatgen
data_Rb4Cl2O
_symmetry_space_group_name_H-M   'P 1'
_cell_length_a   8.37920733
_cell_length_b   8.37920733
_cell_length_c   8.37920733
_cell_angle_alpha   112.22059823
_cell_angle_beta   112.22059823
_cell_angle_gamma   104.10223010
_symmetry_Int_Tables_number   1
_chemical_formula_structural   Rb4Cl2O
_chemical_formula_sum   'Rb8 Cl4 O2'
_cell_volume   449.93892070
_cell_formula_units_Z   2
loop_
 _symmetry_equiv_pos_site_id
 _symmetry_equiv_pos_as_xyz
  1  'x, y, z'
loop_
 _atom_site_type_symbol
 _atom_site_label
 _atom_site_symmetry_multiplicity
 _atom_site_fract_x
 _atom_site_fract_y
 _atom_site_fract_z
 _atom_site_occupancy
  Rb  Rb0  1  0.637112  0.917926  0.153988  1
  Rb  Rb1  1  0.667926  0.887112  0.653988  1
  Rb  Rb2  1  0.986061  0.332074  0.219186  1
  Rb  Rb3  1  0.233125  0.013939  0.346012  1
  Rb  Rb4  1  0.082074  0.236061  0.719186  1
  Rb  Rb5  1  0.763939  0.483125  0.846012  1
  Rb  Rb6  1  0.516875  0.362888  0.280814  1
  Rb  Rb7  1  0.112888  0.766875  0.780814  1
  Cl  Cl8  1  0.483037  0.125000  0.858037  1
  Cl  Cl9  1  0.375000  0.516963  0.641963  1
  Cl  Cl10  1  0.266963  0.625000  0.141963  1
  Cl  Cl11  1  0.875000  0.733037  0.358037  1
  O  O12  1  0.000000  0.000000  0.000000  1
  O  O13  1  0.750000  0.250000  0.500000  1
