# generated using pymatgen
data_Sr3MoN4
_symmetry_space_group_name_H-M   'P 1'
_cell_length_a   9.79806110
_cell_length_b   10.57687299
_cell_length_c   11.68246634
_cell_angle_alpha   90.00000000
_cell_angle_beta   90.00000000
_cell_angle_gamma   90.00000000
_symmetry_Int_Tables_number   1
_chemical_formula_structural   Sr3MoN4
_chemical_formula_sum   'Sr24 Mo8 N32'
_cell_volume   1210.68725618
_cell_formula_units_Z   8
loop_
 _symmetry_equiv_pos_site_id
 _symmetry_equiv_pos_as_xyz
  1  'x, y, z'
loop_
 _atom_site_type_symbol
 _atom_site_label
 _atom_site_symmetry_multiplicity
 _atom_site_fract_x
 _atom_site_fract_y
 _atom_site_fract_z
 _atom_site_occupancy
  Sr  Sr0  1  0.972961  0.125035  0.603566  1
  Sr  Sr1  1  0.472961  0.874965  0.896434  1
  Sr  Sr2  1  0.527039  0.625035  0.396434  1
  Sr  Sr3  1  0.027039  0.374965  0.103566  1
  Sr  Sr4  1  0.027039  0.874965  0.396434  1
  Sr  Sr5  1  0.527039  0.125035  0.103566  1
  Sr  Sr6  1  0.472961  0.374965  0.603566  1
  Sr  Sr7  1  0.972961  0.625035  0.896434  1
  Sr  Sr8  1  0.631994  0.027206  0.642899  1
  Sr  Sr9  1  0.131994  0.972794  0.857101  1
  Sr  Sr10  1  0.868006  0.527206  0.357101  1
  Sr  Sr11  1  0.368006  0.472794  0.142899  1
  Sr  Sr12  1  0.368006  0.972794  0.357101  1
  Sr  Sr13  1  0.868006  0.027206  0.142899  1
  Sr  Sr14  1  0.131994  0.472794  0.642899  1
  Sr  Sr15  1  0.631994  0.527206  0.857101  1
  Sr  Sr16  1  0.304212  0.289920  0.882938  1
  Sr  Sr17  1  0.804212  0.210080  0.882938  1
  Sr  Sr18  1  0.195788  0.289920  0.382938  1
  Sr  Sr19  1  0.695788  0.710080  0.117062  1
  Sr  Sr20  1  0.695788  0.210080  0.382938  1
  Sr  Sr21  1  0.195788  0.789920  0.117062  1
  Sr  Sr22  1  0.804212  0.710080  0.617062  1
  Sr  Sr23  1  0.304212  0.789920  0.617062  1
  Mo  Mo24  1  0.308773  0.100843  0.612413  1
  Mo  Mo25  1  0.808773  0.899157  0.887587  1
  Mo  Mo26  1  0.191227  0.600843  0.387587  1
  Mo  Mo27  1  0.691227  0.399157  0.112413  1
  Mo  Mo28  1  0.691227  0.899157  0.387587  1
  Mo  Mo29  1  0.191227  0.100843  0.112413  1
  Mo  Mo30  1  0.808773  0.399157  0.612413  1
  Mo  Mo31  1  0.308773  0.600843  0.887587  1
  N  N32  1  0.442094  0.158670  0.508075  1
  N  N33  1  0.942094  0.841330  0.991925  1
  N  N34  1  0.057906  0.658670  0.491925  1
  N  N35  1  0.557906  0.341330  0.008075  1
  N  N36  1  0.557906  0.841330  0.491925  1
  N  N37  1  0.057906  0.158670  0.008075  1
  N  N38  1  0.942094  0.341330  0.508075  1
  N  N39  1  0.442094  0.658670  0.991925  1
  N  N40  1  0.388486  0.995371  0.722705  1
  N  N41  1  0.888486  0.004629  0.777295  1
  N  N42  1  0.111514  0.495371  0.277295  1
  N  N43  1  0.611514  0.504629  0.222705  1
  N  N44  1  0.611514  0.004629  0.277295  1
  N  N45  1  0.111514  0.995371  0.222705  1
  N  N46  1  0.888486  0.504629  0.722705  1
  N  N47  1  0.187013  0.495944  0.969729  1
  N  N48  1  0.214056  0.237297  0.679332  1
  N  N49  1  0.714056  0.762703  0.820668  1
  N  N50  1  0.285944  0.737297  0.320668  1
  N  N51  1  0.785944  0.262703  0.179332  1
  N  N52  1  0.785944  0.762703  0.320668  1
  N  N53  1  0.285944  0.237297  0.179332  1
  N  N54  1  0.714056  0.262703  0.679332  1
  N  N55  1  0.214056  0.737297  0.820668  1
  N  N56  1  0.187013  0.995944  0.530271  1
  N  N57  1  0.687013  0.004056  0.969729  1
  N  N58  1  0.312987  0.495944  0.469729  1
  N  N59  1  0.812987  0.504056  0.030271  1
  N  N60  1  0.812987  0.004056  0.469729  1
  N  N61  1  0.312987  0.995944  0.030271  1
  N  N62  1  0.687013  0.504056  0.530271  1
  N  N63  1  0.388486  0.495371  0.777295  1
