# generated using pymatgen
data_Na2CO3
_symmetry_space_group_name_H-M   'P 1'
_cell_length_a   5.21562080
_cell_length_b   5.21562080
_cell_length_c   6.16542976
_cell_angle_alpha   79.98264596
_cell_angle_beta   100.01735404
_cell_angle_gamma   118.57974696
_symmetry_Int_Tables_number   1
_chemical_formula_structural   Na2CO3
_chemical_formula_sum   'Na4 C2 O6'
_cell_volume   144.23464234
_cell_formula_units_Z   2
loop_
 _symmetry_equiv_pos_site_id
 _symmetry_equiv_pos_as_xyz
  1  'x, y, z'
loop_
 _atom_site_type_symbol
 _atom_site_label
 _atom_site_symmetry_multiplicity
 _atom_site_fract_x
 _atom_site_fract_y
 _atom_site_fract_z
 _atom_site_occupancy
  Na  Na0  1  0.671442  0.328558  0.755309  1
  Na  Na1  1  0.328558  0.671442  0.244691  1
  Na  Na2  1  0.000000  0.000000  0.000000  1
  Na  Na3  1  0.000000  0.000000  0.500000  1
  C  C4  1  0.336568  0.663432  0.751859  1
  C  C5  1  0.663432  0.336568  0.248141  1
  O  O6  1  0.209657  0.790343  0.823682  1
  O  O7  1  0.388679  0.188950  0.283870  1
  O  O8  1  0.188950  0.388679  0.716130  1
  O  O9  1  0.811050  0.611321  0.283870  1
  O  O10  1  0.611321  0.811050  0.716130  1
  O  O11  1  0.790343  0.209657  0.176318  1
