# generated using pymatgen
data_GaPS4
_symmetry_space_group_name_H-M   'P 1'
_cell_length_a   8.64432294
_cell_length_b   8.20691729
_cell_length_c   12.08389558
_cell_angle_alpha   90.00000000
_cell_angle_beta   130.81531871
_cell_angle_gamma   90.00000000
_symmetry_Int_Tables_number   1
_chemical_formula_structural   GaPS4
_chemical_formula_sum   'Ga4 P4 S16'
_cell_volume   648.79992696
_cell_formula_units_Z   4
loop_
 _symmetry_equiv_pos_site_id
 _symmetry_equiv_pos_as_xyz
  1  'x, y, z'
loop_
 _atom_site_type_symbol
 _atom_site_label
 _atom_site_symmetry_multiplicity
 _atom_site_fract_x
 _atom_site_fract_y
 _atom_site_fract_z
 _atom_site_occupancy
  Ga  Ga0  1  0.386806  0.544158  0.616304  1
  Ga  Ga1  1  0.613194  0.044158  0.883696  1
  Ga  Ga2  1  0.613194  0.455842  0.383696  1
  Ga  Ga3  1  0.386806  0.955842  0.116304  1
  P  P4  1  0.368522  0.727478  0.347651  1
  P  P5  1  0.368522  0.772522  0.847651  1
  P  P6  1  0.631478  0.272522  0.652349  1
  P  P7  1  0.631478  0.227478  0.152349  1
  S  S8  1  0.732480  0.486562  0.770824  1
  S  S9  1  0.267520  0.986562  0.729176  1
  S  S10  1  0.267520  0.513438  0.229176  1
  S  S11  1  0.732480  0.013438  0.270824  1
  S  S12  1  0.317406  0.281461  0.522577  1
  S  S13  1  0.682594  0.781461  0.977423  1
  S  S14  1  0.682594  0.718539  0.477423  1
  S  S15  1  0.317406  0.218539  0.022577  1
  S  S16  1  0.267466  0.762571  0.461204  1
  S  S17  1  0.732534  0.262571  0.038796  1
  S  S18  1  0.732534  0.237429  0.538796  1
  S  S19  1  0.267466  0.737429  0.961204  1
  S  S20  1  0.239563  0.935433  0.220033  1
  S  S21  1  0.239563  0.564567  0.720033  1
  S  S22  1  0.760437  0.064567  0.779967  1
  S  S23  1  0.760437  0.435433  0.279967  1
