# generated using pymatgen
data_Ba8P5Br
_symmetry_space_group_name_H-M   'P 1'
_cell_length_a   8.59692790
_cell_length_b   8.59692790
_cell_length_c   8.59692790
_cell_angle_alpha   109.34276837
_cell_angle_beta   109.34276837
_cell_angle_gamma   109.72843174
_symmetry_Int_Tables_number   1
_chemical_formula_structural   Ba8P5Br
_chemical_formula_sum   'Ba8 P5 Br1'
_cell_volume   489.10420246
_cell_formula_units_Z   1
loop_
 _symmetry_equiv_pos_site_id
 _symmetry_equiv_pos_as_xyz
  1  'x, y, z'
loop_
 _atom_site_type_symbol
 _atom_site_label
 _atom_site_symmetry_multiplicity
 _atom_site_fract_x
 _atom_site_fract_y
 _atom_site_fract_z
 _atom_site_occupancy
  Ba  Ba0  1  0.258588  0.127316  0.743950  1
  Ba  Ba1  1  0.862937  0.608685  0.598689  1
  Ba  Ba2  1  0.009997  0.264248  0.401311  1
  Ba  Ba3  1  0.383366  0.514638  0.256050  1
  Ba  Ba4  1  0.485362  0.741412  0.868729  1
  Ba  Ba5  1  0.872684  0.616634  0.131271  1
  Ba  Ba6  1  0.735752  0.137063  0.745748  1
  Ba  Ba7  1  0.391315  0.990003  0.254252  1
  P  P8  1  0.628458  0.244083  0.126332  1
  P  P9  1  0.497874  0.371542  0.615625  1
  P  P10  1  0.117751  0.502126  0.873668  1
  P  P11  1  0.250000  0.750000  0.500000  1
  P  P12  1  0.755917  0.882249  0.384375  1
  Br  Br13  1  0.000000  0.000000  0.000000  1
