# generated using pymatgen
data_MgGeP2
_symmetry_space_group_name_H-M   'P 1'
_cell_length_a   6.76077908
_cell_length_b   6.76077908
_cell_length_c   6.76077908
_cell_angle_alpha   129.29910171
_cell_angle_beta   129.29910171
_cell_angle_gamma   74.52978024
_symmetry_Int_Tables_number   1
_chemical_formula_structural   MgGeP2
_chemical_formula_sum   'Mg2 Ge2 P4'
_cell_volume   180.33417344
_cell_formula_units_Z   2
loop_
 _symmetry_equiv_pos_site_id
 _symmetry_equiv_pos_as_xyz
  1  'x, y, z'
loop_
 _atom_site_type_symbol
 _atom_site_label
 _atom_site_symmetry_multiplicity
 _atom_site_fract_x
 _atom_site_fract_y
 _atom_site_fract_z
 _atom_site_occupancy
  Mg  Mg0  1  0.250000  0.750000  0.500000  1
  Mg  Mg1  1  0.500000  0.500000  0.000000  1
  Ge  Ge2  1  0.750000  0.250000  0.500000  1
  Ge  Ge3  1  1.000000  0.000000  0.000000  1
  P  P4  1  0.653471  0.625000  0.528471  1
  P  P5  1  0.096529  0.125000  0.471529  1
  P  P6  1  0.375000  0.903471  0.028471  1
  P  P7  1  0.875000  0.346529  0.971529  1
