# generated using pymatgen
data_SmTaO4
_symmetry_space_group_name_H-M   'P 1'
_cell_length_a   6.68019623
_cell_length_b   6.68019623
_cell_length_c   5.14824961
_cell_angle_alpha   69.73895509
_cell_angle_beta   110.26104491
_cell_angle_gamma   64.75032480
_symmetry_Int_Tables_number   1
_chemical_formula_structural   SmTaO4
_chemical_formula_sum   'Sm2 Ta2 O8'
_cell_volume   158.48616648
_cell_formula_units_Z   2
loop_
 _symmetry_equiv_pos_site_id
 _symmetry_equiv_pos_as_xyz
  1  'x, y, z'
loop_
 _atom_site_type_symbol
 _atom_site_label
 _atom_site_symmetry_multiplicity
 _atom_site_fract_x
 _atom_site_fract_y
 _atom_site_fract_z
 _atom_site_occupancy
  Sm  Sm0  1  0.631480  0.631480  0.750000  1
  Sm  Sm1  1  0.368520  0.368520  0.250000  1
  Ta  Ta2  1  0.100198  0.100198  0.750000  1
  Ta  Ta3  1  0.899802  0.899802  0.250000  1
  O  O4  1  0.271729  0.791809  0.204710  1
  O  O5  1  0.791809  0.271729  0.295290  1
  O  O6  1  0.728271  0.208191  0.795290  1
  O  O7  1  0.208191  0.728271  0.704710  1
  O  O8  1  0.054448  0.359541  0.841124  1
  O  O9  1  0.359541  0.054448  0.658876  1
  O  O10  1  0.945552  0.640459  0.158876  1
  O  O11  1  0.640459  0.945552  0.341124  1
