# generated using pymatgen
data_TaCuS3
_symmetry_space_group_name_H-M   'P 1'
_cell_length_a   3.51050694
_cell_length_b   9.61262144
_cell_length_c   11.95122634
_cell_angle_alpha   90.00000000
_cell_angle_beta   90.00000000
_cell_angle_gamma   90.00000000
_symmetry_Int_Tables_number   1
_chemical_formula_structural   TaCuS3
_chemical_formula_sum   'Ta4 Cu4 S12'
_cell_volume   403.29621566
_cell_formula_units_Z   4
loop_
 _symmetry_equiv_pos_site_id
 _symmetry_equiv_pos_as_xyz
  1  'x, y, z'
loop_
 _atom_site_type_symbol
 _atom_site_label
 _atom_site_symmetry_multiplicity
 _atom_site_fract_x
 _atom_site_fract_y
 _atom_site_fract_z
 _atom_site_occupancy
  Ta  Ta0  1  0.750000  0.107134  0.868994  1
  Ta  Ta1  1  0.250000  0.892866  0.131006  1
  Ta  Ta2  1  0.750000  0.607134  0.631006  1
  Ta  Ta3  1  0.250000  0.392866  0.368994  1
  Cu  Cu4  1  0.750000  0.269743  0.215049  1
  Cu  Cu5  1  0.250000  0.230257  0.715049  1
  Cu  Cu6  1  0.750000  0.769743  0.284951  1
  Cu  Cu7  1  0.250000  0.730257  0.784951  1
  S  S8  1  0.750000  0.579928  0.402000  1
  S  S9  1  0.250000  0.416125  0.177425  1
  S  S10  1  0.750000  0.583875  0.822575  1
  S  S11  1  0.250000  0.916125  0.322575  1
  S  S12  1  0.750000  0.222122  0.402826  1
  S  S13  1  0.250000  0.777878  0.597174  1
  S  S14  1  0.750000  0.722122  0.097174  1
  S  S15  1  0.250000  0.277878  0.902826  1
  S  S16  1  0.750000  0.079928  0.098000  1
  S  S17  1  0.250000  0.920072  0.902000  1
  S  S18  1  0.250000  0.420072  0.598000  1
  S  S19  1  0.750000  0.083875  0.677425  1
