# generated using pymatgen
data_Sr2SnO4
_symmetry_space_group_name_H-M   'P 1'
_cell_length_a   6.98643970
_cell_length_b   6.98643970
_cell_length_c   6.98643970
_cell_angle_alpha   145.72121066
_cell_angle_beta   145.72121066
_cell_angle_gamma   49.26104481
_symmetry_Int_Tables_number   1
_chemical_formula_structural   Sr2SnO4
_chemical_formula_sum   'Sr2 Sn1 O4'
_cell_volume   107.68398073
_cell_formula_units_Z   1
loop_
 _symmetry_equiv_pos_site_id
 _symmetry_equiv_pos_as_xyz
  1  'x, y, z'
loop_
 _atom_site_type_symbol
 _atom_site_label
 _atom_site_symmetry_multiplicity
 _atom_site_fract_x
 _atom_site_fract_y
 _atom_site_fract_z
 _atom_site_occupancy
  Sr  Sr0  1  0.646183  0.646183  0.000000  1
  Sr  Sr1  1  0.353817  0.353817  0.000000  1
  Sn  Sn2  1  0.000000  0.000000  0.000000  1
  O  O3  1  0.835952  0.835952  0.000000  1
  O  O4  1  0.164048  0.164048  0.000000  1
  O  O5  1  0.500000  1.000000  0.500000  1
  O  O6  1  1.000000  0.500000  0.500000  1
