# generated using pymatgen
data_MgSiO3
_symmetry_space_group_name_H-M   'P 1'
_cell_length_a   5.23783598
_cell_length_b   8.94333999
_cell_length_c   9.47282438
_cell_angle_alpha   90.00000000
_cell_angle_beta   102.98018081
_cell_angle_gamma   90.00000000
_symmetry_Int_Tables_number   1
_chemical_formula_structural   MgSiO3
_chemical_formula_sum   'Mg8 Si8 O24'
_cell_volume   432.40400690
_cell_formula_units_Z   8
loop_
 _symmetry_equiv_pos_site_id
 _symmetry_equiv_pos_as_xyz
  1  'x, y, z'
loop_
 _atom_site_type_symbol
 _atom_site_label
 _atom_site_symmetry_multiplicity
 _atom_site_fract_x
 _atom_site_fract_y
 _atom_site_fract_z
 _atom_site_occupancy
  Mg  Mg0  1  0.968448  0.652261  0.748988  1
  Mg  Mg1  1  0.531552  0.152261  0.251012  1
  Mg  Mg2  1  0.031552  0.347739  0.251012  1
  Mg  Mg3  1  0.468448  0.847739  0.748988  1
  Mg  Mg4  1  0.961890  0.011273  0.745705  1
  Mg  Mg5  1  0.538110  0.511273  0.254295  1
  Mg  Mg6  1  0.038110  0.988727  0.254295  1
  Mg  Mg7  1  0.461890  0.488727  0.745705  1
  Si  Si8  1  0.251912  0.340384  0.956333  1
  Si  Si9  1  0.248088  0.840384  0.043667  1
  Si  Si10  1  0.748088  0.659616  0.043667  1
  Si  Si11  1  0.751912  0.159616  0.956333  1
  Si  Si12  1  0.680570  0.837192  0.447945  1
  Si  Si13  1  0.819430  0.337192  0.552055  1
  Si  Si14  1  0.319430  0.162808  0.552055  1
  Si  Si15  1  0.180570  0.662808  0.447945  1
  O  O16  1  0.354887  0.804094  0.396486  1
  O  O17  1  0.145113  0.304094  0.603514  1
  O  O18  1  0.645113  0.195906  0.603514  1
  O  O19  1  0.854887  0.695906  0.396486  1
  O  O20  1  0.254148  0.517630  0.365256  1
  O  O21  1  0.245852  0.017630  0.634744  1
  O  O22  1  0.745852  0.482370  0.634744  1
  O  O23  1  0.754148  0.982370  0.365256  1
  O  O24  1  0.251909  0.659610  0.625365  1
  O  O25  1  0.248091  0.159610  0.374635  1
  O  O26  1  0.748091  0.340390  0.374635  1
  O  O27  1  0.751909  0.840390  0.625365  1
  O  O28  1  0.010629  0.219199  0.894149  1
  O  O29  1  0.489371  0.719199  0.105851  1
  O  O30  1  0.989371  0.780801  0.105851  1
  O  O31  1  0.510629  0.280801  0.894149  1
  O  O32  1  0.316869  0.339322  0.132979  1
  O  O33  1  0.183131  0.839322  0.867021  1
  O  O34  1  0.683131  0.660678  0.867021  1
  O  O35  1  0.816869  0.160678  0.132979  1
  O  O36  1  0.200002  0.499245  0.876164  1
  O  O37  1  0.299998  0.999245  0.123836  1
  O  O38  1  0.799998  0.500755  0.123836  1
  O  O39  1  0.700002  0.000755  0.876164  1
