# generated using pymatgen
data_K7LiSi8
_symmetry_space_group_name_H-M   'P 1'
_cell_length_a   12.56130900
_cell_length_b   12.56130900
_cell_length_c   12.56130900
_cell_angle_alpha   90.00000000
_cell_angle_beta   90.00000000
_cell_angle_gamma   90.00000000
_symmetry_Int_Tables_number   1
_chemical_formula_structural   K7LiSi8
_chemical_formula_sum   'K28 Li4 Si32'
_cell_volume   1982.00477895
_cell_formula_units_Z   4
loop_
 _symmetry_equiv_pos_site_id
 _symmetry_equiv_pos_as_xyz
  1  'x, y, z'
loop_
 _atom_site_type_symbol
 _atom_site_label
 _atom_site_symmetry_multiplicity
 _atom_site_fract_x
 _atom_site_fract_y
 _atom_site_fract_z
 _atom_site_occupancy
  K  K0  1  0.273088  0.810394  0.043466  1
  K  K1  1  0.043466  0.273088  0.810394  1
  K  K2  1  0.726912  0.310394  0.456534  1
  K  K3  1  0.226912  0.189606  0.543466  1
  K  K4  1  0.456534  0.726912  0.310394  1
  K  K5  1  0.189606  0.543466  0.226912  1
  K  K6  1  0.310394  0.456534  0.726912  1
  K  K7  1  0.810394  0.043466  0.273088  1
  K  K8  1  0.310394  0.043466  0.226912  1
  K  K9  1  0.226912  0.310394  0.043466  1
  K  K10  1  0.043466  0.226912  0.310394  1
  K  K11  1  0.456534  0.773088  0.810394  1
  K  K12  1  0.543466  0.226912  0.189606  1
  K  K13  1  0.956534  0.726912  0.189606  1
  K  K14  1  0.273088  0.689606  0.543466  1
  K  K15  1  0.773088  0.810394  0.456534  1
  K  K16  1  0.543466  0.273088  0.689606  1
  K  K17  1  0.810394  0.456534  0.773088  1
  K  K18  1  0.689606  0.543466  0.273088  1
  K  K19  1  0.189606  0.956534  0.726912  1
  K  K20  1  0.000000  0.000000  0.000000  1
  K  K21  1  0.500000  0.000000  0.500000  1
  K  K22  1  0.500000  0.500000  0.000000  1
  K  K23  1  0.000000  0.500000  0.500000  1
  K  K24  1  0.956534  0.773088  0.689606  1
  K  K25  1  0.773088  0.689606  0.956534  1
  K  K26  1  0.689606  0.956534  0.773088  1
  K  K27  1  0.726912  0.189606  0.956534  1
  Li  Li28  1  0.500000  0.500000  0.500000  1
  Li  Li29  1  0.000000  0.000000  0.500000  1
  Li  Li30  1  0.500000  0.000000  0.000000  1
  Li  Li31  1  0.000000  0.500000  0.000000  1
  Si  Si32  1  0.197944  0.567674  0.947546  1
  Si  Si33  1  0.947546  0.197944  0.567674  1
  Si  Si34  1  0.802056  0.067674  0.552454  1
  Si  Si35  1  0.302056  0.432326  0.447546  1
  Si  Si36  1  0.552454  0.802056  0.067674  1
  Si  Si37  1  0.432326  0.447546  0.302056  1
  Si  Si38  1  0.067674  0.552454  0.802056  1
  Si  Si39  1  0.567674  0.947546  0.197944  1
  Si  Si40  1  0.067674  0.947546  0.302056  1
  Si  Si41  1  0.302056  0.067674  0.947546  1
  Si  Si42  1  0.947546  0.302056  0.067674  1
  Si  Si43  1  0.552454  0.697944  0.567674  1
  Si  Si44  1  0.802056  0.432326  0.052454  1
  Si  Si45  1  0.447546  0.302056  0.432326  1
  Si  Si46  1  0.197944  0.932326  0.447546  1
  Si  Si47  1  0.697944  0.567674  0.552454  1
  Si  Si48  1  0.447546  0.197944  0.932326  1
  Si  Si49  1  0.567674  0.552454  0.697944  1
  Si  Si50  1  0.932326  0.447546  0.197944  1
  Si  Si51  1  0.432326  0.052454  0.802056  1
  Si  Si52  1  0.304612  0.304612  0.304612  1
  Si  Si53  1  0.195388  0.695388  0.804612  1
  Si  Si54  1  0.804612  0.195388  0.695388  1
  Si  Si55  1  0.695388  0.804612  0.195388  1
  Si  Si56  1  0.695388  0.695388  0.695388  1
  Si  Si57  1  0.804612  0.304612  0.195388  1
  Si  Si58  1  0.195388  0.804612  0.304612  1
  Si  Si59  1  0.304612  0.195388  0.804612  1
  Si  Si60  1  0.052454  0.697944  0.932326  1
  Si  Si61  1  0.697944  0.932326  0.052454  1
  Si  Si62  1  0.052454  0.802056  0.432326  1
  Si  Si63  1  0.932326  0.052454  0.697944  1
