# generated using pymatgen
data_RbGaCl4
_symmetry_space_group_name_H-M   'P 1'
_cell_length_a   7.27929956
_cell_length_b   9.58869936
_cell_length_c   11.43947884
_cell_angle_alpha   90.00000000
_cell_angle_beta   90.00000000
_cell_angle_gamma   90.00000000
_symmetry_Int_Tables_number   1
_chemical_formula_structural   RbGaCl4
_chemical_formula_sum   'Rb4 Ga4 Cl16'
_cell_volume   798.46435551
_cell_formula_units_Z   4
loop_
 _symmetry_equiv_pos_site_id
 _symmetry_equiv_pos_as_xyz
  1  'x, y, z'
loop_
 _atom_site_type_symbol
 _atom_site_label
 _atom_site_symmetry_multiplicity
 _atom_site_fract_x
 _atom_site_fract_y
 _atom_site_fract_z
 _atom_site_occupancy
  Rb  Rb0  1  0.750000  0.327079  0.682262  1
  Rb  Rb1  1  0.250000  0.672921  0.317738  1
  Rb  Rb2  1  0.250000  0.827079  0.817738  1
  Rb  Rb3  1  0.750000  0.172921  0.182262  1
  Ga  Ga4  1  0.250000  0.311215  0.932681  1
  Ga  Ga5  1  0.750000  0.688785  0.067319  1
  Ga  Ga6  1  0.750000  0.811215  0.567319  1
  Ga  Ga7  1  0.250000  0.188785  0.432681  1
  Cl  Cl8  1  0.250000  0.421313  0.100482  1
  Cl  Cl9  1  0.750000  0.578687  0.899518  1
  Cl  Cl10  1  0.750000  0.921313  0.399518  1
  Cl  Cl11  1  0.250000  0.078687  0.600482  1
  Cl  Cl12  1  0.250000  0.453751  0.782347  1
  Cl  Cl13  1  0.750000  0.546249  0.217653  1
  Cl  Cl14  1  0.750000  0.953751  0.717653  1
  Cl  Cl15  1  0.250000  0.046249  0.282347  1
  Cl  Cl16  1  0.495181  0.324418  0.421186  1
  Cl  Cl17  1  0.995181  0.675582  0.578814  1
  Cl  Cl18  1  0.504819  0.824418  0.078814  1
  Cl  Cl19  1  0.004819  0.175582  0.921186  1
  Cl  Cl20  1  0.504819  0.675582  0.578814  1
  Cl  Cl21  1  0.004819  0.324418  0.421186  1
  Cl  Cl22  1  0.495181  0.175582  0.921186  1
  Cl  Cl23  1  0.995181  0.824418  0.078814  1
