# generated using pymatgen
data_Rb2ZnI4
_symmetry_space_group_name_H-M   'P 1'
_cell_length_a   7.93802962
_cell_length_b   8.35640404
_cell_length_c   10.53940478
_cell_angle_alpha   90.00000000
_cell_angle_beta   109.22225867
_cell_angle_gamma   90.00000000
_symmetry_Int_Tables_number   1
_chemical_formula_structural   Rb2ZnI4
_chemical_formula_sum   'Rb4 Zn2 I8'
_cell_volume   660.13772367
_cell_formula_units_Z   2
loop_
 _symmetry_equiv_pos_site_id
 _symmetry_equiv_pos_as_xyz
  1  'x, y, z'
loop_
 _atom_site_type_symbol
 _atom_site_label
 _atom_site_symmetry_multiplicity
 _atom_site_fract_x
 _atom_site_fract_y
 _atom_site_fract_z
 _atom_site_occupancy
  Rb  Rb0  1  0.787542  0.250000  0.582701  1
  Rb  Rb1  1  0.212458  0.750000  0.417299  1
  Rb  Rb2  1  0.299236  0.750000  0.960412  1
  Rb  Rb3  1  0.700764  0.250000  0.039588  1
  Zn  Zn4  1  0.700613  0.750000  0.786300  1
  Zn  Zn5  1  0.299387  0.250000  0.213700  1
  I  I6  1  0.130794  0.250000  0.950756  1
  I  I7  1  0.869206  0.750000  0.049244  1
  I  I8  1  0.081391  0.250000  0.355975  1
  I  I9  1  0.918609  0.750000  0.644025  1
  I  I10  1  0.513381  0.998471  0.274696  1
  I  I11  1  0.486619  0.498471  0.725304  1
  I  I12  1  0.486619  0.001529  0.725304  1
  I  I13  1  0.513381  0.501529  0.274696  1
