# generated using pymatgen
data_Sr3Ti2O7
_symmetry_space_group_name_H-M   'P 1'
_cell_length_a   10.62778180
_cell_length_b   10.62778180
_cell_length_c   10.62778180
_cell_angle_alpha   158.63039941
_cell_angle_beta   158.63039941
_cell_angle_gamma   30.40171129
_symmetry_Int_Tables_number   1
_chemical_formula_structural   Sr3Ti2O7
_chemical_formula_sum   'Sr3 Ti2 O7'
_cell_volume   159.28252260
_cell_formula_units_Z   1
loop_
 _symmetry_equiv_pos_site_id
 _symmetry_equiv_pos_as_xyz
  1  'x, y, z'
loop_
 _atom_site_type_symbol
 _atom_site_label
 _atom_site_symmetry_multiplicity
 _atom_site_fract_x
 _atom_site_fract_y
 _atom_site_fract_z
 _atom_site_occupancy
  Sr  Sr0  1  0.315737  0.315737  0.000000  1
  Sr  Sr1  1  0.500000  0.500000  0.000000  1
  Sr  Sr2  1  0.684263  0.684263  0.000000  1
  Ti  Ti3  1  0.097768  0.097768  0.000000  1
  Ti  Ti4  1  0.902232  0.902232  0.000000  1
  O  O5  1  0.403661  0.903661  0.500000  1
  O  O6  1  0.806192  0.806192  0.000000  1
  O  O7  1  0.000000  0.000000  0.000000  1
  O  O8  1  0.096339  0.596339  0.500000  1
  O  O9  1  0.596339  0.096339  0.500000  1
  O  O10  1  0.903661  0.403661  0.500000  1
  O  O11  1  0.193808  0.193808  0.000000  1
