# generated using pymatgen
data_Ho3TaO7
_symmetry_space_group_name_H-M   'P 1'
_cell_length_a   6.47675821
_cell_length_b   6.47675821
_cell_length_c   7.44058764
_cell_angle_alpha   90.00000000
_cell_angle_beta   90.00000000
_cell_angle_gamma   108.55044210
_symmetry_Int_Tables_number   1
_chemical_formula_structural   Ho3TaO7
_chemical_formula_sum   'Ho6 Ta2 O14'
_cell_volume   295.90416060
_cell_formula_units_Z   2
loop_
 _symmetry_equiv_pos_site_id
 _symmetry_equiv_pos_as_xyz
  1  'x, y, z'
loop_
 _atom_site_type_symbol
 _atom_site_label
 _atom_site_symmetry_multiplicity
 _atom_site_fract_x
 _atom_site_fract_y
 _atom_site_fract_z
 _atom_site_occupancy
  Ho  Ho0  1  0.538643  0.538643  0.500000  1
  Ho  Ho1  1  0.461357  0.461357  0.000000  1
  Ho  Ho2  1  0.535195  0.000260  0.759121  1
  Ho  Ho3  1  0.464805  0.999740  0.259121  1
  Ho  Ho4  1  0.000260  0.535195  0.240879  1
  Ho  Ho5  1  0.999740  0.464805  0.740879  1
  Ta  Ta6  1  0.002443  0.002443  0.500000  1
  Ta  Ta7  1  0.997557  0.997557  0.000000  1
  O  O8  1  0.069641  0.930359  0.250000  1
  O  O9  1  0.930359  0.069641  0.750000  1
  O  O10  1  0.640147  0.359853  0.750000  1
  O  O11  1  0.359853  0.640147  0.250000  1
  O  O12  1  0.628709  0.371291  0.250000  1
  O  O13  1  0.371291  0.628709  0.750000  1
  O  O14  1  0.083213  0.329221  0.024329  1
  O  O15  1  0.916787  0.670779  0.524329  1
  O  O16  1  0.048895  0.307826  0.454388  1
  O  O17  1  0.951105  0.692174  0.954388  1
  O  O18  1  0.307826  0.048895  0.545612  1
  O  O19  1  0.692174  0.951105  0.045612  1
  O  O20  1  0.670779  0.916787  0.475671  1
  O  O21  1  0.329221  0.083213  0.975671  1
