# generated using pymatgen
data_LiVPO5
_symmetry_space_group_name_H-M   'P 1'
_cell_length_a   6.83193149
_cell_length_b   7.15137228
_cell_length_c   8.04065888
_cell_angle_alpha   89.63987667
_cell_angle_beta   91.49512156
_cell_angle_gamma   116.07462457
_symmetry_Int_Tables_number   1
_chemical_formula_structural   LiVPO5
_chemical_formula_sum   'Li4 V4 P4 O20'
_cell_volume   352.73882046
_cell_formula_units_Z   4
loop_
 _symmetry_equiv_pos_site_id
 _symmetry_equiv_pos_as_xyz
  1  'x, y, z'
loop_
 _atom_site_type_symbol
 _atom_site_label
 _atom_site_symmetry_multiplicity
 _atom_site_fract_x
 _atom_site_fract_y
 _atom_site_fract_z
 _atom_site_occupancy
  Li  Li0  1  0.785454  0.699046  0.920830  1
  Li  Li1  1  0.214546  0.300954  0.079170  1
  Li  Li2  1  0.708128  0.186628  0.572649  1
  Li  Li3  1  0.291872  0.813372  0.427351  1
  V  V4  1  0.752457  0.977412  0.235095  1
  V  V5  1  0.247543  0.022588  0.764905  1
  V  V6  1  0.756107  0.481058  0.262540  1
  V  V7  1  0.243893  0.518942  0.737460  1
  P  P8  1  0.763222  0.250583  0.912378  1
  P  P9  1  0.236778  0.749417  0.087622  1
  P  P10  1  0.740244  0.755999  0.585978  1
  P  P11  1  0.259756  0.244001  0.414022  1
  O  O12  1  0.442980  0.912177  0.178721  1
  O  O13  1  0.557020  0.087823  0.821279  1
  O  O14  1  0.867899  0.142840  0.028970  1
  O  O15  1  0.132101  0.857160  0.971030  1
  O  O16  1  0.065070  0.093131  0.306159  1
  O  O17  1  0.934930  0.906869  0.693841  1
  O  O18  1  0.648625  0.880866  0.472705  1
  O  O19  1  0.351375  0.119134  0.527295  1
  O  O20  1  0.757652  0.251424  0.325557  1
  O  O21  1  0.242348  0.748576  0.674443  1
  O  O22  1  0.735325  0.743438  0.167526  1
  O  O23  1  0.264675  0.256562  0.832474  1
  O  O24  1  0.918351  0.360450  0.767743  1
  O  O25  1  0.081649  0.639550  0.232257  1
  O  O26  1  0.716980  0.409630  0.013918  1
  O  O27  1  0.283020  0.590370  0.986082  1
  O  O28  1  0.569659  0.624229  0.714761  1
  O  O29  1  0.430341  0.375771  0.285239  1
  O  O30  1  0.811318  0.619754  0.479440  1
  O  O31  1  0.188682  0.380246  0.520560  1
