# generated using pymatgen
data_Y2P4O13
_symmetry_space_group_name_H-M   'P 1'
_cell_length_a   9.48734271
_cell_length_b   9.48734271
_cell_length_c   8.65822261
_cell_angle_alpha   90.00000000
_cell_angle_beta   90.00000000
_cell_angle_gamma   135.86578613
_symmetry_Int_Tables_number   1
_chemical_formula_structural   Y2P4O13
_chemical_formula_sum   'Y4 P8 O26'
_cell_volume   542.67548478
_cell_formula_units_Z   2
loop_
 _symmetry_equiv_pos_site_id
 _symmetry_equiv_pos_as_xyz
  1  'x, y, z'
loop_
 _atom_site_type_symbol
 _atom_site_label
 _atom_site_symmetry_multiplicity
 _atom_site_fract_x
 _atom_site_fract_y
 _atom_site_fract_z
 _atom_site_occupancy
  Y  Y0  1  0.102429  0.395455  0.646181  1
  Y  Y1  1  0.395455  0.102429  0.353819  1
  Y  Y2  1  0.897571  0.604545  0.146181  1
  Y  Y3  1  0.604545  0.897571  0.853819  1
  P  P4  1  0.597783  0.917823  0.499694  1
  P  P5  1  0.917823  0.597783  0.500306  1
  P  P6  1  0.402217  0.082177  0.999694  1
  P  P7  1  0.082177  0.402217  0.000306  1
  P  P8  1  0.652873  0.777612  0.227072  1
  P  P9  1  0.777612  0.652873  0.772928  1
  P  P10  1  0.347127  0.222388  0.727072  1
  P  P11  1  0.222388  0.347127  0.272928  1
  O  O12  1  0.524544  0.981330  0.394655  1
  O  O13  1  0.981330  0.524544  0.605345  1
  O  O14  1  0.475456  0.018670  0.894655  1
  O  O15  1  0.018670  0.475456  0.105345  1
  O  O16  1  0.430969  0.727460  0.598567  1
  O  O17  1  0.727460  0.430969  0.401433  1
  O  O18  1  0.569031  0.272540  0.098567  1
  O  O19  1  0.272540  0.569031  0.901433  1
  O  O20  1  0.762305  0.078582  0.616670  1
  O  O21  1  0.078582  0.762305  0.383330  1
  O  O22  1  0.237695  0.921418  0.116670  1
  O  O23  1  0.921418  0.237695  0.883330  1
  O  O24  1  0.417555  0.582445  0.250000  1
  O  O25  1  0.582445  0.417555  0.750000  1
  O  O26  1  0.120337  0.290169  0.106230  1
  O  O27  1  0.290169  0.120337  0.893770  1
  O  O28  1  0.879663  0.709831  0.606230  1
  O  O29  1  0.709831  0.879663  0.393770  1
  O  O30  1  0.275331  0.233153  0.295207  1
  O  O31  1  0.233153  0.275331  0.704793  1
  O  O32  1  0.724669  0.766847  0.795207  1
  O  O33  1  0.766847  0.724669  0.204793  1
  O  O34  1  0.099554  0.329520  0.396615  1
  O  O35  1  0.329520  0.099554  0.603385  1
  O  O36  1  0.900446  0.670480  0.896615  1
  O  O37  1  0.670480  0.900446  0.103385  1
