# generated using pymatgen
data_Sm2S3
_symmetry_space_group_name_H-M   'P 1'
_cell_length_a   14.04784078
_cell_length_b   14.04784078
_cell_length_c   14.04784078
_cell_angle_alpha   144.80879964
_cell_angle_beta   144.80879964
_cell_angle_gamma   50.61954800
_symmetry_Int_Tables_number   1
_chemical_formula_structural   Sm2S3
_chemical_formula_sum   'Sm16 S24'
_cell_volume   916.06981237
_cell_formula_units_Z   8
loop_
 _symmetry_equiv_pos_site_id
 _symmetry_equiv_pos_as_xyz
  1  'x, y, z'
loop_
 _atom_site_type_symbol
 _atom_site_label
 _atom_site_symmetry_multiplicity
 _atom_site_fract_x
 _atom_site_fract_y
 _atom_site_fract_z
 _atom_site_occupancy
  Sm  Sm0  1  0.584143  0.084143  0.500000  1
  Sm  Sm1  1  0.375000  0.744506  0.869506  1
  Sm  Sm2  1  0.165857  0.165857  0.000000  1
  Sm  Sm3  1  0.848428  0.952527  0.379303  1
  Sm  Sm4  1  0.573224  0.469125  0.620697  1
  Sm  Sm5  1  0.875000  0.505494  0.130494  1
  Sm  Sm6  1  0.047473  0.426776  0.895901  1
  Sm  Sm7  1  0.494506  0.625000  0.369506  1
  Sm  Sm8  1  0.834143  0.834143  0.000000  1
  Sm  Sm9  1  0.255494  0.125000  0.630494  1
  Sm  Sm10  1  0.530875  0.151572  0.104099  1
  Sm  Sm11  1  0.915857  0.415857  0.500000  1
  Sm  Sm12  1  0.702527  0.098428  0.879303  1
  Sm  Sm13  1  0.176776  0.297473  0.395901  1
  Sm  Sm14  1  0.901572  0.780875  0.604099  1
  Sm  Sm15  1  0.219125  0.823224  0.120697  1
  S  S16  1  0.889866  0.136919  0.893580  1
  S  S17  1  0.532395  0.423092  0.745482  1
  S  S18  1  0.243339  0.996286  0.106420  1
  S  S19  1  0.506661  0.113081  0.252947  1
  S  S20  1  0.860134  0.253714  0.747053  1
  S  S21  1  0.217605  0.463088  0.390698  1
  S  S22  1  0.677610  0.786912  0.254518  1
  S  S23  1  0.563072  0.813613  0.909718  1
  S  S24  1  0.072390  0.826908  0.609302  1
  S  S25  1  0.186387  0.096105  0.749458  1
  S  S26  1  0.903895  0.653354  0.090282  1
  S  S27  1  0.173092  0.782395  0.245482  1
  S  S28  1  0.536912  0.927610  0.754518  1
  S  S29  1  0.346646  0.436928  0.250542  1
  S  S30  1  0.886919  0.139866  0.393580  1
  S  S31  1  0.213088  0.467605  0.890698  1
  S  S32  1  0.746286  0.493339  0.606420  1
  S  S33  1  0.863081  0.756661  0.752947  1
  S  S34  1  0.576908  0.322390  0.109302  1
  S  S35  1  0.846105  0.436387  0.249458  1
  S  S36  1  0.186928  0.596646  0.750542  1
  S  S37  1  0.003714  0.110134  0.247053  1
  S  S38  1  0.563613  0.813072  0.409718  1
  S  S39  1  0.403354  0.153895  0.590282  1
