# generated using pymatgen
data_LiHS
_symmetry_space_group_name_H-M   'P 1'
_cell_length_a   3.95729972
_cell_length_b   7.91596551
_cell_length_c   12.33103688
_cell_angle_alpha   90.00000000
_cell_angle_beta   90.00000000
_cell_angle_gamma   90.00000000
_symmetry_Int_Tables_number   1
_chemical_formula_structural   LiHS
_chemical_formula_sum   'Li8 H8 S8'
_cell_volume   386.28018817
_cell_formula_units_Z   8
loop_
 _symmetry_equiv_pos_site_id
 _symmetry_equiv_pos_as_xyz
  1  'x, y, z'
loop_
 _atom_site_type_symbol
 _atom_site_label
 _atom_site_symmetry_multiplicity
 _atom_site_fract_x
 _atom_site_fract_y
 _atom_site_fract_z
 _atom_site_occupancy
  Li  Li0  1  0.500327  0.003116  0.874967  1
  Li  Li1  1  0.499673  0.996884  0.125033  1
  Li  Li2  1  0.500327  0.996884  0.374967  1
  Li  Li3  1  0.499673  0.503116  0.874967  1
  Li  Li4  1  0.499673  0.496884  0.374967  1
  Li  Li5  1  0.499673  0.003116  0.625033  1
  Li  Li6  1  0.500327  0.496884  0.125033  1
  Li  Li7  1  0.500327  0.503116  0.625033  1
  H  H8  1  0.145133  0.250000  0.000000  1
  H  H9  1  0.145133  0.750000  0.500000  1
  H  H10  1  0.854867  0.750000  0.000000  1
  H  H11  1  0.854867  0.250000  0.500000  1
  H  H12  1  0.000000  0.823799  0.750000  1
  H  H13  1  0.000000  0.176201  0.250000  1
  H  H14  1  0.000000  0.323799  0.750000  1
  H  H15  1  0.000000  0.676201  0.250000  1
  S  S16  1  0.486637  0.250000  0.000000  1
  S  S17  1  0.513363  0.250000  0.500000  1
  S  S18  1  0.513363  0.750000  0.000000  1
  S  S19  1  0.486637  0.750000  0.500000  1
  S  S20  1  0.000000  0.994411  0.750000  1
  S  S21  1  0.000000  0.005589  0.250000  1
  S  S22  1  0.000000  0.494411  0.750000  1
  S  S23  1  0.000000  0.505589  0.250000  1
