# generated using pymatgen
data_LiSmS2
_symmetry_space_group_name_H-M   'P 1'
_cell_length_a   6.88693422
_cell_length_b   6.88693422
_cell_length_c   6.88693422
_cell_angle_alpha   132.37507621
_cell_angle_beta   132.37507621
_cell_angle_gamma   69.63727601
_symmetry_Int_Tables_number   1
_chemical_formula_structural   LiSmS2
_chemical_formula_sum   'Li2 Sm2 S4'
_cell_volume   174.85354528
_cell_formula_units_Z   2
loop_
 _symmetry_equiv_pos_site_id
 _symmetry_equiv_pos_as_xyz
  1  'x, y, z'
loop_
 _atom_site_type_symbol
 _atom_site_label
 _atom_site_symmetry_multiplicity
 _atom_site_fract_x
 _atom_site_fract_y
 _atom_site_fract_z
 _atom_site_occupancy
  Li  Li0  1  0.500000  0.500000  0.000000  1
  Li  Li1  1  0.250000  0.750000  0.500000  1
  Sm  Sm2  1  0.000000  0.000000  0.000000  1
  Sm  Sm3  1  0.750000  0.250000  0.500000  1
  S  S4  1  0.752898  0.752898  0.000000  1
  S  S5  1  0.502898  0.002898  0.500000  1
  S  S6  1  0.247102  0.247102  0.000000  1
  S  S7  1  0.997102  0.497102  0.500000  1
