# generated using pymatgen
data_Y3Pb4F17
_symmetry_space_group_name_H-M   'P 1'
_cell_length_a   9.19949353
_cell_length_b   9.22692113
_cell_length_c   9.27612309
_cell_angle_alpha   72.90485247
_cell_angle_beta   72.93654925
_cell_angle_gamma   73.09776124
_symmetry_Int_Tables_number   1
_chemical_formula_structural   Y3Pb4F17
_chemical_formula_sum   'Y6 Pb8 F34'
_cell_volume   701.22090865
_cell_formula_units_Z   2
loop_
 _symmetry_equiv_pos_site_id
 _symmetry_equiv_pos_as_xyz
  1  'x, y, z'
loop_
 _atom_site_type_symbol
 _atom_site_label
 _atom_site_symmetry_multiplicity
 _atom_site_fract_x
 _atom_site_fract_y
 _atom_site_fract_z
 _atom_site_occupancy
  Y  Y0  1  0.470393  0.159593  0.608646  1
  Y  Y1  1  0.606417  0.471653  0.167615  1
  Y  Y2  1  0.841113  0.391042  0.530961  1
  Y  Y3  1  0.187209  0.605976  0.468261  1
  Y  Y4  1  0.391772  0.531095  0.834147  1
  Y  Y5  1  0.523413  0.816756  0.396842  1
  Pb  Pb6  1  0.899921  0.032111  0.308697  1
  Pb  Pb7  1  0.265759  0.259421  0.262416  1
  Pb  Pb8  1  0.040000  0.311107  0.898438  1
  Pb  Pb9  1  0.694358  0.095705  0.967757  1
  Pb  Pb10  1  0.311772  0.896905  0.040919  1
  Pb  Pb11  1  0.961801  0.689981  0.106005  1
  Pb  Pb12  1  0.742728  0.735522  0.734954  1
  Pb  Pb13  1  0.104954  0.955718  0.685033  1
  F  F14  1  0.991569  0.997304  0.011157  1
  F  F15  1  0.453723  0.021874  0.176942  1
  F  F16  1  0.138040  0.137250  0.135663  1
  F  F17  1  0.357259  0.041671  0.490942  1
  F  F18  1  0.023439  0.175243  0.453656  1
  F  F19  1  0.255224  0.078265  0.792418  1
  F  F20  1  0.543088  0.262307  0.348598  1
  F  F21  1  0.789064  0.257006  0.085949  1
  F  F22  1  0.493669  0.353462  0.041086  1
  F  F23  1  0.178540  0.449670  0.022650  1
  F  F24  1  0.260938  0.343292  0.546887  1
  F  F25  1  0.699640  0.211562  0.583723  1
  F  F26  1  0.049146  0.488376  0.357442  1
  F  F27  1  0.408838  0.301495  0.788721  1
  F  F28  1  0.342329  0.548219  0.243033  1
  F  F29  1  0.919208  0.207804  0.745121  1
  F  F30  1  0.792645  0.419842  0.299093  1
  F  F31  1  0.195076  0.595508  0.711114  1
  F  F32  1  0.456984  0.563545  0.471845  1
  F  F33  1  0.082414  0.785940  0.259217  1
  F  F34  1  0.652378  0.456630  0.735270  1
  F  F35  1  0.587625  0.713301  0.186726  1
  F  F36  1  0.962220  0.508270  0.644186  1
  F  F37  1  0.273112  0.830413  0.403396  1
  F  F38  1  0.742757  0.650750  0.455699  1
  F  F39  1  0.824836  0.544916  0.977391  1
  F  F40  1  0.512203  0.642660  0.952888  1
  F  F41  1  0.208980  0.743458  0.922994  1
  F  F42  1  0.446596  0.748538  0.659989  1
  F  F43  1  0.740464  0.912149  0.216929  1
  F  F44  1  0.977839  0.821163  0.549763  1
  F  F45  1  0.645311  0.951806  0.510679  1
  F  F46  1  0.864520  0.860889  0.863328  1
  F  F47  1  0.549713  0.977839  0.822818  1
