# generated using pymatgen
data_Fe4As2O11
_symmetry_space_group_name_H-M   'P 1'
_cell_length_a   5.14403119
_cell_length_b   6.57525999
_cell_length_c   6.73326962
_cell_angle_alpha   108.94071738
_cell_angle_beta   106.12899713
_cell_angle_gamma   98.14768464
_symmetry_Int_Tables_number   1
_chemical_formula_structural   Fe4As2O11
_chemical_formula_sum   'Fe4 As2 O11'
_cell_volume   200.07896105
_cell_formula_units_Z   1
loop_
 _symmetry_equiv_pos_site_id
 _symmetry_equiv_pos_as_xyz
  1  'x, y, z'
loop_
 _atom_site_type_symbol
 _atom_site_label
 _atom_site_symmetry_multiplicity
 _atom_site_fract_x
 _atom_site_fract_y
 _atom_site_fract_z
 _atom_site_occupancy
  Fe  Fe0  1  0.104273  0.753377  0.031504  1
  Fe  Fe1  1  0.895727  0.246623  0.968496  1
  Fe  Fe2  1  0.658059  0.628047  0.250573  1
  Fe  Fe3  1  0.341941  0.371953  0.749427  1
  As  As4  1  0.337457  0.814625  0.605742  1
  As  As5  1  0.662543  0.185375  0.394258  1
  O  O6  1  0.739128  0.525320  0.956485  1
  O  O7  1  0.260872  0.474680  0.043515  1
  O  O8  1  0.000000  0.000000  0.000000  1
  O  O9  1  0.925958  0.207235  0.631685  1
  O  O10  1  0.074042  0.792765  0.368315  1
  O  O11  1  0.393435  0.277822  0.460719  1
  O  O12  1  0.215500  0.655822  0.737840  1
  O  O13  1  0.784500  0.344178  0.262160  1
  O  O14  1  0.463266  0.091491  0.787949  1
  O  O15  1  0.536734  0.908509  0.212051  1
  O  O16  1  0.606565  0.722178  0.539281  1
