# generated using pymatgen
data_V2NiO6
_symmetry_space_group_name_H-M   'P 1'
_cell_length_a   4.86693624
_cell_length_b   7.26081956
_cell_length_c   8.94472678
_cell_angle_alpha   102.13496237
_cell_angle_beta   90.13140776
_cell_angle_gamma   94.32197087
_symmetry_Int_Tables_number   1
_chemical_formula_structural   V2NiO6
_chemical_formula_sum   'V6 Ni3 O18'
_cell_volume   308.09322666
_cell_formula_units_Z   3
loop_
 _symmetry_equiv_pos_site_id
 _symmetry_equiv_pos_as_xyz
  1  'x, y, z'
loop_
 _atom_site_type_symbol
 _atom_site_label
 _atom_site_symmetry_multiplicity
 _atom_site_fract_x
 _atom_site_fract_y
 _atom_site_fract_z
 _atom_site_occupancy
  V  V0  1  0.883688  0.418113  0.736734  1
  V  V1  1  0.116312  0.581887  0.263266  1
  V  V2  1  0.548761  0.286058  0.391738  1
  V  V3  1  0.451239  0.713942  0.608262  1
  V  V4  1  0.547204  0.287012  0.033022  1
  V  V5  1  0.452796  0.712988  0.966978  1
  Ni  Ni6  1  0.992977  0.987451  0.833228  1
  Ni  Ni7  1  0.007023  0.012549  0.166772  1
  Ni  Ni8  1  0.000000  0.000000  0.500000  1
  O  O9  1  0.789572  0.470582  0.245468  1
  O  O10  1  0.210428  0.529418  0.754532  1
  O  O11  1  0.295771  0.526914  0.422571  1
  O  O12  1  0.704229  0.473086  0.577429  1
  O  O13  1  0.295778  0.524261  0.085662  1
  O  O14  1  0.704222  0.475739  0.914338  1
  O  O15  1  0.364978  0.211247  0.200254  1
  O  O16  1  0.635022  0.788753  0.799746  1
  O  O17  1  0.657360  0.832421  0.107032  1
  O  O18  1  0.342968  0.165644  0.489713  1
  O  O19  1  0.657032  0.834356  0.510287  1
  O  O20  1  0.169788  0.849759  0.640640  1
  O  O21  1  0.830212  0.150241  0.359360  1
  O  O22  1  0.893443  0.177394  0.698757  1
  O  O23  1  0.106557  0.822606  0.301243  1
  O  O24  1  0.831683  0.152990  0.019077  1
  O  O25  1  0.168317  0.847010  0.980923  1
  O  O26  1  0.342640  0.167579  0.892968  1
