# generated using pymatgen
data_Li4SiO4
_symmetry_space_group_name_H-M   'P 1'
_cell_length_a   5.23239469
_cell_length_b   5.38900176
_cell_length_c   6.14309873
_cell_angle_alpha   88.55392195
_cell_angle_beta   89.85539802
_cell_angle_gamma   89.65985001
_symmetry_Int_Tables_number   1
_chemical_formula_structural   Li4SiO4
_chemical_formula_sum   'Li8 Si2 O8'
_cell_volume   173.16060799
_cell_formula_units_Z   2
loop_
 _symmetry_equiv_pos_site_id
 _symmetry_equiv_pos_as_xyz
  1  'x, y, z'
loop_
 _atom_site_type_symbol
 _atom_site_label
 _atom_site_symmetry_multiplicity
 _atom_site_fract_x
 _atom_site_fract_y
 _atom_site_fract_z
 _atom_site_occupancy
  Li  Li0  1  0.830847  0.198787  0.990403  1
  Li  Li1  1  0.800371  0.175883  0.535728  1
  Li  Li2  1  0.816935  0.655800  0.761177  1
  Li  Li3  1  0.387193  0.846519  0.554261  1
  Li  Li4  1  0.406605  0.294972  0.229093  1
  Li  Li5  1  0.192640  0.802459  0.972438  1
  Li  Li6  1  0.083698  0.526675  0.424889  1
  Li  Li7  1  0.062287  0.998478  0.276773  1
  Si  Si8  1  0.670681  0.686936  0.246335  1
  Si  Si9  1  0.322468  0.319779  0.753186  1
  O  O10  1  0.809980  0.832827  0.042046  1
  O  O11  1  0.766828  0.828453  0.468873  1
  O  O12  1  0.766370  0.391797  0.264753  1
  O  O13  1  0.634476  0.336213  0.761281  1
  O  O14  1  0.352571  0.692432  0.248533  1
  O  O15  1  0.197118  0.601264  0.725636  1
  O  O16  1  0.228400  0.181033  0.522286  1
  O  O17  1  0.216331  0.172594  0.974810  1
