# generated using pymatgen
data_Ga2CoO4
_symmetry_space_group_name_H-M   'P 1'
_cell_length_a   5.95410022
_cell_length_b   5.95410022
_cell_length_c   5.95410022
_cell_angle_alpha   121.30962392
_cell_angle_beta   119.62374510
_cell_angle_gamma   89.19985010
_symmetry_Int_Tables_number   1
_chemical_formula_structural   Ga2CoO4
_chemical_formula_sum   'Ga4 Co2 O8'
_cell_volume   148.14724936
_cell_formula_units_Z   2
loop_
 _symmetry_equiv_pos_site_id
 _symmetry_equiv_pos_as_xyz
  1  'x, y, z'
loop_
 _atom_site_type_symbol
 _atom_site_label
 _atom_site_symmetry_multiplicity
 _atom_site_fract_x
 _atom_site_fract_y
 _atom_site_fract_z
 _atom_site_occupancy
  Ga  Ga0  1  0.115619  0.865619  0.750000  1
  Ga  Ga1  1  0.884381  0.134381  0.250000  1
  Ga  Ga2  1  0.500000  0.500000  0.500000  1
  Ga  Ga3  1  0.000000  0.500000  0.000000  1
  Co  Co4  1  0.500000  0.000000  0.500000  1
  Co  Co5  1  0.500000  0.500000  1.000000  1
  O  O6  1  0.750756  0.265432  0.514676  1
  O  O7  1  0.269600  0.264038  0.505562  1
  O  O8  1  0.750756  0.736080  0.985324  1
  O  O9  1  0.758476  0.264038  0.994438  1
  O  O10  1  0.241524  0.735962  0.005562  1
  O  O11  1  0.730400  0.735962  0.494438  1
  O  O12  1  0.249244  0.263920  0.014676  1
  O  O13  1  0.249244  0.734568  0.485324  1
