# generated using pymatgen
data_PNF2
_symmetry_space_group_name_H-M   'P 1'
_cell_length_a   5.37516639
_cell_length_b   14.79641928
_cell_length_c   7.89566271
_cell_angle_alpha   90.00000000
_cell_angle_beta   110.44404000
_cell_angle_gamma   90.00000000
_symmetry_Int_Tables_number   1
_chemical_formula_structural   PNF2
_chemical_formula_sum   'P8 N8 F16'
_cell_volume   588.41415192
_cell_formula_units_Z   8
loop_
 _symmetry_equiv_pos_site_id
 _symmetry_equiv_pos_as_xyz
  1  'x, y, z'
loop_
 _atom_site_type_symbol
 _atom_site_label
 _atom_site_symmetry_multiplicity
 _atom_site_fract_x
 _atom_site_fract_y
 _atom_site_fract_z
 _atom_site_occupancy
  P  P0  1  0.410336  0.592257  0.783550  1
  P  P1  1  0.589664  0.092257  0.716450  1
  P  P2  1  0.589664  0.407743  0.216450  1
  P  P3  1  0.410336  0.907743  0.283550  1
  P  P4  1  0.744671  0.596564  0.166843  1
  P  P5  1  0.255329  0.096564  0.333157  1
  P  P6  1  0.255329  0.403436  0.833157  1
  P  P7  1  0.744671  0.903436  0.666843  1
  N  N8  1  0.740278  0.499388  0.240899  1
  N  N9  1  0.638504  0.619916  0.961170  1
  N  N10  1  0.361496  0.119916  0.538830  1
  N  N11  1  0.361496  0.380084  0.038830  1
  N  N12  1  0.638504  0.880084  0.461170  1
  N  N13  1  0.259722  0.999388  0.259101  1
  N  N14  1  0.259722  0.500612  0.759101  1
  N  N15  1  0.740278  0.000612  0.740899  1
  F  F16  1  0.195849  0.831810  0.230737  1
  F  F17  1  0.804151  0.331810  0.269263  1
  F  F18  1  0.804151  0.168190  0.769263  1
  F  F19  1  0.520669  0.604442  0.626943  1
  F  F20  1  0.195849  0.668190  0.730737  1
  F  F21  1  0.520669  0.895558  0.126943  1
  F  F22  1  0.479331  0.395558  0.373057  1
  F  F23  1  0.479331  0.104442  0.873057  1
  F  F24  1  0.622408  0.836464  0.769088  1
  F  F25  1  0.377592  0.336464  0.730912  1
  F  F26  1  0.377592  0.163536  0.230912  1
  F  F27  1  0.622408  0.663536  0.269088  1
  F  F28  1  0.038249  0.870574  0.742033  1
  F  F29  1  0.961751  0.370574  0.757967  1
  F  F30  1  0.961751  0.129426  0.257967  1
  F  F31  1  0.038249  0.629426  0.242033  1
