# generated using pymatgen
data_Sr3Tl2O6
_symmetry_space_group_name_H-M   'P 1'
_cell_length_a   3.52859699
_cell_length_b   12.02279927
_cell_length_c   17.23286909
_cell_angle_alpha   90.00000000
_cell_angle_beta   90.00000000
_cell_angle_gamma   90.00000000
_symmetry_Int_Tables_number   1
_chemical_formula_structural   Sr3Tl2O6
_chemical_formula_sum   'Sr12 Tl8 O24'
_cell_volume   731.08057459
_cell_formula_units_Z   4
loop_
 _symmetry_equiv_pos_site_id
 _symmetry_equiv_pos_as_xyz
  1  'x, y, z'
loop_
 _atom_site_type_symbol
 _atom_site_label
 _atom_site_symmetry_multiplicity
 _atom_site_fract_x
 _atom_site_fract_y
 _atom_site_fract_z
 _atom_site_occupancy
  Sr  Sr0  1  0.500000  0.096347  0.853828  1
  Sr  Sr1  1  0.500000  0.903653  0.146172  1
  Sr  Sr2  1  0.500000  0.596347  0.646172  1
  Sr  Sr3  1  0.500000  0.403653  0.353828  1
  Sr  Sr4  1  0.500000  0.367098  0.958955  1
  Sr  Sr5  1  0.500000  0.632902  0.041045  1
  Sr  Sr6  1  0.500000  0.867098  0.541045  1
  Sr  Sr7  1  0.500000  0.132902  0.458955  1
  Sr  Sr8  1  0.500000  0.325261  0.725581  1
  Sr  Sr9  1  0.500000  0.674739  0.274419  1
  Sr  Sr10  1  0.500000  0.825261  0.774419  1
  Sr  Sr11  1  0.500000  0.174739  0.225581  1
  Tl  Tl12  1  0.000000  0.408860  0.147322  1
  Tl  Tl13  1  0.000000  0.591140  0.852678  1
  Tl  Tl14  1  0.000000  0.908860  0.352678  1
  Tl  Tl15  1  0.000000  0.091140  0.647322  1
  Tl  Tl16  1  0.000000  0.368146  0.542316  1
  Tl  Tl17  1  0.000000  0.631854  0.457684  1
  Tl  Tl18  1  0.000000  0.868146  0.957684  1
  Tl  Tl19  1  0.000000  0.131854  0.042316  1
  O  O20  1  0.000000  0.186214  0.761284  1
  O  O21  1  0.000000  0.813786  0.238716  1
  O  O22  1  0.000000  0.686214  0.738716  1
  O  O23  1  0.000000  0.313786  0.261284  1
  O  O24  1  0.500000  0.472845  0.830299  1
  O  O25  1  0.500000  0.527155  0.169701  1
  O  O26  1  0.500000  0.972845  0.669701  1
  O  O27  1  0.500000  0.027155  0.330299  1
  O  O28  1  0.500000  0.213040  0.596481  1
  O  O29  1  0.500000  0.786960  0.403519  1
  O  O30  1  0.500000  0.713040  0.903519  1
  O  O31  1  0.500000  0.286960  0.096481  1
  O  O32  1  0.500000  0.500000  0.500000  1
  O  O33  1  0.500000  0.000000  0.000000  1
  O  O34  1  0.000000  0.213019  0.934420  1
  O  O35  1  0.000000  0.786981  0.065580  1
  O  O36  1  0.000000  0.713019  0.565580  1
  O  O37  1  0.000000  0.286981  0.434420  1
  O  O38  1  0.000000  0.000000  0.500000  1
  O  O39  1  0.000000  0.500000  0.000000  1
  O  O40  1  0.000000  0.061287  0.153812  1
  O  O41  1  0.000000  0.938713  0.846188  1
  O  O42  1  0.000000  0.561287  0.346188  1
  O  O43  1  0.000000  0.438713  0.653812  1
