# generated using pymatgen
data_GaBr3
_symmetry_space_group_name_H-M   'P 1'
_cell_length_a   9.51865744
_cell_length_b   6.23690564
_cell_length_c   11.80304103
_cell_angle_alpha   90.00000000
_cell_angle_beta   108.35583308
_cell_angle_gamma   90.00000000
_symmetry_Int_Tables_number   1
_chemical_formula_structural   GaBr3
_chemical_formula_sum   'Ga4 Br12'
_cell_volume   665.05793281
_cell_formula_units_Z   4
loop_
 _symmetry_equiv_pos_site_id
 _symmetry_equiv_pos_as_xyz
  1  'x, y, z'
loop_
 _atom_site_type_symbol
 _atom_site_label
 _atom_site_symmetry_multiplicity
 _atom_site_fract_x
 _atom_site_fract_y
 _atom_site_fract_z
 _atom_site_occupancy
  Ga  Ga0  1  0.190739  0.003663  0.046231  1
  Ga  Ga1  1  0.809261  0.503663  0.453769  1
  Ga  Ga2  1  0.809261  0.996337  0.953769  1
  Ga  Ga3  1  0.190739  0.496337  0.546231  1
  Br  Br4  1  0.319284  0.782102  0.198248  1
  Br  Br5  1  0.680716  0.282102  0.301752  1
  Br  Br6  1  0.680716  0.217898  0.801752  1
  Br  Br7  1  0.319284  0.717898  0.698248  1
  Br  Br8  1  0.309279  0.230943  0.953968  1
  Br  Br9  1  0.690721  0.730943  0.546032  1
  Br  Br10  1  0.690721  0.769057  0.046032  1
  Br  Br11  1  0.309279  0.269057  0.453968  1
  Br  Br12  1  0.999757  0.795260  0.891525  1
  Br  Br13  1  0.000243  0.295260  0.608475  1
  Br  Br14  1  0.000243  0.204740  0.108475  1
  Br  Br15  1  0.999757  0.704740  0.391525  1
