# generated using pymatgen
data_TaFeO4
_symmetry_space_group_name_H-M   'P 1'
_cell_length_a   5.10646212
_cell_length_b   5.67868462
_cell_length_c   9.38412189
_cell_angle_alpha   90.00000000
_cell_angle_beta   90.00000000
_cell_angle_gamma   90.00000000
_symmetry_Int_Tables_number   1
_chemical_formula_structural   TaFeO4
_chemical_formula_sum   'Ta4 Fe4 O16'
_cell_volume   272.12065329
_cell_formula_units_Z   4
loop_
 _symmetry_equiv_pos_site_id
 _symmetry_equiv_pos_as_xyz
  1  'x, y, z'
loop_
 _atom_site_type_symbol
 _atom_site_label
 _atom_site_symmetry_multiplicity
 _atom_site_fract_x
 _atom_site_fract_y
 _atom_site_fract_z
 _atom_site_occupancy
  Ta  Ta0  1  0.737909  0.591264  0.626887  1
  Ta  Ta1  1  0.737909  0.091264  0.873113  1
  Ta  Ta2  1  0.237909  0.908736  0.126887  1
  Ta  Ta3  1  0.237909  0.408736  0.373113  1
  Fe  Fe4  1  0.249849  0.419894  0.876893  1
  Fe  Fe5  1  0.749849  0.580106  0.123107  1
  Fe  Fe6  1  0.749849  0.080106  0.376893  1
  Fe  Fe7  1  0.249849  0.919894  0.623107  1
  O  O8  1  0.915854  0.875095  0.740132  1
  O  O9  1  0.427330  0.636102  0.739454  1
  O  O10  1  0.915854  0.375095  0.759868  1
  O  O11  1  0.427330  0.136102  0.760546  1
  O  O12  1  0.587738  0.361923  0.986637  1
  O  O13  1  0.078639  0.129904  0.990284  1
  O  O14  1  0.578639  0.870096  0.009716  1
  O  O15  1  0.087738  0.638077  0.013363  1
  O  O16  1  0.415854  0.624905  0.240132  1
  O  O17  1  0.927330  0.863898  0.239454  1
  O  O18  1  0.927330  0.363898  0.260546  1
  O  O19  1  0.415854  0.124905  0.259868  1
  O  O20  1  0.087738  0.138077  0.486637  1
  O  O21  1  0.578639  0.370096  0.490284  1
  O  O22  1  0.078639  0.629904  0.509716  1
  O  O23  1  0.587738  0.861923  0.513363  1
