# generated using pymatgen
data_AgBiI4
_symmetry_space_group_name_H-M   'P 1'
_cell_length_a   8.98545755
_cell_length_b   8.98545755
_cell_length_c   8.98545755
_cell_angle_alpha   121.32595000
_cell_angle_beta   120.42061468
_cell_angle_gamma   88.49580656
_symmetry_Int_Tables_number   1
_chemical_formula_structural   AgBiI4
_chemical_formula_sum   'Ag2 Bi2 I8'
_cell_volume   505.98483028
_cell_formula_units_Z   2
loop_
 _symmetry_equiv_pos_site_id
 _symmetry_equiv_pos_as_xyz
  1  'x, y, z'
loop_
 _atom_site_type_symbol
 _atom_site_label
 _atom_site_symmetry_multiplicity
 _atom_site_fract_x
 _atom_site_fract_y
 _atom_site_fract_z
 _atom_site_occupancy
  Ag  Ag0  1  0.500000  0.500000  0.500000  1
  Ag  Ag1  1  0.500000  0.000000  0.000000  1
  Bi  Bi2  1  0.000000  0.000000  0.000000  1
  Bi  Bi3  1  0.500000  1.000000  0.500000  1
  I  I4  1  0.275798  0.759176  0.516622  1
  I  I5  1  0.742555  0.759176  0.983378  1
  I  I6  1  0.754760  0.255032  0.000272  1
  I  I7  1  0.754760  0.754488  0.499728  1
  I  I8  1  0.245240  0.245512  0.500272  1
  I  I9  1  0.257445  0.240824  0.016622  1
  I  I10  1  0.245240  0.744968  0.999728  1
  I  I11  1  0.724202  0.240824  0.483378  1
