# generated using pymatgen
data_PNO
_symmetry_space_group_name_H-M   'P 1'
_cell_length_a   4.63773557
_cell_length_b   7.02471814
_cell_length_c   9.72127476
_cell_angle_alpha   90.68544884
_cell_angle_beta   90.06081468
_cell_angle_gamma   90.60339988
_symmetry_Int_Tables_number   1
_chemical_formula_structural   PNO
_chemical_formula_sum   'P8 N8 O8'
_cell_volume   316.66687402
_cell_formula_units_Z   8
loop_
 _symmetry_equiv_pos_site_id
 _symmetry_equiv_pos_as_xyz
  1  'x, y, z'
loop_
 _atom_site_type_symbol
 _atom_site_label
 _atom_site_symmetry_multiplicity
 _atom_site_fract_x
 _atom_site_fract_y
 _atom_site_fract_z
 _atom_site_occupancy
  P  P0  1  0.999244  0.989597  0.001368  1
  P  P1  1  0.999224  0.760184  0.749742  1
  P  P2  1  0.002510  0.989626  0.502402  1
  P  P3  1  0.019712  0.750725  0.247784  1
  P  P4  1  0.499423  0.483462  0.749368  1
  P  P5  1  0.487561  0.494916  0.256336  1
  P  P6  1  0.501641  0.264347  0.495335  1
  P  P7  1  0.500101  0.266974  0.001880  1
  N  N8  1  0.873628  0.874092  0.874537  1
  N  N9  1  0.628371  0.376163  0.874757  1
  N  N10  1  0.638481  0.366261  0.370424  1
  N  N11  1  0.370433  0.368366  0.623755  1
  N  N12  1  0.372049  0.378710  0.126000  1
  N  N13  1  0.250461  0.629673  0.322777  1
  N  N14  1  0.124203  0.869773  0.621080  1
  N  N15  1  0.124199  0.883650  0.128749  1
  O  O16  1  0.874281  0.882777  0.372276  1
  O  O17  1  0.741889  0.115876  0.553391  1
  O  O18  1  0.750430  0.128298  0.056091  1
  O  O19  1  0.749883  0.621620  0.690156  1
  O  O20  1  0.744432  0.634071  0.196615  1
  O  O21  1  0.251035  0.624907  0.804168  1
  O  O22  1  0.251086  0.125223  0.942210  1
  O  O23  1  0.245725  0.120707  0.438801  1
