# generated using pymatgen
data_SrLiPrTeO6
_symmetry_space_group_name_H-M   'P 1'
_cell_length_a   5.65132537
_cell_length_b   5.65132537
_cell_length_c   5.70785003
_cell_angle_alpha   59.99687830
_cell_angle_beta   120.00312170
_cell_angle_gamma   120.40002401
_symmetry_Int_Tables_number   1
_chemical_formula_structural   SrLiPrTeO6
_chemical_formula_sum   'Sr1 Li1 Pr1 Te1 O6'
_cell_volume   128.50133421
_cell_formula_units_Z   1
loop_
 _symmetry_equiv_pos_site_id
 _symmetry_equiv_pos_as_xyz
  1  'x, y, z'
loop_
 _atom_site_type_symbol
 _atom_site_label
 _atom_site_symmetry_multiplicity
 _atom_site_fract_x
 _atom_site_fract_y
 _atom_site_fract_z
 _atom_site_occupancy
  Sr  Sr0  1  0.750638  0.249362  0.755221  1
  Li  Li1  1  0.999202  0.000798  0.495335  1
  Pr  Pr2  1  0.251317  0.748683  0.236297  1
  Te  Te3  1  0.501013  0.498987  0.001796  1
  O  O4  1  0.736643  0.263357  0.308552  1
  O  O5  1  0.687623  0.781394  0.196787  1
  O  O6  1  0.794585  0.705583  0.817921  1
  O  O7  1  0.294417  0.205415  0.817921  1
  O  O8  1  0.218606  0.312377  0.196787  1
  O  O9  1  0.265957  0.734043  0.673386  1
