# generated using pymatgen
data_NaBiSe2
_symmetry_space_group_name_H-M   'P 1'
_cell_length_a   7.45328110
_cell_length_b   7.45328110
_cell_length_c   7.45328110
_cell_angle_alpha   133.06576091
_cell_angle_beta   133.06576091
_cell_angle_gamma   68.55089317
_symmetry_Int_Tables_number   1
_chemical_formula_structural   NaBiSe2
_chemical_formula_sum   'Na2 Bi2 Se4'
_cell_volume   217.02671837
_cell_formula_units_Z   2
loop_
 _symmetry_equiv_pos_site_id
 _symmetry_equiv_pos_as_xyz
  1  'x, y, z'
loop_
 _atom_site_type_symbol
 _atom_site_label
 _atom_site_symmetry_multiplicity
 _atom_site_fract_x
 _atom_site_fract_y
 _atom_site_fract_z
 _atom_site_occupancy
  Na  Na0  1  1.000000  1.000000  0.000000  1
  Na  Na1  1  0.750000  0.250000  0.500000  1
  Bi  Bi2  1  0.500000  0.500000  0.000000  1
  Bi  Bi3  1  0.250000  0.750000  0.500000  1
  Se  Se4  1  0.740123  0.740123  0.000000  1
  Se  Se5  1  0.490123  0.990123  0.500000  1
  Se  Se6  1  0.259877  0.259877  0.000000  1
  Se  Se7  1  0.009877  0.509877  0.500000  1
