# generated using pymatgen
data_LiSbF6
_symmetry_space_group_name_H-M   'P 1'
_cell_length_a   5.54198241
_cell_length_b   5.54198241
_cell_length_c   5.54198241
_cell_angle_alpha   57.36342739
_cell_angle_beta   57.36342739
_cell_angle_gamma   57.36342739
_symmetry_Int_Tables_number   1
_chemical_formula_structural   LiSbF6
_chemical_formula_sum   'Li1 Sb1 F6'
_cell_volume   113.05581966
_cell_formula_units_Z   1
loop_
 _symmetry_equiv_pos_site_id
 _symmetry_equiv_pos_as_xyz
  1  'x, y, z'
loop_
 _atom_site_type_symbol
 _atom_site_label
 _atom_site_symmetry_multiplicity
 _atom_site_fract_x
 _atom_site_fract_y
 _atom_site_fract_z
 _atom_site_occupancy
  Li  Li0  1  0.500000  0.500000  0.500000  1
  Sb  Sb1  1  0.000000  0.000000  0.000000  1
  F  F2  1  0.138634  0.760602  0.340912  1
  F  F3  1  0.760602  0.340912  0.138634  1
  F  F4  1  0.659088  0.861366  0.239398  1
  F  F5  1  0.340912  0.138634  0.760602  1
  F  F6  1  0.239398  0.659088  0.861366  1
  F  F7  1  0.861366  0.239398  0.659088  1
