# generated using pymatgen
data_KSb3O5
_symmetry_space_group_name_H-M   'P 1'
_cell_length_a   7.16264627
_cell_length_b   14.22058122
_cell_length_c   8.20666673
_cell_angle_alpha   90.00000000
_cell_angle_beta   120.84685311
_cell_angle_gamma   90.00000000
_symmetry_Int_Tables_number   1
_chemical_formula_structural   KSb3O5
_chemical_formula_sum   'K4 Sb12 O20'
_cell_volume   717.65982204
_cell_formula_units_Z   4
loop_
 _symmetry_equiv_pos_site_id
 _symmetry_equiv_pos_as_xyz
  1  'x, y, z'
loop_
 _atom_site_type_symbol
 _atom_site_label
 _atom_site_symmetry_multiplicity
 _atom_site_fract_x
 _atom_site_fract_y
 _atom_site_fract_z
 _atom_site_occupancy
  K  K0  1  0.948594  0.241981  0.050245  1
  K  K1  1  0.051406  0.741981  0.449755  1
  K  K2  1  0.051406  0.758019  0.949755  1
  K  K3  1  0.948594  0.258019  0.550245  1
  Sb  Sb4  1  0.540201  0.603273  0.361190  1
  Sb  Sb5  1  0.459799  0.103273  0.138810  1
  Sb  Sb6  1  0.459799  0.396727  0.638810  1
  Sb  Sb7  1  0.540201  0.896727  0.861190  1
  Sb  Sb8  1  0.985802  0.014461  0.791797  1
  Sb  Sb9  1  0.014198  0.514461  0.708203  1
  Sb  Sb10  1  0.014198  0.985539  0.208203  1
  Sb  Sb11  1  0.985802  0.485539  0.291797  1
  Sb  Sb12  1  0.507143  0.642380  0.924859  1
  Sb  Sb13  1  0.492857  0.142380  0.575141  1
  Sb  Sb14  1  0.492857  0.357620  0.075141  1
  Sb  Sb15  1  0.507143  0.857620  0.424859  1
  O  O16  1  0.177674  0.131360  0.895345  1
  O  O17  1  0.822326  0.631360  0.604655  1
  O  O18  1  0.822326  0.868640  0.104655  1
  O  O19  1  0.177674  0.368640  0.395345  1
  O  O20  1  0.332677  0.155554  0.288931  1
  O  O21  1  0.667323  0.655554  0.211069  1
  O  O22  1  0.667323  0.844446  0.711069  1
  O  O23  1  0.332677  0.344446  0.788931  1
  O  O24  1  0.746716  0.096934  0.564149  1
  O  O25  1  0.253284  0.596934  0.935851  1
  O  O26  1  0.253284  0.903066  0.435851  1
  O  O27  1  0.746716  0.403066  0.064149  1
  O  O28  1  0.803202  0.459709  0.407761  1
  O  O29  1  0.196798  0.959709  0.092239  1
  O  O30  1  0.196798  0.540291  0.592239  1
  O  O31  1  0.803202  0.040291  0.907761  1
  O  O32  1  0.610118  0.273818  0.641347  1
  O  O33  1  0.389882  0.773818  0.858653  1
  O  O34  1  0.389882  0.726182  0.358653  1
  O  O35  1  0.610118  0.226182  0.141347  1
