# generated using pymatgen
data_NaNdF4
_symmetry_space_group_name_H-M   'P 1'
_cell_length_a   6.21723364
_cell_length_b   6.21723364
_cell_length_c   7.43022359
_cell_angle_alpha   90.00000000
_cell_angle_beta   90.00000000
_cell_angle_gamma   120.00000000
_symmetry_Int_Tables_number   1
_chemical_formula_structural   NaNdF4
_chemical_formula_sum   'Na3 Nd3 F12'
_cell_volume   248.72926782
_cell_formula_units_Z   3
loop_
 _symmetry_equiv_pos_site_id
 _symmetry_equiv_pos_as_xyz
  1  'x, y, z'
loop_
 _atom_site_type_symbol
 _atom_site_label
 _atom_site_symmetry_multiplicity
 _atom_site_fract_x
 _atom_site_fract_y
 _atom_site_fract_z
 _atom_site_occupancy
  Na  Na0  1  0.000000  0.000000  0.293709  1
  Na  Na1  1  0.000000  0.000000  0.706291  1
  Na  Na2  1  0.333333  0.666667  0.500000  1
  Nd  Nd3  1  0.666667  0.333333  0.746206  1
  Nd  Nd4  1  0.666667  0.333333  0.253794  1
  Nd  Nd5  1  0.333333  0.666667  0.000000  1
  F  F6  1  0.913510  0.312472  0.000000  1
  F  F7  1  0.896241  0.279343  0.500000  1
  F  F8  1  0.687528  0.601039  0.000000  1
  F  F9  1  0.720657  0.616898  0.500000  1
  F  F10  1  0.074472  0.682829  0.762280  1
  F  F11  1  0.074472  0.682829  0.237720  1
  F  F12  1  0.398961  0.086490  0.000000  1
  F  F13  1  0.383102  0.103759  0.500000  1
  F  F14  1  0.317171  0.391643  0.762280  1
  F  F15  1  0.317171  0.391643  0.237720  1
  F  F16  1  0.608357  0.925528  0.762280  1
  F  F17  1  0.608357  0.925528  0.237720  1
