# generated using pymatgen
data_BaSO4
_symmetry_space_group_name_H-M   'P 1'
_cell_length_a   5.55696133
_cell_length_b   7.27706852
_cell_length_c   9.01825908
_cell_angle_alpha   90.00000000
_cell_angle_beta   90.00000000
_cell_angle_gamma   90.00000000
_symmetry_Int_Tables_number   1
_chemical_formula_structural   BaSO4
_chemical_formula_sum   'Ba4 S4 O16'
_cell_volume   364.68386302
_cell_formula_units_Z   4
loop_
 _symmetry_equiv_pos_site_id
 _symmetry_equiv_pos_as_xyz
  1  'x, y, z'
loop_
 _atom_site_type_symbol
 _atom_site_label
 _atom_site_symmetry_multiplicity
 _atom_site_fract_x
 _atom_site_fract_y
 _atom_site_fract_z
 _atom_site_occupancy
  Ba  Ba0  1  0.250000  0.843390  0.685738  1
  Ba  Ba1  1  0.750000  0.156610  0.314262  1
  Ba  Ba2  1  0.750000  0.343390  0.814262  1
  Ba  Ba3  1  0.250000  0.656610  0.185738  1
  S  S4  1  0.250000  0.309642  0.561714  1
  S  S5  1  0.750000  0.690358  0.438286  1
  S  S6  1  0.750000  0.809642  0.938286  1
  S  S7  1  0.250000  0.190358  0.061714  1
  O  O8  1  0.531256  0.810333  0.419960  1
  O  O9  1  0.031256  0.189667  0.580040  1
  O  O10  1  0.468744  0.310333  0.080040  1
  O  O11  1  0.968744  0.689667  0.919960  1
  O  O12  1  0.468744  0.189667  0.580040  1
  O  O13  1  0.968744  0.810333  0.419960  1
  O  O14  1  0.531256  0.689667  0.919960  1
  O  O15  1  0.031256  0.310333  0.080040  1
  O  O16  1  0.250000  0.391018  0.411719  1
  O  O17  1  0.750000  0.608982  0.588281  1
  O  O18  1  0.750000  0.891018  0.088281  1
  O  O19  1  0.250000  0.108982  0.911719  1
  O  O20  1  0.250000  0.048953  0.181149  1
  O  O21  1  0.750000  0.951047  0.818851  1
  O  O22  1  0.750000  0.548953  0.318851  1
  O  O23  1  0.250000  0.451047  0.681149  1
