# generated using pymatgen
data_As(S8I)3
_symmetry_space_group_name_H-M   'P 1'
_cell_length_a   15.15569046
_cell_length_b   15.15569046
_cell_length_c   15.15569046
_cell_angle_alpha   118.77256957
_cell_angle_beta   118.77256957
_cell_angle_gamma   118.77256957
_symmetry_Int_Tables_number   1
_chemical_formula_structural   As(S8I)3
_chemical_formula_sum   'As1 S24 I3'
_cell_volume   996.36812411
_cell_formula_units_Z   1
loop_
 _symmetry_equiv_pos_site_id
 _symmetry_equiv_pos_as_xyz
  1  'x, y, z'
loop_
 _atom_site_type_symbol
 _atom_site_label
 _atom_site_symmetry_multiplicity
 _atom_site_fract_x
 _atom_site_fract_y
 _atom_site_fract_z
 _atom_site_occupancy
  As  As0  1  0.239683  0.239683  0.239683  1
  S  S1  1  0.194502  0.477370  0.477370  1
  S  S2  1  0.477370  0.194502  0.477370  1
  S  S3  1  0.477370  0.477370  0.194502  1
  S  S4  1  0.756854  0.367567  0.628201  1
  S  S5  1  0.640450  0.640450  0.042371  1
  S  S6  1  0.640450  0.042371  0.640450  1
  S  S7  1  0.042371  0.640450  0.640450  1
  S  S8  1  0.871675  0.742883  0.259478  1
  S  S9  1  0.742883  0.259478  0.871675  1
  S  S10  1  0.259478  0.871675  0.742883  1
  S  S11  1  0.259478  0.742883  0.871675  1
  S  S12  1  0.742883  0.871675  0.259478  1
  S  S13  1  0.871675  0.259478  0.742883  1
  S  S14  1  0.650991  0.468877  0.119529  1
  S  S15  1  0.468877  0.119529  0.650991  1
  S  S16  1  0.119529  0.650991  0.468877  1
  S  S17  1  0.119529  0.468877  0.650991  1
  S  S18  1  0.468877  0.650991  0.119529  1
  S  S19  1  0.650991  0.119529  0.468877  1
  S  S20  1  0.756854  0.628201  0.367567  1
  S  S21  1  0.628201  0.367567  0.756854  1
  S  S22  1  0.367567  0.756854  0.628201  1
  S  S23  1  0.367567  0.628201  0.756854  1
  S  S24  1  0.628201  0.756854  0.367567  1
  I  I25  1  0.113115  0.958641  0.958641  1
  I  I26  1  0.958641  0.113115  0.958641  1
  I  I27  1  0.958641  0.958641  0.113115  1
