# generated using pymatgen
data_PAuS4
_symmetry_space_group_name_H-M   'P 1'
_cell_length_a   6.40575574
_cell_length_b   7.42168888
_cell_length_c   8.65910818
_cell_angle_alpha   83.08216243
_cell_angle_beta   84.04944226
_cell_angle_gamma   78.42375402
_symmetry_Int_Tables_number   1
_chemical_formula_structural   PAuS4
_chemical_formula_sum   'P2 Au2 S8'
_cell_volume   399.01736539
_cell_formula_units_Z   2
loop_
 _symmetry_equiv_pos_site_id
 _symmetry_equiv_pos_as_xyz
  1  'x, y, z'
loop_
 _atom_site_type_symbol
 _atom_site_label
 _atom_site_symmetry_multiplicity
 _atom_site_fract_x
 _atom_site_fract_y
 _atom_site_fract_z
 _atom_site_occupancy
  P  P0  1  0.734547  0.249514  0.245400  1
  P  P1  1  0.265453  0.750486  0.754600  1
  Au  Au2  1  0.500000  0.500000  0.500000  1
  Au  Au3  1  0.000000  0.000000  0.000000  1
  S  S4  1  0.263030  0.724046  0.993806  1
  S  S5  1  0.736970  0.275954  0.006194  1
  S  S6  1  0.437962  0.258565  0.363217  1
  S  S7  1  0.562038  0.741435  0.636783  1
  S  S8  1  0.058461  0.000743  0.724283  1
  S  S9  1  0.941539  0.999257  0.275717  1
  S  S10  1  0.175993  0.535723  0.664115  1
  S  S11  1  0.824007  0.464277  0.335885  1
