# generated using pymatgen
data_Co(ClO4)2
_symmetry_space_group_name_H-M   'P 1'
_cell_length_a   8.27212953
_cell_length_b   8.27212953
_cell_length_c   8.27212953
_cell_angle_alpha   34.53029305
_cell_angle_beta   34.53029305
_cell_angle_gamma   34.53029305
_symmetry_Int_Tables_number   1
_chemical_formula_structural   Co(ClO4)2
_chemical_formula_sum   'Co1 Cl2 O8'
_cell_volume   162.26425058
_cell_formula_units_Z   1
loop_
 _symmetry_equiv_pos_site_id
 _symmetry_equiv_pos_as_xyz
  1  'x, y, z'
loop_
 _atom_site_type_symbol
 _atom_site_label
 _atom_site_symmetry_multiplicity
 _atom_site_fract_x
 _atom_site_fract_y
 _atom_site_fract_z
 _atom_site_occupancy
  Co  Co0  1  0.000000  0.000000  0.000000  1
  Cl  Cl1  1  0.257819  0.257819  0.257819  1
  Cl  Cl2  1  0.742181  0.742181  0.742181  1
  O  O3  1  0.197013  0.197013  0.197013  1
  O  O4  1  0.802987  0.802987  0.802987  1
  O  O5  1  0.573111  0.257144  0.010065  1
  O  O6  1  0.989935  0.426889  0.742856  1
  O  O7  1  0.742856  0.989935  0.426889  1
  O  O8  1  0.426889  0.742856  0.989935  1
  O  O9  1  0.010065  0.573111  0.257144  1
  O  O10  1  0.257144  0.010065  0.573111  1
