# generated using pymatgen
data_Al4(B2O5)3
_symmetry_space_group_name_H-M   'P 1'
_cell_length_a   7.03441396
_cell_length_b   7.03441396
_cell_length_c   7.03441396
_cell_angle_alpha   110.88497185
_cell_angle_beta   110.88497185
_cell_angle_gamma   110.88497185
_symmetry_Int_Tables_number   1
_chemical_formula_structural   Al4(B2O5)3
_chemical_formula_sum   'Al4 B6 O15'
_cell_volume   252.96062112
_cell_formula_units_Z   1
loop_
 _symmetry_equiv_pos_site_id
 _symmetry_equiv_pos_as_xyz
  1  'x, y, z'
loop_
 _atom_site_type_symbol
 _atom_site_label
 _atom_site_symmetry_multiplicity
 _atom_site_fract_x
 _atom_site_fract_y
 _atom_site_fract_z
 _atom_site_occupancy
  Al  Al0  1  0.196903  0.914676  0.708034  1
  Al  Al1  1  0.708034  0.196903  0.914676  1
  Al  Al2  1  0.914676  0.708034  0.196903  1
  Al  Al3  1  0.998558  0.998558  0.998558  1
  B  B4  1  0.727445  0.826119  0.499890  1
  B  B5  1  0.499890  0.727445  0.826119  1
  B  B6  1  0.826119  0.499890  0.727445  1
  B  B7  1  0.475759  0.400983  0.142224  1
  B  B8  1  0.142224  0.475759  0.400983  1
  B  B9  1  0.400983  0.142224  0.475759  1
  O  O10  1  0.475957  0.923720  0.895234  1
  O  O11  1  0.606527  0.309935  0.501245  1
  O  O12  1  0.309935  0.501245  0.606527  1
  O  O13  1  0.501245  0.606527  0.309935  1
  O  O14  1  0.923720  0.895234  0.475957  1
  O  O15  1  0.719926  0.760870  0.972054  1
  O  O16  1  0.760870  0.972054  0.719926  1
  O  O17  1  0.174852  0.984505  0.257229  1
  O  O18  1  0.984505  0.257229  0.174852  1
  O  O19  1  0.257229  0.174852  0.984505  1
  O  O20  1  0.666021  0.422609  0.120424  1
  O  O21  1  0.422609  0.120424  0.666021  1
  O  O22  1  0.120424  0.666021  0.422609  1
  O  O23  1  0.972054  0.719926  0.760870  1
  O  O24  1  0.895234  0.475957  0.923720  1
