# generated using pymatgen
data_LiMgN
_symmetry_space_group_name_H-M   'P 1'
_cell_length_a   3.51740491
_cell_length_b   5.03510159
_cell_length_c   7.20303366
_cell_angle_alpha   90.00000000
_cell_angle_beta   90.00000000
_cell_angle_gamma   90.00000000
_symmetry_Int_Tables_number   1
_chemical_formula_structural   LiMgN
_chemical_formula_sum   'Li4 Mg4 N4'
_cell_volume   127.56926320
_cell_formula_units_Z   4
loop_
 _symmetry_equiv_pos_site_id
 _symmetry_equiv_pos_as_xyz
  1  'x, y, z'
loop_
 _atom_site_type_symbol
 _atom_site_label
 _atom_site_symmetry_multiplicity
 _atom_site_fract_x
 _atom_site_fract_y
 _atom_site_fract_z
 _atom_site_occupancy
  Li  Li0  1  0.250000  0.528150  0.096069  1
  Li  Li1  1  0.750000  0.471850  0.903931  1
  Li  Li2  1  0.750000  0.028150  0.403931  1
  Li  Li3  1  0.250000  0.971850  0.596069  1
  Mg  Mg4  1  0.250000  0.479597  0.644068  1
  Mg  Mg5  1  0.750000  0.979597  0.855932  1
  Mg  Mg6  1  0.250000  0.020403  0.144068  1
  Mg  Mg7  1  0.750000  0.520403  0.355932  1
  N  N8  1  0.750000  0.769540  0.120170  1
  N  N9  1  0.750000  0.730460  0.620170  1
  N  N10  1  0.250000  0.230460  0.879830  1
  N  N11  1  0.250000  0.269540  0.379830  1
