# generated using pymatgen
data_Tl2S5
_symmetry_space_group_name_H-M   'P 1'
_cell_length_a   6.85989000
_cell_length_b   6.98707670
_cell_length_c   17.07764905
_cell_angle_alpha   90.00000000
_cell_angle_beta   90.00000000
_cell_angle_gamma   90.00000000
_symmetry_Int_Tables_number   1
_chemical_formula_structural   Tl2S5
_chemical_formula_sum   'Tl8 S20'
_cell_volume   818.54158274
_cell_formula_units_Z   4
loop_
 _symmetry_equiv_pos_site_id
 _symmetry_equiv_pos_as_xyz
  1  'x, y, z'
loop_
 _atom_site_type_symbol
 _atom_site_label
 _atom_site_symmetry_multiplicity
 _atom_site_fract_x
 _atom_site_fract_y
 _atom_site_fract_z
 _atom_site_occupancy
  Tl  Tl0  1  0.430701  0.191644  0.147664  1
  Tl  Tl1  1  0.930701  0.308356  0.852336  1
  Tl  Tl2  1  0.569299  0.691644  0.352336  1
  Tl  Tl3  1  0.069299  0.808356  0.647664  1
  Tl  Tl4  1  0.201900  0.610192  0.031993  1
  Tl  Tl5  1  0.701900  0.889808  0.968007  1
  Tl  Tl6  1  0.798100  0.110192  0.468007  1
  Tl  Tl7  1  0.298100  0.389808  0.531993  1
  S  S8  1  0.955272  0.747437  0.830243  1
  S  S9  1  0.455272  0.752563  0.169757  1
  S  S10  1  0.044728  0.247437  0.669757  1
  S  S11  1  0.544728  0.252563  0.330243  1
  S  S12  1  0.240318  0.817595  0.855627  1
  S  S13  1  0.740318  0.682405  0.144373  1
  S  S14  1  0.759682  0.317595  0.644373  1
  S  S15  1  0.259682  0.182405  0.355627  1
  S  S16  1  0.923635  0.578056  0.474624  1
  S  S17  1  0.423635  0.921944  0.525376  1
  S  S18  1  0.076365  0.078056  0.025376  1
  S  S19  1  0.576365  0.421944  0.974624  1
  S  S20  1  0.077181  0.628175  0.373439  1
  S  S21  1  0.577181  0.871825  0.626561  1
  S  S22  1  0.922819  0.128175  0.126561  1
  S  S23  1  0.422819  0.371825  0.873439  1
  S  S24  1  0.074243  0.379729  0.304620  1
  S  S25  1  0.574243  0.120271  0.695380  1
  S  S26  1  0.925757  0.879729  0.195380  1
  S  S27  1  0.425757  0.620271  0.804620  1
