# generated using pymatgen
data_Sr2H5Rh
_symmetry_space_group_name_H-M   'P 1'
_cell_length_a   5.44716156
_cell_length_b   5.44716156
_cell_length_c   5.44716156
_cell_angle_alpha   121.07756963
_cell_angle_beta   121.07756963
_cell_angle_gamma   88.14351254
_symmetry_Int_Tables_number   1
_chemical_formula_structural   Sr2H5Rh
_chemical_formula_sum   'Sr2 H5 Rh1'
_cell_volume   112.36124634
_cell_formula_units_Z   1
loop_
 _symmetry_equiv_pos_site_id
 _symmetry_equiv_pos_as_xyz
  1  'x, y, z'
loop_
 _atom_site_type_symbol
 _atom_site_label
 _atom_site_symmetry_multiplicity
 _atom_site_fract_x
 _atom_site_fract_y
 _atom_site_fract_z
 _atom_site_occupancy
  Sr  Sr0  1  0.751254  0.251254  0.500000  1
  Sr  Sr1  1  0.251254  0.751254  0.500000  1
  H  H2  1  0.782432  0.227826  1.000000  1
  H  H3  1  0.782432  0.782432  0.554606  1
  H  H4  1  0.227826  0.227826  0.445394  1
  H  H5  1  0.227826  0.782432  1.000000  1
  H  H6  1  0.762048  0.762048  1.000000  1
  Rh  Rh7  1  0.991930  0.991930  1.000000  1
