# generated using pymatgen
data_Li2Ni3(P2O7)2
_symmetry_space_group_name_H-M   'P 1'
_cell_length_a   5.25612032
_cell_length_b   6.40045693
_cell_length_c   15.89326246
_cell_angle_alpha   81.42260013
_cell_angle_beta   81.98609736
_cell_angle_gamma   72.21374897
_symmetry_Int_Tables_number   1
_chemical_formula_structural   Li2Ni3(P2O7)2
_chemical_formula_sum   'Li4 Ni6 P8 O28'
_cell_volume   500.91670400
_cell_formula_units_Z   2
loop_
 _symmetry_equiv_pos_site_id
 _symmetry_equiv_pos_as_xyz
  1  'x, y, z'
loop_
 _atom_site_type_symbol
 _atom_site_label
 _atom_site_symmetry_multiplicity
 _atom_site_fract_x
 _atom_site_fract_y
 _atom_site_fract_z
 _atom_site_occupancy
  Li  Li0  1  0.644604  0.315363  0.876126  1
  Li  Li1  1  0.074679  0.211971  0.987497  1
  Li  Li2  1  0.925321  0.788029  0.012503  1
  Li  Li3  1  0.355396  0.684637  0.123874  1
  Ni  Ni4  1  0.227392  0.958888  0.333943  1
  Ni  Ni5  1  0.202578  0.279335  0.592696  1
  Ni  Ni6  1  0.053273  0.638309  0.812833  1
  Ni  Ni7  1  0.946727  0.361691  0.187167  1
  Ni  Ni8  1  0.772608  0.041112  0.666057  1
  Ni  Ni9  1  0.797422  0.720665  0.407304  1
  P  P10  1  0.184857  0.109348  0.791304  1
  P  P11  1  0.298741  0.781842  0.542419  1
  P  P12  1  0.352607  0.425454  0.319884  1
  P  P13  1  0.647393  0.574546  0.680116  1
  P  P14  1  0.815143  0.890652  0.208696  1
  P  P15  1  0.701259  0.218158  0.457581  1
  P  P16  1  0.547366  0.238299  0.072820  1
  P  P17  1  0.452634  0.761701  0.927180  1
  O  O18  1  0.591202  0.027592  0.145781  1
  O  O19  1  0.407783  0.846165  0.450216  1
  O  O20  1  0.399815  0.551141  0.735460  1
  O  O21  1  0.009425  0.024333  0.214571  1
  O  O22  1  0.121140  0.985911  0.585339  1
  O  O23  1  0.711329  0.144403  0.991641  1
  O  O24  1  0.342035  0.587666  0.901023  1
  O  O25  1  0.990575  0.975667  0.785429  1
  O  O26  1  0.641388  0.852612  0.291712  1
  O  O27  1  0.408798  0.972408  0.854219  1
  O  O28  1  0.288671  0.855597  0.008359  1
  O  O29  1  0.202009  0.286004  0.286823  1
  O  O30  1  0.797991  0.713996  0.713177  1
  O  O31  1  0.657965  0.412334  0.098977  1
  O  O32  1  0.968192  0.685193  0.162461  1
  O  O33  1  0.426057  0.298352  0.412134  1
  O  O34  1  0.241802  0.315214  0.071507  1
  O  O35  1  0.600185  0.448859  0.264540  1
  O  O36  1  0.830925  0.402118  0.448230  1
  O  O37  1  0.358612  0.147388  0.708288  1
  O  O38  1  0.592217  0.153835  0.549784  1
  O  O39  1  0.169075  0.597882  0.551770  1
  O  O40  1  0.162493  0.654607  0.338722  1
  O  O41  1  0.758198  0.684786  0.928493  1
  O  O42  1  0.573943  0.701648  0.587866  1
  O  O43  1  0.031808  0.314807  0.837539  1
  O  O44  1  0.837507  0.345393  0.661278  1
  O  O45  1  0.878860  0.014089  0.414661  1
