# generated using pymatgen
data_Ba4Ga2O7
_symmetry_space_group_name_H-M   'P 1'
_cell_length_a   7.45037718
_cell_length_b   10.83479403
_cell_length_c   18.01900360
_cell_angle_alpha   90.00000000
_cell_angle_beta   98.17524563
_cell_angle_gamma   90.00000000
_symmetry_Int_Tables_number   1
_chemical_formula_structural   Ba4Ga2O7
_chemical_formula_sum   'Ba24 Ga12 O42'
_cell_volume   1439.77195261
_cell_formula_units_Z   6
loop_
 _symmetry_equiv_pos_site_id
 _symmetry_equiv_pos_as_xyz
  1  'x, y, z'
loop_
 _atom_site_type_symbol
 _atom_site_label
 _atom_site_symmetry_multiplicity
 _atom_site_fract_x
 _atom_site_fract_y
 _atom_site_fract_z
 _atom_site_occupancy
  Ba  Ba0  1  0.039788  0.786227  0.756894  1
  Ba  Ba1  1  0.460212  0.286227  0.243106  1
  Ba  Ba2  1  0.960212  0.213773  0.243106  1
  Ba  Ba3  1  0.539788  0.713773  0.756894  1
  Ba  Ba4  1  0.456962  0.267765  0.592695  1
  Ba  Ba5  1  0.043038  0.767765  0.407305  1
  Ba  Ba6  1  0.543038  0.732235  0.407305  1
  Ba  Ba7  1  0.956962  0.232235  0.592695  1
  Ba  Ba8  1  0.502448  0.290486  0.910582  1
  Ba  Ba9  1  0.997552  0.790486  0.089418  1
  Ba  Ba10  1  0.497552  0.709514  0.089418  1
  Ba  Ba11  1  0.002448  0.209514  0.910582  1
  Ba  Ba12  1  0.342036  0.895895  0.581981  1
  Ba  Ba13  1  0.157964  0.395895  0.418019  1
  Ba  Ba14  1  0.657964  0.104105  0.418019  1
  Ba  Ba15  1  0.842036  0.604105  0.581981  1
  Ba  Ba16  1  0.203084  0.449028  0.749330  1
  Ba  Ba17  1  0.296916  0.949028  0.250670  1
  Ba  Ba18  1  0.796916  0.550972  0.250670  1
  Ba  Ba19  1  0.703084  0.050972  0.749330  1
  Ba  Ba20  1  0.343227  0.927042  0.911684  1
  Ba  Ba21  1  0.156773  0.427042  0.088316  1
  Ba  Ba22  1  0.656773  0.072958  0.088316  1
  Ba  Ba23  1  0.843227  0.572958  0.911684  1
  Ga  Ga24  1  0.295419  0.569452  0.934289  1
  Ga  Ga25  1  0.204581  0.069452  0.065711  1
  Ga  Ga26  1  0.704581  0.430548  0.065711  1
  Ga  Ga27  1  0.795419  0.930548  0.934289  1
  Ga  Ga28  1  0.814769  0.926482  0.591212  1
  Ga  Ga29  1  0.685231  0.426482  0.408788  1
  Ga  Ga30  1  0.185231  0.073518  0.408788  1
  Ga  Ga31  1  0.314769  0.573518  0.591212  1
  Ga  Ga32  1  0.196650  0.059930  0.731950  1
  Ga  Ga33  1  0.303350  0.559930  0.268050  1
  Ga  Ga34  1  0.803350  0.940070  0.268050  1
  Ga  Ga35  1  0.696650  0.440070  0.731950  1
  O  O36  1  0.500000  0.500000  0.000000  1
  O  O37  1  0.000000  0.000000  0.000000  1
  O  O38  1  0.157021  0.438183  0.573553  1
  O  O39  1  0.342979  0.938183  0.426447  1
  O  O40  1  0.842979  0.561817  0.426447  1
  O  O41  1  0.657021  0.061817  0.573553  1
  O  O42  1  0.326058  0.141735  0.991534  1
  O  O43  1  0.173942  0.641735  0.008466  1
  O  O44  1  0.673942  0.858265  0.008466  1
  O  O45  1  0.826058  0.358265  0.991534  1
  O  O46  1  0.379944  0.939979  0.746240  1
  O  O47  1  0.120056  0.439979  0.253760  1
  O  O48  1  0.620056  0.060021  0.253760  1
  O  O49  1  0.879944  0.560021  0.746240  1
  O  O50  1  0.169963  0.426559  0.896459  1
  O  O51  1  0.330037  0.926559  0.103541  1
  O  O52  1  0.830037  0.573441  0.103541  1
  O  O53  1  0.669963  0.073441  0.896459  1
  O  O54  1  0.261816  0.216429  0.707134  1
  O  O55  1  0.238184  0.716429  0.292866  1
  O  O56  1  0.738184  0.783571  0.292866  1
  O  O57  1  0.761816  0.283571  0.707134  1
  O  O58  1  0.313874  0.686240  0.861299  1
  O  O59  1  0.186126  0.186240  0.138701  1
  O  O60  1  0.686126  0.313760  0.138701  1
  O  O61  1  0.813874  0.813760  0.861299  1
  O  O62  1  0.041033  0.992368  0.642891  1
  O  O63  1  0.458967  0.492368  0.357109  1
  O  O64  1  0.958967  0.007632  0.357109  1
  O  O65  1  0.541033  0.507632  0.642891  1
  O  O66  1  0.219676  0.672141  0.661694  1
  O  O67  1  0.280324  0.172141  0.338306  1
  O  O68  1  0.780324  0.327859  0.338306  1
  O  O69  1  0.719676  0.827859  0.661694  1
  O  O70  1  0.660133  0.328602  0.490406  1
  O  O71  1  0.839867  0.828602  0.509594  1
  O  O72  1  0.339867  0.671398  0.509594  1
  O  O73  1  0.160133  0.171398  0.490406  1
  O  O74  1  0.069807  0.039382  0.812724  1
  O  O75  1  0.430193  0.539382  0.187276  1
  O  O76  1  0.930193  0.960618  0.187276  1
  O  O77  1  0.569807  0.460618  0.812724  1
