# generated using pymatgen
data_Ca2V2O7
_symmetry_space_group_name_H-M   'P 1'
_cell_length_a   6.74864530
_cell_length_b   7.03350975
_cell_length_c   7.12324522
_cell_angle_alpha   85.95702531
_cell_angle_beta   63.79144490
_cell_angle_gamma   82.86131419
_symmetry_Int_Tables_number   1
_chemical_formula_structural   Ca2V2O7
_chemical_formula_sum   'Ca4 V4 O14'
_cell_volume   300.95784415
_cell_formula_units_Z   2
loop_
 _symmetry_equiv_pos_site_id
 _symmetry_equiv_pos_as_xyz
  1  'x, y, z'
loop_
 _atom_site_type_symbol
 _atom_site_label
 _atom_site_symmetry_multiplicity
 _atom_site_fract_x
 _atom_site_fract_y
 _atom_site_fract_z
 _atom_site_occupancy
  Ca  Ca0  1  0.255516  0.658371  0.171919  1
  Ca  Ca1  1  0.744484  0.341629  0.828081  1
  Ca  Ca2  1  0.268344  0.060103  0.764471  1
  Ca  Ca3  1  0.731656  0.939897  0.235529  1
  V  V4  1  0.274274  0.555157  0.654183  1
  V  V5  1  0.725726  0.444843  0.345817  1
  V  V6  1  0.196170  0.164975  0.267065  1
  V  V7  1  0.803830  0.835025  0.732935  1
  O  O8  1  0.950350  0.302099  0.437309  1
  O  O9  1  0.049650  0.697901  0.562691  1
  O  O10  1  0.464132  0.598851  0.369520  1
  O  O11  1  0.535868  0.401149  0.630480  1
  O  O12  1  0.342977  0.053176  0.398690  1
  O  O13  1  0.657023  0.946824  0.601310  1
  O  O14  1  0.360567  0.316745  0.075908  1
  O  O15  1  0.639433  0.683255  0.924092  1
  O  O16  1  0.133019  0.990980  0.141174  1
  O  O17  1  0.866981  0.009020  0.858826  1
  O  O18  1  0.250952  0.719275  0.826843  1
  O  O19  1  0.749048  0.280725  0.173157  1
  O  O20  1  0.107654  0.373253  0.766514  1
  O  O21  1  0.892346  0.626747  0.233486  1
