# generated using pymatgen
data_K2CoO2
_symmetry_space_group_name_H-M   'P 1'
_cell_length_a   6.55279918
_cell_length_b   9.61916490
_cell_length_c   6.97186962
_cell_angle_alpha   90.00000000
_cell_angle_beta   116.64668252
_cell_angle_gamma   90.00000000
_symmetry_Int_Tables_number   1
_chemical_formula_structural   K2CoO2
_chemical_formula_sum   'K8 Co4 O8'
_cell_volume   392.77926235
_cell_formula_units_Z   4
loop_
 _symmetry_equiv_pos_site_id
 _symmetry_equiv_pos_as_xyz
  1  'x, y, z'
loop_
 _atom_site_type_symbol
 _atom_site_label
 _atom_site_symmetry_multiplicity
 _atom_site_fract_x
 _atom_site_fract_y
 _atom_site_fract_z
 _atom_site_occupancy
  K  K0  1  0.246963  0.235291  0.135597  1
  K  K1  1  0.783308  0.412869  0.101074  1
  K  K2  1  0.753037  0.735291  0.364403  1
  K  K3  1  0.246963  0.264709  0.635597  1
  K  K4  1  0.216692  0.912869  0.398926  1
  K  K5  1  0.216692  0.587131  0.898926  1
  K  K6  1  0.753037  0.764709  0.864403  1
  K  K7  1  0.783308  0.087131  0.601074  1
  Co  Co8  1  0.694996  0.432021  0.584640  1
  Co  Co9  1  0.694996  0.067979  0.084640  1
  Co  Co10  1  0.305004  0.932021  0.915360  1
  Co  Co11  1  0.305004  0.567979  0.415360  1
  O  O12  1  0.507629  0.483496  0.303433  1
  O  O13  1  0.054634  0.852707  0.724760  1
  O  O14  1  0.945366  0.352707  0.775240  1
  O  O15  1  0.507629  0.016504  0.803433  1
  O  O16  1  0.492371  0.983496  0.196567  1
  O  O17  1  0.492371  0.516504  0.696567  1
  O  O18  1  0.945366  0.147293  0.275240  1
  O  O19  1  0.054634  0.647293  0.224760  1
