# generated using pymatgen
data_Rb2BeF4
_symmetry_space_group_name_H-M   'P 1'
_cell_length_a   5.98264726
_cell_length_b   7.80509873
_cell_length_c   10.43513884
_cell_angle_alpha   90.00000000
_cell_angle_beta   90.00000000
_cell_angle_gamma   90.00000000
_symmetry_Int_Tables_number   1
_chemical_formula_structural   Rb2BeF4
_chemical_formula_sum   'Rb8 Be4 F16'
_cell_volume   487.27039982
_cell_formula_units_Z   4
loop_
 _symmetry_equiv_pos_site_id
 _symmetry_equiv_pos_as_xyz
  1  'x, y, z'
loop_
 _atom_site_type_symbol
 _atom_site_label
 _atom_site_symmetry_multiplicity
 _atom_site_fract_x
 _atom_site_fract_y
 _atom_site_fract_z
 _atom_site_occupancy
  Rb  Rb0  1  0.750000  0.487833  0.191558  1
  Rb  Rb1  1  0.250000  0.512167  0.808442  1
  Rb  Rb2  1  0.250000  0.012167  0.691558  1
  Rb  Rb3  1  0.750000  0.987833  0.308442  1
  Rb  Rb4  1  0.750000  0.163156  0.907916  1
  Rb  Rb5  1  0.250000  0.836844  0.092084  1
  Rb  Rb6  1  0.250000  0.336844  0.407916  1
  Rb  Rb7  1  0.750000  0.663156  0.592084  1
  Be  Be8  1  0.250000  0.763019  0.418684  1
  Be  Be9  1  0.750000  0.736981  0.918684  1
  Be  Be10  1  0.250000  0.263019  0.081316  1
  Be  Be11  1  0.750000  0.236981  0.581316  1
  F  F12  1  0.534830  0.809028  0.850951  1
  F  F13  1  0.034830  0.190972  0.149049  1
  F  F14  1  0.034830  0.690972  0.350951  1
  F  F15  1  0.534830  0.309028  0.649049  1
  F  F16  1  0.965170  0.309028  0.649049  1
  F  F17  1  0.965170  0.809028  0.850951  1
  F  F18  1  0.465170  0.690972  0.350951  1
  F  F19  1  0.465170  0.190972  0.149049  1
  F  F20  1  0.750000  0.036939  0.585928  1
  F  F21  1  0.250000  0.963061  0.414072  1
  F  F22  1  0.250000  0.463061  0.085928  1
  F  F23  1  0.750000  0.536939  0.914072  1
  F  F24  1  0.750000  0.305802  0.438817  1
  F  F25  1  0.250000  0.694198  0.561183  1
  F  F26  1  0.250000  0.194198  0.938817  1
  F  F27  1  0.750000  0.805802  0.061183  1
