# generated using pymatgen
data_Mg(InTe2)2
_symmetry_space_group_name_H-M   'P 1'
_cell_length_a   7.78159122
_cell_length_b   7.78159122
_cell_length_c   7.78159122
_cell_angle_alpha   131.92613465
_cell_angle_beta   131.92613465
_cell_angle_gamma   70.34571422
_symmetry_Int_Tables_number   1
_chemical_formula_structural   Mg(InTe2)2
_chemical_formula_sum   'Mg1 In2 Te4'
_cell_volume   255.61857328
_cell_formula_units_Z   1
loop_
 _symmetry_equiv_pos_site_id
 _symmetry_equiv_pos_as_xyz
  1  'x, y, z'
loop_
 _atom_site_type_symbol
 _atom_site_label
 _atom_site_symmetry_multiplicity
 _atom_site_fract_x
 _atom_site_fract_y
 _atom_site_fract_z
 _atom_site_occupancy
  Mg  Mg0  1  0.000000  0.000000  0.000000  1
  In  In1  1  0.250000  0.750000  0.500000  1
  In  In2  1  0.750000  0.250000  0.500000  1
  Te  Te3  1  0.614850  0.614850  0.453248  1
  Te  Te4  1  0.838398  0.385150  0.000000  1
  Te  Te5  1  0.161602  0.161602  0.546752  1
  Te  Te6  1  0.385150  0.838398  0.000000  1
