# generated using pymatgen
data_Fe2NiO4
_symmetry_space_group_name_H-M   'P 1'
_cell_length_a   5.96578118
_cell_length_b   5.96578118
_cell_length_c   5.96578118
_cell_angle_alpha   120.03375189
_cell_angle_beta   119.93614073
_cell_angle_gamma   90.02609651
_symmetry_Int_Tables_number   1
_chemical_formula_structural   Fe2NiO4
_chemical_formula_sum   'Fe4 Ni2 O8'
_cell_volume   150.17074161
_cell_formula_units_Z   2
loop_
 _symmetry_equiv_pos_site_id
 _symmetry_equiv_pos_as_xyz
  1  'x, y, z'
loop_
 _atom_site_type_symbol
 _atom_site_label
 _atom_site_symmetry_multiplicity
 _atom_site_fract_x
 _atom_site_fract_y
 _atom_site_fract_z
 _atom_site_occupancy
  Fe  Fe0  1  0.621520  0.871520  0.750000  1
  Fe  Fe1  1  0.378480  0.128480  0.250000  1
  Fe  Fe2  1  0.500000  0.500000  0.000000  1
  Fe  Fe3  1  0.000000  0.500000  0.500000  1
  Ni  Ni4  1  0.000000  0.500000  1.000000  1
  Ni  Ni5  1  0.000000  0.000000  0.500000  1
  O  O6  1  0.251833  0.260288  0.991545  1
  O  O7  1  0.247482  0.732754  0.985272  1
  O  O8  1  0.768744  0.260288  0.508455  1
  O  O9  1  0.247482  0.262209  0.514728  1
  O  O10  1  0.752518  0.737791  0.485272  1
  O  O11  1  0.231256  0.739712  0.491545  1
  O  O12  1  0.752518  0.267246  0.014728  1
  O  O13  1  0.748167  0.739712  0.008455  1
