# generated using pymatgen
data_LiYF4
_symmetry_space_group_name_H-M   'P 1'
_cell_length_a   5.13418472
_cell_length_b   5.36265619
_cell_length_c   5.36142041
_cell_angle_alpha   90.00000000
_cell_angle_beta   90.84673571
_cell_angle_gamma   90.00000000
_symmetry_Int_Tables_number   1
_chemical_formula_structural   LiYF4
_chemical_formula_sum   'Li2 Y2 F8'
_cell_volume   147.59915840
_cell_formula_units_Z   2
loop_
 _symmetry_equiv_pos_site_id
 _symmetry_equiv_pos_as_xyz
  1  'x, y, z'
loop_
 _atom_site_type_symbol
 _atom_site_label
 _atom_site_symmetry_multiplicity
 _atom_site_fract_x
 _atom_site_fract_y
 _atom_site_fract_z
 _atom_site_occupancy
  Li  Li0  1  0.000000  0.756989  0.250000  1
  Li  Li1  1  0.000000  0.243011  0.750000  1
  Y  Y2  1  0.500000  0.749152  0.750000  1
  Y  Y3  1  0.500000  0.250848  0.250000  1
  F  F4  1  0.263697  0.435530  0.932285  1
  F  F5  1  0.736303  0.435530  0.567715  1
  F  F6  1  0.262721  0.937154  0.059229  1
  F  F7  1  0.737279  0.937154  0.440771  1
  F  F8  1  0.737279  0.062846  0.940771  1
  F  F9  1  0.262721  0.062846  0.559229  1
  F  F10  1  0.263697  0.564470  0.432285  1
  F  F11  1  0.736303  0.564470  0.067715  1
