# generated using pymatgen
data_BeI2
_symmetry_space_group_name_H-M   'P 1'
_cell_length_a   14.09856414
_cell_length_b   14.09856414
_cell_length_c   14.09856414
_cell_angle_alpha   125.11772701
_cell_angle_beta   125.11772701
_cell_angle_gamma   81.34312808
_symmetry_Int_Tables_number   1
_chemical_formula_structural   BeI2
_chemical_formula_sum   'Be16 I32'
_cell_volume   1805.55599157
_cell_formula_units_Z   16
loop_
 _symmetry_equiv_pos_site_id
 _symmetry_equiv_pos_as_xyz
  1  'x, y, z'
loop_
 _atom_site_type_symbol
 _atom_site_label
 _atom_site_symmetry_multiplicity
 _atom_site_fract_x
 _atom_site_fract_y
 _atom_site_fract_z
 _atom_site_occupancy
  Be  Be0  1  0.437211  0.732958  0.543576  1
  Be  Be1  1  0.482958  0.439382  0.795746  1
  Be  Be2  1  0.643635  0.687211  0.204254  1
  Be  Be3  1  0.812789  0.856365  0.795746  1
  Be  Be4  1  0.060618  0.017042  0.204254  1
  Be  Be5  1  0.606365  0.310618  0.543576  1
  Be  Be6  1  0.767042  0.062789  0.456424  1
  Be  Be7  1  0.189382  0.893635  0.456424  1
  Be  Be8  1  0.312789  0.517042  0.956424  1
  Be  Be9  1  0.267042  0.810618  0.704254  1
  Be  Be10  1  0.106365  0.562789  0.295746  1
  Be  Be11  1  0.937211  0.393635  0.704254  1
  Be  Be12  1  0.689382  0.232958  0.295746  1
  Be  Be13  1  0.143635  0.939382  0.956424  1
  Be  Be14  1  0.982958  0.187211  0.043576  1
  Be  Be15  1  0.560618  0.356365  0.043576  1
  I  I16  1  0.463423  0.791712  0.757105  1
  I  I17  1  0.541712  0.284607  0.828289  1
  I  I18  1  0.456318  0.713423  0.171711  1
  I  I19  1  0.786577  0.043682  0.828289  1
  I  I20  1  0.215393  0.958288  0.171711  1
  I  I21  1  0.793682  0.465393  0.757105  1
  I  I22  1  0.708288  0.036577  0.242895  1
  I  I23  1  0.034607  0.706318  0.242895  1
  I  I24  1  0.286577  0.458288  0.742895  1
  I  I25  1  0.208288  0.965393  0.671711  1
  I  I26  1  0.293682  0.536577  0.328289  1
  I  I27  1  0.963423  0.206318  0.671711  1
  I  I28  1  0.534607  0.291712  0.328289  1
  I  I29  1  0.956318  0.784607  0.742895  1
  I  I30  1  0.041712  0.213423  0.257105  1
  I  I31  1  0.715393  0.543682  0.257105  1
  I  I32  1  0.382730  0.882730  0.500000  1
  I  I33  1  0.632730  0.632730  0.000000  1
  I  I34  1  0.867270  0.867270  0.000000  1
  I  I35  1  0.617270  0.117270  0.500000  1
  I  I36  1  0.367270  0.367270  0.000000  1
  I  I37  1  0.117270  0.617270  0.500000  1
  I  I38  1  0.882730  0.382730  0.500000  1
  I  I39  1  0.132730  0.132730  0.000000  1
  I  I40  1  0.625000  0.697788  0.572788  1
  I  I41  1  0.447788  0.375000  0.572788  1
  I  I42  1  0.802212  0.875000  0.427212  1
  I  I43  1  0.125000  0.052212  0.427212  1
  I  I44  1  0.125000  0.552212  0.927212  1
  I  I45  1  0.302212  0.875000  0.927212  1
  I  I46  1  0.947788  0.375000  0.072788  1
  I  I47  1  0.625000  0.197788  0.072788  1
