# generated using pymatgen
data_Cu4SnP10
_symmetry_space_group_name_H-M   'P 1'
_cell_length_a   7.29631036
_cell_length_b   7.29631036
_cell_length_c   7.29631036
_cell_angle_alpha   59.96535963
_cell_angle_beta   59.96535963
_cell_angle_gamma   59.96535963
_symmetry_Int_Tables_number   1
_chemical_formula_structural   Cu4SnP10
_chemical_formula_sum   'Cu4 Sn1 P10'
_cell_volume   274.44391377
_cell_formula_units_Z   1
loop_
 _symmetry_equiv_pos_site_id
 _symmetry_equiv_pos_as_xyz
  1  'x, y, z'
loop_
 _atom_site_type_symbol
 _atom_site_label
 _atom_site_symmetry_multiplicity
 _atom_site_fract_x
 _atom_site_fract_y
 _atom_site_fract_z
 _atom_site_occupancy
  Cu  Cu0  1  0.000079  0.000079  0.000079  1
  Cu  Cu1  1  0.375818  0.375818  0.866351  1
  Cu  Cu2  1  0.866351  0.375818  0.375818  1
  Cu  Cu3  1  0.375818  0.866351  0.375818  1
  Sn  Sn4  1  0.426825  0.426825  0.426825  1
  P  P5  1  0.505451  0.996386  0.996386  1
  P  P6  1  0.996386  0.505451  0.996386  1
  P  P7  1  0.873200  0.873200  0.873200  1
  P  P8  1  0.380535  0.874916  0.874916  1
  P  P9  1  0.504828  0.504828  0.988364  1
  P  P10  1  0.996386  0.996386  0.505451  1
  P  P11  1  0.874916  0.380535  0.874916  1
  P  P12  1  0.874916  0.874916  0.380535  1
  P  P13  1  0.504828  0.988364  0.504828  1
  P  P14  1  0.988364  0.504828  0.504828  1
