# generated using pymatgen
data_Mg3TeO6
_symmetry_space_group_name_H-M   'P 1'
_cell_length_a   6.11675025
_cell_length_b   6.11675025
_cell_length_c   6.11675025
_cell_angle_alpha   90.66936391
_cell_angle_beta   90.66936391
_cell_angle_gamma   90.66936391
_symmetry_Int_Tables_number   1
_chemical_formula_structural   Mg3TeO6
_chemical_formula_sum   'Mg6 Te2 O12'
_cell_volume   228.80874962
_cell_formula_units_Z   2
loop_
 _symmetry_equiv_pos_site_id
 _symmetry_equiv_pos_as_xyz
  1  'x, y, z'
loop_
 _atom_site_type_symbol
 _atom_site_label
 _atom_site_symmetry_multiplicity
 _atom_site_fract_x
 _atom_site_fract_y
 _atom_site_fract_z
 _atom_site_occupancy
  Mg  Mg0  1  0.935808  0.751897  0.446731  1
  Mg  Mg1  1  0.751897  0.446731  0.935808  1
  Mg  Mg2  1  0.553269  0.064192  0.248103  1
  Mg  Mg3  1  0.248103  0.553269  0.064192  1
  Mg  Mg4  1  0.064192  0.248103  0.553269  1
  Mg  Mg5  1  0.446731  0.935808  0.751897  1
  Te  Te6  1  0.000000  0.000000  0.000000  1
  Te  Te7  1  0.500000  0.500000  0.500000  1
  O  O8  1  0.197896  0.544264  0.409520  1
  O  O9  1  0.409520  0.197896  0.544264  1
  O  O10  1  0.544264  0.409520  0.197896  1
  O  O11  1  0.802104  0.455736  0.590480  1
  O  O12  1  0.590480  0.802104  0.455736  1
  O  O13  1  0.455736  0.590480  0.802104  1
  O  O14  1  0.698085  0.073511  0.931307  1
  O  O15  1  0.931307  0.698085  0.073511  1
  O  O16  1  0.926489  0.068693  0.301915  1
  O  O17  1  0.068693  0.301915  0.926489  1
  O  O18  1  0.301915  0.926489  0.068693  1
  O  O19  1  0.073511  0.931307  0.698085  1
