# generated using pymatgen
data_Li5NCl2
_symmetry_space_group_name_H-M   'P 1'
_cell_length_a   6.75900913
_cell_length_b   3.65927250
_cell_length_c   9.24906709
_cell_angle_alpha   90.00000000
_cell_angle_beta   94.89086598
_cell_angle_gamma   90.00000000
_symmetry_Int_Tables_number   1
_chemical_formula_structural   Li5NCl2
_chemical_formula_sum   'Li10 N2 Cl4'
_cell_volume   227.92476720
_cell_formula_units_Z   2
loop_
 _symmetry_equiv_pos_site_id
 _symmetry_equiv_pos_as_xyz
  1  'x, y, z'
loop_
 _atom_site_type_symbol
 _atom_site_label
 _atom_site_symmetry_multiplicity
 _atom_site_fract_x
 _atom_site_fract_y
 _atom_site_fract_z
 _atom_site_occupancy
  Li  Li0  1  0.469133  0.500000  0.270013  1
  Li  Li1  1  0.039149  0.000000  0.253214  1
  Li  Li2  1  0.960851  0.000000  0.746786  1
  Li  Li3  1  0.372079  0.000000  0.564066  1
  Li  Li4  1  0.675214  0.000000  0.892630  1
  Li  Li5  1  0.324786  0.000000  0.107370  1
  Li  Li6  1  0.530867  0.500000  0.729987  1
  Li  Li7  1  0.786155  0.500000  0.598218  1
  Li  Li8  1  0.627921  0.000000  0.435934  1
  Li  Li9  1  0.213845  0.500000  0.401782  1
  N  N10  1  0.335716  0.000000  0.333458  1
  N  N11  1  0.664284  0.000000  0.666542  1
  Cl  Cl12  1  0.834160  0.500000  0.339026  1
  Cl  Cl13  1  0.000000  0.000000  0.000000  1
  Cl  Cl14  1  0.500000  0.500000  0.000000  1
  Cl  Cl15  1  0.165840  0.500000  0.660974  1
