# generated using pymatgen
data_BaP8
_symmetry_space_group_name_H-M   'P 1'
_cell_length_a   6.85995734
_cell_length_b   7.33009139
_cell_length_c   8.68997440
_cell_angle_alpha   86.36491799
_cell_angle_beta   83.75667959
_cell_angle_gamma   70.21503718
_symmetry_Int_Tables_number   1
_chemical_formula_structural   BaP8
_chemical_formula_sum   'Ba2 P16'
_cell_volume   408.56946439
_cell_formula_units_Z   2
loop_
 _symmetry_equiv_pos_site_id
 _symmetry_equiv_pos_as_xyz
  1  'x, y, z'
loop_
 _atom_site_type_symbol
 _atom_site_label
 _atom_site_symmetry_multiplicity
 _atom_site_fract_x
 _atom_site_fract_y
 _atom_site_fract_z
 _atom_site_occupancy
  Ba  Ba0  1  0.737104  0.664948  0.320552  1
  Ba  Ba1  1  0.262896  0.335052  0.679448  1
  P  P2  1  0.476676  0.668850  0.797171  1
  P  P3  1  0.523324  0.331150  0.202829  1
  P  P4  1  0.013089  0.041961  0.618055  1
  P  P5  1  0.986911  0.958039  0.381945  1
  P  P6  1  0.090296  0.183439  0.241622  1
  P  P7  1  0.909704  0.816561  0.758378  1
  P  P8  1  0.141461  0.048922  0.002786  1
  P  P9  1  0.858539  0.951078  0.997214  1
  P  P10  1  0.236158  0.676746  0.393807  1
  P  P11  1  0.763842  0.323254  0.606193  1
  P  P12  1  0.236550  0.579378  0.156541  1
  P  P13  1  0.763450  0.420622  0.843459  1
  P  P14  1  0.395872  0.122242  0.327483  1
  P  P15  1  0.604128  0.877758  0.672517  1
  P  P16  1  0.401846  0.773685  0.039756  1
  P  P17  1  0.598154  0.226315  0.960244  1
