# generated using pymatgen
data_Sr3Te4O11
_symmetry_space_group_name_H-M   'P 1'
_cell_length_a   7.69802305
_cell_length_b   9.45635113
_cell_length_c   9.74094348
_cell_angle_alpha   98.43048748
_cell_angle_beta   110.03180286
_cell_angle_gamma   100.96704641
_symmetry_Int_Tables_number   1
_chemical_formula_structural   Sr3Te4O11
_chemical_formula_sum   'Sr6 Te8 O22'
_cell_volume   636.55550765
_cell_formula_units_Z   2
loop_
 _symmetry_equiv_pos_site_id
 _symmetry_equiv_pos_as_xyz
  1  'x, y, z'
loop_
 _atom_site_type_symbol
 _atom_site_label
 _atom_site_symmetry_multiplicity
 _atom_site_fract_x
 _atom_site_fract_y
 _atom_site_fract_z
 _atom_site_occupancy
  Sr  Sr0  1  0.293261  0.039529  0.117377  1
  Sr  Sr1  1  0.706739  0.960471  0.882623  1
  Sr  Sr2  1  0.861336  0.078536  0.322606  1
  Sr  Sr3  1  0.138664  0.921464  0.677394  1
  Sr  Sr4  1  0.309940  0.533338  0.619819  1
  Sr  Sr5  1  0.690060  0.466662  0.380181  1
  Te  Te6  1  0.072337  0.356448  0.202274  1
  Te  Te7  1  0.927663  0.643552  0.797726  1
  Te  Te8  1  0.014834  0.250843  0.773337  1
  Te  Te9  1  0.985166  0.749157  0.226663  1
  Te  Te10  1  0.465494  0.699217  0.044613  1
  Te  Te11  1  0.534506  0.300783  0.955387  1
  Te  Te12  1  0.498448  0.807603  0.460250  1
  Te  Te13  1  0.501552  0.192397  0.539750  1
  O  O14  1  0.990227  0.557223  0.639564  1
  O  O15  1  0.009773  0.442777  0.360436  1
  O  O16  1  0.431908  0.600105  0.394700  1
  O  O17  1  0.568092  0.399895  0.605300  1
  O  O18  1  0.828404  0.215939  0.097083  1
  O  O19  1  0.171596  0.784061  0.902917  1
  O  O20  1  0.705288  0.143043  0.692345  1
  O  O21  1  0.294712  0.856957  0.307655  1
  O  O22  1  0.394691  0.815967  0.610023  1
  O  O23  1  0.605309  0.184033  0.389977  1
  O  O24  1  0.027146  0.145895  0.599450  1
  O  O25  1  0.972854  0.854105  0.400550  1
  O  O26  1  0.475350  0.304977  0.126365  1
  O  O27  1  0.524650  0.695023  0.873635  1
  O  O28  1  0.561369  0.905091  0.127574  1
  O  O29  1  0.438631  0.094909  0.872426  1
  O  O30  1  0.951921  0.894633  0.113417  1
  O  O31  1  0.048079  0.105367  0.886583  1
  O  O32  1  0.190176  0.220983  0.299788  1
  O  O33  1  0.809824  0.779017  0.700212  1
  O  O34  1  0.695069  0.638281  0.164370  1
  O  O35  1  0.304931  0.361719  0.835630  1
