# generated using pymatgen
data_AgPdF6
_symmetry_space_group_name_H-M   'P 1'
_cell_length_a   5.14239308
_cell_length_b   5.18804686
_cell_length_c   10.22831019
_cell_angle_alpha   76.61549783
_cell_angle_beta   77.07124136
_cell_angle_gamma   61.02806680
_symmetry_Int_Tables_number   1
_chemical_formula_structural   AgPdF6
_chemical_formula_sum   'Ag2 Pd2 F12'
_cell_volume   230.24171660
_cell_formula_units_Z   2
loop_
 _symmetry_equiv_pos_site_id
 _symmetry_equiv_pos_as_xyz
  1  'x, y, z'
loop_
 _atom_site_type_symbol
 _atom_site_label
 _atom_site_symmetry_multiplicity
 _atom_site_fract_x
 _atom_site_fract_y
 _atom_site_fract_z
 _atom_site_occupancy
  Ag  Ag0  1  0.500000  0.500000  0.500000  1
  Ag  Ag1  1  0.000000  0.000000  0.000000  1
  Pd  Pd2  1  0.297914  0.217615  0.250163  1
  Pd  Pd3  1  0.702086  0.782385  0.749837  1
  F  F4  1  0.964031  0.474996  0.365865  1
  F  F5  1  0.035969  0.525004  0.634135  1
  F  F6  1  0.638417  0.944559  0.134309  1
  F  F7  1  0.361583  0.055441  0.865691  1
  F  F8  1  0.664782  0.446038  0.863872  1
  F  F9  1  0.335218  0.553962  0.136128  1
  F  F10  1  0.979720  0.737114  0.867618  1
  F  F11  1  0.020280  0.262886  0.132382  1
  F  F12  1  0.431292  0.817694  0.631815  1
  F  F13  1  0.568708  0.182306  0.368185  1
  F  F14  1  0.755288  0.123716  0.636088  1
  F  F15  1  0.244712  0.876284  0.363912  1
