# generated using pymatgen
data_B5H6Br
_symmetry_space_group_name_H-M   'P 1'
_cell_length_a   12.22556961
_cell_length_b   7.59148504
_cell_length_c   13.77800809
_cell_angle_alpha   90.00000000
_cell_angle_beta   110.81086706
_cell_angle_gamma   90.00000000
_symmetry_Int_Tables_number   1
_chemical_formula_structural   B5H6Br
_chemical_formula_sum   'B40 H48 Br8'
_cell_volume   1195.31291603
_cell_formula_units_Z   8
loop_
 _symmetry_equiv_pos_site_id
 _symmetry_equiv_pos_as_xyz
  1  'x, y, z'
loop_
 _atom_site_type_symbol
 _atom_site_label
 _atom_site_symmetry_multiplicity
 _atom_site_fract_x
 _atom_site_fract_y
 _atom_site_fract_z
 _atom_site_occupancy
  B  B0  1  0.313745  0.924299  0.789601  1
  B  B1  1  0.186255  0.424299  0.210399  1
  B  B2  1  0.686255  0.075701  0.210399  1
  B  B3  1  0.813745  0.575701  0.789601  1
  B  B4  1  0.347601  0.727662  0.735139  1
  B  B5  1  0.152399  0.227662  0.264861  1
  B  B6  1  0.652399  0.272338  0.264861  1
  B  B7  1  0.847601  0.772338  0.735139  1
  B  B8  1  0.394940  0.800336  0.633732  1
  B  B9  1  0.105060  0.300336  0.366268  1
  B  B10  1  0.605060  0.199664  0.366268  1
  B  B11  1  0.894940  0.699664  0.633732  1
  B  B12  1  0.512562  0.986673  0.665465  1
  B  B13  1  0.987438  0.486673  0.334535  1
  B  B14  1  0.487438  0.013327  0.334535  1
  B  B15  1  0.012562  0.513327  0.665465  1
  B  B16  1  0.565346  0.068558  0.794785  1
  B  B17  1  0.934654  0.568558  0.205215  1
  B  B18  1  0.434654  0.931442  0.205215  1
  B  B19  1  0.065346  0.431442  0.794785  1
  B  B20  1  0.437147  0.114217  0.823780  1
  B  B21  1  0.062853  0.614217  0.176220  1
  B  B22  1  0.562853  0.885783  0.176220  1
  B  B23  1  0.937147  0.385783  0.823780  1
  B  B24  1  0.813213  0.395990  0.709324  1
  B  B25  1  0.231171  0.391356  0.347114  1
  B  B26  1  0.731171  0.108644  0.347114  1
  B  B27  1  0.768829  0.608644  0.652886  1
  B  B28  1  0.361825  0.024442  0.609782  1
  B  B29  1  0.138175  0.524442  0.390218  1
  B  B30  1  0.638175  0.975558  0.390218  1
  B  B31  1  0.861825  0.475558  0.609782  1
  B  B32  1  0.449874  0.175834  0.703280  1
  B  B33  1  0.050126  0.675834  0.296720  1
  B  B34  1  0.550126  0.824166  0.296720  1
  B  B35  1  0.949874  0.324166  0.703280  1
  B  B36  1  0.313213  0.104010  0.709324  1
  B  B37  1  0.186787  0.604010  0.290676  1
  B  B38  1  0.686787  0.895990  0.290676  1
  B  B39  1  0.268829  0.891356  0.652886  1
  H  H40  1  0.396168  0.802950  0.829731  1
  H  H41  1  0.103832  0.302950  0.170269  1
  H  H42  1  0.603832  0.197050  0.170269  1
  H  H43  1  0.896168  0.697050  0.829731  1
  H  H44  1  0.320195  0.582483  0.749709  1
  H  H45  1  0.179805  0.082483  0.250291  1
  H  H46  1  0.679805  0.417517  0.250291  1
  H  H47  1  0.820195  0.917517  0.749709  1
  H  H48  1  0.451466  0.717715  0.723012  1
  H  H49  1  0.048534  0.217715  0.276988  1
  H  H50  1  0.548534  0.282285  0.276988  1
  H  H51  1  0.951466  0.782285  0.723012  1
  H  H52  1  0.394287  0.696733  0.568581  1
  H  H53  1  0.105713  0.196733  0.431419  1
  H  H54  1  0.605713  0.303267  0.431419  1
  H  H55  1  0.894287  0.803267  0.568581  1
  H  H56  1  0.575995  0.989005  0.616881  1
  H  H57  1  0.924005  0.489005  0.383119  1
  H  H58  1  0.424005  0.010995  0.383119  1
  H  H59  1  0.075995  0.510995  0.616881  1
  H  H60  1  0.575243  0.910465  0.754964  1
  H  H61  1  0.924757  0.410465  0.245036  1
  H  H62  1  0.424757  0.089535  0.245036  1
  H  H63  1  0.739671  0.288354  0.702181  1
  H  H64  1  0.661324  0.117794  0.844419  1
  H  H65  1  0.838676  0.617794  0.155581  1
  H  H66  1  0.338676  0.882206  0.155581  1
  H  H67  1  0.161324  0.382206  0.844419  1
  H  H68  1  0.521313  0.995529  0.862890  1
  H  H69  1  0.978687  0.495529  0.137110  1
  H  H70  1  0.478687  0.004471  0.137110  1
  H  H71  1  0.021313  0.504471  0.862890  1
  H  H72  1  0.169698  0.865898  0.598732  1
  H  H73  1  0.330302  0.365898  0.401268  1
  H  H74  1  0.830302  0.134102  0.401268  1
  H  H75  1  0.669698  0.634102  0.598732  1
  H  H76  1  0.328200  0.066371  0.520553  1
  H  H77  1  0.171800  0.566371  0.479447  1
  H  H78  1  0.671800  0.933629  0.479447  1
  H  H79  1  0.828200  0.433629  0.520553  1
  H  H80  1  0.461279  0.324177  0.680189  1
  H  H81  1  0.038721  0.824177  0.319811  1
  H  H82  1  0.538721  0.675823  0.319811  1
  H  H83  1  0.961279  0.175823  0.680189  1
  H  H84  1  0.239671  0.211646  0.702181  1
  H  H85  1  0.260329  0.711646  0.297819  1
  H  H86  1  0.760329  0.788354  0.297819  1
  H  H87  1  0.075243  0.589535  0.754964  1
  Br  Br88  1  0.214073  0.916407  0.873395  1
  Br  Br89  1  0.285927  0.416407  0.126605  1
  Br  Br90  1  0.785927  0.083593  0.126605  1
  Br  Br91  1  0.714073  0.583593  0.873395  1
  Br  Br92  1  0.446380  0.272961  0.938360  1
  Br  Br93  1  0.053620  0.772961  0.061640  1
  Br  Br94  1  0.553620  0.727039  0.061640  1
  Br  Br95  1  0.946380  0.227039  0.938360  1
