# generated using pymatgen
data_AlPO4
_symmetry_space_group_name_H-M   'P 1'
_cell_length_a   5.05495885
_cell_length_b   5.05495885
_cell_length_c   11.16436602
_cell_angle_alpha   90.00000000
_cell_angle_beta   90.00000000
_cell_angle_gamma   120.00000000
_symmetry_Int_Tables_number   1
_chemical_formula_structural   AlPO4
_chemical_formula_sum   'Al3 P3 O12'
_cell_volume   247.05858340
_cell_formula_units_Z   3
loop_
 _symmetry_equiv_pos_site_id
 _symmetry_equiv_pos_as_xyz
  1  'x, y, z'
loop_
 _atom_site_type_symbol
 _atom_site_label
 _atom_site_symmetry_multiplicity
 _atom_site_fract_x
 _atom_site_fract_y
 _atom_site_fract_z
 _atom_site_occupancy
  Al  Al0  1  0.472986  0.000000  0.666667  1
  Al  Al1  1  0.000000  0.472986  0.333333  1
  Al  Al2  1  0.527014  0.527014  0.000000  1
  P  P3  1  0.473503  0.000000  0.166667  1
  P  P4  1  0.000000  0.473503  0.833333  1
  P  P5  1  0.526497  0.526497  0.500000  1
  O  O6  1  0.170955  0.753515  0.221867  1
  O  O7  1  0.246485  0.417440  0.888533  1
  O  O8  1  0.582560  0.829045  0.555200  1
  O  O9  1  0.417440  0.246485  0.111467  1
  O  O10  1  0.829045  0.582560  0.444800  1
  O  O11  1  0.753515  0.170955  0.778133  1
  O  O12  1  0.719881  0.137532  0.264865  1
  O  O13  1  0.862468  0.582350  0.931532  1
  O  O14  1  0.417650  0.280119  0.598199  1
  O  O15  1  0.582350  0.862468  0.068468  1
  O  O16  1  0.280119  0.417650  0.401801  1
  O  O17  1  0.137532  0.719881  0.735135  1
