# generated using pymatgen
data_Nd(BO2)3
_symmetry_space_group_name_H-M   'P 1'
_cell_length_a   6.42380893
_cell_length_b   6.42380893
_cell_length_c   6.43835543
_cell_angle_alpha   62.41178409
_cell_angle_beta   117.58821591
_cell_angle_gamma   100.96695757
_symmetry_Int_Tables_number   1
_chemical_formula_structural   Nd(BO2)3
_chemical_formula_sum   'Nd2 B6 O12'
_cell_volume   208.59976645
_cell_formula_units_Z   2
loop_
 _symmetry_equiv_pos_site_id
 _symmetry_equiv_pos_as_xyz
  1  'x, y, z'
loop_
 _atom_site_type_symbol
 _atom_site_label
 _atom_site_symmetry_multiplicity
 _atom_site_fract_x
 _atom_site_fract_y
 _atom_site_fract_z
 _atom_site_occupancy
  Nd  Nd0  1  0.701719  0.701719  0.750000  1
  Nd  Nd1  1  0.298281  0.298281  0.250000  1
  B  B2  1  0.722404  0.722404  0.250000  1
  B  B3  1  0.706307  0.159603  0.914880  1
  B  B4  1  0.159603  0.706307  0.585120  1
  B  B5  1  0.277596  0.277596  0.750000  1
  B  B6  1  0.840397  0.293693  0.414880  1
  B  B7  1  0.293693  0.840397  0.085120  1
  O  O8  1  0.885118  0.291067  0.995820  1
  O  O9  1  0.291067  0.885118  0.504180  1
  O  O10  1  0.491022  0.281582  0.711330  1
  O  O11  1  0.281582  0.491022  0.788670  1
  O  O12  1  0.508978  0.718418  0.288670  1
  O  O13  1  0.718418  0.508978  0.211330  1
  O  O14  1  0.083962  0.287722  0.507405  1
  O  O15  1  0.287722  0.083962  0.992595  1
  O  O16  1  0.916038  0.712278  0.492595  1
  O  O17  1  0.712278  0.916038  0.007405  1
  O  O18  1  0.708933  0.114882  0.495820  1
  O  O19  1  0.114882  0.708933  0.004180  1
