# generated using pymatgen
data_H5NF2
_symmetry_space_group_name_H-M   'P 1'
_cell_length_a   3.68813014
_cell_length_b   8.19419946
_cell_length_c   8.45151003
_cell_angle_alpha   90.00000000
_cell_angle_beta   90.00000000
_cell_angle_gamma   90.00000000
_symmetry_Int_Tables_number   1
_chemical_formula_structural   H5NF2
_chemical_formula_sum   'H20 N4 F8'
_cell_volume   255.41540034
_cell_formula_units_Z   4
loop_
 _symmetry_equiv_pos_site_id
 _symmetry_equiv_pos_as_xyz
  1  'x, y, z'
loop_
 _atom_site_type_symbol
 _atom_site_label
 _atom_site_symmetry_multiplicity
 _atom_site_fract_x
 _atom_site_fract_y
 _atom_site_fract_z
 _atom_site_occupancy
  H  H0  1  0.389338  0.796302  0.340132  1
  H  H1  1  0.389338  0.703698  0.159868  1
  H  H2  1  0.610662  0.296302  0.159868  1
  H  H3  1  0.610662  0.203698  0.340132  1
  H  H4  1  0.610662  0.203698  0.659868  1
  H  H5  1  0.610662  0.296302  0.840132  1
  H  H6  1  0.389338  0.703698  0.840132  1
  H  H7  1  0.389338  0.796302  0.659868  1
  H  H8  1  0.715164  0.842917  0.205690  1
  H  H9  1  0.715164  0.657083  0.294310  1
  H  H10  1  0.284836  0.342917  0.294310  1
  H  H11  1  0.284836  0.157083  0.205690  1
  H  H12  1  0.000000  0.000000  0.000000  1
  H  H13  1  0.000000  0.500000  0.500000  1
  H  H14  1  0.000000  0.000000  0.500000  1
  H  H15  1  0.000000  0.500000  0.000000  1
  H  H16  1  0.715164  0.842917  0.794310  1
  H  H17  1  0.715164  0.657083  0.705690  1
  H  H18  1  0.284836  0.342917  0.705690  1
  H  H19  1  0.284836  0.157083  0.794310  1
  N  N20  1  0.551744  0.750000  0.750000  1
  N  N21  1  0.448256  0.250000  0.750000  1
  N  N22  1  0.448256  0.250000  0.250000  1
  N  N23  1  0.551744  0.750000  0.250000  1
  F  F24  1  0.000000  0.500000  0.363966  1
  F  F25  1  0.000000  0.000000  0.136034  1
  F  F26  1  0.000000  0.500000  0.636034  1
  F  F27  1  0.000000  0.000000  0.863966  1
  F  F28  1  0.122570  0.629436  0.000000  1
  F  F29  1  0.122570  0.870564  0.500000  1
  F  F30  1  0.877430  0.129436  0.500000  1
  F  F31  1  0.877430  0.370564  0.000000  1
