# generated using pymatgen
data_AuF5
_symmetry_space_group_name_H-M   'P 1'
_cell_length_a   5.02493917
_cell_length_b   9.71638292
_cell_length_c   15.39060752
_cell_angle_alpha   90.00000000
_cell_angle_beta   90.00000000
_cell_angle_gamma   90.00000000
_symmetry_Int_Tables_number   1
_chemical_formula_structural   AuF5
_chemical_formula_sum   'Au8 F40'
_cell_volume   751.43460950
_cell_formula_units_Z   8
loop_
 _symmetry_equiv_pos_site_id
 _symmetry_equiv_pos_as_xyz
  1  'x, y, z'
loop_
 _atom_site_type_symbol
 _atom_site_label
 _atom_site_symmetry_multiplicity
 _atom_site_fract_x
 _atom_site_fract_y
 _atom_site_fract_z
 _atom_site_occupancy
  Au  Au0  1  0.071403  0.128510  0.145592  1
  Au  Au1  1  0.571403  0.371490  0.854408  1
  Au  Au2  1  0.428597  0.628510  0.354408  1
  Au  Au3  1  0.928597  0.871490  0.645592  1
  Au  Au4  1  0.928597  0.871490  0.854408  1
  Au  Au5  1  0.428597  0.628510  0.145592  1
  Au  Au6  1  0.571403  0.371490  0.645592  1
  Au  Au7  1  0.071403  0.128510  0.354408  1
  F  F8  1  0.246193  0.026642  0.056242  1
  F  F9  1  0.746193  0.473358  0.943758  1
  F  F10  1  0.253807  0.526642  0.443758  1
  F  F11  1  0.753807  0.973358  0.556242  1
  F  F12  1  0.753807  0.973358  0.943758  1
  F  F13  1  0.253807  0.526642  0.056242  1
  F  F14  1  0.746193  0.473358  0.556242  1
  F  F15  1  0.246193  0.026642  0.443758  1
  F  F16  1  0.367466  0.256969  0.350018  1
  F  F17  1  0.867466  0.243031  0.649982  1
  F  F18  1  0.132534  0.756969  0.149982  1
  F  F19  1  0.632534  0.743031  0.850018  1
  F  F20  1  0.632534  0.743031  0.649982  1
  F  F21  1  0.132534  0.756969  0.350018  1
  F  F22  1  0.867466  0.243031  0.850018  1
  F  F23  1  0.367466  0.256969  0.149982  1
  F  F24  1  0.900150  0.230358  0.250000  1
  F  F25  1  0.400150  0.269642  0.750000  1
  F  F26  1  0.599850  0.730358  0.250000  1
  F  F27  1  0.099850  0.769642  0.750000  1
  F  F28  1  0.234835  0.023119  0.250000  1
  F  F29  1  0.734835  0.476881  0.750000  1
  F  F30  1  0.265165  0.523119  0.250000  1
  F  F31  1  0.765165  0.976881  0.750000  1
  F  F32  1  0.774290  0.000530  0.354114  1
  F  F33  1  0.274290  0.499470  0.645886  1
  F  F34  1  0.725710  0.500530  0.145886  1
  F  F35  1  0.225710  0.999470  0.854114  1
  F  F36  1  0.225710  0.999470  0.645886  1
  F  F37  1  0.725710  0.500530  0.354114  1
  F  F38  1  0.274290  0.499470  0.854114  1
  F  F39  1  0.774290  0.000530  0.145886  1
  F  F40  1  0.906574  0.236368  0.442942  1
  F  F41  1  0.406574  0.263632  0.557058  1
  F  F42  1  0.593426  0.736368  0.057058  1
  F  F43  1  0.093426  0.763632  0.942942  1
  F  F44  1  0.093426  0.763632  0.557058  1
  F  F45  1  0.593426  0.736368  0.442942  1
  F  F46  1  0.406574  0.263632  0.942942  1
  F  F47  1  0.906574  0.236368  0.057058  1
