# generated using pymatgen
data_KRb2ZrOF5
_symmetry_space_group_name_H-M   'P 1'
_cell_length_a   6.60218986
_cell_length_b   6.60218986
_cell_length_c   6.60218986
_cell_angle_alpha   120.32371687
_cell_angle_beta   120.32371687
_cell_angle_gamma   89.44021451
_symmetry_Int_Tables_number   1
_chemical_formula_structural   KRb2ZrOF5
_chemical_formula_sum   'K1 Rb2 Zr1 O1 F5'
_cell_volume   202.48663037
_cell_formula_units_Z   1
loop_
 _symmetry_equiv_pos_site_id
 _symmetry_equiv_pos_as_xyz
  1  'x, y, z'
loop_
 _atom_site_type_symbol
 _atom_site_label
 _atom_site_symmetry_multiplicity
 _atom_site_fract_x
 _atom_site_fract_y
 _atom_site_fract_z
 _atom_site_occupancy
  K  K0  1  0.498245  0.498245  0.000000  1
  Rb  Rb1  1  0.753391  0.253391  0.500000  1
  Rb  Rb2  1  0.253391  0.753391  0.500000  1
  Zr  Zr3  1  0.018453  0.018453  0.000000  1
  O  O4  1  0.219581  0.219581  0.000000  1
  F  F5  1  0.770314  0.218604  1.000000  1
  F  F6  1  0.770314  0.770314  0.551711  1
  F  F7  1  0.218604  0.218604  0.448289  1
  F  F8  1  0.218604  0.770314  0.000000  1
  F  F9  1  0.779103  0.779103  0.000000  1
