# generated using pymatgen
data_K3Zn2F7
_symmetry_space_group_name_H-M   'P 1'
_cell_length_a   11.12504405
_cell_length_b   11.12504405
_cell_length_c   11.12504405
_cell_angle_alpha   158.54281113
_cell_angle_beta   158.54281113
_cell_angle_gamma   30.52785507
_symmetry_Int_Tables_number   1
_chemical_formula_structural   K3Zn2F7
_chemical_formula_sum   'K3 Zn2 F7'
_cell_volume   184.13089356
_cell_formula_units_Z   1
loop_
 _symmetry_equiv_pos_site_id
 _symmetry_equiv_pos_as_xyz
  1  'x, y, z'
loop_
 _atom_site_type_symbol
 _atom_site_label
 _atom_site_symmetry_multiplicity
 _atom_site_fract_x
 _atom_site_fract_y
 _atom_site_fract_z
 _atom_site_occupancy
  K  K0  1  0.315297  0.315297  0.000000  1
  K  K1  1  0.684703  0.684703  0.000000  1
  K  K2  1  0.500000  0.500000  0.000000  1
  Zn  Zn3  1  0.096808  0.096808  0.000000  1
  Zn  Zn4  1  0.903192  0.903192  0.000000  1
  F  F5  1  0.000000  0.000000  0.000000  1
  F  F6  1  0.904684  0.404684  0.500000  1
  F  F7  1  0.404684  0.904684  0.500000  1
  F  F8  1  0.095316  0.595316  0.500000  1
  F  F9  1  0.595316  0.095316  0.500000  1
  F  F10  1  0.191938  0.191938  0.000000  1
  F  F11  1  0.808062  0.808062  0.000000  1
