# generated using pymatgen
data_Sm5AgS8
_symmetry_space_group_name_H-M   'P 1'
_cell_length_a   7.35542135
_cell_length_b   7.35542135
_cell_length_c   7.35542135
_cell_angle_alpha   109.68137966
_cell_angle_beta   109.68137966
_cell_angle_gamma   109.05171528
_symmetry_Int_Tables_number   1
_chemical_formula_structural   Sm5AgS8
_chemical_formula_sum   'Sm5 Ag1 S8'
_cell_volume   306.32562696
_cell_formula_units_Z   1
loop_
 _symmetry_equiv_pos_site_id
 _symmetry_equiv_pos_as_xyz
  1  'x, y, z'
loop_
 _atom_site_type_symbol
 _atom_site_label
 _atom_site_symmetry_multiplicity
 _atom_site_fract_x
 _atom_site_fract_y
 _atom_site_fract_z
 _atom_site_occupancy
  Sm  Sm0  1  0.235062  0.620957  0.118019  1
  Sm  Sm1  1  0.379043  0.497061  0.614104  1
  Sm  Sm2  1  0.502939  0.117043  0.881981  1
  Sm  Sm3  1  0.750000  0.250000  0.500000  1
  Sm  Sm4  1  0.882957  0.764938  0.385896  1
  Ag  Ag5  1  0.000000  0.000000  0.000000  1
  S  S6  1  0.118642  0.727791  0.748758  1
  S  S7  1  0.131952  0.240920  0.740411  1
  S  S8  1  0.272209  0.020967  0.390850  1
  S  S9  1  0.500509  0.391541  0.259589  1
  S  S10  1  0.608459  0.868048  0.108968  1
  S  S11  1  0.759080  0.499491  0.891032  1
  S  S12  1  0.630116  0.881358  0.609150  1
  S  S13  1  0.979033  0.369884  0.251242  1
