# generated using pymatgen
data_YSF
_symmetry_space_group_name_H-M   'P 1'
_cell_length_a   4.07808876
_cell_length_b   4.07808876
_cell_length_c   16.81841486
_cell_angle_alpha   90.00000000
_cell_angle_beta   90.00000000
_cell_angle_gamma   120.00000000
_symmetry_Int_Tables_number   1
_chemical_formula_structural   YSF
_chemical_formula_sum   'Y4 S4 F4'
_cell_volume   242.23061972
_cell_formula_units_Z   4
loop_
 _symmetry_equiv_pos_site_id
 _symmetry_equiv_pos_as_xyz
  1  'x, y, z'
loop_
 _atom_site_type_symbol
 _atom_site_label
 _atom_site_symmetry_multiplicity
 _atom_site_fract_x
 _atom_site_fract_y
 _atom_site_fract_z
 _atom_site_occupancy
  Y  Y0  1  0.666667  0.333333  0.750000  1
  Y  Y1  1  0.333333  0.666667  0.250000  1
  Y  Y2  1  0.000000  0.000000  0.500000  1
  Y  Y3  1  0.000000  0.000000  0.000000  1
  S  S4  1  0.666667  0.333333  0.585503  1
  S  S5  1  0.666667  0.333333  0.914497  1
  S  S6  1  0.333333  0.666667  0.414497  1
  S  S7  1  0.333333  0.666667  0.085503  1
  F  F8  1  0.333333  0.666667  0.750000  1
  F  F9  1  0.000000  0.000000  0.750000  1
  F  F10  1  0.000000  0.000000  0.250000  1
  F  F11  1  0.666667  0.333333  0.250000  1
