# generated using pymatgen
data_RbNbO3
_symmetry_space_group_name_H-M   'P 1'
_cell_length_a   5.18070630
_cell_length_b   8.62019899
_cell_length_c   9.16663841
_cell_angle_alpha   115.04157135
_cell_angle_beta   93.48353356
_cell_angle_gamma   94.48014709
_symmetry_Int_Tables_number   1
_chemical_formula_structural   RbNbO3
_chemical_formula_sum   'Rb4 Nb4 O12'
_cell_volume   367.75628962
_cell_formula_units_Z   4
loop_
 _symmetry_equiv_pos_site_id
 _symmetry_equiv_pos_as_xyz
  1  'x, y, z'
loop_
 _atom_site_type_symbol
 _atom_site_label
 _atom_site_symmetry_multiplicity
 _atom_site_fract_x
 _atom_site_fract_y
 _atom_site_fract_z
 _atom_site_occupancy
  Rb  Rb0  1  0.500000  0.500000  0.000000  1
  Rb  Rb1  1  0.500000  0.500000  0.500000  1
  Rb  Rb2  1  0.909650  0.202499  0.596594  1
  Rb  Rb3  1  0.090350  0.797501  0.403406  1
  Nb  Nb4  1  0.997830  0.783459  0.855053  1
  Nb  Nb5  1  0.002170  0.216541  0.144947  1
  Nb  Nb6  1  0.474440  0.988518  0.185241  1
  Nb  Nb7  1  0.525560  0.011482  0.814759  1
  O  O8  1  0.149755  0.439342  0.231977  1
  O  O9  1  0.850245  0.560658  0.768023  1
  O  O10  1  0.596867  0.891479  0.313150  1
  O  O11  1  0.403133  0.108521  0.686850  1
  O  O12  1  0.219836  0.783566  0.039080  1
  O  O13  1  0.780164  0.216434  0.960920  1
  O  O14  1  0.718120  0.218546  0.274475  1
  O  O15  1  0.281880  0.781454  0.725525  1
  O  O16  1  0.794075  0.874510  0.704873  1
  O  O17  1  0.205925  0.125490  0.295127  1
  O  O18  1  0.737354  0.924221  0.008329  1
  O  O19  1  0.262646  0.075779  0.991671  1
