# generated using pymatgen
data_LiVPO5
_symmetry_space_group_name_H-M   'P 1'
_cell_length_a   6.36792851
_cell_length_b   7.29442226
_cell_length_c   7.55397856
_cell_angle_alpha   90.00000000
_cell_angle_beta   90.00000000
_cell_angle_gamma   90.00000000
_symmetry_Int_Tables_number   1
_chemical_formula_structural   LiVPO5
_chemical_formula_sum   'Li4 V4 P4 O20'
_cell_volume   350.88501957
_cell_formula_units_Z   4
loop_
 _symmetry_equiv_pos_site_id
 _symmetry_equiv_pos_as_xyz
  1  'x, y, z'
loop_
 _atom_site_type_symbol
 _atom_site_label
 _atom_site_symmetry_multiplicity
 _atom_site_fract_x
 _atom_site_fract_y
 _atom_site_fract_z
 _atom_site_occupancy
  Li  Li0  1  0.000000  0.500000  0.500000  1
  Li  Li1  1  0.500000  0.000000  0.000000  1
  Li  Li2  1  0.500000  0.500000  0.500000  1
  Li  Li3  1  0.000000  0.000000  0.000000  1
  V  V4  1  0.250000  0.219433  0.671049  1
  V  V5  1  0.250000  0.280567  0.171049  1
  V  V6  1  0.750000  0.780567  0.328951  1
  V  V7  1  0.750000  0.719433  0.828951  1
  P  P8  1  0.250000  0.623748  0.874496  1
  P  P9  1  0.250000  0.876252  0.374496  1
  P  P10  1  0.750000  0.376252  0.125504  1
  P  P11  1  0.750000  0.123748  0.625504  1
  O  O12  1  0.250000  0.990178  0.544179  1
  O  O13  1  0.250000  0.509822  0.044179  1
  O  O14  1  0.750000  0.009822  0.455821  1
  O  O15  1  0.750000  0.490178  0.955821  1
  O  O16  1  0.556382  0.253149  0.628762  1
  O  O17  1  0.943618  0.246851  0.128762  1
  O  O18  1  0.056382  0.746851  0.371238  1
  O  O19  1  0.443618  0.753149  0.871238  1
  O  O20  1  0.443618  0.746851  0.371238  1
  O  O21  1  0.056382  0.753149  0.871238  1
  O  O22  1  0.943618  0.253149  0.628762  1
  O  O23  1  0.556382  0.246851  0.128762  1
  O  O24  1  0.250000  0.499054  0.707092  1
  O  O25  1  0.250000  0.000946  0.207092  1
  O  O26  1  0.750000  0.500946  0.292908  1
  O  O27  1  0.750000  0.999054  0.792908  1
  O  O28  1  0.250000  0.153938  0.886667  1
  O  O29  1  0.250000  0.346062  0.386667  1
  O  O30  1  0.750000  0.846062  0.113333  1
  O  O31  1  0.750000  0.653938  0.613333  1
