# generated using pymatgen
data_Li2CoP2O7
_symmetry_space_group_name_H-M   'P 1'
_cell_length_a   5.08447289
_cell_length_b   13.40636131
_cell_length_c   9.36191661
_cell_angle_alpha   90.00000000
_cell_angle_beta   120.31621470
_cell_angle_gamma   90.00000000
_symmetry_Int_Tables_number   1
_chemical_formula_structural   Li2CoP2O7
_chemical_formula_sum   'Li8 Co4 P8 O28'
_cell_volume   550.88327511
_cell_formula_units_Z   4
loop_
 _symmetry_equiv_pos_site_id
 _symmetry_equiv_pos_as_xyz
  1  'x, y, z'
loop_
 _atom_site_type_symbol
 _atom_site_label
 _atom_site_symmetry_multiplicity
 _atom_site_fract_x
 _atom_site_fract_y
 _atom_site_fract_z
 _atom_site_occupancy
  Li  Li0  1  0.575818  0.301542  0.835063  1
  Li  Li1  1  0.424182  0.698458  0.164937  1
  Li  Li2  1  0.033815  0.610490  0.363138  1
  Li  Li3  1  0.033815  0.889510  0.863138  1
  Li  Li4  1  0.424182  0.801542  0.664937  1
  Li  Li5  1  0.966185  0.389510  0.636862  1
  Li  Li6  1  0.575818  0.198458  0.335063  1
  Li  Li7  1  0.966185  0.110490  0.136862  1
  Co  Co8  1  0.961853  0.339891  0.263055  1
  Co  Co9  1  0.038147  0.660109  0.736945  1
  Co  Co10  1  0.961853  0.160109  0.763055  1
  Co  Co11  1  0.038147  0.839891  0.236945  1
  P  P12  1  0.473704  0.471390  0.275228  1
  P  P13  1  0.732562  0.821252  0.466842  1
  P  P14  1  0.732562  0.678748  0.966842  1
  P  P15  1  0.526296  0.971390  0.224772  1
  P  P16  1  0.473704  0.028610  0.775228  1
  P  P17  1  0.267438  0.178748  0.533158  1
  P  P18  1  0.267438  0.321252  0.033158  1
  P  P19  1  0.526296  0.528610  0.724772  1
  O  O20  1  0.596917  0.574361  0.281104  1
  O  O21  1  0.403083  0.425639  0.718896  1
  O  O22  1  0.798793  0.769353  0.342062  1
  O  O23  1  0.572056  0.210929  0.548704  1
  O  O24  1  0.728082  0.107138  0.872232  1
  O  O25  1  0.798793  0.730647  0.842062  1
  O  O26  1  0.427944  0.789071  0.451296  1
  O  O27  1  0.201207  0.230647  0.657938  1
  O  O28  1  0.000570  0.191297  0.354809  1
  O  O29  1  0.271918  0.892862  0.127768  1
  O  O30  1  0.572056  0.289071  0.048704  1
  O  O31  1  0.427944  0.710929  0.951296  1
  O  O32  1  0.596917  0.925639  0.781104  1
  O  O33  1  0.999430  0.691297  0.145191  1
  O  O34  1  0.728082  0.392862  0.372232  1
  O  O35  1  0.403083  0.074361  0.218896  1
  O  O36  1  0.304423  0.438516  0.077778  1
  O  O37  1  0.304423  0.061484  0.577778  1
  O  O38  1  0.271918  0.607138  0.627768  1
  O  O39  1  0.999430  0.808703  0.645191  1
  O  O40  1  0.218942  0.464907  0.318674  1
  O  O41  1  0.781058  0.964907  0.181326  1
  O  O42  1  0.201207  0.269353  0.157938  1
  O  O43  1  0.695577  0.938516  0.422222  1
  O  O44  1  0.781058  0.535093  0.681326  1
  O  O45  1  0.695577  0.561484  0.922222  1
  O  O46  1  0.000570  0.308703  0.854809  1
  O  O47  1  0.218942  0.035093  0.818674  1
