# generated using pymatgen
data_CaGe2O5
_symmetry_space_group_name_H-M   'P 1'
_cell_length_a   5.56154150
_cell_length_b   5.56154150
_cell_length_c   6.98504291
_cell_angle_alpha   76.12672250
_cell_angle_beta   103.87327750
_cell_angle_gamma   73.68084245
_symmetry_Int_Tables_number   1
_chemical_formula_structural   CaGe2O5
_chemical_formula_sum   'Ca2 Ge4 O10'
_cell_volume   190.04675120
_cell_formula_units_Z   2
loop_
 _symmetry_equiv_pos_site_id
 _symmetry_equiv_pos_as_xyz
  1  'x, y, z'
loop_
 _atom_site_type_symbol
 _atom_site_label
 _atom_site_symmetry_multiplicity
 _atom_site_fract_x
 _atom_site_fract_y
 _atom_site_fract_z
 _atom_site_occupancy
  Ca  Ca0  1  0.328518  0.328518  0.250000  1
  Ca  Ca1  1  0.671482  0.671482  0.750000  1
  Ge  Ge2  1  0.315446  0.315446  0.750000  1
  Ge  Ge3  1  0.684554  0.684554  0.250000  1
  Ge  Ge4  1  0.000000  0.000000  0.000000  1
  Ge  Ge5  1  0.000000  0.000000  0.500000  1
  O  O6  1  0.901942  0.691841  0.101439  1
  O  O7  1  0.691841  0.901942  0.398561  1
  O  O8  1  0.098058  0.308159  0.898561  1
  O  O9  1  0.308159  0.098058  0.601439  1
  O  O10  1  0.634324  0.249119  0.925187  1
  O  O11  1  0.249119  0.634324  0.574813  1
  O  O12  1  0.070104  0.070104  0.250000  1
  O  O13  1  0.929896  0.929896  0.750000  1
  O  O14  1  0.750881  0.365676  0.425187  1
  O  O15  1  0.365676  0.750881  0.074813  1
