# generated using pymatgen
data_Ca3Si2O7
_symmetry_space_group_name_H-M   'P 1'
_cell_length_a   7.92686737
_cell_length_b   8.99405956
_cell_length_c   10.67987322
_cell_angle_alpha   90.00000000
_cell_angle_beta   119.32808502
_cell_angle_gamma   90.00000000
_symmetry_Int_Tables_number   1
_chemical_formula_structural   Ca3Si2O7
_chemical_formula_sum   'Ca12 Si8 O28'
_cell_volume   663.82698199
_cell_formula_units_Z   4
loop_
 _symmetry_equiv_pos_site_id
 _symmetry_equiv_pos_as_xyz
  1  'x, y, z'
loop_
 _atom_site_type_symbol
 _atom_site_label
 _atom_site_symmetry_multiplicity
 _atom_site_fract_x
 _atom_site_fract_y
 _atom_site_fract_z
 _atom_site_occupancy
  Ca  Ca0  1  0.286404  0.593781  0.842811  1
  Ca  Ca1  1  0.713596  0.093781  0.657189  1
  Ca  Ca2  1  0.713596  0.406219  0.157189  1
  Ca  Ca3  1  0.286404  0.906219  0.342811  1
  Ca  Ca4  1  0.207591  0.924879  0.668795  1
  Ca  Ca5  1  0.792409  0.424879  0.831205  1
  Ca  Ca6  1  0.792409  0.075121  0.331205  1
  Ca  Ca7  1  0.207591  0.575121  0.168795  1
  Ca  Ca8  1  0.290157  0.440147  0.508435  1
  Ca  Ca9  1  0.709843  0.940147  0.991565  1
  Ca  Ca10  1  0.709843  0.559853  0.491565  1
  Ca  Ca11  1  0.290157  0.059853  0.008435  1
  Si  Si12  1  0.984849  0.284389  0.589169  1
  Si  Si13  1  0.015151  0.784389  0.910831  1
  Si  Si14  1  0.015151  0.715611  0.410831  1
  Si  Si15  1  0.984849  0.215611  0.089169  1
  Si  Si16  1  0.432538  0.266519  0.796087  1
  Si  Si17  1  0.567462  0.766519  0.703913  1
  Si  Si18  1  0.567462  0.733481  0.203913  1
  Si  Si19  1  0.432538  0.233481  0.296087  1
  O  O20  1  0.938394  0.334583  0.427376  1
  O  O21  1  0.061606  0.834583  0.072624  1
  O  O22  1  0.061606  0.665417  0.572624  1
  O  O23  1  0.938394  0.165417  0.927376  1
  O  O24  1  0.842904  0.359695  0.641071  1
  O  O25  1  0.157096  0.859695  0.858929  1
  O  O26  1  0.157096  0.640305  0.358929  1
  O  O27  1  0.842904  0.140305  0.141071  1
  O  O28  1  0.973008  0.103781  0.598643  1
  O  O29  1  0.026992  0.603781  0.901357  1
  O  O30  1  0.026992  0.896219  0.401357  1
  O  O31  1  0.973008  0.396219  0.098643  1
  O  O32  1  0.210368  0.346495  0.703009  1
  O  O33  1  0.789632  0.846495  0.796991  1
  O  O34  1  0.789632  0.653505  0.296991  1
  O  O35  1  0.210368  0.153505  0.203009  1
  O  O36  1  0.548362  0.398320  0.910931  1
  O  O37  1  0.451638  0.898320  0.589069  1
  O  O38  1  0.451638  0.601680  0.089069  1
  O  O39  1  0.548362  0.101680  0.410931  1
  O  O40  1  0.420248  0.397163  0.356690  1
  O  O41  1  0.579752  0.897163  0.143310  1
  O  O42  1  0.579752  0.602837  0.643310  1
  O  O43  1  0.420248  0.102837  0.856690  1
  O  O44  1  0.509424  0.238568  0.179326  1
  O  O45  1  0.490576  0.738568  0.320674  1
  O  O46  1  0.490576  0.761432  0.820674  1
  O  O47  1  0.509424  0.261432  0.679326  1
