# generated using pymatgen
data_LiCoPO4
_symmetry_space_group_name_H-M   'P 1'
_cell_length_a   8.58993843
_cell_length_b   8.58993843
_cell_length_c   8.58993843
_cell_angle_alpha   107.85234385
_cell_angle_beta   107.85234385
_cell_angle_gamma   107.85234385
_symmetry_Int_Tables_number   1
_chemical_formula_structural   LiCoPO4
_chemical_formula_sum   'Li6 Co6 P6 O24'
_cell_volume   515.09067339
_cell_formula_units_Z   6
loop_
 _symmetry_equiv_pos_site_id
 _symmetry_equiv_pos_as_xyz
  1  'x, y, z'
loop_
 _atom_site_type_symbol
 _atom_site_label
 _atom_site_symmetry_multiplicity
 _atom_site_fract_x
 _atom_site_fract_y
 _atom_site_fract_z
 _atom_site_occupancy
  Li  Li0  1  0.429549  0.211892  0.608984  1
  Li  Li1  1  0.211892  0.608984  0.429549  1
  Li  Li2  1  0.721997  0.892108  0.125750  1
  Li  Li3  1  0.608984  0.429549  0.211892  1
  Li  Li4  1  0.125750  0.721997  0.892108  1
  Li  Li5  1  0.892108  0.125750  0.721997  1
  Co  Co6  1  0.769337  0.534916  0.945375  1
  Co  Co7  1  0.456249  0.051353  0.235001  1
  Co  Co8  1  0.945375  0.769337  0.534916  1
  Co  Co9  1  0.235001  0.456249  0.051353  1
  Co  Co10  1  0.534916  0.945375  0.769337  1
  Co  Co11  1  0.051353  0.235001  0.456249  1
  P  P12  1  0.095992  0.874783  0.281261  1
  P  P13  1  0.281261  0.095992  0.874783  1
  P  P14  1  0.874783  0.281261  0.095992  1
  P  P15  1  0.386199  0.568725  0.791550  1
  P  P16  1  0.791550  0.386199  0.568725  1
  P  P17  1  0.568725  0.791550  0.386199  1
  O  O18  1  0.583028  0.900520  0.271887  1
  O  O19  1  0.308718  0.368875  0.647107  1
  O  O20  1  0.900520  0.271887  0.583028  1
  O  O21  1  0.020345  0.354198  0.293596  1
  O  O22  1  0.647107  0.308718  0.368875  1
  O  O23  1  0.973605  0.301803  0.973463  1
  O  O24  1  0.293596  0.020345  0.354198  1
  O  O25  1  0.395795  0.090517  0.765176  1
  O  O26  1  0.271887  0.583028  0.900520  1
  O  O27  1  0.301803  0.973463  0.973605  1
  O  O28  1  0.689990  0.370296  0.689241  1
  O  O29  1  0.370296  0.689241  0.689990  1
  O  O30  1  0.354198  0.293596  0.020345  1
  O  O31  1  0.021765  0.741912  0.076603  1
  O  O32  1  0.638844  0.924797  0.589313  1
  O  O33  1  0.973463  0.973605  0.301803  1
  O  O34  1  0.765176  0.395795  0.090517  1
  O  O35  1  0.368875  0.647107  0.308718  1
  O  O36  1  0.689241  0.689990  0.370296  1
  O  O37  1  0.924797  0.589313  0.638844  1
  O  O38  1  0.076603  0.021765  0.741912  1
  O  O39  1  0.090517  0.765176  0.395795  1
  O  O40  1  0.741912  0.076603  0.021765  1
  O  O41  1  0.589313  0.638844  0.924797  1
