# generated using pymatgen
data_Li3Mn2(PO4)3
_symmetry_space_group_name_H-M   'P 1'
_cell_length_a   8.68141562
_cell_length_b   8.68141562
_cell_length_c   8.87412129
_cell_angle_alpha   60.29657540
_cell_angle_beta   119.70342460
_cell_angle_gamma   119.38533678
_symmetry_Int_Tables_number   1
_chemical_formula_structural   Li3Mn2(PO4)3
_chemical_formula_sum   'Li6 Mn4 P6 O24'
_cell_volume   477.22018753
_cell_formula_units_Z   2
loop_
 _symmetry_equiv_pos_site_id
 _symmetry_equiv_pos_as_xyz
  1  'x, y, z'
loop_
 _atom_site_type_symbol
 _atom_site_label
 _atom_site_symmetry_multiplicity
 _atom_site_fract_x
 _atom_site_fract_y
 _atom_site_fract_z
 _atom_site_occupancy
  Li  Li0  1  0.253746  0.890121  0.697397  1
  Li  Li1  1  0.371682  0.372933  0.744661  1
  Li  Li2  1  0.638501  0.035367  0.169446  1
  Li  Li3  1  0.964633  0.361499  0.669446  1
  Li  Li4  1  0.627067  0.628318  0.244661  1
  Li  Li5  1  0.109879  0.746254  0.197397  1
  Mn  Mn6  1  0.150592  0.359930  0.352929  1
  Mn  Mn7  1  0.851385  0.652448  0.642371  1
  Mn  Mn8  1  0.640070  0.849408  0.852929  1
  Mn  Mn9  1  0.347552  0.148615  0.142371  1
  P  P10  1  0.951784  0.951048  0.267301  1
  P  P11  1  0.255719  0.533478  0.953485  1
  P  P12  1  0.757254  0.475546  0.032565  1
  P  P13  1  0.466522  0.744281  0.453485  1
  P  P14  1  0.524454  0.242746  0.532565  1
  P  P15  1  0.048952  0.048216  0.767301  1
  O  O16  1  0.512802  0.043520  0.675820  1
  O  O17  1  0.228317  0.044141  0.945635  1
  O  O18  1  0.031148  0.901510  0.706390  1
  O  O19  1  0.721082  0.386167  0.575793  1
  O  O20  1  0.270343  0.591111  0.411225  1
  O  O21  1  0.711585  0.623669  0.042668  1
  O  O22  1  0.613833  0.278918  0.075793  1
  O  O23  1  0.748119  0.527850  0.835416  1
  O  O24  1  0.070230  0.551269  0.792428  1
  O  O25  1  0.376331  0.288415  0.542668  1
  O  O26  1  0.294067  0.381697  0.943623  1
  O  O27  1  0.260689  0.491837  0.141954  1
  O  O28  1  0.472150  0.251881  0.335416  1
  O  O29  1  0.992272  0.123678  0.308290  1
  O  O30  1  0.098490  0.968852  0.206390  1
  O  O31  1  0.408889  0.729657  0.911225  1
  O  O32  1  0.876322  0.007728  0.808290  1
  O  O33  1  0.083954  0.248953  0.625059  1
  O  O34  1  0.751047  0.916046  0.125059  1
  O  O35  1  0.448731  0.929770  0.292428  1
  O  O36  1  0.618303  0.705933  0.443623  1
  O  O37  1  0.508163  0.739311  0.641954  1
  O  O38  1  0.955859  0.771683  0.445635  1
  O  O39  1  0.956480  0.487198  0.175820  1
