# generated using pymatgen
data_Cd(Ga3Te5)2
_symmetry_space_group_name_H-M   'P 1'
_cell_length_a   7.53412798
_cell_length_b   7.53412798
_cell_length_c   13.38282338
_cell_angle_alpha   88.94261311
_cell_angle_beta   91.05738689
_cell_angle_gamma   131.65319276
_symmetry_Int_Tables_number   1
_chemical_formula_structural   Cd(Ga3Te5)2
_chemical_formula_sum   'Cd1 Ga6 Te10'
_cell_volume   567.48045984
_cell_formula_units_Z   1
loop_
 _symmetry_equiv_pos_site_id
 _symmetry_equiv_pos_as_xyz
  1  'x, y, z'
loop_
 _atom_site_type_symbol
 _atom_site_label
 _atom_site_symmetry_multiplicity
 _atom_site_fract_x
 _atom_site_fract_y
 _atom_site_fract_z
 _atom_site_occupancy
  Cd  Cd0  1  0.899735  0.899735  0.500000  1
  Ga  Ga1  1  0.003276  0.807615  0.198512  1
  Ga  Ga2  1  0.713939  0.106329  0.101224  1
  Ga  Ga3  1  0.807615  0.003276  0.801488  1
  Ga  Ga4  1  0.106329  0.713939  0.898776  1
  Ga  Ga5  1  0.201249  0.604366  0.600273  1
  Ga  Ga6  1  0.604366  0.201249  0.399727  1
  Te  Te7  1  0.782689  0.492892  0.045750  1
  Te  Te8  1  0.105090  0.206618  0.156072  1
  Te  Te9  1  0.206618  0.105090  0.843928  1
  Te  Te10  1  0.492892  0.782689  0.954250  1
  Te  Te11  1  0.574635  0.661825  0.663242  1
  Te  Te12  1  0.876680  0.394411  0.748801  1
  Te  Te13  1  0.031299  0.337770  0.435118  1
  Te  Te14  1  0.337770  0.031299  0.564882  1
  Te  Te15  1  0.394411  0.876680  0.251199  1
  Te  Te16  1  0.661825  0.574635  0.336758  1
