# generated using pymatgen
data_Sr(NdSe2)2
_symmetry_space_group_name_H-M   'P 1'
_cell_length_a   7.85567274
_cell_length_b   7.85567274
_cell_length_c   7.85567274
_cell_angle_alpha   109.45450082
_cell_angle_beta   109.45450082
_cell_angle_gamma   109.50466545
_symmetry_Int_Tables_number   1
_chemical_formula_structural   Sr(NdSe2)2
_chemical_formula_sum   'Sr2 Nd4 Se8'
_cell_volume   373.18840984
_cell_formula_units_Z   2
loop_
 _symmetry_equiv_pos_site_id
 _symmetry_equiv_pos_as_xyz
  1  'x, y, z'
loop_
 _atom_site_type_symbol
 _atom_site_label
 _atom_site_symmetry_multiplicity
 _atom_site_fract_x
 _atom_site_fract_y
 _atom_site_fract_z
 _atom_site_occupancy
  Sr  Sr0  1  1.000000  1.000000  0.000000  1
  Sr  Sr1  1  0.250000  0.750000  0.500000  1
  Nd  Nd2  1  0.125000  0.501254  0.876254  1
  Nd  Nd3  1  0.625000  0.248746  0.123746  1
  Nd  Nd4  1  0.498746  0.375000  0.623746  1
  Nd  Nd5  1  0.751254  0.875000  0.376254  1
  Se  Se6  1  0.018014  0.269053  0.403025  1
  Se  Se7  1  0.231986  0.135012  0.751039  1
  Se  Se8  1  0.519053  0.768014  0.903025  1
  Se  Se9  1  0.385012  0.981986  0.251039  1
  Se  Se10  1  0.383973  0.480947  0.248961  1
  Se  Se11  1  0.864988  0.616027  0.096975  1
  Se  Se12  1  0.730947  0.133973  0.748961  1
  Se  Se13  1  0.866027  0.614988  0.596975  1
