# generated using pymatgen
data_LiNbO3
_symmetry_space_group_name_H-M   'P 1'
_cell_length_a   5.59239921
_cell_length_b   5.59239921
_cell_length_c   5.59239921
_cell_angle_alpha   55.67586873
_cell_angle_beta   55.67586873
_cell_angle_gamma   55.67586873
_symmetry_Int_Tables_number   1
_chemical_formula_structural   LiNbO3
_chemical_formula_sum   'Li2 Nb2 O6'
_cell_volume   111.26706379
_cell_formula_units_Z   2
loop_
 _symmetry_equiv_pos_site_id
 _symmetry_equiv_pos_as_xyz
  1  'x, y, z'
loop_
 _atom_site_type_symbol
 _atom_site_label
 _atom_site_symmetry_multiplicity
 _atom_site_fract_x
 _atom_site_fract_y
 _atom_site_fract_z
 _atom_site_occupancy
  Li  Li0  1  0.717168  0.717168  0.717168  1
  Li  Li1  1  0.217168  0.217168  0.217168  1
  Nb  Nb2  1  0.999231  0.999231  0.999231  1
  Nb  Nb3  1  0.499231  0.499231  0.499231  1
  O  O4  1  0.639684  0.279949  0.890368  1
  O  O5  1  0.890368  0.639684  0.279949  1
  O  O6  1  0.279949  0.890368  0.639684  1
  O  O7  1  0.390368  0.779949  0.139684  1
  O  O8  1  0.139684  0.390368  0.779949  1
  O  O9  1  0.779949  0.139684  0.390368  1
