# generated using pymatgen
data_BaAs2
_symmetry_space_group_name_H-M   'P 1'
_cell_length_a   6.68505848
_cell_length_b   12.77320834
_cell_length_c   8.21441039
_cell_angle_alpha   90.00000000
_cell_angle_beta   127.83825692
_cell_angle_gamma   90.00000000
_symmetry_Int_Tables_number   1
_chemical_formula_structural   BaAs2
_chemical_formula_sum   'Ba6 As12'
_cell_volume   553.94776421
_cell_formula_units_Z   6
loop_
 _symmetry_equiv_pos_site_id
 _symmetry_equiv_pos_as_xyz
  1  'x, y, z'
loop_
 _atom_site_type_symbol
 _atom_site_label
 _atom_site_symmetry_multiplicity
 _atom_site_fract_x
 _atom_site_fract_y
 _atom_site_fract_z
 _atom_site_occupancy
  Ba  Ba0  1  0.826598  0.227462  0.179075  1
  Ba  Ba1  1  0.826598  0.772538  0.679075  1
  Ba  Ba2  1  0.554467  0.081920  0.547048  1
  Ba  Ba3  1  0.554467  0.918080  0.047048  1
  Ba  Ba4  1  0.105681  0.424068  0.749877  1
  Ba  Ba5  1  0.105681  0.575932  0.249877  1
  As  As6  1  0.672327  0.423660  0.841901  1
  As  As7  1  0.672327  0.576340  0.341901  1
  As  As8  1  0.531076  0.609928  0.788131  1
  As  As9  1  0.531076  0.390072  0.288131  1
  As  As10  1  0.383987  0.343889  0.497823  1
  As  As11  1  0.383987  0.656111  0.997823  1
  As  As12  1  0.004610  0.984517  0.008216  1
  As  As13  1  0.004610  0.015483  0.508216  1
  As  As14  1  0.207211  0.848094  0.536576  1
  As  As15  1  0.207211  0.151906  0.036576  1
  As  As16  1  0.260144  0.841817  0.250751  1
  As  As17  1  0.260144  0.158183  0.750751  1
