# generated using pymatgen
data_K2Co2(SO4)3
_symmetry_space_group_name_H-M   'P 1'
_cell_length_a   10.06846387
_cell_length_b   10.06846387
_cell_length_c   10.06846387
_cell_angle_alpha   90.00000000
_cell_angle_beta   90.00000000
_cell_angle_gamma   90.00000000
_symmetry_Int_Tables_number   1
_chemical_formula_structural   K2Co2(SO4)3
_chemical_formula_sum   'K8 Co8 S12 O48'
_cell_volume   1020.68010096
_cell_formula_units_Z   4
loop_
 _symmetry_equiv_pos_site_id
 _symmetry_equiv_pos_as_xyz
  1  'x, y, z'
loop_
 _atom_site_type_symbol
 _atom_site_label
 _atom_site_symmetry_multiplicity
 _atom_site_fract_x
 _atom_site_fract_y
 _atom_site_fract_z
 _atom_site_occupancy
  K  K0  1  0.684646  0.184646  0.315354  1
  K  K1  1  0.315354  0.684646  0.184646  1
  K  K2  1  0.949374  0.550626  0.449374  1
  K  K3  1  0.184646  0.315354  0.684646  1
  K  K4  1  0.050626  0.050626  0.050626  1
  K  K5  1  0.449374  0.949374  0.550626  1
  K  K6  1  0.550626  0.449374  0.949374  1
  K  K7  1  0.815354  0.815354  0.815354  1
  Co  Co8  1  0.334677  0.334677  0.334677  1
  Co  Co9  1  0.165323  0.665323  0.834677  1
  Co  Co10  1  0.834677  0.165323  0.665323  1
  Co  Co11  1  0.665323  0.834677  0.165323  1
  Co  Co12  1  0.593012  0.593012  0.593012  1
  Co  Co13  1  0.093012  0.906988  0.406988  1
  Co  Co14  1  0.406988  0.093012  0.906988  1
  Co  Co15  1  0.906988  0.406988  0.093012  1
  S  S16  1  0.280961  0.623428  0.519235  1
  S  S17  1  0.780961  0.876572  0.480765  1
  S  S18  1  0.719039  0.123428  0.980765  1
  S  S19  1  0.876572  0.480765  0.780961  1
  S  S20  1  0.980765  0.719039  0.123428  1
  S  S21  1  0.480765  0.780961  0.876572  1
  S  S22  1  0.623428  0.519235  0.280961  1
  S  S23  1  0.519235  0.280961  0.623428  1
  S  S24  1  0.123428  0.980765  0.719039  1
  S  S25  1  0.219039  0.376572  0.019235  1
  S  S26  1  0.019235  0.219039  0.376572  1
  S  S27  1  0.376572  0.019235  0.219039  1
  O  O28  1  0.252142  0.594545  0.660582  1
  O  O29  1  0.752142  0.905455  0.339418  1
  O  O30  1  0.747858  0.094545  0.839418  1
  O  O31  1  0.905455  0.339418  0.752142  1
  O  O32  1  0.839418  0.747858  0.094545  1
  O  O33  1  0.339418  0.752142  0.905455  1
  O  O34  1  0.594545  0.660582  0.252142  1
  O  O35  1  0.660582  0.252142  0.594545  1
  O  O36  1  0.094545  0.839418  0.747858  1
  O  O37  1  0.405455  0.160582  0.247858  1
  O  O38  1  0.160582  0.247858  0.405455  1
  O  O39  1  0.247858  0.405455  0.160582  1
  O  O40  1  0.259365  0.499151  0.441861  1
  O  O41  1  0.759365  0.000849  0.558139  1
  O  O42  1  0.740635  0.999151  0.058139  1
  O  O43  1  0.000849  0.558139  0.759365  1
  O  O44  1  0.058139  0.740635  0.999151  1
  O  O45  1  0.558139  0.759365  0.000849  1
  O  O46  1  0.996118  0.578964  0.171223  1
  O  O47  1  0.441861  0.259365  0.499151  1
  O  O48  1  0.999151  0.058139  0.740635  1
  O  O49  1  0.500849  0.941861  0.240635  1
  O  O50  1  0.941861  0.240635  0.500849  1
  O  O51  1  0.240635  0.500849  0.941861  1
  O  O52  1  0.421036  0.671223  0.503882  1
  O  O53  1  0.921036  0.828777  0.496118  1
  O  O54  1  0.578964  0.171223  0.996118  1
  O  O55  1  0.828777  0.496118  0.921036  1
  O  O56  1  0.310104  0.274974  0.963408  1
  O  O57  1  0.963408  0.310104  0.274974  1
  O  O58  1  0.274974  0.963408  0.310104  1
  O  O59  1  0.225026  0.036592  0.810104  1
  O  O60  1  0.463408  0.189896  0.725026  1
  O  O61  1  0.725026  0.463408  0.189896  1
  O  O62  1  0.536592  0.689896  0.774974  1
  O  O63  1  0.036592  0.810104  0.225026  1
  O  O64  1  0.774974  0.536592  0.689896  1
  O  O65  1  0.810104  0.225026  0.036592  1
  O  O66  1  0.689896  0.774974  0.536592  1
  O  O67  1  0.189896  0.725026  0.463408  1
  O  O68  1  0.078964  0.328777  0.003882  1
  O  O69  1  0.003882  0.078964  0.328777  1
  O  O70  1  0.328777  0.003882  0.078964  1
  O  O71  1  0.171223  0.996118  0.578964  1
  O  O72  1  0.503882  0.421036  0.671223  1
  O  O73  1  0.671223  0.503882  0.421036  1
  O  O74  1  0.496118  0.921036  0.828777  1
  O  O75  1  0.499151  0.441861  0.259365  1
