# generated using pymatgen
data_Al5BO9
_symmetry_space_group_name_H-M   'P 1'
_cell_length_a   8.10210966
_cell_length_b   8.10210966
_cell_length_c   7.76573751
_cell_angle_alpha   90.00000000
_cell_angle_beta   90.00000000
_cell_angle_gamma   138.57660350
_symmetry_Int_Tables_number   1
_chemical_formula_structural   Al5BO9
_chemical_formula_sum   'Al10 B2 O18'
_cell_volume   337.27669074
_cell_formula_units_Z   2
loop_
 _symmetry_equiv_pos_site_id
 _symmetry_equiv_pos_as_xyz
  1  'x, y, z'
loop_
 _atom_site_type_symbol
 _atom_site_label
 _atom_site_symmetry_multiplicity
 _atom_site_fract_x
 _atom_site_fract_y
 _atom_site_fract_z
 _atom_site_occupancy
  Al  Al0  1  0.136132  0.367926  0.500220  1
  Al  Al1  1  0.703406  0.296594  0.666334  1
  Al  Al2  1  0.296594  0.703406  0.166334  1
  Al  Al3  1  0.443543  0.556457  0.816815  1
  Al  Al4  1  0.556457  0.443543  0.316815  1
  Al  Al5  1  0.255385  0.744615  0.815070  1
  Al  Al6  1  0.744615  0.255385  0.315070  1
  Al  Al7  1  0.367926  0.136132  0.000220  1
  Al  Al8  1  0.632074  0.863868  0.500220  1
  Al  Al9  1  0.863868  0.632074  0.000220  1
  B  B10  1  0.015644  0.984356  0.279178  1
  B  B11  1  0.984356  0.015644  0.779178  1
  O  O12  1  0.808940  0.191060  0.564119  1
  O  O13  1  0.046387  0.953613  0.906934  1
  O  O14  1  0.953613  0.046387  0.406934  1
  O  O15  1  0.545356  0.454644  0.928220  1
  O  O16  1  0.454644  0.545356  0.428220  1
  O  O17  1  0.330691  0.669309  0.631805  1
  O  O18  1  0.669309  0.330691  0.131805  1
  O  O19  1  0.742019  0.838221  0.715164  1
  O  O20  1  0.191060  0.808940  0.064119  1
  O  O21  1  0.351719  0.648281  0.962761  1
  O  O22  1  0.838221  0.742019  0.215164  1
  O  O23  1  0.161779  0.257981  0.715164  1
  O  O24  1  0.257981  0.161779  0.215164  1
  O  O25  1  0.067021  0.447527  0.299599  1
  O  O26  1  0.447527  0.067021  0.799599  1
  O  O27  1  0.932979  0.552473  0.799599  1
  O  O28  1  0.552473  0.932979  0.299599  1
  O  O29  1  0.648281  0.351719  0.462761  1
