# generated using pymatgen
data_TlAsSe2
_symmetry_space_group_name_H-M   'P 1'
_cell_length_a   6.45901576
_cell_length_b   24.58965889
_cell_length_c   12.75389194
_cell_angle_alpha   90.00000000
_cell_angle_beta   108.80608888
_cell_angle_gamma   90.00000000
_symmetry_Int_Tables_number   1
_chemical_formula_structural   TlAsSe2
_chemical_formula_sum   'Tl16 As16 Se32'
_cell_volume   1917.49820741
_cell_formula_units_Z   16
loop_
 _symmetry_equiv_pos_site_id
 _symmetry_equiv_pos_as_xyz
  1  'x, y, z'
loop_
 _atom_site_type_symbol
 _atom_site_label
 _atom_site_symmetry_multiplicity
 _atom_site_fract_x
 _atom_site_fract_y
 _atom_site_fract_z
 _atom_site_occupancy
  Tl  Tl0  1  0.651178  0.576107  0.122987  1
  Tl  Tl1  1  0.348822  0.076107  0.377013  1
  Tl  Tl2  1  0.348822  0.423893  0.877013  1
  Tl  Tl3  1  0.651178  0.923893  0.622987  1
  Tl  Tl4  1  0.364508  0.565340  0.389770  1
  Tl  Tl5  1  0.635492  0.065340  0.110230  1
  Tl  Tl6  1  0.635492  0.434660  0.610230  1
  Tl  Tl7  1  0.364508  0.934660  0.889770  1
  Tl  Tl8  1  0.819173  0.673168  0.496156  1
  Tl  Tl9  1  0.180827  0.173168  0.003844  1
  Tl  Tl10  1  0.180827  0.326832  0.503844  1
  Tl  Tl11  1  0.819173  0.826832  0.996156  1
  Tl  Tl12  1  0.554782  0.680507  0.771425  1
  Tl  Tl13  1  0.445218  0.180507  0.728575  1
  Tl  Tl14  1  0.445218  0.319493  0.228575  1
  Tl  Tl15  1  0.554782  0.819493  0.271425  1
  As  As16  1  0.924552  0.553121  0.891648  1
  As  As17  1  0.139601  0.809929  0.753971  1
  As  As18  1  0.860399  0.309929  0.746029  1
  As  As19  1  0.860399  0.190071  0.246029  1
  As  As20  1  0.139601  0.690071  0.253971  1
  As  As21  1  0.278204  0.710499  0.997186  1
  As  As22  1  0.721796  0.210499  0.502814  1
  As  As23  1  0.721796  0.289501  0.002814  1
  As  As24  1  0.278204  0.789501  0.497186  1
  As  As25  1  0.075448  0.053121  0.608352  1
  As  As26  1  0.075448  0.446879  0.108352  1
  As  As27  1  0.924552  0.946879  0.391648  1
  As  As28  1  0.086693  0.550395  0.641799  1
  As  As29  1  0.913307  0.050395  0.858201  1
  As  As30  1  0.913307  0.449605  0.358201  1
  As  As31  1  0.086693  0.949605  0.141799  1
  Se  Se32  1  0.502539  0.810469  0.739467  1
  Se  Se33  1  0.659214  0.306315  0.483764  1
  Se  Se34  1  0.659214  0.193685  0.983764  1
  Se  Se35  1  0.340786  0.693685  0.516236  1
  Se  Se36  1  0.940946  0.804609  0.547098  1
  Se  Se37  1  0.059054  0.304609  0.952902  1
  Se  Se38  1  0.059054  0.195391  0.452902  1
  Se  Se39  1  0.146780  0.543653  0.110032  1
  Se  Se40  1  0.940946  0.695391  0.047098  1
  Se  Se41  1  0.068302  0.785703  0.285510  1
  Se  Se42  1  0.931698  0.285703  0.214490  1
  Se  Se43  1  0.931698  0.214297  0.714490  1
  Se  Se44  1  0.068302  0.714297  0.785510  1
  Se  Se45  1  0.502539  0.689531  0.239467  1
  Se  Se46  1  0.497461  0.189531  0.260533  1
  Se  Se47  1  0.497461  0.310469  0.760533  1
  Se  Se48  1  0.721722  0.940283  0.161273  1
  Se  Se49  1  0.278278  0.440283  0.338727  1
  Se  Se50  1  0.278278  0.059717  0.838727  1
  Se  Se51  1  0.721722  0.559717  0.661273  1
  Se  Se52  1  0.269399  0.939476  0.349867  1
  Se  Se53  1  0.730601  0.439476  0.150133  1
  Se  Se54  1  0.730601  0.060524  0.650133  1
  Se  Se55  1  0.269399  0.560524  0.849867  1
  Se  Se56  1  0.852797  0.954748  0.874593  1
  Se  Se57  1  0.147203  0.454748  0.625407  1
  Se  Se58  1  0.147203  0.045252  0.125407  1
  Se  Se59  1  0.852797  0.545252  0.374593  1
  Se  Se60  1  0.146780  0.956347  0.610032  1
  Se  Se61  1  0.853220  0.456347  0.889968  1
  Se  Se62  1  0.853220  0.043653  0.389968  1
  Se  Se63  1  0.340786  0.806315  0.016236  1
