# generated using pymatgen
data_SrCO3
_symmetry_space_group_name_H-M   'P 1'
_cell_length_a   6.91629489
_cell_length_b   6.91629489
_cell_length_c   6.91629489
_cell_angle_alpha   44.68017058
_cell_angle_beta   44.68017058
_cell_angle_gamma   44.68017058
_symmetry_Int_Tables_number   1
_chemical_formula_structural   SrCO3
_chemical_formula_sum   'Sr2 C2 O6'
_cell_volume   148.78141333
_cell_formula_units_Z   2
loop_
 _symmetry_equiv_pos_site_id
 _symmetry_equiv_pos_as_xyz
  1  'x, y, z'
loop_
 _atom_site_type_symbol
 _atom_site_label
 _atom_site_symmetry_multiplicity
 _atom_site_fract_x
 _atom_site_fract_y
 _atom_site_fract_z
 _atom_site_occupancy
  Sr  Sr0  1  0.000000  0.000000  0.000000  1
  Sr  Sr1  1  0.500000  0.500000  0.500000  1
  C  C2  1  0.750000  0.750000  0.750000  1
  C  C3  1  0.250000  0.250000  0.250000  1
  O  O4  1  0.002630  0.497370  0.250000  1
  O  O5  1  0.750000  0.997370  0.502630  1
  O  O6  1  0.997370  0.502630  0.750000  1
  O  O7  1  0.250000  0.002630  0.497370  1
  O  O8  1  0.502630  0.750000  0.997370  1
  O  O9  1  0.497370  0.250000  0.002630  1
