# generated using pymatgen
data_Hg2WO4
_symmetry_space_group_name_H-M   'P 1'
_cell_length_a   7.44288520
_cell_length_b   7.44288520
_cell_length_c   5.06804838
_cell_angle_alpha   75.36244724
_cell_angle_beta   104.63755276
_cell_angle_gamma   73.64694005
_symmetry_Int_Tables_number   1
_chemical_formula_structural   Hg2WO4
_chemical_formula_sum   'Hg4 W2 O8'
_cell_volume   244.27851800
_cell_formula_units_Z   2
loop_
 _symmetry_equiv_pos_site_id
 _symmetry_equiv_pos_as_xyz
  1  'x, y, z'
loop_
 _atom_site_type_symbol
 _atom_site_label
 _atom_site_symmetry_multiplicity
 _atom_site_fract_x
 _atom_site_fract_y
 _atom_site_fract_z
 _atom_site_occupancy
  Hg  Hg0  1  0.757158  0.471752  0.475955  1
  Hg  Hg1  1  0.471752  0.757158  0.024045  1
  Hg  Hg2  1  0.242842  0.528248  0.524045  1
  Hg  Hg3  1  0.528248  0.242842  0.975955  1
  W  W4  1  0.093845  0.093845  0.250000  1
  W  W5  1  0.906155  0.906155  0.750000  1
  O  O6  1  0.047702  0.333141  0.296963  1
  O  O7  1  0.333141  0.047702  0.203037  1
  O  O8  1  0.952298  0.666859  0.703037  1
  O  O9  1  0.666859  0.952298  0.796963  1
  O  O10  1  0.915057  0.180468  0.847017  1
  O  O11  1  0.180468  0.915057  0.652983  1
  O  O12  1  0.819532  0.084943  0.347017  1
  O  O13  1  0.084943  0.819532  0.152983  1
