# generated using pymatgen
data_Li6WN4
_symmetry_space_group_name_H-M   'P 1'
_cell_length_a   6.71241854
_cell_length_b   6.71241854
_cell_length_c   4.94342061
_cell_angle_alpha   90.00000000
_cell_angle_beta   90.00000000
_cell_angle_gamma   90.00000000
_symmetry_Int_Tables_number   1
_chemical_formula_structural   Li6WN4
_chemical_formula_sum   'Li12 W2 N8'
_cell_volume   222.73354045
_cell_formula_units_Z   2
loop_
 _symmetry_equiv_pos_site_id
 _symmetry_equiv_pos_as_xyz
  1  'x, y, z'
loop_
 _atom_site_type_symbol
 _atom_site_label
 _atom_site_symmetry_multiplicity
 _atom_site_fract_x
 _atom_site_fract_y
 _atom_site_fract_z
 _atom_site_occupancy
  Li  Li0  1  0.712995  0.287005  0.500000  1
  Li  Li1  1  0.787005  0.787005  0.000000  1
  Li  Li2  1  0.212995  0.212995  0.000000  1
  Li  Li3  1  0.287005  0.712995  0.500000  1
  Li  Li4  1  0.787005  0.212995  0.000000  1
  Li  Li5  1  0.712995  0.712995  0.500000  1
  Li  Li6  1  0.287005  0.287005  0.500000  1
  Li  Li7  1  0.212995  0.787005  0.000000  1
  Li  Li8  1  0.500000  0.000000  0.918610  1
  Li  Li9  1  0.500000  0.000000  0.418610  1
  Li  Li10  1  0.000000  0.500000  0.081390  1
  Li  Li11  1  0.000000  0.500000  0.581390  1
  W  W12  1  0.000000  0.000000  0.500000  1
  W  W13  1  0.500000  0.500000  0.000000  1
  N  N14  1  0.500000  0.258627  0.199506  1
  N  N15  1  0.500000  0.741373  0.199506  1
  N  N16  1  0.241373  0.000000  0.699506  1
  N  N17  1  0.758627  0.000000  0.699506  1
  N  N18  1  0.258627  0.500000  0.800494  1
  N  N19  1  0.000000  0.241373  0.300494  1
  N  N20  1  0.000000  0.758627  0.300494  1
  N  N21  1  0.741373  0.500000  0.800494  1
