# generated using pymatgen
data_Na3CoO2
_symmetry_space_group_name_H-M   'P 1'
_cell_length_a   9.44719659
_cell_length_b   9.44719659
_cell_length_c   4.67912223
_cell_angle_alpha   90.00000000
_cell_angle_beta   90.00000000
_cell_angle_gamma   90.00000000
_symmetry_Int_Tables_number   1
_chemical_formula_structural   Na3CoO2
_chemical_formula_sum   'Na12 Co4 O8'
_cell_volume   417.60942903
_cell_formula_units_Z   4
loop_
 _symmetry_equiv_pos_site_id
 _symmetry_equiv_pos_as_xyz
  1  'x, y, z'
loop_
 _atom_site_type_symbol
 _atom_site_label
 _atom_site_symmetry_multiplicity
 _atom_site_fract_x
 _atom_site_fract_y
 _atom_site_fract_z
 _atom_site_occupancy
  Na  Na0  1  0.641303  0.641303  0.500000  1
  Na  Na1  1  0.358697  0.358697  0.500000  1
  Na  Na2  1  0.141303  0.858697  0.000000  1
  Na  Na3  1  0.158352  0.526137  0.000000  1
  Na  Na4  1  0.841648  0.473863  0.000000  1
  Na  Na5  1  0.026137  0.341648  0.500000  1
  Na  Na6  1  0.973863  0.658352  0.500000  1
  Na  Na7  1  0.526137  0.158352  0.000000  1
  Na  Na8  1  0.658352  0.973863  0.500000  1
  Na  Na9  1  0.858697  0.141303  0.000000  1
  Na  Na10  1  0.473863  0.841648  0.000000  1
  Na  Na11  1  0.341648  0.026137  0.500000  1
  Co  Co12  1  0.323012  0.676988  0.500000  1
  Co  Co13  1  0.176988  0.176988  0.000000  1
  Co  Co14  1  0.823012  0.823012  0.000000  1
  Co  Co15  1  0.676988  0.323012  0.500000  1
  O  O16  1  0.195198  0.540162  0.500000  1
  O  O17  1  0.040162  0.304802  0.000000  1
  O  O18  1  0.540162  0.195198  0.500000  1
  O  O19  1  0.695198  0.959838  0.000000  1
  O  O20  1  0.459838  0.804802  0.500000  1
  O  O21  1  0.304802  0.040162  0.000000  1
  O  O22  1  0.804802  0.459838  0.500000  1
  O  O23  1  0.959838  0.695198  0.000000  1
