# generated using pymatgen
data_Li2NiP2O7
_symmetry_space_group_name_H-M   'P 1'
_cell_length_a   6.51245498
_cell_length_b   9.19160350
_cell_length_c   10.27594155
_cell_angle_alpha   113.58492677
_cell_angle_beta   87.19200918
_cell_angle_gamma   107.02652980
_symmetry_Int_Tables_number   1
_chemical_formula_structural   Li2NiP2O7
_chemical_formula_sum   'Li8 Ni4 P8 O28'
_cell_volume   537.39260822
_cell_formula_units_Z   4
loop_
 _symmetry_equiv_pos_site_id
 _symmetry_equiv_pos_as_xyz
  1  'x, y, z'
loop_
 _atom_site_type_symbol
 _atom_site_label
 _atom_site_symmetry_multiplicity
 _atom_site_fract_x
 _atom_site_fract_y
 _atom_site_fract_z
 _atom_site_occupancy
  Li  Li0  1  0.580035  0.499555  0.967692  1
  Li  Li1  1  0.346327  0.929805  0.381781  1
  Li  Li2  1  0.929580  0.832263  0.508602  1
  Li  Li3  1  0.873191  0.891525  0.910023  1
  Li  Li4  1  0.158746  0.487550  0.038548  1
  Li  Li5  1  0.048306  0.231888  0.518079  1
  Li  Li6  1  0.647347  0.072183  0.619722  1
  Li  Li7  1  0.183836  0.120412  0.124644  1
  Ni  Ni8  1  0.283929  0.894498  0.777787  1
  Ni  Ni9  1  0.367851  0.505772  0.741532  1
  Ni  Ni10  1  0.625116  0.484325  0.247092  1
  Ni  Ni11  1  0.723692  0.095033  0.219782  1
  P  P12  1  0.111729  0.437578  0.295119  1
  P  P13  1  0.566527  0.294759  0.462022  1
  P  P14  1  0.428924  0.702549  0.531416  1
  P  P15  1  0.315003  0.805081  0.051410  1
  P  P16  1  0.084069  0.181814  0.796781  1
  P  P17  1  0.692075  0.185097  0.946742  1
  P  P18  1  0.918912  0.803852  0.196062  1
  P  P19  1  0.878247  0.546277  0.698485  1
  O  O20  1  0.224801  0.544270  0.454979  1
  O  O21  1  0.739018  0.080814  0.019304  1
  O  O22  1  0.708977  0.665490  0.169078  1
  O  O23  1  0.023293  0.260566  0.291803  1
  O  O24  1  0.926590  0.279919  0.906350  1
  O  O25  1  0.290908  0.445747  0.192080  1
  O  O26  1  0.631587  0.144857  0.461181  1
  O  O27  1  0.390618  0.657247  0.956910  1
  O  O28  1  0.603327  0.325127  0.038074  1
  O  O29  1  0.370961  0.858166  0.540678  1
  O  O30  1  0.109341  0.059280  0.856522  1
  O  O31  1  0.288504  0.325753  0.822384  1
  O  O32  1  0.445746  0.912038  0.194839  1
  O  O33  1  0.028052  0.889899  0.347084  1
  O  O34  1  0.549077  0.275494  0.305610  1
  O  O35  1  0.442785  0.711068  0.684565  1
  O  O36  1  0.970745  0.093717  0.645616  1
  O  O37  1  0.082894  0.708109  0.091258  1
  O  O38  1  0.626536  0.678024  0.450057  1
  O  O39  1  0.273159  0.913048  0.981359  1
  O  O40  1  0.977916  0.729834  0.723727  1
  O  O41  1  0.765286  0.458949  0.536230  1
  O  O42  1  0.904218  0.929350  0.135104  1
  O  O43  1  0.946841  0.514061  0.274079  1
  O  O44  1  0.039152  0.453443  0.695674  1
  O  O45  1  0.366884  0.318916  0.540602  1
  O  O46  1  0.693181  0.525233  0.793736  1
  O  O47  1  0.565014  0.075570  0.802554  1
