# generated using pymatgen
data_Ca2NF
_symmetry_space_group_name_H-M   'P 1'
_cell_length_a   6.25717678
_cell_length_b   6.25717678
_cell_length_c   6.25717678
_cell_angle_alpha   133.70991696
_cell_angle_beta   133.70991696
_cell_angle_gamma   67.54144335
_symmetry_Int_Tables_number   1
_chemical_formula_structural   Ca2NF
_chemical_formula_sum   'Ca4 N2 F2'
_cell_volume   125.85038596
_cell_formula_units_Z   2
loop_
 _symmetry_equiv_pos_site_id
 _symmetry_equiv_pos_as_xyz
  1  'x, y, z'
loop_
 _atom_site_type_symbol
 _atom_site_label
 _atom_site_symmetry_multiplicity
 _atom_site_fract_x
 _atom_site_fract_y
 _atom_site_fract_z
 _atom_site_occupancy
  Ca  Ca0  1  0.272092  0.272092  0.000000  1
  Ca  Ca1  1  0.022092  0.522092  0.500000  1
  Ca  Ca2  1  0.727908  0.727908  0.000000  1
  Ca  Ca3  1  0.477908  0.977908  0.500000  1
  N  N4  1  0.500000  0.500000  0.000000  1
  N  N5  1  0.250000  0.750000  0.500000  1
  F  F6  1  0.750000  0.250000  0.500000  1
  F  F7  1  0.000000  0.000000  0.000000  1
