# generated using pymatgen
data_TbP5O14
_symmetry_space_group_name_H-M   'P 1'
_cell_length_a   8.83634079
_cell_length_b   9.01736431
_cell_length_c   13.00955745
_cell_angle_alpha   90.00000000
_cell_angle_beta   90.45490244
_cell_angle_gamma   90.00000000
_symmetry_Int_Tables_number   1
_chemical_formula_structural   TbP5O14
_chemical_formula_sum   'Tb4 P20 O56'
_cell_volume   1036.57542293
_cell_formula_units_Z   4
loop_
 _symmetry_equiv_pos_site_id
 _symmetry_equiv_pos_as_xyz
  1  'x, y, z'
loop_
 _atom_site_type_symbol
 _atom_site_label
 _atom_site_symmetry_multiplicity
 _atom_site_fract_x
 _atom_site_fract_y
 _atom_site_fract_z
 _atom_site_occupancy
  Tb  Tb0  1  0.777225  0.688086  0.498662  1
  Tb  Tb1  1  0.222775  0.188086  0.001338  1
  Tb  Tb2  1  0.222775  0.311914  0.501338  1
  Tb  Tb3  1  0.777225  0.811914  0.998662  1
  P  P4  1  0.506267  0.502899  0.670898  1
  P  P5  1  0.493733  0.002899  0.829102  1
  P  P6  1  0.493733  0.497101  0.329102  1
  P  P7  1  0.506267  0.997101  0.170898  1
  P  P8  1  0.745605  0.454972  0.834729  1
  P  P9  1  0.254395  0.954972  0.665271  1
  P  P10  1  0.254395  0.545028  0.165271  1
  P  P11  1  0.745605  0.045028  0.334729  1
  P  P12  1  0.817130  0.244431  0.999990  1
  P  P13  1  0.182870  0.744431  0.500010  1
  P  P14  1  0.182870  0.755569  0.000010  1
  P  P15  1  0.817130  0.255569  0.499990  1
  P  P16  1  0.728246  0.450389  0.164380  1
  P  P17  1  0.271754  0.950389  0.335620  1
  P  P18  1  0.271754  0.549611  0.835620  1
  P  P19  1  0.728246  0.049611  0.664380  1
  P  P20  1  0.992232  0.494522  0.300000  1
  P  P21  1  0.007768  0.994522  0.200000  1
  P  P22  1  0.007768  0.505478  0.700000  1
  P  P23  1  0.992232  0.005478  0.800000  1
  O  O24  1  0.416135  0.384412  0.619722  1
  O  O25  1  0.583865  0.884412  0.880278  1
  O  O26  1  0.583865  0.615588  0.380278  1
  O  O27  1  0.416135  0.115588  0.119722  1
  O  O28  1  0.580725  0.623435  0.611661  1
  O  O29  1  0.419275  0.123435  0.888339  1
  O  O30  1  0.419275  0.376565  0.388339  1
  O  O31  1  0.580725  0.876565  0.111661  1
  O  O32  1  0.632829  0.420551  0.743515  1
  O  O33  1  0.367171  0.920551  0.756485  1
  O  O34  1  0.367171  0.579449  0.256485  1
  O  O35  1  0.632829  0.079449  0.243515  1
  O  O36  1  0.724095  0.596272  0.890246  1
  O  O37  1  0.275905  0.096272  0.609754  1
  O  O38  1  0.275905  0.403728  0.109754  1
  O  O39  1  0.724095  0.903728  0.390246  1
  O  O40  1  0.723481  0.309858  0.900655  1
  O  O41  1  0.276519  0.809858  0.599345  1
  O  O42  1  0.276519  0.690142  0.099345  1
  O  O43  1  0.789072  0.081958  0.000353  1
  O  O44  1  0.723481  0.190142  0.400655  1
  O  O45  1  0.028077  0.810309  0.494962  1
  O  O46  1  0.028077  0.689691  0.994962  1
  O  O47  1  0.971923  0.189691  0.505038  1
  O  O48  1  0.085820  0.117961  0.854918  1
  O  O49  1  0.914180  0.617961  0.645082  1
  O  O50  1  0.914180  0.882039  0.145082  1
  O  O51  1  0.085820  0.382039  0.354918  1
  O  O52  1  0.910633  0.884019  0.853469  1
  O  O53  1  0.089367  0.384019  0.646531  1
  O  O54  1  0.089367  0.115981  0.146531  1
  O  O55  1  0.910633  0.615981  0.353469  1
  O  O56  1  0.873545  0.097330  0.728570  1
  O  O57  1  0.126455  0.597330  0.771430  1
  O  O58  1  0.126455  0.902670  0.271430  1
  O  O59  1  0.873545  0.402670  0.228570  1
  O  O60  1  0.092223  0.927423  0.711236  1
  O  O61  1  0.907777  0.427423  0.788764  1
  O  O62  1  0.907777  0.072577  0.288764  1
  O  O63  1  0.092223  0.572577  0.211236  1
  O  O64  1  0.732812  0.902357  0.615031  1
  O  O65  1  0.267188  0.402357  0.884969  1
  O  O66  1  0.267188  0.097643  0.384969  1
  O  O67  1  0.732812  0.597643  0.115031  1
  O  O68  1  0.709079  0.185704  0.589469  1
  O  O69  1  0.290921  0.685704  0.910531  1
  O  O70  1  0.290921  0.814296  0.410531  1
  O  O71  1  0.709079  0.314296  0.089469  1
  O  O72  1  0.592124  0.082218  0.738596  1
  O  O73  1  0.407876  0.582218  0.761404  1
  O  O74  1  0.407876  0.917782  0.261404  1
  O  O75  1  0.592124  0.417782  0.238596  1
  O  O76  1  0.789072  0.418042  0.500353  1
  O  O77  1  0.210928  0.918042  0.999647  1
  O  O78  1  0.210928  0.581958  0.499647  1
  O  O79  1  0.971923  0.310309  0.005038  1
