# generated using pymatgen
data_Ca(AlSe2)2
_symmetry_space_group_name_H-M   'P 1'
_cell_length_a   6.22520426
_cell_length_b   6.22520426
_cell_length_c   10.75129307
_cell_angle_alpha   90.00000000
_cell_angle_beta   90.00000000
_cell_angle_gamma   119.56297042
_symmetry_Int_Tables_number   1
_chemical_formula_structural   Ca(AlSe2)2
_chemical_formula_sum   'Ca2 Al4 Se8'
_cell_volume   362.40509433
_cell_formula_units_Z   2
loop_
 _symmetry_equiv_pos_site_id
 _symmetry_equiv_pos_as_xyz
  1  'x, y, z'
loop_
 _atom_site_type_symbol
 _atom_site_label
 _atom_site_symmetry_multiplicity
 _atom_site_fract_x
 _atom_site_fract_y
 _atom_site_fract_z
 _atom_site_occupancy
  Ca  Ca0  1  0.500000  0.500000  0.250000  1
  Ca  Ca1  1  0.500000  0.500000  0.750000  1
  Al  Al2  1  0.760032  0.236211  0.500000  1
  Al  Al3  1  0.763789  0.239968  0.000000  1
  Al  Al4  1  0.236211  0.760032  0.000000  1
  Al  Al5  1  0.239968  0.763789  0.500000  1
  Se  Se6  1  0.500000  0.000000  0.327927  1
  Se  Se7  1  0.349108  0.190189  0.000000  1
  Se  Se8  1  0.190189  0.349108  0.500000  1
  Se  Se9  1  0.809811  0.650892  0.500000  1
  Se  Se10  1  0.000000  0.500000  0.172073  1
  Se  Se11  1  0.000000  0.500000  0.827927  1
  Se  Se12  1  0.650892  0.809811  0.000000  1
  Se  Se13  1  0.500000  0.000000  0.672073  1
