# generated using pymatgen
data_LiCoP2O7
_symmetry_space_group_name_H-M   'P 1'
_cell_length_a   6.20711126
_cell_length_b   6.20896292
_cell_length_c   6.72972516
_cell_angle_alpha   66.63009537
_cell_angle_beta   86.28165861
_cell_angle_gamma   82.54056048
_symmetry_Int_Tables_number   1
_chemical_formula_structural   LiCoP2O7
_chemical_formula_sum   'Li2 Co2 P4 O14'
_cell_volume   236.04419759
_cell_formula_units_Z   2
loop_
 _symmetry_equiv_pos_site_id
 _symmetry_equiv_pos_as_xyz
  1  'x, y, z'
loop_
 _atom_site_type_symbol
 _atom_site_label
 _atom_site_symmetry_multiplicity
 _atom_site_fract_x
 _atom_site_fract_y
 _atom_site_fract_z
 _atom_site_occupancy
  Li  Li0  1  0.013262  0.714617  0.830784  1
  Li  Li1  1  0.986738  0.285383  0.169216  1
  Co  Co2  1  0.636563  0.089790  0.788610  1
  Co  Co3  1  0.363437  0.910210  0.211390  1
  P  P4  1  0.601035  0.652952  0.649717  1
  P  P5  1  0.871893  0.781447  0.235668  1
  P  P6  1  0.128107  0.218553  0.764332  1
  P  P7  1  0.398965  0.347048  0.350283  1
  O  O8  1  0.587471  0.396012  0.801408  1
  O  O9  1  0.412529  0.603988  0.198592  1
  O  O10  1  0.321134  0.221290  0.217268  1
  O  O11  1  0.393876  0.779592  0.519499  1
  O  O12  1  0.678866  0.778710  0.782732  1
  O  O13  1  0.955873  0.063924  0.755104  1
  O  O14  1  0.950205  0.603779  0.142868  1
  O  O15  1  0.049795  0.396221  0.857132  1
  O  O16  1  0.207612  0.353253  0.522427  1
  O  O17  1  0.792388  0.646747  0.477573  1
  O  O18  1  0.044127  0.936076  0.244896  1
  O  O19  1  0.606124  0.220408  0.480501  1
  O  O20  1  0.333708  0.043626  0.882692  1
  O  O21  1  0.666292  0.956374  0.117308  1
