# generated using pymatgen
data_Ba(AlCl4)2
_symmetry_space_group_name_H-M   'P 1'
_cell_length_a   8.15318716
_cell_length_b   7.23680862
_cell_length_c   12.80235953
_cell_angle_alpha   90.00000000
_cell_angle_beta   100.90126597
_cell_angle_gamma   90.00000000
_symmetry_Int_Tables_number   1
_chemical_formula_structural   Ba(AlCl4)2
_chemical_formula_sum   'Ba2 Al4 Cl16'
_cell_volume   741.74717121
_cell_formula_units_Z   2
loop_
 _symmetry_equiv_pos_site_id
 _symmetry_equiv_pos_as_xyz
  1  'x, y, z'
loop_
 _atom_site_type_symbol
 _atom_site_label
 _atom_site_symmetry_multiplicity
 _atom_site_fract_x
 _atom_site_fract_y
 _atom_site_fract_z
 _atom_site_occupancy
  Ba  Ba0  1  0.500000  0.852315  0.250000  1
  Ba  Ba1  1  0.500000  0.147685  0.750000  1
  Al  Al2  1  0.700287  0.274045  0.441062  1
  Al  Al3  1  0.700287  0.725955  0.941062  1
  Al  Al4  1  0.299713  0.725955  0.558938  1
  Al  Al5  1  0.299713  0.274045  0.058938  1
  Cl  Cl6  1  0.438017  0.797120  0.896552  1
  Cl  Cl7  1  0.561983  0.797120  0.603448  1
  Cl  Cl8  1  0.773058  0.277612  0.612302  1
  Cl  Cl9  1  0.226942  0.277612  0.887698  1
  Cl  Cl10  1  0.226942  0.722388  0.387698  1
  Cl  Cl11  1  0.773058  0.722388  0.112302  1
  Cl  Cl12  1  0.832687  0.063514  0.370941  1
  Cl  Cl13  1  0.167313  0.063514  0.129059  1
  Cl  Cl14  1  0.167313  0.936486  0.629059  1
  Cl  Cl15  1  0.832687  0.936486  0.870941  1
  Cl  Cl16  1  0.747183  0.544016  0.381141  1
  Cl  Cl17  1  0.252817  0.544016  0.118859  1
  Cl  Cl18  1  0.252817  0.455984  0.618859  1
  Cl  Cl19  1  0.747183  0.455984  0.881141  1
  Cl  Cl20  1  0.438017  0.202880  0.396552  1
  Cl  Cl21  1  0.561983  0.202880  0.103448  1
