# generated using pymatgen
data_Ba(NdSe2)2
_symmetry_space_group_name_H-M   'P 1'
_cell_length_a   7.98922300
_cell_length_b   7.98922300
_cell_length_c   7.98922300
_cell_angle_alpha   109.40697002
_cell_angle_beta   109.40697002
_cell_angle_gamma   109.59979842
_symmetry_Int_Tables_number   1
_chemical_formula_structural   Ba(NdSe2)2
_chemical_formula_sum   'Ba2 Nd4 Se8'
_cell_volume   392.54558645
_cell_formula_units_Z   2
loop_
 _symmetry_equiv_pos_site_id
 _symmetry_equiv_pos_as_xyz
  1  'x, y, z'
loop_
 _atom_site_type_symbol
 _atom_site_label
 _atom_site_symmetry_multiplicity
 _atom_site_fract_x
 _atom_site_fract_y
 _atom_site_fract_z
 _atom_site_occupancy
  Ba  Ba0  1  0.250000  0.750000  0.500000  1
  Ba  Ba1  1  1.000000  1.000000  0.000000  1
  Nd  Nd2  1  0.625000  0.251459  0.126459  1
  Nd  Nd3  1  0.501459  0.375000  0.626459  1
  Nd  Nd4  1  0.125000  0.498541  0.873541  1
  Nd  Nd5  1  0.748541  0.875000  0.373541  1
  Se  Se6  1  0.731458  0.141992  0.745711  1
  Se  Se7  1  0.235747  0.146282  0.754289  1
  Se  Se8  1  0.858008  0.603718  0.589466  1
  Se  Se9  1  0.014253  0.268542  0.410534  1
  Se  Se10  1  0.391992  0.481458  0.245711  1
  Se  Se11  1  0.518542  0.764253  0.910534  1
  Se  Se12  1  0.853718  0.608008  0.089466  1
  Se  Se13  1  0.396282  0.985747  0.254289  1
