# generated using pymatgen
data_Mg4H2O5
_symmetry_space_group_name_H-M   'P 1'
_cell_length_a   3.05904053
_cell_length_b   3.05904053
_cell_length_c   12.18985056
_cell_angle_alpha   90.00000000
_cell_angle_beta   90.00000000
_cell_angle_gamma   120.00000000
_symmetry_Int_Tables_number   1
_chemical_formula_structural   Mg4H2O5
_chemical_formula_sum   'Mg4 H2 O5'
_cell_volume   98.78692680
_cell_formula_units_Z   1
loop_
 _symmetry_equiv_pos_site_id
 _symmetry_equiv_pos_as_xyz
  1  'x, y, z'
loop_
 _atom_site_type_symbol
 _atom_site_label
 _atom_site_symmetry_multiplicity
 _atom_site_fract_x
 _atom_site_fract_y
 _atom_site_fract_z
 _atom_site_occupancy
  Mg  Mg0  1  0.333333  0.666667  0.100217  1
  Mg  Mg1  1  0.666667  0.333333  0.899783  1
  Mg  Mg2  1  0.000000  0.000000  0.301501  1
  Mg  Mg3  1  0.000000  0.000000  0.698499  1
  H  H4  1  0.666667  0.333333  0.531456  1
  H  H5  1  0.333333  0.666667  0.468544  1
  O  O6  1  0.333333  0.666667  0.799371  1
  O  O7  1  0.666667  0.333333  0.200629  1
  O  O8  1  0.333333  0.666667  0.388970  1
  O  O9  1  0.666667  0.333333  0.611030  1
  O  O10  1  0.000000  0.000000  0.000000  1
