# generated using pymatgen
data_KPt2S3
_symmetry_space_group_name_H-M   'P 1'
_cell_length_a   7.69665613
_cell_length_b   7.69665613
_cell_length_c   7.69665613
_cell_angle_alpha   55.59787513
_cell_angle_beta   55.59787513
_cell_angle_gamma   55.59787513
_symmetry_Int_Tables_number   1
_chemical_formula_structural   KPt2S3
_chemical_formula_sum   'K2 Pt4 S6'
_cell_volume   289.45910477
_cell_formula_units_Z   2
loop_
 _symmetry_equiv_pos_site_id
 _symmetry_equiv_pos_as_xyz
  1  'x, y, z'
loop_
 _atom_site_type_symbol
 _atom_site_label
 _atom_site_symmetry_multiplicity
 _atom_site_fract_x
 _atom_site_fract_y
 _atom_site_fract_z
 _atom_site_occupancy
  K  K0  1  0.306044  0.306044  0.306044  1
  K  K1  1  0.693956  0.693956  0.693956  1
  Pt  Pt2  1  0.500000  0.500000  0.500000  1
  Pt  Pt3  1  0.000000  0.500000  0.000000  1
  Pt  Pt4  1  0.000000  0.000000  0.500000  1
  Pt  Pt5  1  0.500000  0.000000  0.000000  1
  S  S6  1  0.781908  0.269659  0.269659  1
  S  S7  1  0.269659  0.781908  0.269659  1
  S  S8  1  0.269659  0.269659  0.781908  1
  S  S9  1  0.730341  0.730341  0.218092  1
  S  S10  1  0.218092  0.730341  0.730341  1
  S  S11  1  0.730341  0.218092  0.730341  1
