# generated using pymatgen
data_Na14Al4O13
_symmetry_space_group_name_H-M   'P 1'
_cell_length_a   6.01054802
_cell_length_b   27.36852831
_cell_length_c   6.01747108
_cell_angle_alpha   90.00000000
_cell_angle_beta   119.61040737
_cell_angle_gamma   90.00000000
_symmetry_Int_Tables_number   1
_chemical_formula_structural   Na14Al4O13
_chemical_formula_sum   'Na28 Al8 O26'
_cell_volume   860.60082619
_cell_formula_units_Z   2
loop_
 _symmetry_equiv_pos_site_id
 _symmetry_equiv_pos_as_xyz
  1  'x, y, z'
loop_
 _atom_site_type_symbol
 _atom_site_label
 _atom_site_symmetry_multiplicity
 _atom_site_fract_x
 _atom_site_fract_y
 _atom_site_fract_z
 _atom_site_occupancy
  Na  Na0  1  0.649958  0.446106  0.002178  1
  Na  Na1  1  0.250601  0.388841  0.466731  1
  Na  Na2  1  0.234187  0.999720  0.966950  1
  Na  Na3  1  0.765813  0.499720  0.533050  1
  Na  Na4  1  0.765813  0.000280  0.033050  1
  Na  Na5  1  0.234187  0.500280  0.466950  1
  Na  Na6  1  0.780285  0.112456  0.034971  1
  Na  Na7  1  0.219715  0.612456  0.465029  1
  Na  Na8  1  0.219715  0.887544  0.965029  1
  Na  Na9  1  0.780285  0.387544  0.534971  1
  Na  Na10  1  0.749399  0.611159  0.533269  1
  Na  Na11  1  0.250601  0.111159  0.966731  1
  Na  Na12  1  0.788146  0.275581  0.560702  1
  Na  Na13  1  0.211854  0.775581  0.939298  1
  Na  Na14  1  0.211854  0.724419  0.439298  1
  Na  Na15  1  0.788146  0.224419  0.060702  1
  Na  Na16  1  0.369355  0.339846  0.007213  1
  Na  Na17  1  0.630645  0.839846  0.492787  1
  Na  Na18  1  0.212852  0.218478  0.951162  1
  Na  Na19  1  0.369355  0.160154  0.507213  1
  Na  Na20  1  0.630645  0.660154  0.992787  1
  Na  Na21  1  0.350042  0.946106  0.497822  1
  Na  Na22  1  0.350042  0.553894  0.997822  1
  Na  Na23  1  0.649958  0.053894  0.502178  1
  Na  Na24  1  0.212852  0.281522  0.451162  1
  Na  Na25  1  0.787148  0.781522  0.048838  1
  Na  Na26  1  0.787148  0.718478  0.548838  1
  Na  Na27  1  0.749399  0.888841  0.033269  1
  Al  Al28  1  0.845176  0.334828  0.000045  1
  Al  Al29  1  0.154824  0.834828  0.499955  1
  Al  Al30  1  0.154824  0.665172  0.999955  1
  Al  Al31  1  0.845176  0.165172  0.500045  1
  Al  Al32  1  0.164144  0.445018  0.000069  1
  Al  Al33  1  0.835856  0.945018  0.499931  1
  Al  Al34  1  0.835856  0.554982  0.999931  1
  Al  Al35  1  0.164144  0.054982  0.500069  1
  O  O36  1  0.000000  0.500000  0.000000  1
  O  O37  1  0.000000  0.000000  0.500000  1
  O  O38  1  0.064337  0.290009  0.008048  1
  O  O39  1  0.935663  0.790009  0.491952  1
  O  O40  1  0.935663  0.709991  0.991952  1
  O  O41  1  0.064337  0.209991  0.508048  1
  O  O42  1  0.463149  0.442863  0.284000  1
  O  O43  1  0.536851  0.942863  0.216000  1
  O  O44  1  0.536851  0.557137  0.716000  1
  O  O45  1  0.463149  0.057137  0.784000  1
  O  O46  1  0.546618  0.329171  0.713673  1
  O  O47  1  0.453382  0.829171  0.786327  1
  O  O48  1  0.453382  0.670829  0.286327  1
  O  O49  1  0.546618  0.170829  0.213673  1
  O  O50  1  0.820417  0.329742  0.281485  1
  O  O51  1  0.179583  0.829742  0.218515  1
  O  O52  1  0.179583  0.670258  0.718515  1
  O  O53  1  0.820417  0.170258  0.781485  1
  O  O54  1  0.182738  0.443075  0.716915  1
  O  O55  1  0.817262  0.943075  0.783085  1
  O  O56  1  0.817262  0.556925  0.283085  1
  O  O57  1  0.182738  0.056925  0.216915  1
  O  O58  1  0.970530  0.395269  0.000333  1
  O  O59  1  0.029470  0.895269  0.499667  1
  O  O60  1  0.029470  0.604731  0.999667  1
  O  O61  1  0.970530  0.104731  0.500333  1
