# generated using pymatgen
data_CsNd5Se8
_symmetry_space_group_name_H-M   'P 1'
_cell_length_a   7.92624322
_cell_length_b   7.92624322
_cell_length_c   7.92624322
_cell_angle_alpha   109.08688880
_cell_angle_beta   109.08688880
_cell_angle_gamma   110.24264938
_symmetry_Int_Tables_number   1
_chemical_formula_structural   CsNd5Se8
_chemical_formula_sum   'Cs1 Nd5 Se8'
_cell_volume   383.28440667
_cell_formula_units_Z   1
loop_
 _symmetry_equiv_pos_site_id
 _symmetry_equiv_pos_as_xyz
  1  'x, y, z'
loop_
 _atom_site_type_symbol
 _atom_site_label
 _atom_site_symmetry_multiplicity
 _atom_site_fract_x
 _atom_site_fract_y
 _atom_site_fract_z
 _atom_site_occupancy
  Cs  Cs0  1  1.000000  1.000000  0.000000  1
  Nd  Nd1  1  0.626061  0.239605  0.122964  1
  Nd  Nd2  1  0.496904  0.373939  0.613545  1
  Nd  Nd3  1  0.116641  0.503096  0.877036  1
  Nd  Nd4  1  0.760395  0.883359  0.386455  1
  Nd  Nd5  1  0.250000  0.750000  0.500000  1
  Se  Se6  1  0.710938  0.138541  0.741223  1
  Se  Se7  1  0.243707  0.129911  0.742021  1
  Se  Se8  1  0.030285  0.289062  0.427604  1
  Se  Se9  1  0.861459  0.602682  0.572396  1
  Se  Se10  1  0.387889  0.501686  0.257979  1
  Se  Se11  1  0.870089  0.612111  0.113796  1
  Se  Se12  1  0.498314  0.756293  0.886204  1
  Se  Se13  1  0.397318  0.969715  0.258777  1
