# generated using pymatgen
data_Cs2Mn3Se4
_symmetry_space_group_name_H-M   'P 1'
_cell_length_a   10.08965697
_cell_length_b   10.08965697
_cell_length_c   10.08965697
_cell_angle_alpha   143.42243616
_cell_angle_beta   105.34092771
_cell_angle_gamma   86.12310994
_symmetry_Int_Tables_number   1
_chemical_formula_structural   Cs2Mn3Se4
_chemical_formula_sum   'Cs4 Mn6 Se8'
_cell_volume   571.21703998
_cell_formula_units_Z   2
loop_
 _symmetry_equiv_pos_site_id
 _symmetry_equiv_pos_as_xyz
  1  'x, y, z'
loop_
 _atom_site_type_symbol
 _atom_site_label
 _atom_site_symmetry_multiplicity
 _atom_site_fract_x
 _atom_site_fract_y
 _atom_site_fract_z
 _atom_site_occupancy
  Cs  Cs0  1  0.378988  0.265354  0.644342  1
  Cs  Cs1  1  0.121012  0.765354  0.886366  1
  Cs  Cs2  1  0.878988  0.234646  0.113634  1
  Cs  Cs3  1  0.621012  0.734646  0.355658  1
  Mn  Mn4  1  0.479680  0.250000  0.229680  1
  Mn  Mn5  1  0.020320  0.250000  0.770320  1
  Mn  Mn6  1  0.520320  0.750000  0.770320  1
  Mn  Mn7  1  0.250000  0.750000  0.500000  1
  Mn  Mn8  1  0.750000  0.250000  0.500000  1
  Mn  Mn9  1  0.979680  0.750000  0.229680  1
  Se  Se10  1  0.980851  0.126980  0.413082  1
  Se  Se11  1  0.519149  0.932230  0.146129  1
  Se  Se12  1  0.786101  0.373020  0.853871  1
  Se  Se13  1  0.713899  0.567770  0.586918  1
  Se  Se14  1  0.019149  0.873020  0.586918  1
  Se  Se15  1  0.480851  0.067770  0.853871  1
  Se  Se16  1  0.213899  0.626980  0.146129  1
  Se  Se17  1  0.286101  0.432230  0.413082  1
