# generated using pymatgen
data_Li2MgCl4
_symmetry_space_group_name_H-M   'P 1'
_cell_length_a   7.43162829
_cell_length_b   7.43162829
_cell_length_c   7.43162829
_cell_angle_alpha   120.17553776
_cell_angle_beta   119.49210243
_cell_angle_gamma   90.28908774
_symmetry_Int_Tables_number   1
_chemical_formula_structural   Li2MgCl4
_chemical_formula_sum   'Li4 Mg2 Cl8'
_cell_volume   290.93854284
_cell_formula_units_Z   2
loop_
 _symmetry_equiv_pos_site_id
 _symmetry_equiv_pos_as_xyz
  1  'x, y, z'
loop_
 _atom_site_type_symbol
 _atom_site_label
 _atom_site_symmetry_multiplicity
 _atom_site_fract_x
 _atom_site_fract_y
 _atom_site_fract_z
 _atom_site_occupancy
  Li  Li0  1  0.615620  0.865620  0.250000  1
  Li  Li1  1  0.000000  0.000000  0.000000  1
  Li  Li2  1  0.000000  0.500000  0.500000  1
  Li  Li3  1  0.384380  0.134380  0.750000  1
  Mg  Mg4  1  0.500000  0.500000  0.500000  1
  Mg  Mg5  1  0.000000  0.500000  0.000000  1
  Cl  Cl6  1  0.753379  0.737097  0.983718  1
  Cl  Cl7  1  0.753379  0.269661  0.516282  1
  Cl  Cl8  1  0.750400  0.737809  0.512591  1
  Cl  Cl9  1  0.225218  0.737809  0.987409  1
  Cl  Cl10  1  0.774782  0.262191  0.012591  1
  Cl  Cl11  1  0.249600  0.262191  0.487409  1
  Cl  Cl12  1  0.246621  0.730339  0.483718  1
  Cl  Cl13  1  0.246621  0.262903  0.016282  1
