# generated using pymatgen
data_Li7BiO6
_symmetry_space_group_name_H-M   'P 1'
_cell_length_a   5.52968011
_cell_length_b   5.58373182
_cell_length_c   6.04743943
_cell_angle_alpha   63.55846578
_cell_angle_beta   64.54601577
_cell_angle_gamma   60.93567682
_symmetry_Int_Tables_number   1
_chemical_formula_structural   Li7BiO6
_chemical_formula_sum   'Li7 Bi1 O6'
_cell_volume   140.59469425
_cell_formula_units_Z   1
loop_
 _symmetry_equiv_pos_site_id
 _symmetry_equiv_pos_as_xyz
  1  'x, y, z'
loop_
 _atom_site_type_symbol
 _atom_site_label
 _atom_site_symmetry_multiplicity
 _atom_site_fract_x
 _atom_site_fract_y
 _atom_site_fract_z
 _atom_site_occupancy
  Li  Li0  1  0.109885  0.742538  0.617038  1
  Li  Li1  1  0.471436  0.151234  0.613684  1
  Li  Li2  1  0.357501  0.335411  0.989393  1
  Li  Li3  1  0.626687  0.634287  0.052401  1
  Li  Li4  1  0.505306  0.895087  0.371304  1
  Li  Li5  1  0.911587  0.232854  0.353915  1
  Li  Li6  1  0.802936  0.491304  0.621388  1
  Bi  Bi7  1  0.008495  0.978907  0.005988  1
  O  O8  1  0.091340  0.372518  0.786166  1
  O  O9  1  0.243376  0.917253  0.241353  1
  O  O10  1  0.621864  0.222367  0.235733  1
  O  O11  1  0.397847  0.754972  0.757473  1
  O  O12  1  0.781086  0.097441  0.733636  1
  O  O13  1  0.880656  0.618828  0.242529  1
