# generated using pymatgen
data_CaTa4O11
_symmetry_space_group_name_H-M   'P 1'
_cell_length_a   6.28091112
_cell_length_b   6.28091112
_cell_length_c   12.39228393
_cell_angle_alpha   90.00000000
_cell_angle_beta   90.00000000
_cell_angle_gamma   120.00000000
_symmetry_Int_Tables_number   1
_chemical_formula_structural   CaTa4O11
_chemical_formula_sum   'Ca2 Ta8 O22'
_cell_volume   423.37702100
_cell_formula_units_Z   2
loop_
 _symmetry_equiv_pos_site_id
 _symmetry_equiv_pos_as_xyz
  1  'x, y, z'
loop_
 _atom_site_type_symbol
 _atom_site_label
 _atom_site_symmetry_multiplicity
 _atom_site_fract_x
 _atom_site_fract_y
 _atom_site_fract_z
 _atom_site_occupancy
  Ca  Ca0  1  0.333333  0.666667  0.750000  1
  Ca  Ca1  1  0.666667  0.333333  0.250000  1
  Ta  Ta2  1  0.666667  0.333333  0.750000  1
  Ta  Ta3  1  0.333333  0.666667  0.250000  1
  Ta  Ta4  1  0.642094  0.000000  0.500000  1
  Ta  Ta5  1  0.642094  0.642094  0.000000  1
  Ta  Ta6  1  0.000000  0.357906  0.000000  1
  Ta  Ta7  1  0.000000  0.642094  0.500000  1
  Ta  Ta8  1  0.357906  0.357906  0.500000  1
  Ta  Ta9  1  0.357906  0.000000  0.000000  1
  O  O10  1  0.333333  0.666667  0.533956  1
  O  O11  1  0.666667  0.333333  0.033956  1
  O  O12  1  0.666667  0.333333  0.466044  1
  O  O13  1  0.333333  0.666667  0.966044  1
  O  O14  1  0.244728  0.000000  0.500000  1
  O  O15  1  0.244728  0.244728  0.000000  1
  O  O16  1  0.000000  0.755272  0.000000  1
  O  O17  1  0.000000  0.244728  0.500000  1
  O  O18  1  0.755272  0.755272  0.500000  1
  O  O19  1  0.755272  0.000000  0.000000  1
  O  O20  1  0.379280  0.945174  0.155728  1
  O  O21  1  0.434106  0.379280  0.655728  1
  O  O22  1  0.945174  0.565894  0.655728  1
  O  O23  1  0.054826  0.434106  0.155728  1
  O  O24  1  0.565894  0.620720  0.155728  1
  O  O25  1  0.434106  0.054826  0.844272  1
  O  O26  1  0.620720  0.565894  0.844272  1
  O  O27  1  0.620720  0.054826  0.655728  1
  O  O28  1  0.945174  0.379280  0.844272  1
  O  O29  1  0.054826  0.620720  0.344272  1
  O  O30  1  0.565894  0.945174  0.344272  1
  O  O31  1  0.379280  0.434106  0.344272  1
