# generated using pymatgen
data_LuPS4
_symmetry_space_group_name_H-M   'P 1'
_cell_length_a   8.69401055
_cell_length_b   6.51049352
_cell_length_c   12.55836822
_cell_angle_alpha   90.00000000
_cell_angle_beta   120.51472827
_cell_angle_gamma   90.00000000
_symmetry_Int_Tables_number   1
_chemical_formula_structural   LuPS4
_chemical_formula_sum   'Lu4 P4 S16'
_cell_volume   612.38126565
_cell_formula_units_Z   4
loop_
 _symmetry_equiv_pos_site_id
 _symmetry_equiv_pos_as_xyz
  1  'x, y, z'
loop_
 _atom_site_type_symbol
 _atom_site_label
 _atom_site_symmetry_multiplicity
 _atom_site_fract_x
 _atom_site_fract_y
 _atom_site_fract_z
 _atom_site_occupancy
  Lu  Lu0  1  0.555127  0.322271  0.164428  1
  Lu  Lu1  1  0.444873  0.822271  0.335572  1
  Lu  Lu2  1  0.444873  0.677729  0.835572  1
  Lu  Lu3  1  0.555127  0.177729  0.664429  1
  P  P4  1  0.684251  0.229912  0.960654  1
  P  P5  1  0.315749  0.729912  0.539346  1
  P  P6  1  0.315749  0.770088  0.039346  1
  P  P7  1  0.684251  0.270088  0.460654  1
  S  S8  1  0.419886  0.228331  0.412505  1
  S  S9  1  0.580114  0.728331  0.087495  1
  S  S10  1  0.580114  0.771669  0.587495  1
  S  S11  1  0.419886  0.271669  0.912505  1
  S  S12  1  0.842389  0.254934  0.645226  1
  S  S13  1  0.157611  0.754934  0.854774  1
  S  S14  1  0.157611  0.745066  0.354774  1
  S  S15  1  0.842389  0.245066  0.145226  1
  S  S16  1  0.715223  0.538994  0.384839  1
  S  S17  1  0.284777  0.038994  0.115161  1
  S  S18  1  0.284777  0.461006  0.615161  1
  S  S19  1  0.715223  0.961006  0.884839  1
  S  S20  1  0.735339  0.050875  0.363869  1
  S  S21  1  0.264661  0.550875  0.136131  1
  S  S22  1  0.264661  0.949125  0.636131  1
  S  S23  1  0.735339  0.449125  0.863869  1
