# generated using pymatgen
data_GaBH6
_symmetry_space_group_name_H-M   'P 1'
_cell_length_a   8.40971188
_cell_length_b   8.40971188
_cell_length_c   10.37134899
_cell_angle_alpha   59.93382060
_cell_angle_beta   120.06617940
_cell_angle_gamma   111.97727025
_symmetry_Int_Tables_number   1
_chemical_formula_structural   GaBH6
_chemical_formula_sum   'Ga6 B6 H36'
_cell_volume   541.89984013
_cell_formula_units_Z   6
loop_
 _symmetry_equiv_pos_site_id
 _symmetry_equiv_pos_as_xyz
  1  'x, y, z'
loop_
 _atom_site_type_symbol
 _atom_site_label
 _atom_site_symmetry_multiplicity
 _atom_site_fract_x
 _atom_site_fract_y
 _atom_site_fract_z
 _atom_site_occupancy
  Ga  Ga0  1  0.677777  0.677777  0.750000  1
  Ga  Ga1  1  0.322223  0.322223  0.250000  1
  Ga  Ga2  1  0.699535  0.080183  0.209468  1
  Ga  Ga3  1  0.080183  0.699535  0.290532  1
  Ga  Ga4  1  0.300465  0.919817  0.790532  1
  Ga  Ga5  1  0.919817  0.300465  0.709468  1
  B  B6  1  0.842011  0.842011  0.250000  1
  B  B7  1  0.157989  0.157989  0.750000  1
  B  B8  1  0.716092  0.408644  0.010697  1
  B  B9  1  0.408644  0.716092  0.489303  1
  B  B10  1  0.283908  0.591356  0.989303  1
  B  B11  1  0.591356  0.283908  0.510697  1
  H  H12  1  0.842152  0.009990  0.156243  1
  H  H13  1  0.009990  0.842152  0.343757  1
  H  H14  1  0.157848  0.990010  0.843757  1
  H  H15  1  0.990010  0.157848  0.656243  1
  H  H16  1  0.758274  0.779939  0.337226  1
  H  H17  1  0.779939  0.758274  0.162774  1
  H  H18  1  0.241726  0.220061  0.662774  1
  H  H19  1  0.220061  0.241726  0.837226  1
  H  H20  1  0.588059  0.436653  0.872495  1
  H  H21  1  0.436653  0.588059  0.627505  1
  H  H22  1  0.411941  0.563347  0.127505  1
  H  H23  1  0.563347  0.411941  0.372495  1
  H  H24  1  0.882961  0.165407  0.863978  1
  H  H25  1  0.165407  0.882961  0.636022  1
  H  H26  1  0.117039  0.834593  0.136022  1
  H  H27  1  0.834593  0.117039  0.363978  1
  H  H28  1  0.991815  0.506122  0.625448  1
  H  H29  1  0.506122  0.991815  0.874552  1
  H  H30  1  0.008185  0.493878  0.374552  1
  H  H31  1  0.493878  0.008185  0.125448  1
  H  H32  1  0.185497  0.344097  0.295517  1
  H  H33  1  0.344097  0.185497  0.204483  1
  H  H34  1  0.814503  0.655903  0.704483  1
  H  H35  1  0.655903  0.814503  0.795517  1
  H  H36  1  0.471769  0.146250  0.522097  1
  H  H37  1  0.146250  0.471769  0.977903  1
  H  H38  1  0.528231  0.853750  0.477903  1
  H  H39  1  0.853750  0.528231  0.022097  1
  H  H40  1  0.616971  0.356788  0.596574  1
  H  H41  1  0.356788  0.616971  0.903426  1
  H  H42  1  0.383029  0.643212  0.403426  1
  H  H43  1  0.643212  0.383029  0.096574  1
  H  H44  1  0.727767  0.231463  0.534180  1
  H  H45  1  0.231463  0.727767  0.965820  1
  H  H46  1  0.272233  0.768537  0.465820  1
  H  H47  1  0.768537  0.272233  0.034180  1
