# generated using pymatgen
data_Ba(PrSe2)2
_symmetry_space_group_name_H-M   'P 1'
_cell_length_a   8.02095969
_cell_length_b   8.02095969
_cell_length_c   8.02095969
_cell_angle_alpha   109.39875850
_cell_angle_beta   109.39875850
_cell_angle_gamma   109.61624231
_symmetry_Int_Tables_number   1
_chemical_formula_structural   Ba(PrSe2)2
_chemical_formula_sum   'Ba2 Pr4 Se8'
_cell_volume   397.24187452
_cell_formula_units_Z   2
loop_
 _symmetry_equiv_pos_site_id
 _symmetry_equiv_pos_as_xyz
  1  'x, y, z'
loop_
 _atom_site_type_symbol
 _atom_site_label
 _atom_site_symmetry_multiplicity
 _atom_site_fract_x
 _atom_site_fract_y
 _atom_site_fract_z
 _atom_site_occupancy
  Ba  Ba0  1  0.750000  0.250000  0.500000  1
  Ba  Ba1  1  0.500000  0.500000  0.000000  1
  Pr  Pr2  1  0.125000  0.750683  0.125683  1
  Pr  Pr3  1  0.000683  0.875000  0.625683  1
  Pr  Pr4  1  0.625000  0.999317  0.874317  1
  Pr  Pr5  1  0.249317  0.375000  0.374317  1
  Se  Se6  1  0.355263  0.109161  0.090168  1
  Se  Se7  1  0.515095  0.768993  0.409832  1
  Se  Se8  1  0.890839  0.981007  0.246102  1
  Se  Se9  1  0.018993  0.265095  0.909832  1
  Se  Se10  1  0.359161  0.105263  0.590168  1
  Se  Se11  1  0.231007  0.640839  0.746102  1
  Se  Se12  1  0.894737  0.484905  0.253898  1
  Se  Se13  1  0.734905  0.644737  0.753898  1
