# generated using pymatgen
data_Y(PO3)3
_symmetry_space_group_name_H-M   'P 1'
_cell_length_a   7.09810311
_cell_length_b   9.80218231
_cell_length_c   11.14837132
_cell_angle_alpha   90.00000000
_cell_angle_beta   92.07682083
_cell_angle_gamma   90.00000000
_symmetry_Int_Tables_number   1
_chemical_formula_structural   Y(PO3)3
_chemical_formula_sum   'Y4 P12 O36'
_cell_volume   775.15961576
_cell_formula_units_Z   4
loop_
 _symmetry_equiv_pos_site_id
 _symmetry_equiv_pos_as_xyz
  1  'x, y, z'
loop_
 _atom_site_type_symbol
 _atom_site_label
 _atom_site_symmetry_multiplicity
 _atom_site_fract_x
 _atom_site_fract_y
 _atom_site_fract_z
 _atom_site_occupancy
  Y  Y0  1  0.325497  0.750000  0.537267  1
  Y  Y1  1  0.674503  0.250000  0.462733  1
  Y  Y2  1  0.810664  0.250000  0.980519  1
  Y  Y3  1  0.189336  0.750000  0.019481  1
  P  P4  1  0.679407  0.750000  0.103889  1
  P  P5  1  0.320593  0.250000  0.896111  1
  P  P6  1  0.185725  0.250000  0.373938  1
  P  P7  1  0.814275  0.750000  0.626062  1
  P  P8  1  0.827364  0.466297  0.715825  1
  P  P9  1  0.172636  0.966297  0.284175  1
  P  P10  1  0.172636  0.533703  0.284175  1
  P  P11  1  0.827364  0.033703  0.715825  1
  P  P12  1  0.232673  0.510447  0.768086  1
  P  P13  1  0.767327  0.010447  0.231914  1
  P  P14  1  0.767327  0.489553  0.231914  1
  P  P15  1  0.232673  0.989553  0.768086  1
  O  O16  1  0.346475  0.374762  0.803485  1
  O  O17  1  0.653525  0.874762  0.196515  1
  O  O18  1  0.653525  0.625238  0.196515  1
  O  O19  1  0.346475  0.125238  0.803485  1
  O  O20  1  0.795888  0.628057  0.722242  1
  O  O21  1  0.204112  0.128057  0.277758  1
  O  O22  1  0.204112  0.371943  0.277758  1
  O  O23  1  0.795888  0.871943  0.722242  1
  O  O24  1  0.126329  0.250000  0.944814  1
  O  O25  1  0.873671  0.750000  0.055186  1
  O  O26  1  0.007325  0.750000  0.575586  1
  O  O27  1  0.992675  0.250000  0.424414  1
  O  O28  1  0.488885  0.250000  0.981255  1
  O  O29  1  0.511115  0.750000  0.018745  1
  O  O30  1  0.645742  0.750000  0.540463  1
  O  O31  1  0.354258  0.250000  0.459537  1
  O  O32  1  0.780994  0.089211  0.836242  1
  O  O33  1  0.219006  0.589211  0.163758  1
  O  O34  1  0.219006  0.910789  0.163758  1
  O  O35  1  0.780994  0.410789  0.836242  1
  O  O36  1  0.173881  0.914870  0.878377  1
  O  O37  1  0.826119  0.414870  0.121623  1
  O  O38  1  0.826119  0.085130  0.121623  1
  O  O39  1  0.173881  0.585130  0.878377  1
  O  O40  1  0.730508  0.091907  0.605657  1
  O  O41  1  0.269492  0.591907  0.394343  1
  O  O42  1  0.269492  0.908093  0.394343  1
  O  O43  1  0.730508  0.408093  0.605657  1
  O  O44  1  0.050269  0.050042  0.695514  1
  O  O45  1  0.949731  0.550042  0.304486  1
  O  O46  1  0.949731  0.949958  0.304486  1
  O  O47  1  0.050269  0.449958  0.695514  1
  O  O48  1  0.348232  0.914554  0.679679  1
  O  O49  1  0.651768  0.414554  0.320321  1
  O  O50  1  0.651768  0.085446  0.320321  1
  O  O51  1  0.348232  0.585446  0.679679  1
