# generated using pymatgen
data_TlBF4
_symmetry_space_group_name_H-M   'P 1'
_cell_length_a   5.78331137
_cell_length_b   7.46776078
_cell_length_c   9.30040603
_cell_angle_alpha   90.00000000
_cell_angle_beta   90.00000000
_cell_angle_gamma   90.00000000
_symmetry_Int_Tables_number   1
_chemical_formula_structural   TlBF4
_chemical_formula_sum   'Tl4 B4 F16'
_cell_volume   401.66952398
_cell_formula_units_Z   4
loop_
 _symmetry_equiv_pos_site_id
 _symmetry_equiv_pos_as_xyz
  1  'x, y, z'
loop_
 _atom_site_type_symbol
 _atom_site_label
 _atom_site_symmetry_multiplicity
 _atom_site_fract_x
 _atom_site_fract_y
 _atom_site_fract_z
 _atom_site_occupancy
  Tl  Tl0  1  0.250000  0.334926  0.686495  1
  Tl  Tl1  1  0.750000  0.665074  0.313505  1
  Tl  Tl2  1  0.750000  0.834926  0.813505  1
  Tl  Tl3  1  0.250000  0.165074  0.186495  1
  B  B4  1  0.250000  0.692091  0.061244  1
  B  B5  1  0.250000  0.807909  0.561244  1
  B  B6  1  0.750000  0.192091  0.438756  1
  B  B7  1  0.750000  0.307909  0.938756  1
  F  F8  1  0.549654  0.302894  0.423831  1
  F  F9  1  0.950346  0.197106  0.923831  1
  F  F10  1  0.450346  0.802894  0.076169  1
  F  F11  1  0.049654  0.697106  0.576169  1
  F  F12  1  0.250000  0.561926  0.172091  1
  F  F13  1  0.750000  0.438074  0.827909  1
  F  F14  1  0.750000  0.061926  0.327909  1
  F  F15  1  0.250000  0.938074  0.672091  1
  F  F16  1  0.250000  0.611129  0.924638  1
  F  F17  1  0.750000  0.388871  0.075362  1
  F  F18  1  0.750000  0.111129  0.575362  1
  F  F19  1  0.250000  0.888871  0.424638  1
  F  F20  1  0.049654  0.802894  0.076169  1
  F  F21  1  0.549654  0.197106  0.923831  1
  F  F22  1  0.950346  0.302894  0.423831  1
  F  F23  1  0.450346  0.697106  0.576169  1
