# generated using pymatgen
data_Cs3BS3
_symmetry_space_group_name_H-M   'P 1'
_cell_length_a   10.86465492
_cell_length_b   6.74323857
_cell_length_c   13.84288799
_cell_angle_alpha   90.00000000
_cell_angle_beta   102.86503621
_cell_angle_gamma   90.00000000
_symmetry_Int_Tables_number   1
_chemical_formula_structural   Cs3BS3
_chemical_formula_sum   'Cs12 B4 S12'
_cell_volume   988.71246808
_cell_formula_units_Z   4
loop_
 _symmetry_equiv_pos_site_id
 _symmetry_equiv_pos_as_xyz
  1  'x, y, z'
loop_
 _atom_site_type_symbol
 _atom_site_label
 _atom_site_symmetry_multiplicity
 _atom_site_fract_x
 _atom_site_fract_y
 _atom_site_fract_z
 _atom_site_occupancy
  Cs  Cs0  1  0.753913  0.648447  0.991261  1
  Cs  Cs1  1  0.246087  0.148447  0.508739  1
  Cs  Cs2  1  0.246087  0.351553  0.008739  1
  Cs  Cs3  1  0.753913  0.851553  0.491261  1
  Cs  Cs4  1  0.531926  0.286044  0.357715  1
  Cs  Cs5  1  0.468074  0.786044  0.142285  1
  Cs  Cs6  1  0.468074  0.713956  0.642285  1
  Cs  Cs7  1  0.531926  0.213956  0.857715  1
  Cs  Cs8  1  0.903486  0.447710  0.302385  1
  Cs  Cs9  1  0.096514  0.947710  0.197615  1
  Cs  Cs10  1  0.096514  0.552290  0.697615  1
  Cs  Cs11  1  0.903486  0.052290  0.802385  1
  B  B12  1  0.735067  0.126986  0.126203  1
  B  B13  1  0.264933  0.626986  0.373797  1
  B  B14  1  0.264933  0.873014  0.873797  1
  B  B15  1  0.735067  0.373014  0.626203  1
  S  S16  1  0.779431  0.943435  0.227079  1
  S  S17  1  0.220569  0.443435  0.272921  1
  S  S18  1  0.220569  0.056565  0.772921  1
  S  S19  1  0.779431  0.556565  0.727079  1
  S  S20  1  0.595545  0.286541  0.118533  1
  S  S21  1  0.404455  0.786541  0.381467  1
  S  S22  1  0.404455  0.713459  0.881467  1
  S  S23  1  0.595545  0.213459  0.618533  1
  S  S24  1  0.833816  0.345371  0.535030  1
  S  S25  1  0.166184  0.845371  0.964970  1
  S  S26  1  0.166184  0.654629  0.464970  1
  S  S27  1  0.833816  0.154629  0.035030  1
