# generated using pymatgen
data_NbCl4
_symmetry_space_group_name_H-M   'P 1'
_cell_length_a   7.40952603
_cell_length_b   7.40952603
_cell_length_c   8.73878363
_cell_angle_alpha   55.08849052
_cell_angle_beta   124.91150948
_cell_angle_gamma   124.52592382
_symmetry_Int_Tables_number   1
_chemical_formula_structural   NbCl4
_chemical_formula_sum   'Nb2 Cl8'
_cell_volume   301.51754200
_cell_formula_units_Z   2
loop_
 _symmetry_equiv_pos_site_id
 _symmetry_equiv_pos_as_xyz
  1  'x, y, z'
loop_
 _atom_site_type_symbol
 _atom_site_label
 _atom_site_symmetry_multiplicity
 _atom_site_fract_x
 _atom_site_fract_y
 _atom_site_fract_z
 _atom_site_occupancy
  Nb  Nb0  1  0.220004  0.220004  0.000000  1
  Nb  Nb1  1  0.779996  0.779996  0.000000  1
  Cl  Cl2  1  0.333200  0.666800  0.855599  1
  Cl  Cl3  1  0.666800  0.333200  0.144401  1
  Cl  Cl4  1  0.191770  0.808230  0.166007  1
  Cl  Cl5  1  0.808230  0.191770  0.833993  1
  Cl  Cl6  1  0.776738  0.734403  0.284648  1
  Cl  Cl7  1  0.734403  0.776738  0.715352  1
  Cl  Cl8  1  0.223262  0.265597  0.715352  1
  Cl  Cl9  1  0.265597  0.223262  0.284648  1
