# generated using pymatgen
data_Hg3(SeBr)2
_symmetry_space_group_name_H-M   'P 1'
_cell_length_a   10.37238826
_cell_length_b   10.37238826
_cell_length_c   10.07436103
_cell_angle_alpha   89.46646266
_cell_angle_beta   90.53353734
_cell_angle_gamma   124.42585154
_symmetry_Int_Tables_number   1
_chemical_formula_structural   Hg3(SeBr)2
_chemical_formula_sum   'Hg12 Se8 Br8'
_cell_volume   893.98542384
_cell_formula_units_Z   4
loop_
 _symmetry_equiv_pos_site_id
 _symmetry_equiv_pos_as_xyz
  1  'x, y, z'
loop_
 _atom_site_type_symbol
 _atom_site_label
 _atom_site_symmetry_multiplicity
 _atom_site_fract_x
 _atom_site_fract_y
 _atom_site_fract_z
 _atom_site_occupancy
  Hg  Hg0  1  0.896714  0.650426  0.202038  1
  Hg  Hg1  1  0.650426  0.896714  0.797962  1
  Hg  Hg2  1  0.103286  0.349574  0.797962  1
  Hg  Hg3  1  0.349574  0.103286  0.202038  1
  Hg  Hg4  1  0.000000  0.500000  0.500000  1
  Hg  Hg5  1  0.500000  0.000000  0.500000  1
  Hg  Hg6  1  0.764091  0.764091  0.500000  1
  Hg  Hg7  1  0.235909  0.235909  0.500000  1
  Hg  Hg8  1  0.524384  0.475616  0.770864  1
  Hg  Hg9  1  0.475616  0.524384  0.229136  1
  Hg  Hg10  1  0.230692  0.769308  0.787293  1
  Hg  Hg11  1  0.769308  0.230692  0.212707  1
  Se  Se12  1  0.778279  0.747699  0.753132  1
  Se  Se13  1  0.252301  0.221721  0.753132  1
  Se  Se14  1  0.221721  0.252301  0.246868  1
  Se  Se15  1  0.500423  0.976210  0.246891  1
  Se  Se16  1  0.976210  0.500423  0.753109  1
  Se  Se17  1  0.499577  0.023790  0.753109  1
  Se  Se18  1  0.023790  0.499577  0.246891  1
  Se  Se19  1  0.747699  0.778279  0.246868  1
  Br  Br20  1  0.375903  0.624097  0.510437  1
  Br  Br21  1  0.874470  0.125530  0.523965  1
  Br  Br22  1  0.125530  0.874470  0.476035  1
  Br  Br23  1  0.877756  0.122244  0.991267  1
  Br  Br24  1  0.122244  0.877756  0.008733  1
  Br  Br25  1  0.621681  0.378319  0.026890  1
  Br  Br26  1  0.378319  0.621681  0.973110  1
  Br  Br27  1  0.624097  0.375903  0.489563  1
