# generated using pymatgen
data_Rb6Br4O
_symmetry_space_group_name_H-M   'P 1'
_cell_length_a   9.52394285
_cell_length_b   9.52394285
_cell_length_c   9.52394285
_cell_angle_alpha   89.08636787
_cell_angle_beta   89.08636787
_cell_angle_gamma   89.08636787
_symmetry_Int_Tables_number   1
_chemical_formula_structural   Rb6Br4O
_chemical_formula_sum   'Rb12 Br8 O2'
_cell_volume   863.54785904
_cell_formula_units_Z   2
loop_
 _symmetry_equiv_pos_site_id
 _symmetry_equiv_pos_as_xyz
  1  'x, y, z'
loop_
 _atom_site_type_symbol
 _atom_site_label
 _atom_site_symmetry_multiplicity
 _atom_site_fract_x
 _atom_site_fract_y
 _atom_site_fract_z
 _atom_site_occupancy
  Rb  Rb0  1  0.274938  0.070104  0.942327  1
  Rb  Rb1  1  0.942327  0.274938  0.070104  1
  Rb  Rb2  1  0.070104  0.942327  0.274938  1
  Rb  Rb3  1  0.225062  0.557673  0.429896  1
  Rb  Rb4  1  0.557673  0.429896  0.225062  1
  Rb  Rb5  1  0.429896  0.225062  0.557673  1
  Rb  Rb6  1  0.057673  0.725062  0.929896  1
  Rb  Rb7  1  0.725062  0.929896  0.057673  1
  Rb  Rb8  1  0.929896  0.057673  0.725062  1
  Rb  Rb9  1  0.774938  0.442327  0.570104  1
  Rb  Rb10  1  0.442327  0.570104  0.774938  1
  Rb  Rb11  1  0.570104  0.774938  0.442327  1
  Br  Br12  1  0.250000  0.250000  0.250000  1
  Br  Br13  1  0.750000  0.750000  0.750000  1
  Br  Br14  1  0.879021  0.620979  0.250000  1
  Br  Br15  1  0.620979  0.250000  0.879021  1
  Br  Br16  1  0.250000  0.879021  0.620979  1
  Br  Br17  1  0.120979  0.379021  0.750000  1
  Br  Br18  1  0.379021  0.750000  0.120979  1
  Br  Br19  1  0.750000  0.120979  0.379021  1
  O  O20  1  0.500000  0.500000  0.500000  1
  O  O21  1  0.000000  0.000000  0.000000  1
