# generated using pymatgen
data_SrZrO3
_symmetry_space_group_name_H-M   'P 1'
_cell_length_a   5.87599142
_cell_length_b   5.87599142
_cell_length_c   8.33699914
_cell_angle_alpha   90.00000000
_cell_angle_beta   90.00000000
_cell_angle_gamma   90.56694255
_symmetry_Int_Tables_number   1
_chemical_formula_structural   SrZrO3
_chemical_formula_sum   'Sr4 Zr4 O12'
_cell_volume   287.83977098
_cell_formula_units_Z   4
loop_
 _symmetry_equiv_pos_site_id
 _symmetry_equiv_pos_as_xyz
  1  'x, y, z'
loop_
 _atom_site_type_symbol
 _atom_site_label
 _atom_site_symmetry_multiplicity
 _atom_site_fract_x
 _atom_site_fract_y
 _atom_site_fract_z
 _atom_site_occupancy
  Sr  Sr0  1  0.012446  0.987554  0.250000  1
  Sr  Sr1  1  0.987554  0.012446  0.750000  1
  Sr  Sr2  1  0.505141  0.494859  0.250000  1
  Sr  Sr3  1  0.494859  0.505141  0.750000  1
  Zr  Zr4  1  0.000000  0.500000  0.000000  1
  Zr  Zr5  1  0.000000  0.500000  0.500000  1
  Zr  Zr6  1  0.500000  1.000000  0.000000  1
  Zr  Zr7  1  0.500000  1.000000  0.500000  1
  O  O8  1  0.447274  0.958096  0.250000  1
  O  O9  1  0.552726  0.041904  0.750000  1
  O  O10  1  0.958096  0.447274  0.750000  1
  O  O11  1  0.041904  0.552726  0.250000  1
  O  O12  1  0.790722  0.209278  0.455228  1
  O  O13  1  0.209278  0.790722  0.955228  1
  O  O14  1  0.209278  0.790722  0.544772  1
  O  O15  1  0.790722  0.209278  0.044772  1
  O  O16  1  0.294066  0.294066  1.000000  1
  O  O17  1  0.705934  0.705934  0.500000  1
  O  O18  1  0.705934  0.705934  1.000000  1
  O  O19  1  0.294066  0.294066  0.500000  1
