# generated using pymatgen
data_Pr2Si2O7
_symmetry_space_group_name_H-M   'P 1'
_cell_length_a   6.85816189
_cell_length_b   6.85816189
_cell_length_c   24.96009096
_cell_angle_alpha   90.00000000
_cell_angle_beta   90.00000000
_cell_angle_gamma   90.00000000
_symmetry_Int_Tables_number   1
_chemical_formula_structural   Pr2Si2O7
_chemical_formula_sum   'Pr16 Si16 O56'
_cell_volume   1173.98251560
_cell_formula_units_Z   8
loop_
 _symmetry_equiv_pos_site_id
 _symmetry_equiv_pos_as_xyz
  1  'x, y, z'
loop_
 _atom_site_type_symbol
 _atom_site_label
 _atom_site_symmetry_multiplicity
 _atom_site_fract_x
 _atom_site_fract_y
 _atom_site_fract_z
 _atom_site_occupancy
  Pr  Pr0  1  0.869253  0.241390  0.633205  1
  Pr  Pr1  1  0.758610  0.869253  0.883205  1
  Pr  Pr2  1  0.241390  0.130747  0.383205  1
  Pr  Pr3  1  0.130747  0.758610  0.133205  1
  Pr  Pr4  1  0.658676  0.083053  0.495161  1
  Pr  Pr5  1  0.916947  0.658676  0.745161  1
  Pr  Pr6  1  0.083053  0.341324  0.245161  1
  Pr  Pr7  1  0.341324  0.916947  0.995161  1
  Pr  Pr8  1  0.477090  0.832697  0.641502  1
  Pr  Pr9  1  0.167303  0.477090  0.891502  1
  Pr  Pr10  1  0.832697  0.522910  0.391502  1
  Pr  Pr11  1  0.522910  0.167303  0.141502  1
  Pr  Pr12  1  0.225496  0.706437  0.494665  1
  Pr  Pr13  1  0.293563  0.225496  0.744665  1
  Pr  Pr14  1  0.706437  0.774504  0.244665  1
  Pr  Pr15  1  0.774504  0.293563  0.994665  1
  Si  Si16  1  0.982921  0.713110  0.613983  1
  Si  Si17  1  0.286890  0.982921  0.863983  1
  Si  Si18  1  0.713110  0.017079  0.363983  1
  Si  Si19  1  0.017079  0.286890  0.113983  1
  Si  Si20  1  0.733012  0.625437  0.513963  1
  Si  Si21  1  0.374563  0.733012  0.763963  1
  Si  Si22  1  0.625437  0.266988  0.263963  1
  Si  Si23  1  0.266988  0.374563  0.013963  1
  Si  Si24  1  0.396217  0.306741  0.607157  1
  Si  Si25  1  0.693259  0.396217  0.857157  1
  Si  Si26  1  0.306741  0.603784  0.357157  1
  Si  Si27  1  0.603784  0.693259  0.107157  1
  Si  Si28  1  0.145240  0.240121  0.508667  1
  Si  Si29  1  0.759879  0.145240  0.758667  1
  Si  Si30  1  0.240121  0.854760  0.258667  1
  Si  Si31  1  0.854760  0.759879  0.008667  1
  O  O32  1  0.183591  0.794630  0.588100  1
  O  O33  1  0.205370  0.183591  0.838100  1
  O  O34  1  0.794630  0.816409  0.338100  1
  O  O35  1  0.816409  0.205370  0.088100  1
  O  O36  1  0.837621  0.879323  0.638357  1
  O  O37  1  0.120677  0.837621  0.888357  1
  O  O38  1  0.879323  0.162379  0.388357  1
  O  O39  1  0.162379  0.120677  0.138357  1
  O  O40  1  0.014858  0.548608  0.660155  1
  O  O41  1  0.451392  0.014858  0.910155  1
  O  O42  1  0.548608  0.985142  0.410155  1
  O  O43  1  0.985142  0.451392  0.160155  1
  O  O44  1  0.875475  0.575711  0.566213  1
  O  O45  1  0.424289  0.875475  0.816213  1
  O  O46  1  0.575711  0.124525  0.316213  1
  O  O47  1  0.124525  0.424289  0.066213  1
  O  O48  1  0.867461  0.762732  0.473719  1
  O  O49  1  0.237268  0.867461  0.723719  1
  O  O50  1  0.762732  0.132539  0.223719  1
  O  O51  1  0.132539  0.237268  0.973719  1
  O  O52  1  0.549593  0.763006  0.532879  1
  O  O53  1  0.557450  0.138954  0.588205  1
  O  O54  1  0.236994  0.549593  0.782879  1
  O  O55  1  0.450407  0.236994  0.032879  1
  O  O56  1  0.671175  0.429552  0.482202  1
  O  O57  1  0.570448  0.671175  0.732202  1
  O  O58  1  0.429552  0.328825  0.232202  1
  O  O59  1  0.328825  0.570448  0.982202  1
  O  O60  1  0.239784  0.198174  0.647008  1
  O  O61  1  0.801826  0.239784  0.897008  1
  O  O62  1  0.198174  0.760216  0.397008  1
  O  O63  1  0.760216  0.801826  0.147008  1
  O  O64  1  0.891103  0.608598  0.958453  1
  O  O65  1  0.391402  0.891103  0.208453  1
  O  O66  1  0.608598  0.108897  0.708453  1
  O  O67  1  0.108897  0.391402  0.458453  1
  O  O68  1  0.723660  0.938556  0.983848  1
  O  O69  1  0.061444  0.723660  0.233848  1
  O  O70  1  0.938556  0.276340  0.733848  1
  O  O71  1  0.276340  0.061444  0.483848  1
  O  O72  1  0.045475  0.839683  0.040312  1
  O  O73  1  0.160317  0.045475  0.290312  1
  O  O74  1  0.839683  0.954525  0.790312  1
  O  O75  1  0.954525  0.160317  0.540312  1
  O  O76  1  0.721396  0.623680  0.050847  1
  O  O77  1  0.376320  0.721396  0.300847  1
  O  O78  1  0.623680  0.278604  0.800847  1
  O  O79  1  0.278604  0.376320  0.550847  1
  O  O80  1  0.480290  0.514629  0.131991  1
  O  O81  1  0.485371  0.480290  0.381991  1
  O  O82  1  0.514629  0.519710  0.881991  1
  O  O83  1  0.519710  0.485371  0.631991  1
  O  O84  1  0.442550  0.861046  0.088205  1
  O  O85  1  0.138954  0.442550  0.338205  1
  O  O86  1  0.861046  0.557450  0.838205  1
  O  O87  1  0.763006  0.450407  0.282879  1
