# generated using pymatgen
data_Ba2V3O9
_symmetry_space_group_name_H-M   'P 1'
_cell_length_a   8.51145919
_cell_length_b   5.96825624
_cell_length_c   9.47349080
_cell_angle_alpha   90.00000000
_cell_angle_beta   114.27705902
_cell_angle_gamma   90.00000000
_symmetry_Int_Tables_number   1
_chemical_formula_structural   Ba2V3O9
_chemical_formula_sum   'Ba4 V6 O18'
_cell_volume   438.68277027
_cell_formula_units_Z   2
loop_
 _symmetry_equiv_pos_site_id
 _symmetry_equiv_pos_as_xyz
  1  'x, y, z'
loop_
 _atom_site_type_symbol
 _atom_site_label
 _atom_site_symmetry_multiplicity
 _atom_site_fract_x
 _atom_site_fract_y
 _atom_site_fract_z
 _atom_site_occupancy
  Ba  Ba0  1  0.798910  0.250373  0.909618  1
  Ba  Ba1  1  0.201090  0.750373  0.090382  1
  Ba  Ba2  1  0.208615  0.247974  0.736034  1
  Ba  Ba3  1  0.791385  0.747974  0.263966  1
  V  V4  1  0.513131  0.019478  0.506441  1
  V  V5  1  0.486869  0.519478  0.493559  1
  V  V6  1  0.482953  0.250138  0.179582  1
  V  V7  1  0.082332  0.249949  0.310651  1
  V  V8  1  0.517047  0.750138  0.820418  1
  V  V9  1  0.917668  0.749949  0.689349  1
  O  O10  1  0.679861  0.753720  0.574674  1
  O  O11  1  0.011764  0.018445  0.192541  1
  O  O12  1  0.988236  0.518445  0.807459  1
  O  O13  1  0.989335  0.978739  0.810337  1
  O  O14  1  0.348737  0.748302  0.428373  1
  O  O15  1  0.010665  0.478739  0.189663  1
  O  O16  1  0.320139  0.253720  0.425326  1
  O  O17  1  0.522311  0.496839  0.296303  1
  O  O18  1  0.613768  0.249739  0.083650  1
  O  O19  1  0.016310  0.752688  0.566498  1
  O  O20  1  0.651263  0.248302  0.571627  1
  O  O21  1  0.983690  0.252688  0.433502  1
  O  O22  1  0.479093  0.503743  0.703742  1
  O  O23  1  0.272494  0.250731  0.048666  1
  O  O24  1  0.520907  0.003743  0.296258  1
  O  O25  1  0.386232  0.749739  0.916350  1
  O  O26  1  0.727506  0.750731  0.951334  1
  O  O27  1  0.477689  0.996839  0.703697  1
