# generated using pymatgen
data_TaBiO4
_symmetry_space_group_name_H-M   'P 1'
_cell_length_a   5.05025164
_cell_length_b   5.73732320
_cell_length_c   11.88860305
_cell_angle_alpha   90.00000000
_cell_angle_beta   90.00000000
_cell_angle_gamma   90.00000000
_symmetry_Int_Tables_number   1
_chemical_formula_structural   TaBiO4
_chemical_formula_sum   'Ta4 Bi4 O16'
_cell_volume   344.47139243
_cell_formula_units_Z   4
loop_
 _symmetry_equiv_pos_site_id
 _symmetry_equiv_pos_as_xyz
  1  'x, y, z'
loop_
 _atom_site_type_symbol
 _atom_site_label
 _atom_site_symmetry_multiplicity
 _atom_site_fract_x
 _atom_site_fract_y
 _atom_site_fract_z
 _atom_site_occupancy
  Ta  Ta0  1  0.750000  0.864039  0.250000  1
  Ta  Ta1  1  0.750000  0.635961  0.750000  1
  Ta  Ta2  1  0.250000  0.135961  0.750000  1
  Ta  Ta3  1  0.250000  0.364039  0.250000  1
  Bi  Bi4  1  0.219458  0.750000  0.500000  1
  Bi  Bi5  1  0.280542  0.750000  0.000000  1
  Bi  Bi6  1  0.780542  0.250000  0.500000  1
  Bi  Bi7  1  0.719458  0.250000  0.000000  1
  O  O8  1  0.090974  0.083436  0.597667  1
  O  O9  1  0.090974  0.416564  0.402333  1
  O  O10  1  0.409026  0.083436  0.902333  1
  O  O11  1  0.409026  0.416564  0.097667  1
  O  O12  1  0.909026  0.916564  0.402333  1
  O  O13  1  0.909026  0.583436  0.597667  1
  O  O14  1  0.590974  0.916564  0.097667  1
  O  O15  1  0.590974  0.583436  0.902333  1
  O  O16  1  0.505836  0.145509  0.303797  1
  O  O17  1  0.505836  0.354491  0.696203  1
  O  O18  1  0.994164  0.145509  0.196203  1
  O  O19  1  0.994164  0.354491  0.803797  1
  O  O20  1  0.494164  0.854491  0.696203  1
  O  O21  1  0.494164  0.645509  0.303797  1
  O  O22  1  0.005836  0.854491  0.803797  1
  O  O23  1  0.005836  0.645509  0.196203  1
