# generated using pymatgen
data_Sr(AsS2)2
_symmetry_space_group_name_H-M   'P 1'
_cell_length_a   5.87803995
_cell_length_b   5.99903198
_cell_length_c   6.00892966
_cell_angle_alpha   103.05653784
_cell_angle_beta   92.79795319
_cell_angle_gamma   106.71019806
_symmetry_Int_Tables_number   1
_chemical_formula_structural   Sr(AsS2)2
_chemical_formula_sum   'Sr1 As2 S4'
_cell_volume   196.22049719
_cell_formula_units_Z   1
loop_
 _symmetry_equiv_pos_site_id
 _symmetry_equiv_pos_as_xyz
  1  'x, y, z'
loop_
 _atom_site_type_symbol
 _atom_site_label
 _atom_site_symmetry_multiplicity
 _atom_site_fract_x
 _atom_site_fract_y
 _atom_site_fract_z
 _atom_site_occupancy
  Sr  Sr0  1  0.804497  0.545356  0.265733  1
  As  As1  1  0.535499  0.976916  0.547328  1
  As  As2  1  0.229129  0.439239  0.736628  1
  S  S3  1  0.852801  0.461772  0.754957  1
  S  S4  1  0.612021  0.998863  0.196147  1
  S  S5  1  0.307392  0.543939  0.392048  1
  S  S6  1  0.158661  0.033916  0.607160  1
