# generated using pymatgen
data_LiV2(PO4)3
_symmetry_space_group_name_H-M   'P 1'
_cell_length_a   8.52579738
_cell_length_b   8.52579738
_cell_length_c   8.52579738
_cell_angle_alpha   60.49291415
_cell_angle_beta   60.49291415
_cell_angle_gamma   60.49291415
_symmetry_Int_Tables_number   1
_chemical_formula_structural   LiV2(PO4)3
_chemical_formula_sum   'Li2 V4 P6 O24'
_cell_volume   443.09969767
_cell_formula_units_Z   2
loop_
 _symmetry_equiv_pos_site_id
 _symmetry_equiv_pos_as_xyz
  1  'x, y, z'
loop_
 _atom_site_type_symbol
 _atom_site_label
 _atom_site_symmetry_multiplicity
 _atom_site_fract_x
 _atom_site_fract_y
 _atom_site_fract_z
 _atom_site_occupancy
  Li  Li0  1  0.500000  0.500000  0.500000  1
  Li  Li1  1  0.000000  0.000000  0.000000  1
  V  V2  1  0.140806  0.140806  0.140806  1
  V  V3  1  0.359194  0.359194  0.359194  1
  V  V4  1  0.640806  0.640806  0.640806  1
  V  V5  1  0.859194  0.859194  0.859194  1
  P  P6  1  0.039926  0.460074  0.750000  1
  P  P7  1  0.460074  0.750000  0.039926  1
  P  P8  1  0.750000  0.039926  0.460074  1
  P  P9  1  0.250000  0.960074  0.539926  1
  P  P10  1  0.539926  0.250000  0.960074  1
  P  P11  1  0.960074  0.539926  0.250000  1
  O  O12  1  0.943887  0.732082  0.084943  1
  O  O13  1  0.124051  0.498196  0.308367  1
  O  O14  1  0.498196  0.308367  0.124051  1
  O  O15  1  0.232082  0.443887  0.584943  1
  O  O16  1  0.267918  0.915057  0.056113  1
  O  O17  1  0.915057  0.056113  0.267918  1
  O  O18  1  0.584943  0.232082  0.443887  1
  O  O19  1  0.624051  0.808367  0.998196  1
  O  O20  1  0.556113  0.415057  0.767918  1
  O  O21  1  0.191633  0.001804  0.375949  1
  O  O22  1  0.001804  0.375949  0.191633  1
  O  O23  1  0.308367  0.124051  0.498196  1
  O  O24  1  0.691633  0.875949  0.501804  1
  O  O25  1  0.056113  0.267918  0.915057  1
  O  O26  1  0.808367  0.998196  0.624051  1
  O  O27  1  0.443887  0.584943  0.232082  1
  O  O28  1  0.998196  0.624051  0.808367  1
  O  O29  1  0.415057  0.767918  0.556113  1
  O  O30  1  0.084943  0.943887  0.732082  1
  O  O31  1  0.732082  0.084943  0.943887  1
  O  O32  1  0.767918  0.556113  0.415057  1
  O  O33  1  0.501804  0.691633  0.875949  1
  O  O34  1  0.875949  0.501804  0.691633  1
  O  O35  1  0.375949  0.191633  0.001804  1
