# generated using pymatgen
data_Na2SO4
_symmetry_space_group_name_H-M   'P 1'
_cell_length_a   5.35490276
_cell_length_b   5.35490276
_cell_length_c   7.02748456
_cell_angle_alpha   90.00000000
_cell_angle_beta   90.00000000
_cell_angle_gamma   115.55854952
_symmetry_Int_Tables_number   1
_chemical_formula_structural   Na2SO4
_chemical_formula_sum   'Na4 S2 O8'
_cell_volume   181.79392567
_cell_formula_units_Z   2
loop_
 _symmetry_equiv_pos_site_id
 _symmetry_equiv_pos_as_xyz
  1  'x, y, z'
loop_
 _atom_site_type_symbol
 _atom_site_label
 _atom_site_symmetry_multiplicity
 _atom_site_fract_x
 _atom_site_fract_y
 _atom_site_fract_z
 _atom_site_occupancy
  Na  Na0  1  0.814843  0.185157  0.250000  1
  Na  Na1  1  0.185157  0.814843  0.750000  1
  Na  Na2  1  0.500000  0.500000  0.500000  1
  Na  Na3  1  0.500000  0.500000  0.000000  1
  S  S4  1  0.151568  0.848432  0.250000  1
  S  S5  1  0.848432  0.151568  0.750000  1
  O  O6  1  0.753822  0.246178  0.922292  1
  O  O7  1  0.246178  0.753822  0.422292  1
  O  O8  1  0.246178  0.753822  0.077708  1
  O  O9  1  0.753822  0.246178  0.577708  1
  O  O10  1  0.267703  0.159085  0.250000  1
  O  O11  1  0.732297  0.840915  0.750000  1
  O  O12  1  0.840915  0.732297  0.250000  1
  O  O13  1  0.159085  0.267703  0.750000  1
