# generated using pymatgen
data_Y2Au5F21
_symmetry_space_group_name_H-M   'P 1'
_cell_length_a   9.20319144
_cell_length_b   8.12708527
_cell_length_c   15.12257690
_cell_angle_alpha   90.00000000
_cell_angle_beta   126.55683534
_cell_angle_gamma   90.00000000
_symmetry_Int_Tables_number   1
_chemical_formula_structural   Y2Au5F21
_chemical_formula_sum   'Y4 Au10 F42'
_cell_volume   908.57061614
_cell_formula_units_Z   2
loop_
 _symmetry_equiv_pos_site_id
 _symmetry_equiv_pos_as_xyz
  1  'x, y, z'
loop_
 _atom_site_type_symbol
 _atom_site_label
 _atom_site_symmetry_multiplicity
 _atom_site_fract_x
 _atom_site_fract_y
 _atom_site_fract_z
 _atom_site_occupancy
  Y  Y0  1  0.184741  0.667949  0.502038  1
  Y  Y1  1  0.815259  0.667949  0.997962  1
  Y  Y2  1  0.815259  0.332051  0.497962  1
  Y  Y3  1  0.184741  0.332051  0.002038  1
  Au  Au4  1  0.305802  0.560154  0.293634  1
  Au  Au5  1  0.694198  0.560154  0.206366  1
  Au  Au6  1  0.127880  0.831805  0.904868  1
  Au  Au7  1  0.872120  0.831805  0.595132  1
  Au  Au8  1  0.872120  0.168195  0.095132  1
  Au  Au9  1  0.127880  0.168195  0.404868  1
  Au  Au10  1  0.305802  0.439846  0.793634  1
  Au  Au11  1  0.694198  0.439846  0.706366  1
  Au  Au12  1  0.500000  0.018007  0.750000  1
  Au  Au13  1  0.500000  0.981993  0.250000  1
  F  F14  1  0.306658  0.416850  0.189371  1
  F  F15  1  0.693342  0.416850  0.310629  1
  F  F16  1  0.693342  0.583150  0.810629  1
  F  F17  1  0.306658  0.583150  0.689371  1
  F  F18  1  0.857276  0.410090  0.102549  1
  F  F19  1  0.142724  0.410090  0.397451  1
  F  F20  1  0.142724  0.589910  0.897451  1
  F  F21  1  0.857276  0.589910  0.602549  1
  F  F22  1  0.015148  0.174922  0.035130  1
  F  F23  1  0.984852  0.174922  0.464870  1
  F  F24  1  0.984852  0.825078  0.964870  1
  F  F25  1  0.015148  0.825078  0.535130  1
  F  F26  1  0.396215  0.149274  0.130850  1
  F  F27  1  0.603785  0.149274  0.369150  1
  F  F28  1  0.918399  0.674093  0.321067  1
  F  F29  1  0.081601  0.674093  0.178933  1
  F  F30  1  0.081601  0.325907  0.678933  1
  F  F31  1  0.918399  0.325907  0.821067  1
  F  F32  1  0.880395  0.926693  0.090024  1
  F  F33  1  0.119605  0.926693  0.409976  1
  F  F34  1  0.119605  0.073307  0.909976  1
  F  F35  1  0.880395  0.073307  0.590024  1
  F  F36  1  0.695709  0.699761  0.100341  1
  F  F37  1  0.304291  0.699761  0.399659  1
  F  F38  1  0.304291  0.300239  0.899659  1
  F  F39  1  0.695709  0.300239  0.600341  1
  F  F40  1  0.746958  0.153788  0.162020  1
  F  F41  1  0.253042  0.153788  0.337980  1
  F  F42  1  0.253042  0.846212  0.837980  1
  F  F43  1  0.746958  0.846212  0.662020  1
  F  F44  1  0.000000  0.500000  0.000000  1
  F  F45  1  0.000000  0.500000  0.500000  1
  F  F46  1  0.462672  0.536398  0.584498  1
  F  F47  1  0.537328  0.536398  0.915502  1
  F  F48  1  0.537328  0.463602  0.415502  1
  F  F49  1  0.462672  0.463602  0.084498  1
  F  F50  1  0.400697  0.189535  0.638990  1
  F  F51  1  0.599303  0.189535  0.861010  1
  F  F52  1  0.599303  0.810465  0.361010  1
  F  F53  1  0.400697  0.810465  0.138990  1
  F  F54  1  0.396215  0.850726  0.630850  1
  F  F55  1  0.603785  0.850726  0.869150  1
