# generated using pymatgen
data_RbBi
_symmetry_space_group_name_H-M   'P 1'
_cell_length_a   14.22469957
_cell_length_b   7.65941571
_cell_length_c   15.14759978
_cell_angle_alpha   90.00000000
_cell_angle_beta   113.21788191
_cell_angle_gamma   90.00000000
_symmetry_Int_Tables_number   1
_chemical_formula_structural   RbBi
_chemical_formula_sum   'Rb16 Bi16'
_cell_volume   1516.71475432
_cell_formula_units_Z   16
loop_
 _symmetry_equiv_pos_site_id
 _symmetry_equiv_pos_as_xyz
  1  'x, y, z'
loop_
 _atom_site_type_symbol
 _atom_site_label
 _atom_site_symmetry_multiplicity
 _atom_site_fract_x
 _atom_site_fract_y
 _atom_site_fract_z
 _atom_site_occupancy
  Rb  Rb0  1  0.449571  0.857745  0.148151  1
  Rb  Rb1  1  0.050429  0.357745  0.851849  1
  Rb  Rb2  1  0.550429  0.142255  0.851849  1
  Rb  Rb3  1  0.949571  0.642255  0.148151  1
  Rb  Rb4  1  0.309646  0.577227  0.343434  1
  Rb  Rb5  1  0.190354  0.077227  0.656566  1
  Rb  Rb6  1  0.690354  0.422773  0.656566  1
  Rb  Rb7  1  0.809646  0.922773  0.343434  1
  Rb  Rb8  1  0.464921  0.804817  0.604238  1
  Rb  Rb9  1  0.035079  0.304817  0.395762  1
  Rb  Rb10  1  0.535079  0.195183  0.395762  1
  Rb  Rb11  1  0.964921  0.695183  0.604238  1
  Rb  Rb12  1  0.354626  0.617084  0.875178  1
  Rb  Rb13  1  0.145374  0.117084  0.124822  1
  Rb  Rb14  1  0.645374  0.382916  0.124822  1
  Rb  Rb15  1  0.854626  0.882916  0.875178  1
  Bi  Bi16  1  0.119794  0.799080  0.426865  1
  Bi  Bi17  1  0.380206  0.299080  0.573135  1
  Bi  Bi18  1  0.880206  0.200920  0.573135  1
  Bi  Bi19  1  0.619794  0.700920  0.426865  1
  Bi  Bi20  1  0.230309  0.565832  0.601714  1
  Bi  Bi21  1  0.269691  0.065832  0.398286  1
  Bi  Bi22  1  0.769691  0.434168  0.398286  1
  Bi  Bi23  1  0.730309  0.934168  0.601714  1
  Bi  Bi24  1  0.137438  0.874124  0.896684  1
  Bi  Bi25  1  0.362562  0.374124  0.103316  1
  Bi  Bi26  1  0.862562  0.125876  0.103316  1
  Bi  Bi27  1  0.637438  0.625876  0.896684  1
  Bi  Bi28  1  0.313565  0.133212  0.929353  1
  Bi  Bi29  1  0.186435  0.633212  0.070647  1
  Bi  Bi30  1  0.686435  0.866788  0.070647  1
  Bi  Bi31  1  0.813565  0.366788  0.929353  1
