# generated using pymatgen
data_Ga2PdBr8
_symmetry_space_group_name_H-M   'P 1'
_cell_length_a   7.99158023
_cell_length_b   7.99158023
_cell_length_c   7.76254022
_cell_angle_alpha   82.67026803
_cell_angle_beta   97.32973197
_cell_angle_gamma   112.92750559
_symmetry_Int_Tables_number   1
_chemical_formula_structural   Ga2PdBr8
_chemical_formula_sum   'Ga2 Pd1 Br8'
_cell_volume   451.21188785
_cell_formula_units_Z   1
loop_
 _symmetry_equiv_pos_site_id
 _symmetry_equiv_pos_as_xyz
  1  'x, y, z'
loop_
 _atom_site_type_symbol
 _atom_site_label
 _atom_site_symmetry_multiplicity
 _atom_site_fract_x
 _atom_site_fract_y
 _atom_site_fract_z
 _atom_site_occupancy
  Ga  Ga0  1  0.211998  0.788002  0.330072  1
  Ga  Ga1  1  0.788002  0.211998  0.669928  1
  Pd  Pd2  1  0.000000  0.000000  0.000000  1
  Br  Br3  1  0.692645  0.915295  0.844523  1
  Br  Br4  1  0.084705  0.307355  0.844523  1
  Br  Br5  1  0.307355  0.084705  0.155477  1
  Br  Br6  1  0.621134  0.378866  0.711519  1
  Br  Br7  1  0.915295  0.692645  0.155477  1
  Br  Br8  1  0.180125  0.819875  0.614126  1
  Br  Br9  1  0.819875  0.180125  0.385874  1
  Br  Br10  1  0.378866  0.621134  0.288481  1
