# generated using pymatgen
data_Na4CoO4
_symmetry_space_group_name_H-M   'P 1'
_cell_length_a   5.80359805
_cell_length_b   5.81636816
_cell_length_c   8.10246426
_cell_angle_alpha   88.90588327
_cell_angle_beta   106.94303494
_cell_angle_gamma   109.90690100
_symmetry_Int_Tables_number   1
_chemical_formula_structural   Na4CoO4
_chemical_formula_sum   'Na8 Co2 O8'
_cell_volume   245.02252554
_cell_formula_units_Z   2
loop_
 _symmetry_equiv_pos_site_id
 _symmetry_equiv_pos_as_xyz
  1  'x, y, z'
loop_
 _atom_site_type_symbol
 _atom_site_label
 _atom_site_symmetry_multiplicity
 _atom_site_fract_x
 _atom_site_fract_y
 _atom_site_fract_z
 _atom_site_occupancy
  Na  Na0  1  0.456916  0.229208  0.428838  1
  Na  Na1  1  0.266310  0.741035  0.161789  1
  Na  Na2  1  0.920285  0.716868  0.377100  1
  Na  Na3  1  0.288136  0.243008  0.015144  1
  Na  Na4  1  0.733690  0.258965  0.838211  1
  Na  Na5  1  0.543084  0.770792  0.571162  1
  Na  Na6  1  0.079715  0.283132  0.622900  1
  Na  Na7  1  0.711864  0.756992  0.984856  1
  Co  Co8  1  0.090318  0.779125  0.750108  1
  Co  Co9  1  0.909682  0.220875  0.249892  1
  O  O10  1  0.672091  0.998367  0.326892  1
  O  O11  1  0.734131  0.396220  0.118272  1
  O  O12  1  0.265869  0.603780  0.881728  1
  O  O13  1  0.929483  0.974657  0.794541  1
  O  O14  1  0.327909  0.001633  0.673108  1
  O  O15  1  0.807726  0.527413  0.628988  1
  O  O16  1  0.070517  0.025343  0.205459  1
  O  O17  1  0.192274  0.472587  0.371012  1
