# generated using pymatgen
data_KGaCl4
_symmetry_space_group_name_H-M   'P 1'
_cell_length_a   7.39083604
_cell_length_b   10.67196156
_cell_length_c   11.76921443
_cell_angle_alpha   90.00000000
_cell_angle_beta   125.46806272
_cell_angle_gamma   90.00000000
_symmetry_Int_Tables_number   1
_chemical_formula_structural   KGaCl4
_chemical_formula_sum   'K4 Ga4 Cl16'
_cell_volume   756.03848201
_cell_formula_units_Z   4
loop_
 _symmetry_equiv_pos_site_id
 _symmetry_equiv_pos_as_xyz
  1  'x, y, z'
loop_
 _atom_site_type_symbol
 _atom_site_label
 _atom_site_symmetry_multiplicity
 _atom_site_fract_x
 _atom_site_fract_y
 _atom_site_fract_z
 _atom_site_occupancy
  K  K0  1  0.985368  0.303270  0.798780  1
  K  K1  1  0.014632  0.803270  0.701220  1
  K  K2  1  0.014632  0.696730  0.201220  1
  K  K3  1  0.985368  0.196730  0.298780  1
  Ga  Ga4  1  0.427570  0.550945  0.683876  1
  Ga  Ga5  1  0.572430  0.050945  0.816124  1
  Ga  Ga6  1  0.572430  0.449055  0.316124  1
  Ga  Ga7  1  0.427570  0.949055  0.183876  1
  Cl  Cl8  1  0.627393  0.878950  0.934410  1
  Cl  Cl9  1  0.372607  0.378950  0.565590  1
  Cl  Cl10  1  0.372607  0.121050  0.065590  1
  Cl  Cl11  1  0.627393  0.621050  0.434410  1
  Cl  Cl12  1  0.712053  0.465418  0.193568  1
  Cl  Cl13  1  0.287947  0.965418  0.306432  1
  Cl  Cl14  1  0.287947  0.534582  0.806432  1
  Cl  Cl15  1  0.712053  0.034582  0.693568  1
  Cl  Cl16  1  0.790739  0.920592  0.326407  1
  Cl  Cl17  1  0.209261  0.420592  0.173593  1
  Cl  Cl18  1  0.209261  0.079408  0.673593  1
  Cl  Cl19  1  0.790739  0.579408  0.826407  1
  Cl  Cl20  1  0.264875  0.716130  0.548666  1
  Cl  Cl21  1  0.735125  0.216130  0.951334  1
  Cl  Cl22  1  0.735125  0.283870  0.451334  1
  Cl  Cl23  1  0.264875  0.783870  0.048666  1
