# generated using pymatgen
data_H4IN
_symmetry_space_group_name_H-M   'P 1'
_cell_length_a   5.16875927
_cell_length_b   5.16875927
_cell_length_c   5.16875927
_cell_angle_alpha   121.54210894
_cell_angle_beta   118.45867602
_cell_angle_gamma   90.02006148
_symmetry_Int_Tables_number   1
_chemical_formula_structural   H4IN
_chemical_formula_sum   'H4 I1 N1'
_cell_volume   97.55469511
_cell_formula_units_Z   1
loop_
 _symmetry_equiv_pos_site_id
 _symmetry_equiv_pos_as_xyz
  1  'x, y, z'
loop_
 _atom_site_type_symbol
 _atom_site_label
 _atom_site_symmetry_multiplicity
 _atom_site_fract_x
 _atom_site_fract_y
 _atom_site_fract_z
 _atom_site_occupancy
  H  H0  1  0.839768  0.869899  0.709667  1
  H  H1  1  0.160232  0.869899  0.030131  1
  H  H2  1  0.883283  0.989225  0.105942  1
  H  H3  1  0.116717  0.222660  0.105942  1
  I  I4  1  0.500000  0.508415  0.008415  1
  N  N5  1  1.000000  0.990902  0.990902  1
