# generated using pymatgen
data_Ta2CoO6
_symmetry_space_group_name_H-M   'P 1'
_cell_length_a   4.80235624
_cell_length_b   4.80235624
_cell_length_c   9.19932230
_cell_angle_alpha   90.00000000
_cell_angle_beta   90.00000000
_cell_angle_gamma   90.00000000
_symmetry_Int_Tables_number   1
_chemical_formula_structural   Ta2CoO6
_chemical_formula_sum   'Ta4 Co2 O12'
_cell_volume   212.16052465
_cell_formula_units_Z   2
loop_
 _symmetry_equiv_pos_site_id
 _symmetry_equiv_pos_as_xyz
  1  'x, y, z'
loop_
 _atom_site_type_symbol
 _atom_site_label
 _atom_site_symmetry_multiplicity
 _atom_site_fract_x
 _atom_site_fract_y
 _atom_site_fract_z
 _atom_site_occupancy
  Ta  Ta0  1  0.500000  0.500000  0.169485  1
  Ta  Ta1  1  0.000000  0.000000  0.669485  1
  Ta  Ta2  1  0.500000  0.500000  0.830515  1
  Ta  Ta3  1  0.000000  0.000000  0.330515  1
  Co  Co4  1  0.500000  0.500000  0.500000  1
  Co  Co5  1  0.000000  0.000000  0.000000  1
  O  O6  1  0.188449  0.811551  0.500000  1
  O  O7  1  0.811551  0.188449  0.500000  1
  O  O8  1  0.311551  0.311551  0.000000  1
  O  O9  1  0.688449  0.688449  0.000000  1
  O  O10  1  0.204560  0.795440  0.176378  1
  O  O11  1  0.795440  0.204560  0.176378  1
  O  O12  1  0.295440  0.295440  0.676378  1
  O  O13  1  0.704560  0.704560  0.676378  1
  O  O14  1  0.795440  0.204560  0.823622  1
  O  O15  1  0.204560  0.795440  0.823622  1
  O  O16  1  0.704560  0.704560  0.323622  1
  O  O17  1  0.295440  0.295440  0.323622  1
