# generated using pymatgen
data_Rb4(BS)9
_symmetry_space_group_name_H-M   'P 1'
_cell_length_a   10.18160252
_cell_length_b   10.34109792
_cell_length_c   10.80749358
_cell_angle_alpha   92.16177149
_cell_angle_beta   104.39460557
_cell_angle_gamma   109.63677983
_symmetry_Int_Tables_number   1
_chemical_formula_structural   Rb4(BS)9
_chemical_formula_sum   'Rb8 B18 S18'
_cell_volume   1028.87379375
_cell_formula_units_Z   2
loop_
 _symmetry_equiv_pos_site_id
 _symmetry_equiv_pos_as_xyz
  1  'x, y, z'
loop_
 _atom_site_type_symbol
 _atom_site_label
 _atom_site_symmetry_multiplicity
 _atom_site_fract_x
 _atom_site_fract_y
 _atom_site_fract_z
 _atom_site_occupancy
  Rb  Rb0  1  0.818394  0.380443  0.752132  1
  Rb  Rb1  1  0.181606  0.619557  0.247868  1
  Rb  Rb2  1  0.751690  0.622648  0.470831  1
  Rb  Rb3  1  0.248310  0.377352  0.529169  1
  Rb  Rb4  1  0.614184  0.373728  0.129041  1
  Rb  Rb5  1  0.385816  0.626272  0.870959  1
  Rb  Rb6  1  0.646960  0.007265  0.374838  1
  Rb  Rb7  1  0.353040  0.992735  0.625162  1
  B  B8  1  0.926177  0.258632  0.253967  1
  B  B9  1  0.073823  0.741368  0.746033  1
  B  B10  1  0.329905  0.235947  0.856065  1
  B  B11  1  0.670095  0.764053  0.143935  1
  B  B12  1  0.363234  0.180386  0.311993  1
  B  B13  1  0.636766  0.819614  0.688007  1
  B  B14  1  0.990850  0.041076  0.148518  1
  B  B15  1  0.009150  0.958924  0.851482  1
  B  B16  1  0.061995  0.135156  0.917736  1
  B  B17  1  0.938005  0.864844  0.082264  1
  B  B18  1  0.167472  0.033581  0.981267  1
  B  B19  1  0.832528  0.966419  0.018733  1
  B  B20  1  0.126418  0.976220  0.125898  1
  B  B21  1  0.873582  0.023780  0.874102  1
  B  B22  1  0.132324  0.143343  0.088050  1
  B  B23  1  0.867676  0.856657  0.911950  1
  B  B24  1  0.951468  0.140268  0.022970  1
  B  B25  1  0.048532  0.859732  0.977030  1
  S  S26  1  0.025367  0.892261  0.695780  1
  S  S27  1  0.974633  0.107739  0.304220  1
  S  S28  1  0.485833  0.742268  0.551153  1
  S  S29  1  0.514167  0.257732  0.448847  1
  S  S30  1  0.526873  0.660101  0.202733  1
  S  S31  1  0.473127  0.339899  0.797267  1
  S  S32  1  0.096721  0.628394  0.633613  1
  S  S33  1  0.903279  0.371606  0.366387  1
  S  S34  1  0.159419  0.272784  0.831816  1
  S  S35  1  0.840581  0.727216  0.168184  1
  S  S36  1  0.346077  0.090306  0.944604  1
  S  S37  1  0.653923  0.909694  0.055396  1
  S  S38  1  0.277087  0.988381  0.271596  1
  S  S39  1  0.722913  0.011619  0.728404  1
  S  S40  1  0.285319  0.285388  0.202371  1
  S  S41  1  0.714681  0.714612  0.797629  1
  S  S42  1  0.907905  0.288735  0.082313  1
  S  S43  1  0.092095  0.711265  0.917687  1
