# generated using pymatgen
data_VPO5
_symmetry_space_group_name_H-M   'P 1'
_cell_length_a   6.23485935
_cell_length_b   7.23894650
_cell_length_c   7.81434106
_cell_angle_alpha   90.00000000
_cell_angle_beta   90.00000000
_cell_angle_gamma   90.00000000
_symmetry_Int_Tables_number   1
_chemical_formula_structural   VPO5
_chemical_formula_sum   'V4 P4 O20'
_cell_volume   352.69101023
_cell_formula_units_Z   4
loop_
 _symmetry_equiv_pos_site_id
 _symmetry_equiv_pos_as_xyz
  1  'x, y, z'
loop_
 _atom_site_type_symbol
 _atom_site_label
 _atom_site_symmetry_multiplicity
 _atom_site_fract_x
 _atom_site_fract_y
 _atom_site_fract_z
 _atom_site_occupancy
  V  V0  1  0.250000  0.728035  0.673211  1
  V  V1  1  0.750000  0.228035  0.826789  1
  V  V2  1  0.250000  0.771965  0.173211  1
  V  V3  1  0.750000  0.271965  0.326789  1
  P  P4  1  0.750000  0.612909  0.621904  1
  P  P5  1  0.250000  0.112909  0.878096  1
  P  P6  1  0.750000  0.887091  0.121904  1
  P  P7  1  0.250000  0.387091  0.378096  1
  O  O8  1  0.250000  0.498979  0.545488  1
  O  O9  1  0.552032  0.740006  0.628859  1
  O  O10  1  0.947968  0.740006  0.628859  1
  O  O11  1  0.750000  0.150842  0.633107  1
  O  O12  1  0.250000  0.982195  0.718984  1
  O  O13  1  0.750000  0.482195  0.781016  1
  O  O14  1  0.250000  0.650842  0.866893  1
  O  O15  1  0.052032  0.240006  0.871141  1
  O  O16  1  0.447968  0.240006  0.871141  1
  O  O17  1  0.750000  0.998979  0.954512  1
  O  O18  1  0.250000  0.001021  0.045488  1
  O  O19  1  0.552032  0.759994  0.128859  1
  O  O20  1  0.947968  0.759994  0.128859  1
  O  O21  1  0.750000  0.349158  0.133107  1
  O  O22  1  0.750000  0.501021  0.454512  1
  O  O23  1  0.750000  0.017805  0.281016  1
  O  O24  1  0.250000  0.849158  0.366893  1
  O  O25  1  0.052032  0.259994  0.371141  1
  O  O26  1  0.447968  0.259994  0.371141  1
  O  O27  1  0.250000  0.517805  0.218984  1
