# generated using pymatgen
data_Hg2SeO3
_symmetry_space_group_name_H-M   'P 1'
_cell_length_a   8.99567832
_cell_length_b   5.28005248
_cell_length_c   12.28809494
_cell_angle_alpha   90.00000000
_cell_angle_beta   122.60323371
_cell_angle_gamma   90.00000000
_symmetry_Int_Tables_number   1
_chemical_formula_structural   Hg2SeO3
_chemical_formula_sum   'Hg8 Se4 O12'
_cell_volume   491.68437575
_cell_formula_units_Z   4
loop_
 _symmetry_equiv_pos_site_id
 _symmetry_equiv_pos_as_xyz
  1  'x, y, z'
loop_
 _atom_site_type_symbol
 _atom_site_label
 _atom_site_symmetry_multiplicity
 _atom_site_fract_x
 _atom_site_fract_y
 _atom_site_fract_z
 _atom_site_occupancy
  Hg  Hg0  1  0.774978  0.703465  0.157293  1
  Hg  Hg1  1  0.774978  0.796535  0.657293  1
  Hg  Hg2  1  0.225022  0.296535  0.842707  1
  Hg  Hg3  1  0.225022  0.203465  0.342707  1
  Hg  Hg4  1  0.422848  0.239165  0.093594  1
  Hg  Hg5  1  0.577152  0.739165  0.406406  1
  Hg  Hg6  1  0.577152  0.760835  0.906406  1
  Hg  Hg7  1  0.422848  0.260835  0.593594  1
  Se  Se8  1  0.158738  0.747536  0.129618  1
  Se  Se9  1  0.841262  0.252464  0.870382  1
  Se  Se10  1  0.841262  0.247536  0.370382  1
  Se  Se11  1  0.158738  0.752464  0.629618  1
  O  O12  1  0.380311  0.841382  0.700881  1
  O  O13  1  0.619689  0.341382  0.799119  1
  O  O14  1  0.619689  0.158618  0.299119  1
  O  O15  1  0.380311  0.658618  0.200881  1
  O  O16  1  0.172532  0.424528  0.650249  1
  O  O17  1  0.827468  0.924528  0.849751  1
  O  O18  1  0.827468  0.575472  0.349751  1
  O  O19  1  0.110768  0.654101  0.240760  1
  O  O20  1  0.110768  0.845899  0.740760  1
  O  O21  1  0.889232  0.345899  0.759240  1
  O  O22  1  0.889232  0.154101  0.259240  1
  O  O23  1  0.172532  0.075472  0.150249  1
