# generated using pymatgen
data_Li4Co5(P3O11)2
_symmetry_space_group_name_H-M   'P 1'
_cell_length_a   10.59413916
_cell_length_b   6.55399181
_cell_length_c   12.65236099
_cell_angle_alpha   90.00000000
_cell_angle_beta   103.57474323
_cell_angle_gamma   90.00000000
_symmetry_Int_Tables_number   1
_chemical_formula_structural   Li4Co5(P3O11)2
_chemical_formula_sum   'Li8 Co10 P12 O44'
_cell_volume   853.96142234
_cell_formula_units_Z   2
loop_
 _symmetry_equiv_pos_site_id
 _symmetry_equiv_pos_as_xyz
  1  'x, y, z'
loop_
 _atom_site_type_symbol
 _atom_site_label
 _atom_site_symmetry_multiplicity
 _atom_site_fract_x
 _atom_site_fract_y
 _atom_site_fract_z
 _atom_site_occupancy
  Li  Li0  1  0.062788  0.368551  0.186595  1
  Li  Li1  1  0.120134  0.465369  0.661923  1
  Li  Li2  1  0.879866  0.534631  0.338077  1
  Li  Li3  1  0.437212  0.868551  0.813405  1
  Li  Li4  1  0.620134  0.034631  0.661923  1
  Li  Li5  1  0.562788  0.131449  0.186595  1
  Li  Li6  1  0.937212  0.631449  0.813405  1
  Li  Li7  1  0.379866  0.965369  0.338077  1
  Co  Co8  1  0.694751  0.488736  0.658564  1
  Co  Co9  1  0.717566  0.258025  0.866478  1
  Co  Co10  1  0.217566  0.241975  0.866478  1
  Co  Co11  1  0.805249  0.988736  0.341436  1
  Co  Co12  1  0.305249  0.511264  0.341436  1
  Co  Co13  1  0.500000  0.500000  0.000000  1
  Co  Co14  1  0.782434  0.758025  0.133522  1
  Co  Co15  1  0.282434  0.741975  0.133522  1
  Co  Co16  1  0.194751  0.011264  0.658564  1
  Co  Co17  1  0.000000  0.000000  0.000000  1
  P  P18  1  0.778376  0.265377  0.088084  1
  P  P19  1  0.919879  0.773432  0.580138  1
  P  P20  1  0.929365  0.098316  0.735666  1
  P  P21  1  0.721624  0.765377  0.911916  1
  P  P22  1  0.080121  0.226568  0.419862  1
  P  P23  1  0.278376  0.234623  0.088084  1
  P  P24  1  0.580121  0.273432  0.419862  1
  P  P25  1  0.570635  0.598316  0.264334  1
  P  P26  1  0.429365  0.401684  0.735666  1
  P  P27  1  0.221624  0.734623  0.911916  1
  P  P28  1  0.070635  0.901684  0.264334  1
  P  P29  1  0.419879  0.726568  0.580138  1
  O  O30  1  0.449780  0.566164  0.822189  1
  O  O31  1  0.057485  0.203372  0.727901  1
  O  O32  1  0.245254  0.917048  0.839447  1
  O  O33  1  0.368293  0.277184  0.008418  1
  O  O34  1  0.146590  0.195605  0.003101  1
  O  O35  1  0.131707  0.777184  0.991582  1
  O  O36  1  0.853410  0.804395  0.996899  1
  O  O37  1  0.569946  0.730545  0.611262  1
  O  O38  1  0.165154  0.551170  0.838559  1
  O  O39  1  0.872393  0.993433  0.617973  1
  O  O40  1  0.834846  0.448830  0.161441  1
  O  O41  1  0.676394  0.751708  0.253110  1
  O  O42  1  0.129824  0.391086  0.353193  1
  O  O43  1  0.557485  0.296628  0.727901  1
  O  O44  1  0.949780  0.933836  0.822189  1
  O  O45  1  0.646590  0.304395  0.003101  1
  O  O46  1  0.370176  0.891086  0.646807  1
  O  O47  1  0.430054  0.269455  0.388738  1
  O  O48  1  0.334846  0.051170  0.161441  1
  O  O49  1  0.639935  0.263735  0.541273  1
  O  O50  1  0.868293  0.222816  0.008418  1
  O  O51  1  0.665154  0.948830  0.838559  1
  O  O52  1  0.627607  0.493433  0.382027  1
  O  O53  1  0.629824  0.108914  0.353193  1
  O  O54  1  0.372393  0.506567  0.617973  1
  O  O55  1  0.631707  0.722816  0.991582  1
  O  O56  1  0.139935  0.236265  0.541273  1
  O  O57  1  0.870176  0.608914  0.646807  1
  O  O58  1  0.442515  0.703372  0.272099  1
  O  O59  1  0.823606  0.251708  0.746890  1
  O  O60  1  0.176394  0.748292  0.253110  1
  O  O61  1  0.930054  0.230545  0.388738  1
  O  O62  1  0.127607  0.006567  0.382027  1
  O  O63  1  0.360065  0.736265  0.458727  1
  O  O64  1  0.323606  0.248292  0.746890  1
  O  O65  1  0.254746  0.417048  0.160553  1
  O  O66  1  0.050220  0.066164  0.177811  1
  O  O67  1  0.754746  0.082952  0.160553  1
  O  O68  1  0.860065  0.763735  0.458727  1
  O  O69  1  0.550220  0.433836  0.177811  1
  O  O70  1  0.942515  0.796628  0.272099  1
  O  O71  1  0.745254  0.582952  0.839447  1
  O  O72  1  0.069946  0.769455  0.611262  1
  O  O73  1  0.353410  0.695605  0.996899  1
