# generated using pymatgen
data_Ca(NO3)2
_symmetry_space_group_name_H-M   'P 1'
_cell_length_a   7.82114007
_cell_length_b   7.82114007
_cell_length_c   7.82114007
_cell_angle_alpha   90.00000000
_cell_angle_beta   90.00000000
_cell_angle_gamma   90.00000000
_symmetry_Int_Tables_number   1
_chemical_formula_structural   Ca(NO3)2
_chemical_formula_sum   'Ca4 N8 O24'
_cell_volume   478.42095254
_cell_formula_units_Z   4
loop_
 _symmetry_equiv_pos_site_id
 _symmetry_equiv_pos_as_xyz
  1  'x, y, z'
loop_
 _atom_site_type_symbol
 _atom_site_label
 _atom_site_symmetry_multiplicity
 _atom_site_fract_x
 _atom_site_fract_y
 _atom_site_fract_z
 _atom_site_occupancy
  Ca  Ca0  1  0.000000  0.500000  0.500000  1
  Ca  Ca1  1  0.500000  0.500000  0.000000  1
  Ca  Ca2  1  0.500000  0.000000  0.500000  1
  Ca  Ca3  1  0.000000  0.000000  0.000000  1
  N  N4  1  0.336854  0.336854  0.336854  1
  N  N5  1  0.336854  0.163146  0.836854  1
  N  N6  1  0.163146  0.836854  0.336854  1
  N  N7  1  0.836854  0.336854  0.163146  1
  N  N8  1  0.663146  0.663146  0.663146  1
  N  N9  1  0.163146  0.663146  0.836854  1
  N  N10  1  0.836854  0.163146  0.663146  1
  N  N11  1  0.663146  0.836854  0.163146  1
  O  O12  1  0.746049  0.298916  0.034675  1
  O  O13  1  0.201084  0.965325  0.246049  1
  O  O14  1  0.253951  0.798916  0.465325  1
  O  O15  1  0.246049  0.201084  0.965325  1
  O  O16  1  0.246049  0.298916  0.465325  1
  O  O17  1  0.465325  0.246049  0.298916  1
  O  O18  1  0.298916  0.465325  0.246049  1
  O  O19  1  0.201084  0.534675  0.746049  1
  O  O20  1  0.965325  0.253951  0.701084  1
  O  O21  1  0.701084  0.965325  0.253951  1
  O  O22  1  0.034675  0.753951  0.798916  1
  O  O23  1  0.534675  0.746049  0.201084  1
  O  O24  1  0.798916  0.034675  0.753951  1
  O  O25  1  0.746049  0.201084  0.534675  1
  O  O26  1  0.753951  0.798916  0.034675  1
  O  O27  1  0.253951  0.701084  0.965325  1
  O  O28  1  0.753951  0.701084  0.534675  1
  O  O29  1  0.534675  0.753951  0.701084  1
  O  O30  1  0.701084  0.534675  0.753951  1
  O  O31  1  0.798916  0.465325  0.253951  1
  O  O32  1  0.034675  0.746049  0.298916  1
  O  O33  1  0.298916  0.034675  0.746049  1
  O  O34  1  0.965325  0.246049  0.201084  1
  O  O35  1  0.465325  0.253951  0.798916  1
