# generated using pymatgen
data_LiAlO2
_symmetry_space_group_name_H-M   'P 1'
_cell_length_a   5.23013345
_cell_length_b   5.23013345
_cell_length_c   6.32674163
_cell_angle_alpha   90.00000000
_cell_angle_beta   90.00000000
_cell_angle_gamma   90.00000000
_symmetry_Int_Tables_number   1
_chemical_formula_structural   LiAlO2
_chemical_formula_sum   'Li4 Al4 O8'
_cell_volume   173.06356266
_cell_formula_units_Z   4
loop_
 _symmetry_equiv_pos_site_id
 _symmetry_equiv_pos_as_xyz
  1  'x, y, z'
loop_
 _atom_site_type_symbol
 _atom_site_label
 _atom_site_symmetry_multiplicity
 _atom_site_fract_x
 _atom_site_fract_y
 _atom_site_fract_z
 _atom_site_occupancy
  Li  Li0  1  0.686132  0.313868  0.250000  1
  Li  Li1  1  0.186132  0.186132  0.500000  1
  Li  Li2  1  0.313868  0.686132  0.750000  1
  Li  Li3  1  0.813868  0.813868  0.000000  1
  Al  Al4  1  0.823341  0.823341  0.500000  1
  Al  Al5  1  0.676659  0.323341  0.750000  1
  Al  Al6  1  0.323341  0.676659  0.250000  1
  Al  Al7  1  0.176659  0.176659  0.000000  1
  O  O8  1  0.290871  0.338128  0.227366  1
  O  O9  1  0.161872  0.790871  0.477366  1
  O  O10  1  0.790871  0.161872  0.522634  1
  O  O11  1  0.838128  0.209129  0.977366  1
  O  O12  1  0.209129  0.838128  0.022634  1
  O  O13  1  0.661872  0.709129  0.272634  1
  O  O14  1  0.338128  0.290871  0.772634  1
  O  O15  1  0.709129  0.661872  0.727366  1
