# generated using pymatgen
data_BeBr2
_symmetry_space_group_name_H-M   'P 1'
_cell_length_a   7.17775241
_cell_length_b   7.17775241
_cell_length_c   7.17775241
_cell_angle_alpha   134.19245322
_cell_angle_beta   128.38321110
_cell_angle_gamma   71.45866149
_symmetry_Int_Tables_number   1
_chemical_formula_structural   BeBr2
_chemical_formula_sum   'Be2 Br4'
_cell_volume   203.45738337
_cell_formula_units_Z   2
loop_
 _symmetry_equiv_pos_site_id
 _symmetry_equiv_pos_as_xyz
  1  'x, y, z'
loop_
 _atom_site_type_symbol
 _atom_site_label
 _atom_site_symmetry_multiplicity
 _atom_site_fract_x
 _atom_site_fract_y
 _atom_site_fract_z
 _atom_site_occupancy
  Be  Be0  1  0.000000  0.250000  0.250000  1
  Be  Be1  1  0.000000  0.750000  0.750000  1
  Br  Br2  1  0.295555  0.103213  0.192342  1
  Br  Br3  1  0.704445  0.896787  0.807658  1
  Br  Br4  1  0.089129  0.396787  0.692342  1
  Br  Br5  1  0.910871  0.603213  0.307658  1
