# generated using pymatgen
data_NaPWO6
_symmetry_space_group_name_H-M   'P 1'
_cell_length_a   6.45321457
_cell_length_b   12.16318870
_cell_length_c   13.73319449
_cell_angle_alpha   90.00000000
_cell_angle_beta   116.86860167
_cell_angle_gamma   90.00000000
_symmetry_Int_Tables_number   1
_chemical_formula_structural   NaPWO6
_chemical_formula_sum   'Na8 P8 W8 O48'
_cell_volume   961.57252444
_cell_formula_units_Z   8
loop_
 _symmetry_equiv_pos_site_id
 _symmetry_equiv_pos_as_xyz
  1  'x, y, z'
loop_
 _atom_site_type_symbol
 _atom_site_label
 _atom_site_symmetry_multiplicity
 _atom_site_fract_x
 _atom_site_fract_y
 _atom_site_fract_z
 _atom_site_occupancy
  Na  Na0  1  0.612507  0.817733  0.652244  1
  Na  Na1  1  0.387493  0.317733  0.847756  1
  Na  Na2  1  0.387493  0.182267  0.347756  1
  Na  Na3  1  0.612507  0.682267  0.152244  1
  Na  Na4  1  0.068458  0.707932  0.622047  1
  Na  Na5  1  0.931542  0.207932  0.877953  1
  Na  Na6  1  0.931542  0.292068  0.377953  1
  Na  Na7  1  0.068458  0.792068  0.122047  1
  P  P8  1  0.634065  0.959461  0.877243  1
  P  P9  1  0.365935  0.459461  0.622757  1
  P  P10  1  0.365935  0.040539  0.122757  1
  P  P11  1  0.634065  0.540539  0.377243  1
  P  P12  1  0.183673  0.614447  0.937296  1
  P  P13  1  0.816327  0.114447  0.562704  1
  P  P14  1  0.816327  0.385553  0.062704  1
  P  P15  1  0.183673  0.885553  0.437296  1
  W  W16  1  0.141895  0.897019  0.888354  1
  W  W17  1  0.858105  0.397019  0.611646  1
  W  W18  1  0.858105  0.102981  0.111646  1
  W  W19  1  0.141895  0.602981  0.388354  1
  W  W20  1  0.615361  0.602853  0.869824  1
  W  W21  1  0.384639  0.102853  0.630176  1
  W  W22  1  0.384639  0.397147  0.130176  1
  W  W23  1  0.615361  0.897147  0.369824  1
  O  O24  1  0.016449  0.831105  0.757778  1
  O  O25  1  0.983551  0.331105  0.742222  1
  O  O26  1  0.983551  0.168895  0.242222  1
  O  O27  1  0.016449  0.668895  0.257778  1
  O  O28  1  0.904783  0.538372  0.642671  1
  O  O29  1  0.095217  0.038372  0.857329  1
  O  O30  1  0.095217  0.461628  0.357329  1
  O  O31  1  0.904783  0.961628  0.142671  1
  O  O32  1  0.519982  0.706468  0.767465  1
  O  O33  1  0.480018  0.206468  0.732535  1
  O  O34  1  0.480018  0.293532  0.232535  1
  O  O35  1  0.519982  0.793532  0.267465  1
  O  O36  1  0.726339  0.676006  0.995615  1
  O  O37  1  0.273661  0.176006  0.504385  1
  O  O38  1  0.273661  0.323994  0.004385  1
  O  O39  1  0.726339  0.823994  0.495615  1
  O  O40  1  0.295978  0.569783  0.561471  1
  O  O41  1  0.211843  0.737407  0.968955  1
  O  O42  1  0.704022  0.069783  0.938529  1
  O  O43  1  0.295978  0.930217  0.061471  1
  O  O44  1  0.516782  0.977290  0.753122  1
  O  O45  1  0.483218  0.477290  0.746878  1
  O  O46  1  0.483218  0.022710  0.246878  1
  O  O47  1  0.516782  0.522710  0.253122  1
  O  O48  1  0.924855  0.581892  0.871654  1
  O  O49  1  0.075145  0.081892  0.628346  1
  O  O50  1  0.075145  0.418108  0.128346  1
  O  O51  1  0.924855  0.918108  0.371654  1
  O  O52  1  0.297213  0.585106  0.862146  1
  O  O53  1  0.702787  0.085106  0.637854  1
  O  O54  1  0.702787  0.414894  0.137854  1
  O  O55  1  0.297213  0.914894  0.362146  1
  O  O56  1  0.468822  0.605783  0.410927  1
  O  O57  1  0.531178  0.105783  0.089073  1
  O  O58  1  0.531178  0.394217  0.589073  1
  O  O59  1  0.468822  0.894217  0.910927  1
  O  O60  1  0.850489  0.616353  0.409741  1
  O  O61  1  0.149511  0.116353  0.090259  1
  O  O62  1  0.149511  0.383647  0.590259  1
  O  O63  1  0.850489  0.883647  0.909741  1
  O  O64  1  0.305800  0.551695  0.045515  1
  O  O65  1  0.694200  0.051695  0.454485  1
  O  O66  1  0.694200  0.448305  0.954485  1
  O  O67  1  0.305800  0.948305  0.545515  1
  O  O68  1  0.211843  0.762593  0.468955  1
  O  O69  1  0.788157  0.262593  0.031045  1
  O  O70  1  0.788157  0.237407  0.531045  1
  O  O71  1  0.704022  0.430217  0.438529  1
