# generated using pymatgen
data_Sm5AgSe8
_symmetry_space_group_name_H-M   'P 1'
_cell_length_a   7.66975934
_cell_length_b   7.66975934
_cell_length_c   7.66975934
_cell_angle_alpha   109.84617027
_cell_angle_beta   109.84617027
_cell_angle_gamma   108.72389616
_symmetry_Int_Tables_number   1
_chemical_formula_structural   Sm5AgSe8
_chemical_formula_sum   'Sm5 Ag1 Se8'
_cell_volume   347.27057776
_cell_formula_units_Z   1
loop_
 _symmetry_equiv_pos_site_id
 _symmetry_equiv_pos_as_xyz
  1  'x, y, z'
loop_
 _atom_site_type_symbol
 _atom_site_label
 _atom_site_symmetry_multiplicity
 _atom_site_fract_x
 _atom_site_fract_y
 _atom_site_fract_z
 _atom_site_occupancy
  Sm  Sm0  1  0.238506  0.622121  0.121525  1
  Sm  Sm1  1  0.377879  0.499404  0.616385  1
  Sm  Sm2  1  0.500596  0.116981  0.878475  1
  Sm  Sm3  1  0.750000  0.250000  0.500000  1
  Sm  Sm4  1  0.883019  0.761494  0.383615  1
  Ag  Ag5  1  1.000000  1.000000  0.000000  1
  Se  Se6  1  0.117157  0.728958  0.751176  1
  Se  Se7  1  0.132679  0.239630  0.742178  1
  Se  Se8  1  0.271042  0.022218  0.388199  1
  Se  Se9  1  0.497451  0.390501  0.257822  1
  Se  Se10  1  0.609499  0.867321  0.106950  1
  Se  Se11  1  0.760370  0.502549  0.893050  1
  Se  Se12  1  0.634019  0.882843  0.611801  1
  Se  Se13  1  0.977782  0.365981  0.248824  1
