# generated using pymatgen
data_NaBO2
_symmetry_space_group_name_H-M   'P 1'
_cell_length_a   7.26370611
_cell_length_b   7.26370611
_cell_length_c   7.26370611
_cell_angle_alpha   111.31260841
_cell_angle_beta   111.31260841
_cell_angle_gamma   111.31260841
_symmetry_Int_Tables_number   1
_chemical_formula_structural   NaBO2
_chemical_formula_sum   'Na6 B6 O12'
_cell_volume   273.06555053
_cell_formula_units_Z   6
loop_
 _symmetry_equiv_pos_site_id
 _symmetry_equiv_pos_as_xyz
  1  'x, y, z'
loop_
 _atom_site_type_symbol
 _atom_site_label
 _atom_site_symmetry_multiplicity
 _atom_site_fract_x
 _atom_site_fract_y
 _atom_site_fract_z
 _atom_site_occupancy
  Na  Na0  1  0.750000  0.186762  0.313238  1
  Na  Na1  1  0.313238  0.750000  0.186761  1
  Na  Na2  1  0.186761  0.313238  0.750000  1
  Na  Na3  1  0.250000  0.813239  0.686762  1
  Na  Na4  1  0.686762  0.250000  0.813238  1
  Na  Na5  1  0.813238  0.686762  0.250000  1
  B  B6  1  0.250000  0.129098  0.370902  1
  B  B7  1  0.750000  0.870902  0.629098  1
  B  B8  1  0.629098  0.750000  0.870902  1
  B  B9  1  0.870902  0.629098  0.750000  1
  B  B10  1  0.370902  0.250000  0.129098  1
  B  B11  1  0.129098  0.370902  0.250000  1
  O  O12  1  0.366244  0.133756  0.250000  1
  O  O13  1  0.133756  0.250000  0.366244  1
  O  O14  1  0.750000  0.633756  0.866244  1
  O  O15  1  0.250000  0.366244  0.133756  1
  O  O16  1  0.633756  0.866244  0.750000  1
  O  O17  1  0.866244  0.750000  0.633756  1
  O  O18  1  0.019222  0.480778  0.250000  1
  O  O19  1  0.480778  0.250000  0.019222  1
  O  O20  1  0.250000  0.019222  0.480778  1
  O  O21  1  0.980778  0.519222  0.750000  1
  O  O22  1  0.519222  0.750000  0.980778  1
  O  O23  1  0.750000  0.980778  0.519222  1
