# generated using pymatgen
data_Na5P3O10
_symmetry_space_group_name_H-M   'P 1'
_cell_length_a   8.57455227
_cell_length_b   8.57455227
_cell_length_c   11.34203449
_cell_angle_alpha   86.64932015
_cell_angle_beta   93.35067985
_cell_angle_gamma   144.05375085
_symmetry_Int_Tables_number   1
_chemical_formula_structural   Na5P3O10
_chemical_formula_sum   'Na10 P6 O20'
_cell_volume   488.59590765
_cell_formula_units_Z   2
loop_
 _symmetry_equiv_pos_site_id
 _symmetry_equiv_pos_as_xyz
  1  'x, y, z'
loop_
 _atom_site_type_symbol
 _atom_site_label
 _atom_site_symmetry_multiplicity
 _atom_site_fract_x
 _atom_site_fract_y
 _atom_site_fract_z
 _atom_site_occupancy
  Na  Na0  1  0.305320  0.221890  0.962111  1
  Na  Na1  1  0.778110  0.694680  0.462111  1
  Na  Na2  1  0.694680  0.778110  0.037889  1
  Na  Na3  1  0.110518  0.431070  0.793711  1
  Na  Na4  1  0.431070  0.110518  0.706289  1
  Na  Na5  1  0.889482  0.568930  0.206289  1
  Na  Na6  1  0.000000  0.500000  0.500000  1
  Na  Na7  1  0.500000  0.000000  0.000000  1
  Na  Na8  1  0.568930  0.889482  0.293711  1
  Na  Na9  1  0.221890  0.305320  0.537889  1
  P  P10  1  0.049932  0.343511  0.100004  1
  P  P11  1  0.343511  0.049932  0.399996  1
  P  P12  1  0.950068  0.656489  0.899996  1
  P  P13  1  0.656489  0.950068  0.600004  1
  P  P14  1  0.308017  0.308017  0.250000  1
  P  P15  1  0.691983  0.691983  0.750000  1
  O  O16  1  0.730513  0.165584  0.650097  1
  O  O17  1  0.969651  0.210671  0.982332  1
  O  O18  1  0.210671  0.969651  0.517668  1
  O  O19  1  0.030349  0.789329  0.017668  1
  O  O20  1  0.789329  0.030349  0.482332  1
  O  O21  1  0.834416  0.269487  0.150097  1
  O  O22  1  0.505934  0.581185  0.847281  1
  O  O23  1  0.581185  0.505934  0.652719  1
  O  O24  1  0.494066  0.418815  0.152719  1
  O  O25  1  0.418815  0.494066  0.347281  1
  O  O26  1  0.826565  0.958290  0.693752  1
  O  O27  1  0.958290  0.826565  0.806248  1
  O  O28  1  0.173435  0.041710  0.306248  1
  O  O29  1  0.041710  0.173435  0.193752  1
  O  O30  1  0.165584  0.730513  0.849903  1
  O  O31  1  0.667430  0.364123  0.893241  1
  O  O32  1  0.635877  0.332570  0.393241  1
  O  O33  1  0.332570  0.635877  0.106759  1
  O  O34  1  0.364123  0.667430  0.606759  1
  O  O35  1  0.269487  0.834416  0.349903  1
