# generated using pymatgen
data_CdSiAs2
_symmetry_space_group_name_H-M   'P 1'
_cell_length_a   6.97983304
_cell_length_b   6.97983304
_cell_length_c   6.97983304
_cell_angle_alpha   129.24224023
_cell_angle_beta   129.24224023
_cell_angle_gamma   74.62111006
_symmetry_Int_Tables_number   1
_chemical_formula_structural   CdSiAs2
_chemical_formula_sum   'Cd2 Si2 As4'
_cell_volume   198.73230569
_cell_formula_units_Z   2
loop_
 _symmetry_equiv_pos_site_id
 _symmetry_equiv_pos_as_xyz
  1  'x, y, z'
loop_
 _atom_site_type_symbol
 _atom_site_label
 _atom_site_symmetry_multiplicity
 _atom_site_fract_x
 _atom_site_fract_y
 _atom_site_fract_z
 _atom_site_occupancy
  Cd  Cd0  1  0.000000  0.000000  0.000000  1
  Cd  Cd1  1  0.750000  0.250000  0.500000  1
  Si  Si2  1  0.500000  0.500000  0.000000  1
  Si  Si3  1  0.250000  0.750000  0.500000  1
  As  As4  1  0.875000  0.414885  0.039885  1
  As  As5  1  0.585115  0.625000  0.460115  1
  As  As6  1  0.164885  0.125000  0.539885  1
  As  As7  1  0.375000  0.835115  0.960115  1
