# generated using pymatgen
data_CrSiTe3
_symmetry_space_group_name_H-M   'P 1'
_cell_length_a   8.56467898
_cell_length_b   8.56467898
_cell_length_c   8.56467898
_cell_angle_alpha   47.05596895
_cell_angle_beta   47.05596895
_cell_angle_gamma   47.05596895
_symmetry_Int_Tables_number   1
_chemical_formula_structural   CrSiTe3
_chemical_formula_sum   'Cr2 Si2 Te6'
_cell_volume   307.77245175
_cell_formula_units_Z   2
loop_
 _symmetry_equiv_pos_site_id
 _symmetry_equiv_pos_as_xyz
  1  'x, y, z'
loop_
 _atom_site_type_symbol
 _atom_site_label
 _atom_site_symmetry_multiplicity
 _atom_site_fract_x
 _atom_site_fract_y
 _atom_site_fract_z
 _atom_site_occupancy
  Cr  Cr0  1  0.666299  0.666299  0.666299  1
  Cr  Cr1  1  0.333701  0.333701  0.333701  1
  Si  Si2  1  0.050097  0.050097  0.050097  1
  Si  Si3  1  0.949903  0.949903  0.949903  1
  Te  Te4  1  0.074806  0.438810  0.713065  1
  Te  Te5  1  0.713065  0.074806  0.438810  1
  Te  Te6  1  0.438810  0.713065  0.074806  1
  Te  Te7  1  0.561190  0.286935  0.925194  1
  Te  Te8  1  0.286935  0.925194  0.561190  1
  Te  Te9  1  0.925194  0.561190  0.286935  1
