# generated using pymatgen
data_Zr3InF15
_symmetry_space_group_name_H-M   'P 1'
_cell_length_a   8.04798314
_cell_length_b   8.04798314
_cell_length_c   8.04798314
_cell_angle_alpha   99.86676022
_cell_angle_beta   99.86676022
_cell_angle_gamma   99.86676022
_symmetry_Int_Tables_number   1
_chemical_formula_structural   Zr3InF15
_chemical_formula_sum   'Zr6 In2 F30'
_cell_volume   495.02539398
_cell_formula_units_Z   2
loop_
 _symmetry_equiv_pos_site_id
 _symmetry_equiv_pos_as_xyz
  1  'x, y, z'
loop_
 _atom_site_type_symbol
 _atom_site_label
 _atom_site_symmetry_multiplicity
 _atom_site_fract_x
 _atom_site_fract_y
 _atom_site_fract_z
 _atom_site_occupancy
  Zr  Zr0  1  0.750000  0.180643  0.319357  1
  Zr  Zr1  1  0.680643  0.250000  0.819357  1
  Zr  Zr2  1  0.180643  0.319357  0.750000  1
  Zr  Zr3  1  0.819357  0.680643  0.250000  1
  Zr  Zr4  1  0.319357  0.750000  0.180643  1
  Zr  Zr5  1  0.250000  0.819357  0.680643  1
  In  In6  1  0.250000  0.250000  0.250000  1
  In  In7  1  0.750000  0.750000  0.750000  1
  F  F8  1  0.750000  0.462364  0.037636  1
  F  F9  1  0.778736  0.783634  0.019860  1
  F  F10  1  0.548199  0.650364  0.175606  1
  F  F11  1  0.962364  0.250000  0.537636  1
  F  F12  1  0.283634  0.278736  0.519860  1
  F  F13  1  0.150364  0.048199  0.675606  1
  F  F14  1  0.721264  0.480140  0.716366  1
  F  F15  1  0.480140  0.716366  0.721264  1
  F  F16  1  0.650364  0.175606  0.548199  1
  F  F17  1  0.951801  0.324394  0.849636  1
  F  F18  1  0.462364  0.037636  0.750000  1
  F  F19  1  0.175606  0.548199  0.650364  1
  F  F20  1  0.324394  0.849636  0.951801  1
  F  F21  1  0.783634  0.019860  0.778736  1
  F  F22  1  0.019860  0.778736  0.783634  1
  F  F23  1  0.980140  0.221264  0.216366  1
  F  F24  1  0.216366  0.980140  0.221264  1
  F  F25  1  0.675606  0.150364  0.048199  1
  F  F26  1  0.824394  0.451801  0.349636  1
  F  F27  1  0.537636  0.962364  0.250000  1
  F  F28  1  0.048199  0.675606  0.150364  1
  F  F29  1  0.349636  0.824394  0.451801  1
  F  F30  1  0.519860  0.283634  0.278736  1
  F  F31  1  0.278736  0.519860  0.283634  1
  F  F32  1  0.849636  0.951801  0.324394  1
  F  F33  1  0.716366  0.721264  0.480140  1
  F  F34  1  0.037636  0.750000  0.462364  1
  F  F35  1  0.451801  0.349636  0.824394  1
  F  F36  1  0.221264  0.216366  0.980140  1
  F  F37  1  0.250000  0.537636  0.962364  1
