# generated using pymatgen
data_BiKrF7
_symmetry_space_group_name_H-M   'P 1'
_cell_length_a   5.57881548
_cell_length_b   10.84372488
_cell_length_c   11.51833928
_cell_angle_alpha   90.00000000
_cell_angle_beta   95.29361350
_cell_angle_gamma   90.00000000
_symmetry_Int_Tables_number   1
_chemical_formula_structural   BiKrF7
_chemical_formula_sum   'Bi4 Kr4 F28'
_cell_volume   693.83167434
_cell_formula_units_Z   4
loop_
 _symmetry_equiv_pos_site_id
 _symmetry_equiv_pos_as_xyz
  1  'x, y, z'
loop_
 _atom_site_type_symbol
 _atom_site_label
 _atom_site_symmetry_multiplicity
 _atom_site_fract_x
 _atom_site_fract_y
 _atom_site_fract_z
 _atom_site_occupancy
  Bi  Bi0  1  0.599736  0.989464  0.267771  1
  Bi  Bi1  1  0.400264  0.489464  0.232229  1
  Bi  Bi2  1  0.400264  0.010536  0.732229  1
  Bi  Bi3  1  0.599736  0.510536  0.767771  1
  Kr  Kr4  1  0.983807  0.232140  0.471335  1
  Kr  Kr5  1  0.016193  0.732140  0.028665  1
  Kr  Kr6  1  0.016193  0.767860  0.528665  1
  Kr  Kr7  1  0.983807  0.267860  0.971335  1
  F  F8  1  0.145863  0.375660  0.518381  1
  F  F9  1  0.854137  0.875660  0.981619  1
  F  F10  1  0.854137  0.624340  0.481619  1
  F  F11  1  0.145863  0.124340  0.018381  1
  F  F12  1  0.504778  0.632331  0.889379  1
  F  F13  1  0.495222  0.132331  0.610621  1
  F  F14  1  0.495222  0.367669  0.110621  1
  F  F15  1  0.504778  0.867669  0.389379  1
  F  F16  1  0.899751  0.614614  0.755100  1
  F  F17  1  0.100249  0.114614  0.744900  1
  F  F18  1  0.100249  0.385386  0.244900  1
  F  F19  1  0.899751  0.885386  0.255100  1
  F  F20  1  0.811866  0.432125  0.925674  1
  F  F21  1  0.188134  0.932125  0.574326  1
  F  F22  1  0.188134  0.567875  0.074326  1
  F  F23  1  0.811866  0.067875  0.425674  1
  F  F24  1  0.411228  0.591259  0.629581  1
  F  F25  1  0.588772  0.091259  0.870419  1
  F  F26  1  0.588772  0.408741  0.370419  1
  F  F27  1  0.411228  0.908741  0.129581  1
  F  F28  1  0.332129  0.395624  0.807544  1
  F  F29  1  0.667871  0.895624  0.692456  1
  F  F30  1  0.667871  0.604376  0.192456  1
  F  F31  1  0.332129  0.104376  0.307544  1
  F  F32  1  0.744815  0.128229  0.179770  1
  F  F33  1  0.255185  0.628229  0.320230  1
  F  F34  1  0.255185  0.871771  0.820230  1
  F  F35  1  0.744815  0.371771  0.679770  1
