# generated using pymatgen
data_Li3GaN2
_symmetry_space_group_name_H-M   'P 1'
_cell_length_a   8.37915758
_cell_length_b   8.37915758
_cell_length_c   8.37915758
_cell_angle_alpha   109.47122063
_cell_angle_beta   109.47122063
_cell_angle_gamma   109.47122063
_symmetry_Int_Tables_number   1
_chemical_formula_structural   Li3GaN2
_chemical_formula_sum   'Li24 Ga8 N16'
_cell_volume   452.87587098
_cell_formula_units_Z   8
loop_
 _symmetry_equiv_pos_site_id
 _symmetry_equiv_pos_as_xyz
  1  'x, y, z'
loop_
 _atom_site_type_symbol
 _atom_site_label
 _atom_site_symmetry_multiplicity
 _atom_site_fract_x
 _atom_site_fract_y
 _atom_site_fract_z
 _atom_site_occupancy
  Li  Li0  1  0.992136  0.467969  0.231089  1
  Li  Li1  1  0.736881  0.761048  0.268911  1
  Li  Li2  1  0.763119  0.032031  0.024167  1
  Li  Li3  1  0.738952  0.475833  0.507864  1
  Li  Li4  1  0.475833  0.507864  0.738952  1
  Li  Li5  1  0.231089  0.992136  0.467969  1
  Li  Li6  1  0.761048  0.268911  0.736881  1
  Li  Li7  1  0.024167  0.763119  0.032031  1
  Li  Li8  1  0.467969  0.231089  0.992136  1
  Li  Li9  1  0.268911  0.736881  0.761048  1
  Li  Li10  1  0.032031  0.024167  0.763119  1
  Li  Li11  1  0.507864  0.738952  0.475833  1
  Li  Li12  1  0.007864  0.532031  0.768911  1
  Li  Li13  1  0.263119  0.238952  0.731089  1
  Li  Li14  1  0.236881  0.967969  0.975833  1
  Li  Li15  1  0.261048  0.524167  0.492136  1
  Li  Li16  1  0.524167  0.492136  0.261048  1
  Li  Li17  1  0.768911  0.007864  0.532031  1
  Li  Li18  1  0.238952  0.731089  0.263119  1
  Li  Li19  1  0.492136  0.261048  0.524167  1
  Li  Li20  1  0.532031  0.768911  0.007864  1
  Li  Li21  1  0.731089  0.263119  0.238952  1
  Li  Li22  1  0.967969  0.975833  0.236881  1
  Li  Li23  1  0.975833  0.236881  0.967969  1
  Ga  Ga24  1  0.235850  0.235850  0.235850  1
  Ga  Ga25  1  1.000000  0.264150  0.500000  1
  Ga  Ga26  1  0.500000  1.000000  0.264150  1
  Ga  Ga27  1  0.264150  0.500000  0.000000  1
  Ga  Ga28  1  0.764150  0.764150  0.764150  1
  Ga  Ga29  1  1.000000  0.735850  0.500000  1
  Ga  Ga30  1  0.500000  1.000000  0.735850  1
  Ga  Ga31  1  0.735850  0.500000  1.000000  1
  N  N32  1  0.977200  0.727200  0.250000  1
  N  N33  1  1.000000  0.500000  0.500000  1
  N  N34  1  0.500000  1.000000  0.500000  1
  N  N35  1  0.500000  0.500000  0.000000  1
  N  N36  1  0.250000  0.477200  0.227200  1
  N  N37  1  0.022800  0.272800  0.750000  1
  N  N38  1  0.272800  0.750000  0.022800  1
  N  N39  1  0.477200  0.227200  0.250000  1
  N  N40  1  0.250000  0.977200  0.727200  1
  N  N41  1  0.772800  0.750000  0.522800  1
  N  N42  1  0.522800  0.772800  0.750000  1
  N  N43  1  0.727200  0.250000  0.977200  1
  N  N44  1  0.227200  0.250000  0.477200  1
  N  N45  1  0.750000  0.522800  0.772800  1
  N  N46  1  0.750000  0.022800  0.272800  1
  N  N47  1  1.000000  1.000000  0.000000  1
