# generated using pymatgen
data_Ta2CrO6
_symmetry_space_group_name_H-M   'P 1'
_cell_length_a   4.85240380
_cell_length_b   4.85240380
_cell_length_c   9.22948345
_cell_angle_alpha   90.00000000
_cell_angle_beta   90.00000000
_cell_angle_gamma   90.00000000
_symmetry_Int_Tables_number   1
_chemical_formula_structural   Ta2CrO6
_chemical_formula_sum   'Ta4 Cr2 O12'
_cell_volume   217.31578036
_cell_formula_units_Z   2
loop_
 _symmetry_equiv_pos_site_id
 _symmetry_equiv_pos_as_xyz
  1  'x, y, z'
loop_
 _atom_site_type_symbol
 _atom_site_label
 _atom_site_symmetry_multiplicity
 _atom_site_fract_x
 _atom_site_fract_y
 _atom_site_fract_z
 _atom_site_occupancy
  Ta  Ta0  1  0.500000  0.500000  0.167632  1
  Ta  Ta1  1  0.000000  0.000000  0.667632  1
  Ta  Ta2  1  0.500000  0.500000  0.832368  1
  Ta  Ta3  1  0.000000  0.000000  0.332368  1
  Cr  Cr4  1  0.500000  0.500000  0.500000  1
  Cr  Cr5  1  0.000000  0.000000  0.000000  1
  O  O6  1  0.296062  0.296062  0.323283  1
  O  O7  1  0.203938  0.796062  0.823283  1
  O  O8  1  0.796062  0.203938  0.823283  1
  O  O9  1  0.796062  0.203938  0.176717  1
  O  O10  1  0.203938  0.796062  0.176717  1
  O  O11  1  0.703938  0.703938  0.323283  1
  O  O12  1  0.296062  0.296062  0.676717  1
  O  O13  1  0.703938  0.703938  0.676717  1
  O  O14  1  0.317203  0.317203  0.000000  1
  O  O15  1  0.182797  0.817203  0.500000  1
  O  O16  1  0.817203  0.182797  0.500000  1
  O  O17  1  0.682797  0.682797  0.000000  1
