# generated using pymatgen
data_Rb2SO4
_symmetry_space_group_name_H-M   'P 1'
_cell_length_a   6.07831701
_cell_length_b   7.97611521
_cell_length_c   10.65453669
_cell_angle_alpha   90.00000000
_cell_angle_beta   90.00000000
_cell_angle_gamma   90.00000000
_symmetry_Int_Tables_number   1
_chemical_formula_structural   Rb2SO4
_chemical_formula_sum   'Rb8 S4 O16'
_cell_volume   516.54639432
_cell_formula_units_Z   4
loop_
 _symmetry_equiv_pos_site_id
 _symmetry_equiv_pos_as_xyz
  1  'x, y, z'
loop_
 _atom_site_type_symbol
 _atom_site_label
 _atom_site_symmetry_multiplicity
 _atom_site_fract_x
 _atom_site_fract_y
 _atom_site_fract_z
 _atom_site_occupancy
  Rb  Rb0  1  0.750000  0.008452  0.299793  1
  Rb  Rb1  1  0.250000  0.991548  0.700207  1
  Rb  Rb2  1  0.750000  0.508452  0.200207  1
  Rb  Rb3  1  0.250000  0.491548  0.799793  1
  Rb  Rb4  1  0.250000  0.673897  0.411591  1
  Rb  Rb5  1  0.750000  0.326103  0.588409  1
  Rb  Rb6  1  0.250000  0.173897  0.088409  1
  Rb  Rb7  1  0.750000  0.826103  0.911591  1
  S  S8  1  0.250000  0.235238  0.418137  1
  S  S9  1  0.750000  0.764762  0.581863  1
  S  S10  1  0.250000  0.735238  0.081863  1
  S  S11  1  0.750000  0.264762  0.918137  1
  O  O12  1  0.951370  0.699969  0.647146  1
  O  O13  1  0.451370  0.300031  0.352854  1
  O  O14  1  0.548630  0.199969  0.852854  1
  O  O15  1  0.048630  0.800031  0.147146  1
  O  O16  1  0.048630  0.300031  0.352854  1
  O  O17  1  0.548630  0.699969  0.647146  1
  O  O18  1  0.451370  0.800031  0.147146  1
  O  O19  1  0.951370  0.199969  0.852854  1
  O  O20  1  0.250000  0.298186  0.551096  1
  O  O21  1  0.750000  0.701814  0.448904  1
  O  O22  1  0.250000  0.798186  0.948904  1
  O  O23  1  0.750000  0.201814  0.051096  1
  O  O24  1  0.750000  0.451560  0.916035  1
  O  O25  1  0.250000  0.548440  0.083965  1
  O  O26  1  0.750000  0.951560  0.583965  1
  O  O27  1  0.250000  0.048440  0.416035  1
