# generated using pymatgen
data_In2PO5
_symmetry_space_group_name_H-M   'P 1'
_cell_length_a   5.32605439
_cell_length_b   6.45233916
_cell_length_c   6.93848282
_cell_angle_alpha   107.80858805
_cell_angle_beta   109.27903665
_cell_angle_gamma   95.63482842
_symmetry_Int_Tables_number   1
_chemical_formula_structural   In2PO5
_chemical_formula_sum   'In4 P2 O10'
_cell_volume   208.95969840
_cell_formula_units_Z   2
loop_
 _symmetry_equiv_pos_site_id
 _symmetry_equiv_pos_as_xyz
  1  'x, y, z'
loop_
 _atom_site_type_symbol
 _atom_site_label
 _atom_site_symmetry_multiplicity
 _atom_site_fract_x
 _atom_site_fract_y
 _atom_site_fract_z
 _atom_site_occupancy
  In  In0  1  0.569052  0.787019  0.011655  1
  In  In1  1  0.430948  0.212981  0.988344  1
  In  In2  1  0.166640  0.631954  0.271061  1
  In  In3  1  0.833360  0.368046  0.728939  1
  P  P4  1  0.166003  0.180783  0.395674  1
  P  P5  1  0.833997  0.819217  0.604326  1
  O  O6  1  0.398557  0.194018  0.608582  1
  O  O7  1  0.601443  0.805982  0.391418  1
  O  O8  1  0.921841  0.266561  0.436776  1
  O  O9  1  0.078159  0.733439  0.563224  1
  O  O10  1  0.289587  0.324613  0.289005  1
  O  O11  1  0.710413  0.675387  0.710995  1
  O  O12  1  0.057936  0.937271  0.225088  1
  O  O13  1  0.942064  0.062729  0.774912  1
  O  O14  1  0.244079  0.513400  0.965245  1
  O  O15  1  0.755921  0.486600  0.034755  1
