# generated using pymatgen
data_K3BiO4
_symmetry_space_group_name_H-M   'P 1'
_cell_length_a   6.55661335
_cell_length_b   6.72305567
_cell_length_c   7.83290669
_cell_angle_alpha   101.40821641
_cell_angle_beta   97.13223393
_cell_angle_gamma   105.83945408
_symmetry_Int_Tables_number   1
_chemical_formula_structural   K3BiO4
_chemical_formula_sum   'K6 Bi2 O8'
_cell_volume   319.74266582
_cell_formula_units_Z   2
loop_
 _symmetry_equiv_pos_site_id
 _symmetry_equiv_pos_as_xyz
  1  'x, y, z'
loop_
 _atom_site_type_symbol
 _atom_site_label
 _atom_site_symmetry_multiplicity
 _atom_site_fract_x
 _atom_site_fract_y
 _atom_site_fract_z
 _atom_site_occupancy
  K  K0  1  0.668559  0.777904  0.977524  1
  K  K1  1  0.837260  0.234047  0.830983  1
  K  K2  1  0.648244  0.774262  0.465876  1
  K  K3  1  0.351756  0.225738  0.534124  1
  K  K4  1  0.331441  0.222096  0.022476  1
  K  K5  1  0.162740  0.765953  0.169017  1
  Bi  Bi6  1  0.846574  0.301443  0.314381  1
  Bi  Bi7  1  0.153426  0.698557  0.685619  1
  O  O8  1  0.980793  0.900113  0.769966  1
  O  O9  1  0.019207  0.099887  0.230034  1
  O  O10  1  0.236060  0.525727  0.857948  1
  O  O11  1  0.763940  0.474273  0.142052  1
  O  O12  1  0.445922  0.939201  0.726951  1
  O  O13  1  0.554078  0.060799  0.273049  1
  O  O14  1  0.182841  0.552655  0.425379  1
  O  O15  1  0.817159  0.447345  0.574621  1
