# generated using pymatgen
data_Ho6Se11
_symmetry_space_group_name_H-M   'P 1'
_cell_length_a   11.54307932
_cell_length_b   11.58570347
_cell_length_c   12.02935944
_cell_angle_alpha   89.92294181
_cell_angle_beta   89.77881342
_cell_angle_gamma   88.23962748
_symmetry_Int_Tables_number   1
_chemical_formula_structural   Ho6Se11
_chemical_formula_sum   'Ho24 Se44'
_cell_volume   1607.97026144
_cell_formula_units_Z   4
loop_
 _symmetry_equiv_pos_site_id
 _symmetry_equiv_pos_as_xyz
  1  'x, y, z'
loop_
 _atom_site_type_symbol
 _atom_site_label
 _atom_site_symmetry_multiplicity
 _atom_site_fract_x
 _atom_site_fract_y
 _atom_site_fract_z
 _atom_site_occupancy
  Ho  Ho0  1  0.007394  0.751384  0.498992  1
  Ho  Ho1  1  0.139806  0.140379  0.333266  1
  Ho  Ho2  1  0.140729  0.138746  0.663468  1
  Ho  Ho3  1  0.155419  0.156407  0.000723  1
  Ho  Ho4  1  0.240516  0.487940  0.500163  1
  Ho  Ho5  1  0.246904  0.503495  0.169816  1
  Ho  Ho6  1  0.255728  0.501302  0.829068  1
  Ho  Ho7  1  0.387931  0.881175  0.667454  1
  Ho  Ho8  1  0.385821  0.880804  0.331352  1
  Ho  Ho9  1  0.387720  0.893742  0.000787  1
  Ho  Ho10  1  0.484395  0.225092  0.495981  1
  Ho  Ho11  1  0.496186  0.241835  0.835041  1
  Ho  Ho12  1  0.502984  0.248154  0.171978  1
  Ho  Ho13  1  0.626731  0.628444  0.999001  1
  Ho  Ho14  1  0.652870  0.658816  0.671166  1
  Ho  Ho15  1  0.647865  0.645929  0.335251  1
  Ho  Ho16  1  0.750299  0.008680  0.499013  1
  Ho  Ho17  1  0.740933  0.987700  0.162870  1
  Ho  Ho18  1  0.740813  0.992362  0.836650  1
  Ho  Ho19  1  0.894966  0.391189  0.668204  1
  Ho  Ho20  1  0.880472  0.384870  0.336876  1
  Ho  Ho21  1  0.892586  0.387881  0.000141  1
  Ho  Ho22  1  0.987290  0.738058  0.162479  1
  Ho  Ho23  1  0.991332  0.739592  0.837192  1
  Se  Se24  1  0.004959  0.007216  0.495727  1
  Se  Se25  1  0.060525  0.312262  0.499686  1
  Se  Se26  1  0.071730  0.314946  0.832969  1
  Se  Se27  1  0.067493  0.315328  0.167004  1
  Se  Se28  1  0.070269  0.568636  0.999230  1
  Se  Se29  1  0.074246  0.570283  0.667492  1
  Se  Se30  1  0.067330  0.568164  0.334132  1
  Se  Se31  1  0.067095  0.918823  0.998506  1
  Se  Se32  1  0.122323  0.886965  0.304079  1
  Se  Se33  1  0.126064  0.885255  0.691055  1
  Se  Se34  1  0.245905  0.767409  0.838089  1
  Se  Se35  1  0.238571  0.772706  0.159570  1
  Se  Se36  1  0.270101  0.738657  0.501505  1
  Se  Se37  1  0.309721  0.053348  0.498689  1
  Se  Se38  1  0.315613  0.069121  0.166339  1
  Se  Se39  1  0.313022  0.066857  0.834153  1
  Se  Se40  1  0.319255  0.317781  0.335482  1
  Se  Se41  1  0.325051  0.315814  0.662324  1
  Se  Se42  1  0.330000  0.329998  0.001089  1
  Se  Se43  1  0.370436  0.639739  0.996247  1
  Se  Se44  1  0.408680  0.600625  0.650601  1
  Se  Se45  1  0.391774  0.617359  0.348848  1
  Se  Se46  1  0.524950  0.488213  0.793773  1
  Se  Se47  1  0.506206  0.503173  0.189289  1
  Se  Se48  1  0.567541  0.067807  0.668678  1
  Se  Se49  1  0.569277  0.065808  0.331513  1
  Se  Se50  1  0.570026  0.069317  0.001331  1
  Se  Se51  1  0.561185  0.814396  0.834929  1
  Se  Se52  1  0.560588  0.811228  0.166694  1
  Se  Se53  1  0.571247  0.818606  0.500375  1
  Se  Se54  1  0.619592  0.391126  0.372820  1
  Se  Se55  1  0.635784  0.373306  0.996266  1
  Se  Se56  1  0.726838  0.280423  0.523115  1
  Se  Se57  1  0.761888  0.251742  0.829668  1
  Se  Se58  1  0.767185  0.242911  0.163110  1
  Se  Se59  1  0.815035  0.560954  0.832238  1
  Se  Se60  1  0.811647  0.558037  0.168139  1
  Se  Se61  1  0.804962  0.804463  0.999664  1
  Se  Se62  1  0.815874  0.569494  0.505470  1
  Se  Se63  1  0.828599  0.830272  0.669901  1
  Se  Se64  1  0.824139  0.824001  0.331868  1
  Se  Se65  1  0.882185  0.127227  0.310791  1
  Se  Se66  1  0.881099  0.131394  0.686033  1
  Se  Se67  1  0.914149  0.071884  0.998788  1
