# generated using pymatgen
data_AsCl5
_symmetry_space_group_name_H-M   'P 1'
_cell_length_a   6.78945513
_cell_length_b   7.73685303
_cell_length_c   8.06346415
_cell_angle_alpha   90.00000000
_cell_angle_beta   90.00000000
_cell_angle_gamma   90.00000000
_symmetry_Int_Tables_number   1
_chemical_formula_structural   AsCl5
_chemical_formula_sum   'As2 Cl10'
_cell_volume   423.56584134
_cell_formula_units_Z   2
loop_
 _symmetry_equiv_pos_site_id
 _symmetry_equiv_pos_as_xyz
  1  'x, y, z'
loop_
 _atom_site_type_symbol
 _atom_site_label
 _atom_site_symmetry_multiplicity
 _atom_site_fract_x
 _atom_site_fract_y
 _atom_site_fract_z
 _atom_site_occupancy
  As  As0  1  0.825135  0.000000  0.500000  1
  As  As1  1  0.174865  0.500000  0.000000  1
  Cl  Cl2  1  0.826177  0.000000  0.220233  1
  Cl  Cl3  1  0.826177  0.000000  0.779767  1
  Cl  Cl4  1  0.339247  0.258376  0.000000  1
  Cl  Cl5  1  0.339247  0.741624  0.000000  1
  Cl  Cl6  1  0.660753  0.758376  0.500000  1
  Cl  Cl7  1  0.660753  0.241624  0.500000  1
  Cl  Cl8  1  0.854768  0.500000  0.000000  1
  Cl  Cl9  1  0.145232  0.000000  0.500000  1
  Cl  Cl10  1  0.173823  0.500000  0.720233  1
  Cl  Cl11  1  0.173823  0.500000  0.279767  1
