# generated using pymatgen
data_Ag3PSe4
_symmetry_space_group_name_H-M   'P 1'
_cell_length_a   6.93602297
_cell_length_b   7.26074048
_cell_length_c   8.21613965
_cell_angle_alpha   90.00000000
_cell_angle_beta   90.00000000
_cell_angle_gamma   90.00000000
_symmetry_Int_Tables_number   1
_chemical_formula_structural   Ag3PSe4
_chemical_formula_sum   'Ag6 P2 Se8'
_cell_volume   413.77023801
_cell_formula_units_Z   2
loop_
 _symmetry_equiv_pos_site_id
 _symmetry_equiv_pos_as_xyz
  1  'x, y, z'
loop_
 _atom_site_type_symbol
 _atom_site_label
 _atom_site_symmetry_multiplicity
 _atom_site_fract_x
 _atom_site_fract_y
 _atom_site_fract_z
 _atom_site_occupancy
  Ag  Ag0  1  0.014132  0.812219  0.738522  1
  Ag  Ag1  1  0.514132  0.187781  0.761478  1
  Ag  Ag2  1  0.514132  0.187781  0.238522  1
  Ag  Ag3  1  0.014132  0.812219  0.261478  1
  Ag  Ag4  1  0.983849  0.356027  0.000000  1
  Ag  Ag5  1  0.483849  0.643973  0.500000  1
  P  P6  1  0.995773  0.317217  0.500000  1
  P  P7  1  0.495773  0.682783  0.000000  1
  Se  Se8  1  0.892266  0.165149  0.274133  1
  Se  Se9  1  0.392266  0.834851  0.225867  1
  Se  Se10  1  0.372743  0.395209  0.000000  1
  Se  Se11  1  0.872743  0.604791  0.500000  1
  Se  Se12  1  0.392266  0.834851  0.774133  1
  Se  Se13  1  0.892266  0.165149  0.725867  1
  Se  Se14  1  0.320931  0.310507  0.500000  1
  Se  Se15  1  0.820931  0.689493  0.000000  1
