# generated using pymatgen
data_SbIF10
_symmetry_space_group_name_H-M   'P 1'
_cell_length_a   12.22101036
_cell_length_b   12.22101036
_cell_length_c   12.22101036
_cell_angle_alpha   139.86746394
_cell_angle_beta   139.54607300
_cell_angle_gamma   58.29920461
_symmetry_Int_Tables_number   1
_chemical_formula_structural   SbIF10
_chemical_formula_sum   'Sb4 I4 F40'
_cell_volume   756.39518154
_cell_formula_units_Z   4
loop_
 _symmetry_equiv_pos_site_id
 _symmetry_equiv_pos_as_xyz
  1  'x, y, z'
loop_
 _atom_site_type_symbol
 _atom_site_label
 _atom_site_symmetry_multiplicity
 _atom_site_fract_x
 _atom_site_fract_y
 _atom_site_fract_z
 _atom_site_occupancy
  Sb  Sb0  1  0.163998  0.413998  0.750000  1
  Sb  Sb1  1  0.336002  0.086002  0.250000  1
  Sb  Sb2  1  0.836002  0.586002  0.250000  1
  Sb  Sb3  1  0.663998  0.913998  0.750000  1
  I  I4  1  0.100473  0.850473  0.250000  1
  I  I5  1  0.399527  0.649527  0.750000  1
  I  I6  1  0.899527  0.149527  0.750000  1
  I  I7  1  0.600473  0.350473  0.250000  1
  F  F8  1  0.110100  0.128574  0.068628  1
  F  F9  1  0.389900  0.458528  0.018474  1
  F  F10  1  0.940054  0.371426  0.481526  1
  F  F11  1  0.559946  0.041472  0.431372  1
  F  F12  1  0.889900  0.871426  0.931372  1
  F  F13  1  0.610100  0.541472  0.981526  1
  F  F14  1  0.059946  0.628574  0.518474  1
  F  F15  1  0.440054  0.958528  0.568628  1
  F  F16  1  0.663390  0.173914  0.246618  1
  F  F17  1  0.836610  0.083228  0.510523  1
  F  F18  1  0.072704  0.326086  0.989477  1
  F  F19  1  0.427296  0.416772  0.253382  1
  F  F20  1  0.336610  0.826086  0.753382  1
  F  F21  1  0.163390  0.916772  0.489477  1
  F  F22  1  0.927296  0.673914  0.010523  1
  F  F23  1  0.572704  0.583228  0.746618  1
  F  F24  1  0.422431  0.174492  0.941975  1
  F  F25  1  0.077569  0.019544  0.752061  1
  F  F26  1  0.767483  0.325508  0.747939  1
  F  F27  1  0.732517  0.480456  0.558025  1
  F  F28  1  0.577569  0.825508  0.058025  1
  F  F29  1  0.922431  0.980456  0.247939  1
  F  F30  1  0.232517  0.674492  0.252061  1
  F  F31  1  0.267483  0.519544  0.441975  1
  F  F32  1  0.753020  0.003020  0.750000  1
  F  F33  1  0.746980  0.496980  0.250000  1
  F  F34  1  0.246980  0.996980  0.250000  1
  F  F35  1  0.253020  0.503020  0.750000  1
  F  F36  1  0.575148  0.825148  0.750000  1
  F  F37  1  0.924852  0.674852  0.250000  1
  F  F38  1  0.424852  0.174852  0.250000  1
  F  F39  1  0.075148  0.325148  0.750000  1
  F  F40  1  0.707556  0.141716  0.020036  1
  F  F41  1  0.792444  0.812480  0.434159  1
  F  F42  1  0.878320  0.358284  0.065841  1
  F  F43  1  0.621680  0.687520  0.479964  1
  F  F44  1  0.292444  0.858284  0.979964  1
  F  F45  1  0.207556  0.187520  0.565841  1
  F  F46  1  0.121680  0.641716  0.934159  1
  F  F47  1  0.378320  0.312480  0.520036  1
