# generated using pymatgen
data_Na3HfF7
_symmetry_space_group_name_H-M   'P 1'
_cell_length_a   5.48781102
_cell_length_b   5.48781102
_cell_length_c   6.26960448
_cell_angle_alpha   66.74836667
_cell_angle_beta   113.25163333
_cell_angle_gamma   89.14288924
_symmetry_Int_Tables_number   1
_chemical_formula_structural   Na3HfF7
_chemical_formula_sum   'Na3 Hf1 F7'
_cell_volume   156.09338446
_cell_formula_units_Z   1
loop_
 _symmetry_equiv_pos_site_id
 _symmetry_equiv_pos_as_xyz
  1  'x, y, z'
loop_
 _atom_site_type_symbol
 _atom_site_label
 _atom_site_symmetry_multiplicity
 _atom_site_fract_x
 _atom_site_fract_y
 _atom_site_fract_z
 _atom_site_occupancy
  Na  Na0  1  0.239066  0.226915  0.507825  1
  Na  Na1  1  0.486131  0.513869  0.956023  1
  Na  Na2  1  0.773085  0.760934  0.507825  1
  Hf  Hf3  1  0.952670  0.047330  0.971747  1
  F  F4  1  0.152707  0.847293  0.852326  1
  F  F5  1  0.101043  0.352134  0.767141  1
  F  F6  1  0.325275  0.024785  0.246568  1
  F  F7  1  0.647866  0.898957  0.767141  1
  F  F8  1  0.625544  0.374456  0.713987  1
  F  F9  1  0.975215  0.674725  0.246568  1
  F  F10  1  0.846399  0.153601  0.212851  1
