# generated using pymatgen
data_Mg3Al14O24
_symmetry_space_group_name_H-M   'P 1'
_cell_length_a   9.80858385
_cell_length_b   9.80858385
_cell_length_c   8.10599280
_cell_angle_alpha   66.50865667
_cell_angle_beta   113.49134333
_cell_angle_gamma   145.98209350
_symmetry_Int_Tables_number   1
_chemical_formula_structural   Mg3Al14O24
_chemical_formula_sum   'Mg3 Al14 O24'
_cell_volume   396.58393007
_cell_formula_units_Z   1
loop_
 _symmetry_equiv_pos_site_id
 _symmetry_equiv_pos_as_xyz
  1  'x, y, z'
loop_
 _atom_site_type_symbol
 _atom_site_label
 _atom_site_symmetry_multiplicity
 _atom_site_fract_x
 _atom_site_fract_y
 _atom_site_fract_z
 _atom_site_occupancy
  Mg  Mg0  1  0.080237  0.919763  0.456500  1
  Mg  Mg1  1  0.414315  0.585685  0.794253  1
  Mg  Mg2  1  0.586667  0.413333  0.211164  1
  Al  Al3  1  0.170551  0.829449  0.164637  1
  Al  Al4  1  0.667189  0.332811  0.666416  1
  Al  Al5  1  0.495251  0.504749  0.500838  1
  Al  Al6  1  0.334900  0.169005  0.830957  1
  Al  Al7  1  0.998927  0.001073  0.003916  1
  Al  Al8  1  0.834921  0.165079  0.837771  1
  Al  Al9  1  0.747115  0.252885  0.126313  1
  Al  Al10  1  0.658997  0.831950  0.173735  1
  Al  Al11  1  0.830995  0.665100  0.830957  1
  Al  Al12  1  0.168050  0.341003  0.173735  1
  Al  Al13  1  0.011164  0.504832  0.488042  1
  Al  Al14  1  0.919088  0.080912  0.539177  1
  Al  Al15  1  0.495168  0.988836  0.488042  1
  Al  Al16  1  0.253666  0.746334  0.872330  1
  O  O17  1  0.173459  0.826541  0.402930  1
  O  O18  1  0.807836  0.635149  0.603496  1
  O  O19  1  0.980195  0.478166  0.749599  1
  O  O20  1  0.680399  0.319601  0.451098  1
  O  O21  1  0.509483  0.490517  0.749334  1
  O  O22  1  0.662690  0.337310  0.906732  1
  O  O23  1  0.521834  0.019805  0.749599  1
  O  O24  1  0.364851  0.192164  0.603496  1
  O  O25  1  0.301821  0.138287  0.060119  1
  O  O26  1  0.134738  0.303180  0.932522  1
  O  O27  1  0.163689  0.836311  0.912536  1
  O  O28  1  0.005232  0.994768  0.758600  1
  O  O29  1  0.988897  0.011103  0.223953  1
  O  O30  1  0.834969  0.165031  0.085110  1
  O  O31  1  0.861713  0.698179  0.060119  1
  O  O32  1  0.696820  0.865262  0.932522  1
  O  O33  1  0.677333  0.826725  0.417364  1
  O  O34  1  0.492813  0.013318  0.246198  1
  O  O35  1  0.490236  0.509764  0.258468  1
  O  O36  1  0.340152  0.659848  0.074762  1
  O  O37  1  0.319815  0.680185  0.578137  1
  O  O38  1  0.173275  0.322667  0.417364  1
  O  O39  1  0.986682  0.507187  0.246198  1
  O  O40  1  0.831406  0.168594  0.587435  1
