# generated using pymatgen
data_Si(CN2)2
_symmetry_space_group_name_H-M   'P 1'
_cell_length_a   6.68437800
_cell_length_b   6.68437800
_cell_length_c   6.68437800
_cell_angle_alpha   90.00000000
_cell_angle_beta   90.00000000
_cell_angle_gamma   90.00000000
_symmetry_Int_Tables_number   1
_chemical_formula_structural   Si(CN2)2
_chemical_formula_sum   'Si2 C4 N8'
_cell_volume   298.66408679
_cell_formula_units_Z   2
loop_
 _symmetry_equiv_pos_site_id
 _symmetry_equiv_pos_as_xyz
  1  'x, y, z'
loop_
 _atom_site_type_symbol
 _atom_site_label
 _atom_site_symmetry_multiplicity
 _atom_site_fract_x
 _atom_site_fract_y
 _atom_site_fract_z
 _atom_site_occupancy
  Si  Si0  1  0.500000  0.500000  0.500000  1
  Si  Si1  1  0.000000  0.000000  0.000000  1
  C  C2  1  0.750000  0.250000  0.250000  1
  C  C3  1  0.250000  0.250000  0.750000  1
  C  C4  1  0.750000  0.750000  0.750000  1
  C  C5  1  0.250000  0.750000  0.250000  1
  N  N6  1  0.145541  0.854459  0.145541  1
  N  N7  1  0.645541  0.645541  0.645541  1
  N  N8  1  0.854459  0.854459  0.854459  1
  N  N9  1  0.354459  0.645541  0.354459  1
  N  N10  1  0.354459  0.354459  0.645541  1
  N  N11  1  0.645541  0.354459  0.354459  1
  N  N12  1  0.145541  0.145541  0.854459  1
  N  N13  1  0.854459  0.145541  0.145541  1
