# generated using pymatgen
data_KSnAs
_symmetry_space_group_name_H-M   'P 1'
_cell_length_a   4.18031722
_cell_length_b   4.18031722
_cell_length_c   12.96153942
_cell_angle_alpha   90.00000000
_cell_angle_beta   90.00000000
_cell_angle_gamma   120.00000000
_symmetry_Int_Tables_number   1
_chemical_formula_structural   KSnAs
_chemical_formula_sum   'K2 Sn2 As2'
_cell_volume   196.15785105
_cell_formula_units_Z   2
loop_
 _symmetry_equiv_pos_site_id
 _symmetry_equiv_pos_as_xyz
  1  'x, y, z'
loop_
 _atom_site_type_symbol
 _atom_site_label
 _atom_site_symmetry_multiplicity
 _atom_site_fract_x
 _atom_site_fract_y
 _atom_site_fract_z
 _atom_site_occupancy
  K  K0  1  0.333333  0.666667  0.995746  1
  K  K1  1  0.666667  0.333333  0.495746  1
  Sn  Sn2  1  0.000000  0.000000  0.276266  1
  Sn  Sn3  1  0.000000  0.000000  0.776266  1
  As  As4  1  0.333333  0.666667  0.673088  1
  As  As5  1  0.666667  0.333333  0.173088  1
