# generated using pymatgen
data_TiCl4
_symmetry_space_group_name_H-M   'P 1'
_cell_length_a   10.74039103
_cell_length_b   7.16844759
_cell_length_c   10.75060702
_cell_angle_alpha   90.00000000
_cell_angle_beta   102.05409435
_cell_angle_gamma   90.00000000
_symmetry_Int_Tables_number   1
_chemical_formula_structural   TiCl4
_chemical_formula_sum   'Ti4 Cl16'
_cell_volume   809.45970059
_cell_formula_units_Z   4
loop_
 _symmetry_equiv_pos_site_id
 _symmetry_equiv_pos_as_xyz
  1  'x, y, z'
loop_
 _atom_site_type_symbol
 _atom_site_label
 _atom_site_symmetry_multiplicity
 _atom_site_fract_x
 _atom_site_fract_y
 _atom_site_fract_z
 _atom_site_occupancy
  Ti  Ti0  1  0.251125  0.576620  0.633647  1
  Ti  Ti1  1  0.748875  0.076620  0.866353  1
  Ti  Ti2  1  0.748875  0.423380  0.366353  1
  Ti  Ti3  1  0.251125  0.923380  0.133647  1
  Cl  Cl4  1  0.415048  0.575241  0.792906  1
  Cl  Cl5  1  0.584952  0.075241  0.707094  1
  Cl  Cl6  1  0.584952  0.424759  0.207094  1
  Cl  Cl7  1  0.415048  0.924759  0.292906  1
  Cl  Cl8  1  0.195206  0.636102  0.081719  1
  Cl  Cl9  1  0.804794  0.136102  0.418281  1
  Cl  Cl10  1  0.804794  0.363898  0.918281  1
  Cl  Cl11  1  0.195206  0.863898  0.581719  1
  Cl  Cl12  1  0.093045  0.069003  0.190272  1
  Cl  Cl13  1  0.906955  0.569003  0.309728  1
  Cl  Cl14  1  0.906955  0.930997  0.809728  1
  Cl  Cl15  1  0.093045  0.430997  0.690272  1
  Cl  Cl16  1  0.301844  0.065733  0.971538  1
  Cl  Cl17  1  0.698156  0.565733  0.528462  1
  Cl  Cl18  1  0.698156  0.934267  0.028462  1
  Cl  Cl19  1  0.301844  0.434267  0.471538  1
