# generated using pymatgen
data_Mg(GaO2)2
_symmetry_space_group_name_H-M   'P 1'
_cell_length_a   5.91929280
_cell_length_b   5.91929280
_cell_length_c   5.91929280
_cell_angle_alpha   120.40298552
_cell_angle_beta   119.20834834
_cell_angle_gamma   90.34002090
_symmetry_Int_Tables_number   1
_chemical_formula_structural   Mg(GaO2)2
_chemical_formula_sum   'Mg2 Ga4 O8'
_cell_volume   147.06232013
_cell_formula_units_Z   2
loop_
 _symmetry_equiv_pos_site_id
 _symmetry_equiv_pos_as_xyz
  1  'x, y, z'
loop_
 _atom_site_type_symbol
 _atom_site_label
 _atom_site_symmetry_multiplicity
 _atom_site_fract_x
 _atom_site_fract_y
 _atom_site_fract_z
 _atom_site_occupancy
  Mg  Mg0  1  0.500000  0.500000  0.000000  1
  Mg  Mg1  1  0.500000  0.000000  0.500000  1
  Ga  Ga2  1  0.114850  0.864850  0.750000  1
  Ga  Ga3  1  0.885150  0.135150  0.250000  1
  Ga  Ga4  1  0.000000  0.500000  1.000000  1
  Ga  Ga5  1  0.500000  0.500000  0.500000  1
  O  O6  1  0.752595  0.261845  0.990749  1
  O  O7  1  0.271096  0.261845  0.509251  1
  O  O8  1  0.749139  0.735218  0.986079  1
  O  O9  1  0.749139  0.263060  0.513921  1
  O  O10  1  0.250861  0.736940  0.486079  1
  O  O11  1  0.250861  0.264782  0.013921  1
  O  O12  1  0.728904  0.738155  0.490749  1
  O  O13  1  0.247405  0.738155  0.009251  1
