# generated using pymatgen
data_Sr(AlTe2)2
_symmetry_space_group_name_H-M   'P 1'
_cell_length_a   6.84805933
_cell_length_b   6.84805933
_cell_length_c   6.84805933
_cell_angle_alpha   103.98394511
_cell_angle_beta   103.98394511
_cell_angle_gamma   121.11115334
_symmetry_Int_Tables_number   1
_chemical_formula_structural   Sr(AlTe2)2
_chemical_formula_sum   'Sr1 Al2 Te4'
_cell_volume   239.43940714
_cell_formula_units_Z   1
loop_
 _symmetry_equiv_pos_site_id
 _symmetry_equiv_pos_as_xyz
  1  'x, y, z'
loop_
 _atom_site_type_symbol
 _atom_site_label
 _atom_site_symmetry_multiplicity
 _atom_site_fract_x
 _atom_site_fract_y
 _atom_site_fract_z
 _atom_site_occupancy
  Sr  Sr0  1  0.500000  0.500000  0.000000  1
  Al  Al1  1  0.500000  1.000000  0.500000  1
  Al  Al2  1  0.000000  0.500000  0.500000  1
  Te  Te3  1  0.078085  0.921915  0.500000  1
  Te  Te4  1  0.578085  0.078085  0.156169  1
  Te  Te5  1  0.921915  0.421915  0.843831  1
  Te  Te6  1  0.421915  0.578085  0.500000  1
