# generated using pymatgen
data_ErAgSe2
_symmetry_space_group_name_H-M   'P 1'
_cell_length_a   7.26442307
_cell_length_b   7.26442307
_cell_length_c   7.26442307
_cell_angle_alpha   133.86482572
_cell_angle_beta   133.86482572
_cell_angle_gamma   67.29921434
_symmetry_Int_Tables_number   1
_chemical_formula_structural   ErAgSe2
_chemical_formula_sum   'Er2 Ag2 Se4'
_cell_volume   195.96708983
_cell_formula_units_Z   2
loop_
 _symmetry_equiv_pos_site_id
 _symmetry_equiv_pos_as_xyz
  1  'x, y, z'
loop_
 _atom_site_type_symbol
 _atom_site_label
 _atom_site_symmetry_multiplicity
 _atom_site_fract_x
 _atom_site_fract_y
 _atom_site_fract_z
 _atom_site_occupancy
  Er  Er0  1  0.500000  0.500000  0.000000  1
  Er  Er1  1  0.250000  0.750000  0.500000  1
  Ag  Ag2  1  0.000000  0.000000  0.000000  1
  Ag  Ag3  1  0.750000  0.250000  0.500000  1
  Se  Se4  1  0.736296  0.736296  0.000000  1
  Se  Se5  1  0.263704  0.263704  0.000000  1
  Se  Se6  1  0.013704  0.513704  0.500000  1
  Se  Se7  1  0.486296  0.986296  0.500000  1
