# generated using pymatgen
data_Zr4N2O5
_symmetry_space_group_name_H-M   'P 1'
_cell_length_a   8.89590848
_cell_length_b   8.89653019
_cell_length_c   8.90680788
_cell_angle_alpha   109.37363246
_cell_angle_beta   109.36763890
_cell_angle_gamma   109.58284930
_symmetry_Int_Tables_number   1
_chemical_formula_structural   Zr4N2O5
_chemical_formula_sum   'Zr16 N8 O20'
_cell_volume   543.23614658
_cell_formula_units_Z   4
loop_
 _symmetry_equiv_pos_site_id
 _symmetry_equiv_pos_as_xyz
  1  'x, y, z'
loop_
 _atom_site_type_symbol
 _atom_site_label
 _atom_site_symmetry_multiplicity
 _atom_site_fract_x
 _atom_site_fract_y
 _atom_site_fract_z
 _atom_site_occupancy
  Zr  Zr0  1  0.217336  0.000546  0.729965  1
  Zr  Zr1  1  0.715007  0.212573  0.960433  1
  Zr  Zr2  1  0.964362  0.465193  0.500337  1
  Zr  Zr3  1  0.474156  0.208813  0.205931  1
  Zr  Zr4  1  0.200751  0.243418  0.499413  1
  Zr  Zr5  1  0.004197  0.005566  0.000034  1
  Zr  Zr6  1  0.014119  0.274861  0.797309  1
  Zr  Zr7  1  0.772345  0.512143  0.795175  1
  Zr  Zr8  1  0.501475  0.720658  0.724348  1
  Zr  Zr9  1  0.742835  0.698866  0.499308  1
  Zr  Zr10  1  0.508678  0.493958  0.000652  1
  Zr  Zr11  1  0.270716  0.487074  0.266305  1
  Zr  Zr12  1  0.988040  0.772227  0.269800  1
  Zr  Zr13  1  0.254118  0.759834  0.045754  1
  Zr  Zr14  1  0.715817  0.981011  0.212302  1
  Zr  Zr15  1  0.454158  0.955270  0.493860  1
  N  N16  1  0.250087  0.022734  0.500619  1
  N  N17  1  0.213989  0.498110  0.501946  1
  N  N18  1  0.764653  0.495757  0.030448  1
  N  N19  1  0.996688  0.262820  0.028922  1
  N  N20  1  0.230073  0.965502  0.966810  1
  N  N21  1  0.995419  0.713152  0.499020  1
  N  N22  1  0.501338  0.999028  0.281944  1
  N  N23  1  0.521323  0.748210  0.500278  1
  O  O24  1  0.272974  0.238635  0.276600  1
  O  O25  1  0.976417  0.006183  0.240286  1
  O  O26  1  0.716893  0.217140  0.716247  1
  O  O27  1  0.938962  0.200510  0.498768  1
  O  O28  1  0.702772  0.441068  0.502419  1
  O  O29  1  0.499115  0.465902  0.728344  1
  O  O30  1  0.477448  0.231275  0.971320  1
  O  O31  1  0.751373  0.252008  0.229448  1
  O  O32  1  0.505634  0.473615  0.239340  1
  O  O33  1  0.237054  0.266526  0.762241  1
  O  O34  1  0.767216  0.737813  0.761927  1
  O  O35  1  0.017452  0.516706  0.770016  1
  O  O36  1  0.006068  0.759967  0.029067  1
  O  O37  1  0.264637  0.510858  0.029640  1
  O  O38  1  0.463082  0.732292  0.965783  1
  O  O39  1  0.204543  0.705467  0.261584  1
  O  O40  1  0.732070  0.769260  0.268718  1
  O  O41  1  0.447930  0.947101  0.741092  1
  O  O42  1  0.960125  0.997474  0.721409  1
  O  O43  1  0.727356  0.973675  0.974842  1
