# generated using pymatgen
data_In5S5Cl
_symmetry_space_group_name_H-M   'P 1'
_cell_length_a   9.07290705
_cell_length_b   3.97971783
_cell_length_c   15.32109618
_cell_angle_alpha   90.00000000
_cell_angle_beta   93.97249933
_cell_angle_gamma   90.00000000
_symmetry_Int_Tables_number   1
_chemical_formula_structural   In5S5Cl
_chemical_formula_sum   'In10 S10 Cl2'
_cell_volume   551.87903630
_cell_formula_units_Z   2
loop_
 _symmetry_equiv_pos_site_id
 _symmetry_equiv_pos_as_xyz
  1  'x, y, z'
loop_
 _atom_site_type_symbol
 _atom_site_label
 _atom_site_symmetry_multiplicity
 _atom_site_fract_x
 _atom_site_fract_y
 _atom_site_fract_z
 _atom_site_occupancy
  In  In0  1  0.657477  0.250000  0.446288  1
  In  In1  1  0.342523  0.750000  0.553712  1
  In  In2  1  0.134158  0.250000  0.063350  1
  In  In3  1  0.865842  0.750000  0.936650  1
  In  In4  1  0.955580  0.750000  0.356509  1
  In  In5  1  0.044420  0.250000  0.643491  1
  In  In6  1  0.236787  0.750000  0.291318  1
  In  In7  1  0.763213  0.250000  0.708682  1
  In  In8  1  0.620980  0.750000  0.156707  1
  In  In9  1  0.379020  0.250000  0.843293  1
  S  S10  1  0.466054  0.750000  0.400770  1
  S  S11  1  0.533946  0.250000  0.599230  1
  S  S12  1  0.833333  0.750000  0.500877  1
  S  S13  1  0.166667  0.250000  0.499123  1
  S  S14  1  0.317875  0.250000  0.199233  1
  S  S15  1  0.682125  0.750000  0.800767  1
  S  S16  1  0.966353  0.750000  0.099985  1
  S  S17  1  0.033647  0.250000  0.900015  1
  S  S18  1  0.791008  0.250000  0.298372  1
  S  S19  1  0.208992  0.750000  0.701628  1
  Cl  Cl20  1  0.327401  0.750000  0.005471  1
  Cl  Cl21  1  0.672599  0.250000  0.994529  1
