# generated using pymatgen
data_Ca3(PO4)2
_symmetry_space_group_name_H-M   'P 1'
_cell_length_a   6.98121124
_cell_length_b   6.98121124
_cell_length_c   6.98121124
_cell_angle_alpha   44.74344591
_cell_angle_beta   44.74344591
_cell_angle_gamma   44.74344591
_symmetry_Int_Tables_number   1
_chemical_formula_structural   Ca3(PO4)2
_chemical_formula_sum   'Ca3 P2 O8'
_cell_volume   153.37244548
_cell_formula_units_Z   1
loop_
 _symmetry_equiv_pos_site_id
 _symmetry_equiv_pos_as_xyz
  1  'x, y, z'
loop_
 _atom_site_type_symbol
 _atom_site_label
 _atom_site_symmetry_multiplicity
 _atom_site_fract_x
 _atom_site_fract_y
 _atom_site_fract_z
 _atom_site_occupancy
  Ca  Ca0  1  0.000000  1.000000  0.000000  1
  Ca  Ca1  1  0.796177  0.796177  0.796177  1
  Ca  Ca2  1  0.203823  0.203823  0.203823  1
  P  P3  1  0.595069  0.595069  0.595069  1
  P  P4  1  0.404931  0.404931  0.404931  1
  O  O5  1  0.272840  0.752318  0.272840  1
  O  O6  1  0.752318  0.272840  0.272840  1
  O  O7  1  0.272840  0.272840  0.752318  1
  O  O8  1  0.727160  0.727160  0.247682  1
  O  O9  1  0.727160  0.247682  0.727160  1
  O  O10  1  0.676717  0.676717  0.676717  1
  O  O11  1  0.323283  0.323283  0.323283  1
  O  O12  1  0.247682  0.727160  0.727160  1
