# generated using pymatgen
data_MnTlCl3
_symmetry_space_group_name_H-M   'P 1'
_cell_length_a   7.12493173
_cell_length_b   7.14246991
_cell_length_c   10.16815024
_cell_angle_alpha   90.00000000
_cell_angle_beta   90.00000000
_cell_angle_gamma   90.00000000
_symmetry_Int_Tables_number   1
_chemical_formula_structural   MnTlCl3
_chemical_formula_sum   'Mn4 Tl4 Cl12'
_cell_volume   517.45320514
_cell_formula_units_Z   4
loop_
 _symmetry_equiv_pos_site_id
 _symmetry_equiv_pos_as_xyz
  1  'x, y, z'
loop_
 _atom_site_type_symbol
 _atom_site_label
 _atom_site_symmetry_multiplicity
 _atom_site_fract_x
 _atom_site_fract_y
 _atom_site_fract_z
 _atom_site_occupancy
  Mn  Mn0  1  0.000000  0.500000  0.500000  1
  Mn  Mn1  1  0.500000  0.000000  0.000000  1
  Mn  Mn2  1  0.500000  0.000000  0.500000  1
  Mn  Mn3  1  0.000000  0.500000  0.000000  1
  Tl  Tl4  1  0.014373  0.999646  0.750000  1
  Tl  Tl5  1  0.514373  0.500354  0.750000  1
  Tl  Tl6  1  0.485627  0.499646  0.250000  1
  Tl  Tl7  1  0.985627  0.000354  0.250000  1
  Cl  Cl8  1  0.719579  0.280557  0.481234  1
  Cl  Cl9  1  0.219579  0.219443  0.018766  1
  Cl  Cl10  1  0.780421  0.780557  0.518766  1
  Cl  Cl11  1  0.280421  0.719443  0.981234  1
  Cl  Cl12  1  0.280421  0.719443  0.518766  1
  Cl  Cl13  1  0.780421  0.780557  0.981234  1
  Cl  Cl14  1  0.219579  0.219443  0.481234  1
  Cl  Cl15  1  0.719579  0.280557  0.018766  1
  Cl  Cl16  1  0.502219  0.961823  0.250000  1
  Cl  Cl17  1  0.002219  0.538177  0.250000  1
  Cl  Cl18  1  0.997781  0.461823  0.750000  1
  Cl  Cl19  1  0.497781  0.038177  0.750000  1
