# generated using pymatgen
data_LiCo2P5O16
_symmetry_space_group_name_H-M   'P 1'
_cell_length_a   4.88527307
_cell_length_b   6.59185536
_cell_length_c   18.43409019
_cell_angle_alpha   90.00000000
_cell_angle_beta   91.23374109
_cell_angle_gamma   90.00000000
_symmetry_Int_Tables_number   1
_chemical_formula_structural   LiCo2P5O16
_chemical_formula_sum   'Li2 Co4 P10 O32'
_cell_volume   593.49563663
_cell_formula_units_Z   2
loop_
 _symmetry_equiv_pos_site_id
 _symmetry_equiv_pos_as_xyz
  1  'x, y, z'
loop_
 _atom_site_type_symbol
 _atom_site_label
 _atom_site_symmetry_multiplicity
 _atom_site_fract_x
 _atom_site_fract_y
 _atom_site_fract_z
 _atom_site_occupancy
  Li  Li0  1  0.267411  0.377516  0.974128  1
  Li  Li1  1  0.267411  0.622484  0.474128  1
  Co  Co2  1  0.248505  0.181564  0.407963  1
  Co  Co3  1  0.248505  0.818436  0.907963  1
  Co  Co4  1  0.753972  0.819463  0.592225  1
  Co  Co5  1  0.753972  0.180537  0.092225  1
  P  P6  1  0.236801  0.123457  0.574956  1
  P  P7  1  0.731870  0.540190  0.869120  1
  P  P8  1  0.269799  0.539707  0.631150  1
  P  P9  1  0.995962  0.244810  0.249813  1
  P  P10  1  0.236801  0.876543  0.074956  1
  P  P11  1  0.762192  0.121799  0.922898  1
  P  P12  1  0.269799  0.460293  0.131150  1
  P  P13  1  0.995962  0.755190  0.749813  1
  P  P14  1  0.762192  0.878201  0.422898  1
  P  P15  1  0.731870  0.459810  0.369120  1
  O  O16  1  0.768096  0.697605  0.361238  1
  O  O17  1  0.775335  0.607931  0.787282  1
  O  O18  1  0.571464  0.572984  0.618236  1
  O  O19  1  0.424166  0.966136  0.609953  1
  O  O20  1  0.585269  0.042862  0.389011  1
  O  O21  1  0.077512  0.642055  0.575875  1
  O  O22  1  0.153441  0.870700  0.807083  1
  O  O23  1  0.938095  0.057699  0.565892  1
  O  O24  1  0.431123  0.434647  0.388052  1
  O  O25  1  0.571464  0.427016  0.118236  1
  O  O26  1  0.153441  0.129300  0.307083  1
  O  O27  1  0.343920  0.768079  0.007094  1
  O  O28  1  0.077512  0.357945  0.075875  1
  O  O29  1  0.850794  0.878899  0.692633  1
  O  O30  1  0.343920  0.231921  0.507094  1
  O  O31  1  0.768096  0.302395  0.861238  1
  O  O32  1  0.642824  0.772540  0.490055  1
  O  O33  1  0.196574  0.594972  0.712944  1
  O  O34  1  0.196574  0.405028  0.212944  1
  O  O35  1  0.068425  0.071627  0.930997  1
  O  O36  1  0.424166  0.033864  0.109953  1
  O  O37  1  0.642824  0.227460  0.990055  1
  O  O38  1  0.850794  0.121101  0.192633  1
  O  O39  1  0.938095  0.942301  0.065892  1
  O  O40  1  0.431123  0.565353  0.888052  1
  O  O41  1  0.775335  0.392069  0.287282  1
  O  O42  1  0.585269  0.957138  0.889011  1
  O  O43  1  0.942708  0.630347  0.921307  1
  O  O44  1  0.942708  0.369653  0.421307  1
  O  O45  1  0.068425  0.928373  0.430997  1
  O  O46  1  0.223731  0.696194  0.135951  1
  O  O47  1  0.223731  0.303806  0.635951  1
