# generated using pymatgen
data_K2ReI6
_symmetry_space_group_name_H-M   'P 1'
_cell_length_a   8.05091315
_cell_length_b   8.23472920
_cell_length_c   14.02213790
_cell_angle_alpha   90.00000000
_cell_angle_beta   124.90695572
_cell_angle_gamma   90.00000000
_symmetry_Int_Tables_number   1
_chemical_formula_structural   K2ReI6
_chemical_formula_sum   'K4 Re2 I12'
_cell_volume   762.37069697
_cell_formula_units_Z   2
loop_
 _symmetry_equiv_pos_site_id
 _symmetry_equiv_pos_as_xyz
  1  'x, y, z'
loop_
 _atom_site_type_symbol
 _atom_site_label
 _atom_site_symmetry_multiplicity
 _atom_site_fract_x
 _atom_site_fract_y
 _atom_site_fract_z
 _atom_site_occupancy
  K  K0  1  0.769253  0.561891  0.749130  1
  K  K1  1  0.769253  0.938109  0.249130  1
  K  K2  1  0.230747  0.438109  0.250870  1
  K  K3  1  0.230747  0.061891  0.750870  1
  Re  Re4  1  0.500000  0.000000  0.500000  1
  Re  Re5  1  0.500000  0.500000  0.000000  1
  I  I6  1  0.812278  0.809608  0.535039  1
  I  I7  1  0.187722  0.190392  0.464961  1
  I  I8  1  0.330882  0.495729  0.765249  1
  I  I9  1  0.187722  0.309608  0.964961  1
  I  I10  1  0.669118  0.504271  0.234751  1
  I  I11  1  0.669118  0.995729  0.734751  1
  I  I12  1  0.717758  0.222830  0.028688  1
  I  I13  1  0.717758  0.277170  0.528688  1
  I  I14  1  0.282242  0.777170  0.971312  1
  I  I15  1  0.282242  0.722830  0.471312  1
  I  I16  1  0.330882  0.004271  0.265249  1
  I  I17  1  0.812278  0.690392  0.035039  1
