# generated using pymatgen
data_Cd2PCl2
_symmetry_space_group_name_H-M   'P 1'
_cell_length_a   7.85369772
_cell_length_b   9.11777327
_cell_length_c   8.14137477
_cell_angle_alpha   90.00000000
_cell_angle_beta   119.64174054
_cell_angle_gamma   90.00000000
_symmetry_Int_Tables_number   1
_chemical_formula_structural   Cd2PCl2
_chemical_formula_sum   'Cd8 P4 Cl8'
_cell_volume   506.69647770
_cell_formula_units_Z   4
loop_
 _symmetry_equiv_pos_site_id
 _symmetry_equiv_pos_as_xyz
  1  'x, y, z'
loop_
 _atom_site_type_symbol
 _atom_site_label
 _atom_site_symmetry_multiplicity
 _atom_site_fract_x
 _atom_site_fract_y
 _atom_site_fract_z
 _atom_site_occupancy
  Cd  Cd0  1  0.430674  0.419184  0.731954  1
  Cd  Cd1  1  0.569326  0.919184  0.768046  1
  Cd  Cd2  1  0.569326  0.580816  0.268046  1
  Cd  Cd3  1  0.430674  0.080816  0.231954  1
  Cd  Cd4  1  0.968764  0.295130  0.790915  1
  Cd  Cd5  1  0.031236  0.795130  0.709085  1
  Cd  Cd6  1  0.031236  0.704870  0.209085  1
  Cd  Cd7  1  0.968764  0.204870  0.290915  1
  P  P8  1  0.934669  0.891368  0.944734  1
  P  P9  1  0.065331  0.108632  0.055266  1
  P  P10  1  0.934669  0.608632  0.444734  1
  P  P11  1  0.065331  0.391368  0.555266  1
  Cl  Cl12  1  0.243259  0.026701  0.694445  1
  Cl  Cl13  1  0.243259  0.473299  0.194445  1
  Cl  Cl14  1  0.756741  0.526701  0.805555  1
  Cl  Cl15  1  0.756741  0.973299  0.305555  1
  Cl  Cl16  1  0.578847  0.195971  0.577708  1
  Cl  Cl17  1  0.421153  0.695971  0.922292  1
  Cl  Cl18  1  0.421153  0.804029  0.422292  1
  Cl  Cl19  1  0.578847  0.304029  0.077708  1
