# generated using pymatgen
data_Ho2S3
_symmetry_space_group_name_H-M   'P 1'
_cell_length_a   13.70587352
_cell_length_b   13.70587352
_cell_length_c   13.70587352
_cell_angle_alpha   144.80791187
_cell_angle_beta   144.80791187
_cell_angle_gamma   50.62087183
_symmetry_Int_Tables_number   1
_chemical_formula_structural   Ho2S3
_chemical_formula_sum   'Ho16 S24'
_cell_volume   850.82226885
_cell_formula_units_Z   8
loop_
 _symmetry_equiv_pos_site_id
 _symmetry_equiv_pos_as_xyz
  1  'x, y, z'
loop_
 _atom_site_type_symbol
 _atom_site_label
 _atom_site_symmetry_multiplicity
 _atom_site_fract_x
 _atom_site_fract_y
 _atom_site_fract_z
 _atom_site_occupancy
  Ho  Ho0  1  0.584260  0.084260  0.500000  1
  Ho  Ho1  1  0.375000  0.743581  0.868581  1
  Ho  Ho2  1  0.849412  0.951525  0.378830  1
  Ho  Ho3  1  0.165740  0.165740  0.000000  1
  Ho  Ho4  1  0.875000  0.506419  0.131419  1
  Ho  Ho5  1  0.572695  0.470582  0.621170  1
  Ho  Ho6  1  0.048475  0.427305  0.897887  1
  Ho  Ho7  1  0.493581  0.625000  0.368581  1
  Ho  Ho8  1  0.834260  0.834260  0.000000  1
  Ho  Ho9  1  0.256419  0.125000  0.631419  1
  Ho  Ho10  1  0.529418  0.150588  0.102113  1
  Ho  Ho11  1  0.915740  0.415740  0.500000  1
  Ho  Ho12  1  0.701525  0.099412  0.878830  1
  Ho  Ho13  1  0.177305  0.298475  0.397887  1
  Ho  Ho14  1  0.900588  0.779418  0.602113  1
  Ho  Ho15  1  0.220582  0.822695  0.121170  1
  S  S16  1  0.535400  0.422036  0.745914  1
  S  S17  1  0.245613  0.999300  0.113521  1
  S  S18  1  0.885779  0.132092  0.886479  1
  S  S19  1  0.504387  0.117908  0.253687  1
  S  S20  1  0.864221  0.250700  0.746313  1
  S  S21  1  0.214600  0.460514  0.386636  1
  S  S22  1  0.676122  0.789486  0.254086  1
  S  S23  1  0.073878  0.827964  0.613364  1
  S  S24  1  0.188385  0.093433  0.747147  1
  S  S25  1  0.906567  0.653715  0.094952  1
  S  S26  1  0.172036  0.785400  0.245914  1
  S  S27  1  0.558763  0.811615  0.905048  1
  S  S28  1  0.539486  0.926122  0.754086  1
  S  S29  1  0.346285  0.441237  0.252853  1
  S  S30  1  0.882092  0.135779  0.386479  1
  S  S31  1  0.749300  0.495613  0.613521  1
  S  S32  1  0.867908  0.754387  0.753687  1
  S  S33  1  0.577964  0.323878  0.113364  1
  S  S34  1  0.210514  0.464600  0.886636  1
  S  S35  1  0.843433  0.438385  0.247147  1
  S  S36  1  0.191237  0.596285  0.752853  1
  S  S37  1  0.561615  0.808763  0.405048  1
  S  S38  1  0.000700  0.114221  0.246313  1
  S  S39  1  0.403715  0.156567  0.594952  1
