# generated using pymatgen
data_Na8Al6Si6CO27
_symmetry_space_group_name_H-M   'P 1'
_cell_length_a   9.10603561
_cell_length_b   9.10603561
_cell_length_c   9.10603561
_cell_angle_alpha   90.01473029
_cell_angle_beta   90.01473029
_cell_angle_gamma   90.01473029
_symmetry_Int_Tables_number   1
_chemical_formula_structural   Na8Al6Si6CO27
_chemical_formula_sum   'Na8 Al6 Si6 C1 O27'
_cell_volume   755.07134656
_cell_formula_units_Z   1
loop_
 _symmetry_equiv_pos_site_id
 _symmetry_equiv_pos_as_xyz
  1  'x, y, z'
loop_
 _atom_site_type_symbol
 _atom_site_label
 _atom_site_symmetry_multiplicity
 _atom_site_fract_x
 _atom_site_fract_y
 _atom_site_fract_z
 _atom_site_occupancy
  Na  Na0  1  0.818794  0.175964  0.176813  1
  Na  Na1  1  0.176813  0.818794  0.175964  1
  Na  Na2  1  0.779035  0.778641  0.227422  1
  Na  Na3  1  0.299189  0.299189  0.299189  1
  Na  Na4  1  0.778641  0.227422  0.779035  1
  Na  Na5  1  0.227422  0.779035  0.778641  1
  Na  Na6  1  0.800409  0.800409  0.800409  1
  Na  Na7  1  0.175964  0.176813  0.818794  1
  Al  Al8  1  0.750245  0.499746  0.002459  1
  Al  Al9  1  0.251723  0.498715  0.000357  1
  Al  Al10  1  0.498715  0.000357  0.251723  1
  Al  Al11  1  0.000357  0.251723  0.498715  1
  Al  Al12  1  0.002459  0.750245  0.499746  1
  Al  Al13  1  0.499746  0.002459  0.750245  1
  Si  Si14  1  0.499150  0.249606  0.002631  1
  Si  Si15  1  0.500820  0.751252  0.001512  1
  Si  Si16  1  0.002631  0.499150  0.249606  1
  Si  Si17  1  0.751252  0.001512  0.500820  1
  Si  Si18  1  0.249606  0.002631  0.499150  1
  Si  Si19  1  0.001512  0.500820  0.751252  1
  C  C20  1  0.994289  0.994289  0.994289  1
  O  O21  1  0.357667  0.347339  0.056699  1
  O  O22  1  0.646453  0.656106  0.048797  1
  O  O23  1  0.938268  0.934851  0.111890  1
  O  O24  1  0.861319  0.447479  0.151325  1
  O  O25  1  0.144021  0.552181  0.151672  1
  O  O26  1  0.552181  0.151672  0.144021  1
  O  O27  1  0.448420  0.849877  0.142370  1
  O  O28  1  0.953167  0.640154  0.349607  1
  O  O29  1  0.056699  0.357667  0.347339  1
  O  O30  1  0.649951  0.951799  0.360957  1
  O  O31  1  0.347339  0.056699  0.357667  1
  O  O32  1  0.849877  0.142370  0.448420  1
  O  O33  1  0.151325  0.861319  0.447479  1
  O  O34  1  0.851446  0.860169  0.550245  1
  O  O35  1  0.151672  0.144021  0.552181  1
  O  O36  1  0.349607  0.953167  0.640154  1
  O  O37  1  0.656106  0.048797  0.646453  1
  O  O38  1  0.951799  0.360957  0.649951  1
  O  O39  1  0.048797  0.646453  0.656106  1
  O  O40  1  0.447479  0.151325  0.861319  1
  O  O41  1  0.550245  0.851446  0.860169  1
  O  O42  1  0.860169  0.550245  0.851446  1
  O  O43  1  0.142370  0.448420  0.849877  1
  O  O44  1  0.111890  0.938268  0.934851  1
  O  O45  1  0.934851  0.111890  0.938268  1
  O  O46  1  0.640154  0.349607  0.953167  1
  O  O47  1  0.360957  0.649951  0.951799  1
