# generated using pymatgen
data_SrAl4O7
_symmetry_space_group_name_H-M   'P 1'
_cell_length_a   8.02078623
_cell_length_b   8.02078623
_cell_length_c   5.59866840
_cell_angle_alpha   76.75352010
_cell_angle_beta   103.24647990
_cell_angle_gamma   110.75467222
_symmetry_Int_Tables_number   1
_chemical_formula_structural   SrAl4O7
_chemical_formula_sum   'Sr2 Al8 O14'
_cell_volume   323.48531984
_cell_formula_units_Z   2
loop_
 _symmetry_equiv_pos_site_id
 _symmetry_equiv_pos_as_xyz
  1  'x, y, z'
loop_
 _atom_site_type_symbol
 _atom_site_label
 _atom_site_symmetry_multiplicity
 _atom_site_fract_x
 _atom_site_fract_y
 _atom_site_fract_z
 _atom_site_occupancy
  Sr  Sr0  1  0.810838  0.810838  0.750000  1
  Sr  Sr1  1  0.189162  0.189162  0.250000  1
  Al  Al2  1  0.318467  0.560888  0.736185  1
  Al  Al3  1  0.560888  0.318467  0.763815  1
  Al  Al4  1  0.681533  0.439112  0.263815  1
  Al  Al5  1  0.439112  0.681533  0.236185  1
  Al  Al6  1  0.917624  0.255248  0.704245  1
  Al  Al7  1  0.255248  0.917624  0.795755  1
  Al  Al8  1  0.082376  0.744752  0.295755  1
  Al  Al9  1  0.744752  0.082376  0.204245  1
  O  O10  1  0.255606  0.636039  0.404527  1
  O  O11  1  0.636039  0.255606  0.095473  1
  O  O12  1  0.744394  0.363961  0.595473  1
  O  O13  1  0.363961  0.744394  0.904527  1
  O  O14  1  0.133547  0.382835  0.829295  1
  O  O15  1  0.382835  0.133547  0.670705  1
  O  O16  1  0.866453  0.617165  0.170705  1
  O  O17  1  0.617165  0.866453  0.329295  1
  O  O18  1  0.919088  0.157653  0.452815  1
  O  O19  1  0.157653  0.919088  0.047185  1
  O  O20  1  0.475179  0.475179  0.250000  1
  O  O21  1  0.524821  0.524821  0.750000  1
  O  O22  1  0.842347  0.080912  0.952815  1
  O  O23  1  0.080912  0.842347  0.547185  1
