# generated using pymatgen
data_Tb4Se3N2
_symmetry_space_group_name_H-M   'P 1'
_cell_length_a   6.98603996
_cell_length_b   6.98603996
_cell_length_c   10.37061914
_cell_angle_alpha   52.16850022
_cell_angle_beta   127.83149978
_cell_angle_gamma   147.13167066
_symmetry_Int_Tables_number   1
_chemical_formula_structural   Tb4Se3N2
_chemical_formula_sum   'Tb4 Se3 N2'
_cell_volume   211.18299354
_cell_formula_units_Z   1
loop_
 _symmetry_equiv_pos_site_id
 _symmetry_equiv_pos_as_xyz
  1  'x, y, z'
loop_
 _atom_site_type_symbol
 _atom_site_label
 _atom_site_symmetry_multiplicity
 _atom_site_fract_x
 _atom_site_fract_y
 _atom_site_fract_z
 _atom_site_occupancy
  Tb  Tb0  1  0.557747  0.442253  0.848983  1
  Tb  Tb1  1  0.442253  0.557747  0.151017  1
  Tb  Tb2  1  0.244051  0.755949  0.360630  1
  Tb  Tb3  1  0.755949  0.244051  0.639370  1
  Se  Se4  1  0.165227  0.834773  0.771862  1
  Se  Se5  1  0.000000  0.000000  0.000000  1
  Se  Se6  1  0.834773  0.165227  0.228138  1
  N  N7  1  0.648847  0.351153  0.362233  1
  N  N8  1  0.351153  0.648847  0.637768  1
