# generated using pymatgen
data_Sm2Se3
_symmetry_space_group_name_H-M   'P 1'
_cell_length_a   14.66898236
_cell_length_b   14.66898236
_cell_length_c   14.66898236
_cell_angle_alpha   144.89605854
_cell_angle_beta   144.89605854
_cell_angle_gamma   50.48944779
_symmetry_Int_Tables_number   1
_chemical_formula_structural   Sm2Se3
_chemical_formula_sum   'Sm16 Se24'
_cell_volume   1038.59036239
_cell_formula_units_Z   8
loop_
 _symmetry_equiv_pos_site_id
 _symmetry_equiv_pos_as_xyz
  1  'x, y, z'
loop_
 _atom_site_type_symbol
 _atom_site_label
 _atom_site_symmetry_multiplicity
 _atom_site_fract_x
 _atom_site_fract_y
 _atom_site_fract_z
 _atom_site_occupancy
  Sm  Sm0  1  0.173103  0.297678  0.391239  1
  Sm  Sm1  1  0.906439  0.781864  0.608761  1
  Sm  Sm2  1  0.583129  0.083129  0.500000  1
  Sm  Sm3  1  0.375000  0.743998  0.868998  1
  Sm  Sm4  1  0.843561  0.952322  0.375425  1
  Sm  Sm5  1  0.166871  0.166871  0.000000  1
  Sm  Sm6  1  0.576897  0.468136  0.624575  1
  Sm  Sm7  1  0.875000  0.506002  0.131002  1
  Sm  Sm8  1  0.047678  0.423103  0.891239  1
  Sm  Sm9  1  0.833129  0.833129  0.000000  1
  Sm  Sm10  1  0.493998  0.625000  0.368998  1
  Sm  Sm11  1  0.256002  0.125000  0.631002  1
  Sm  Sm12  1  0.531864  0.156439  0.108761  1
  Sm  Sm13  1  0.916871  0.416871  0.500000  1
  Sm  Sm14  1  0.702322  0.093561  0.875425  1
  Sm  Sm15  1  0.218136  0.826897  0.124575  1
  Se  Se16  1  0.891046  0.137656  0.895320  1
  Se  Se17  1  0.531284  0.423541  0.746877  1
  Se  Se18  1  0.242336  0.995726  0.104680  1
  Se  Se19  1  0.507664  0.112344  0.253390  1
  Se  Se20  1  0.858954  0.254274  0.746610  1
  Se  Se21  1  0.218716  0.465594  0.392257  1
  Se  Se22  1  0.676663  0.784406  0.253123  1
  Se  Se23  1  0.560043  0.813716  0.906317  1
  Se  Se24  1  0.073337  0.826459  0.607743  1
  Se  Se25  1  0.186284  0.092600  0.746327  1
  Se  Se26  1  0.907400  0.653727  0.093683  1
  Se  Se27  1  0.173541  0.781284  0.246877  1
  Se  Se28  1  0.534406  0.926663  0.753123  1
  Se  Se29  1  0.887656  0.141046  0.395320  1
  Se  Se30  1  0.346273  0.439957  0.253673  1
  Se  Se31  1  0.215594  0.468716  0.892257  1
  Se  Se32  1  0.745726  0.492336  0.604680  1
  Se  Se33  1  0.862344  0.757664  0.753390  1
  Se  Se34  1  0.576459  0.323337  0.107743  1
  Se  Se35  1  0.842600  0.436284  0.246327  1
  Se  Se36  1  0.189957  0.596273  0.753673  1
  Se  Se37  1  0.563716  0.810043  0.406317  1
  Se  Se38  1  0.004274  0.108954  0.246610  1
  Se  Se39  1  0.403727  0.157400  0.593683  1
