# generated using pymatgen
data_KBiO2
_symmetry_space_group_name_H-M   'P 1'
_cell_length_a   5.70647536
_cell_length_b   5.70647536
_cell_length_c   6.08178419
_cell_angle_alpha   66.52889021
_cell_angle_beta   113.47110979
_cell_angle_gamma   88.01777660
_symmetry_Int_Tables_number   1
_chemical_formula_structural   KBiO2
_chemical_formula_sum   'K2 Bi2 O4'
_cell_volume   162.17629754
_cell_formula_units_Z   2
loop_
 _symmetry_equiv_pos_site_id
 _symmetry_equiv_pos_as_xyz
  1  'x, y, z'
loop_
 _atom_site_type_symbol
 _atom_site_label
 _atom_site_symmetry_multiplicity
 _atom_site_fract_x
 _atom_site_fract_y
 _atom_site_fract_z
 _atom_site_occupancy
  K  K0  1  0.368661  0.368661  0.750000  1
  K  K1  1  0.631339  0.631339  0.250000  1
  Bi  Bi2  1  0.099166  0.099166  0.250000  1
  Bi  Bi3  1  0.900834  0.900834  0.750000  1
  O  O4  1  0.124851  0.740112  0.221875  1
  O  O5  1  0.740112  0.124851  0.278125  1
  O  O6  1  0.259888  0.875149  0.721875  1
  O  O7  1  0.875149  0.259888  0.778125  1
