# generated using pymatgen
data_RbNb4Cl11
_symmetry_space_group_name_H-M   'P 1'
_cell_length_a   6.99721823
_cell_length_b   7.03304565
_cell_length_c   16.30124187
_cell_angle_alpha   90.00000000
_cell_angle_beta   90.00000000
_cell_angle_gamma   90.00000000
_symmetry_Int_Tables_number   1
_chemical_formula_structural   RbNb4Cl11
_chemical_formula_sum   'Rb2 Nb8 Cl22'
_cell_volume   802.21272493
_cell_formula_units_Z   2
loop_
 _symmetry_equiv_pos_site_id
 _symmetry_equiv_pos_as_xyz
  1  'x, y, z'
loop_
 _atom_site_type_symbol
 _atom_site_label
 _atom_site_symmetry_multiplicity
 _atom_site_fract_x
 _atom_site_fract_y
 _atom_site_fract_z
 _atom_site_occupancy
  Rb  Rb0  1  0.986105  0.500000  0.750000  1
  Rb  Rb1  1  0.013895  0.500000  0.250000  1
  Nb  Nb2  1  0.500000  0.785699  0.000000  1
  Nb  Nb3  1  0.500000  0.214301  0.500000  1
  Nb  Nb4  1  0.500000  0.214301  0.000000  1
  Nb  Nb5  1  0.500000  0.785699  0.500000  1
  Nb  Nb6  1  0.382533  0.000000  0.858683  1
  Nb  Nb7  1  0.382533  0.000000  0.641317  1
  Nb  Nb8  1  0.617467  0.000000  0.141317  1
  Nb  Nb9  1  0.617467  0.000000  0.358683  1
  Cl  Cl10  1  0.517487  0.769125  0.750000  1
  Cl  Cl11  1  0.517487  0.230875  0.750000  1
  Cl  Cl12  1  0.482513  0.769125  0.250000  1
  Cl  Cl13  1  0.482513  0.230875  0.250000  1
  Cl  Cl14  1  0.104171  0.000000  0.750000  1
  Cl  Cl15  1  0.895829  0.000000  0.250000  1
  Cl  Cl16  1  0.364112  0.500000  0.082464  1
  Cl  Cl17  1  0.364112  0.500000  0.417536  1
  Cl  Cl18  1  0.635888  0.500000  0.917536  1
  Cl  Cl19  1  0.635888  0.500000  0.582464  1
  Cl  Cl20  1  0.292102  0.000000  0.415176  1
  Cl  Cl21  1  0.292102  0.000000  0.084824  1
  Cl  Cl22  1  0.707898  0.000000  0.584824  1
  Cl  Cl23  1  0.707898  0.000000  0.915176  1
  Cl  Cl24  1  0.807405  0.749007  0.421134  1
  Cl  Cl25  1  0.807405  0.250993  0.078866  1
  Cl  Cl26  1  0.192595  0.749007  0.578866  1
  Cl  Cl27  1  0.192595  0.250993  0.921134  1
  Cl  Cl28  1  0.192595  0.250993  0.578866  1
  Cl  Cl29  1  0.192595  0.749007  0.921134  1
  Cl  Cl30  1  0.807405  0.250993  0.421134  1
  Cl  Cl31  1  0.807405  0.749007  0.078866  1
