# generated using pymatgen
data_LiDySe2
_symmetry_space_group_name_H-M   'P 1'
_cell_length_a   7.05047676
_cell_length_b   7.05047676
_cell_length_c   7.05047676
_cell_angle_alpha   132.36996315
_cell_angle_beta   132.36996315
_cell_angle_gamma   69.64533422
_symmetry_Int_Tables_number   1
_chemical_formula_structural   LiDySe2
_chemical_formula_sum   'Li2 Dy2 Se4'
_cell_volume   187.63708060
_cell_formula_units_Z   2
loop_
 _symmetry_equiv_pos_site_id
 _symmetry_equiv_pos_as_xyz
  1  'x, y, z'
loop_
 _atom_site_type_symbol
 _atom_site_label
 _atom_site_symmetry_multiplicity
 _atom_site_fract_x
 _atom_site_fract_y
 _atom_site_fract_z
 _atom_site_occupancy
  Li  Li0  1  0.000000  0.000000  0.000000  1
  Li  Li1  1  0.750000  0.250000  0.500000  1
  Dy  Dy2  1  0.500000  0.500000  0.000000  1
  Dy  Dy3  1  0.250000  0.750000  0.500000  1
  Se  Se4  1  0.746856  0.746856  0.000000  1
  Se  Se5  1  0.253144  0.253144  0.000000  1
  Se  Se6  1  0.003144  0.503144  0.500000  1
  Se  Se7  1  0.496856  0.996856  0.500000  1
