# generated using pymatgen
data_Zr(Se2Cl3)2
_symmetry_space_group_name_H-M   'P 1'
_cell_length_a   11.09774086
_cell_length_b   11.19150087
_cell_length_c   11.19374841
_cell_angle_alpha   90.00000000
_cell_angle_beta   90.00000000
_cell_angle_gamma   90.00000000
_symmetry_Int_Tables_number   1
_chemical_formula_structural   Zr(Se2Cl3)2
_chemical_formula_sum   'Zr4 Se16 Cl24'
_cell_volume   1390.26776685
_cell_formula_units_Z   4
loop_
 _symmetry_equiv_pos_site_id
 _symmetry_equiv_pos_as_xyz
  1  'x, y, z'
loop_
 _atom_site_type_symbol
 _atom_site_label
 _atom_site_symmetry_multiplicity
 _atom_site_fract_x
 _atom_site_fract_y
 _atom_site_fract_z
 _atom_site_occupancy
  Zr  Zr0  1  0.500000  0.000000  0.000000  1
  Zr  Zr1  1  0.000000  0.500000  0.000000  1
  Zr  Zr2  1  0.000000  0.000000  0.500000  1
  Zr  Zr3  1  0.500000  0.500000  0.500000  1
  Se  Se4  1  0.891667  0.100470  0.004639  1
  Se  Se5  1  0.608333  0.399530  0.004639  1
  Se  Se6  1  0.391667  0.899530  0.495361  1
  Se  Se7  1  0.108333  0.600470  0.495361  1
  Se  Se8  1  0.108333  0.899530  0.995361  1
  Se  Se9  1  0.391667  0.600470  0.995361  1
  Se  Se10  1  0.608333  0.100470  0.504639  1
  Se  Se11  1  0.891667  0.399530  0.504639  1
  Se  Se12  1  0.084695  0.093255  0.921005  1
  Se  Se13  1  0.415305  0.406745  0.921005  1
  Se  Se14  1  0.584695  0.906745  0.578995  1
  Se  Se15  1  0.915305  0.593255  0.578995  1
  Se  Se16  1  0.915305  0.906745  0.078995  1
  Se  Se17  1  0.584695  0.593255  0.078995  1
  Se  Se18  1  0.415305  0.093255  0.421005  1
  Se  Se19  1  0.084695  0.406745  0.421005  1
  Cl  Cl20  1  0.328834  0.960757  0.857166  1
  Cl  Cl21  1  0.171166  0.539243  0.857166  1
  Cl  Cl22  1  0.828834  0.039243  0.642834  1
  Cl  Cl23  1  0.671166  0.460757  0.642834  1
  Cl  Cl24  1  0.671166  0.039243  0.142834  1
  Cl  Cl25  1  0.828834  0.460757  0.142834  1
  Cl  Cl26  1  0.171166  0.960757  0.357166  1
  Cl  Cl27  1  0.328834  0.539243  0.357166  1
  Cl  Cl28  1  0.568440  0.171992  0.871089  1
  Cl  Cl29  1  0.931560  0.328008  0.871089  1
  Cl  Cl30  1  0.068440  0.828008  0.628911  1
  Cl  Cl31  1  0.431560  0.671992  0.628911  1
  Cl  Cl32  1  0.431560  0.828008  0.128911  1
  Cl  Cl33  1  0.068440  0.671992  0.128911  1
  Cl  Cl34  1  0.931560  0.171992  0.371089  1
  Cl  Cl35  1  0.568440  0.328008  0.371089  1
  Cl  Cl36  1  0.371754  0.134896  0.116070  1
  Cl  Cl37  1  0.128246  0.365104  0.116070  1
  Cl  Cl38  1  0.871754  0.865104  0.383930  1
  Cl  Cl39  1  0.628246  0.634896  0.383930  1
  Cl  Cl40  1  0.371754  0.365104  0.616070  1
  Cl  Cl41  1  0.128246  0.134896  0.616070  1
  Cl  Cl42  1  0.871754  0.634896  0.883930  1
  Cl  Cl43  1  0.628246  0.865104  0.883930  1
