# generated using pymatgen
data_MgTiO3
_symmetry_space_group_name_H-M   'P 1'
_cell_length_a   5.53133981
_cell_length_b   5.53133981
_cell_length_c   5.53133981
_cell_angle_alpha   54.94174482
_cell_angle_beta   54.94174482
_cell_angle_gamma   54.94174482
_symmetry_Int_Tables_number   1
_chemical_formula_structural   MgTiO3
_chemical_formula_sum   'Mg2 Ti2 O6'
_cell_volume   105.58039050
_cell_formula_units_Z   2
loop_
 _symmetry_equiv_pos_site_id
 _symmetry_equiv_pos_as_xyz
  1  'x, y, z'
loop_
 _atom_site_type_symbol
 _atom_site_label
 _atom_site_symmetry_multiplicity
 _atom_site_fract_x
 _atom_site_fract_y
 _atom_site_fract_z
 _atom_site_occupancy
  Mg  Mg0  1  0.645269  0.645269  0.645269  1
  Mg  Mg1  1  0.354731  0.354731  0.354731  1
  Ti  Ti2  1  0.856389  0.856389  0.856389  1
  Ti  Ti3  1  0.143611  0.143611  0.143611  1
  O  O4  1  0.225245  0.562990  0.951835  1
  O  O5  1  0.562990  0.951835  0.225245  1
  O  O6  1  0.951835  0.225245  0.562990  1
  O  O7  1  0.774755  0.437010  0.048165  1
  O  O8  1  0.048165  0.774755  0.437010  1
  O  O9  1  0.437010  0.048165  0.774755  1
