# generated using pymatgen
data_Li2Si2O5
_symmetry_space_group_name_H-M   'P 1'
_cell_length_a   4.85443178
_cell_length_b   5.72756029
_cell_length_c   14.79370305
_cell_angle_alpha   90.00000000
_cell_angle_beta   90.00000000
_cell_angle_gamma   90.00000000
_symmetry_Int_Tables_number   1
_chemical_formula_structural   Li2Si2O5
_chemical_formula_sum   'Li8 Si8 O20'
_cell_volume   411.32486955
_cell_formula_units_Z   4
loop_
 _symmetry_equiv_pos_site_id
 _symmetry_equiv_pos_as_xyz
  1  'x, y, z'
loop_
 _atom_site_type_symbol
 _atom_site_label
 _atom_site_symmetry_multiplicity
 _atom_site_fract_x
 _atom_site_fract_y
 _atom_site_fract_z
 _atom_site_occupancy
  Li  Li0  1  0.809228  0.401207  0.948641  1
  Li  Li1  1  0.690772  0.098793  0.448641  1
  Li  Li2  1  0.690772  0.901207  0.051359  1
  Li  Li3  1  0.809228  0.598793  0.551359  1
  Li  Li4  1  0.190772  0.598793  0.051359  1
  Li  Li5  1  0.309228  0.901207  0.551359  1
  Li  Li6  1  0.309228  0.098793  0.948641  1
  Li  Li7  1  0.190772  0.401207  0.448641  1
  Si  Si8  1  0.805826  0.905913  0.851777  1
  Si  Si9  1  0.694174  0.594087  0.351777  1
  Si  Si10  1  0.694174  0.405913  0.148223  1
  Si  Si11  1  0.805826  0.094087  0.648223  1
  Si  Si12  1  0.194174  0.094087  0.148223  1
  Si  Si13  1  0.305826  0.405913  0.648223  1
  Si  Si14  1  0.305826  0.594087  0.851777  1
  Si  Si15  1  0.194174  0.905913  0.351777  1
  O  O16  1  0.743846  0.000000  0.750000  1
  O  O17  1  0.756154  0.500000  0.250000  1
  O  O18  1  0.256154  0.000000  0.250000  1
  O  O19  1  0.243846  0.500000  0.750000  1
  O  O20  1  0.710637  0.076109  0.931648  1
  O  O21  1  0.789363  0.423891  0.431648  1
  O  O22  1  0.789363  0.576109  0.068352  1
  O  O23  1  0.710637  0.923891  0.568352  1
  O  O24  1  0.289363  0.923891  0.068352  1
  O  O25  1  0.210637  0.576109  0.568352  1
  O  O26  1  0.210637  0.423891  0.931648  1
  O  O27  1  0.289363  0.076109  0.431648  1
  O  O28  1  0.641091  0.650571  0.861364  1
  O  O29  1  0.858909  0.849429  0.361364  1
  O  O30  1  0.858909  0.150571  0.138636  1
  O  O31  1  0.641091  0.349429  0.638636  1
  O  O32  1  0.358909  0.349429  0.138636  1
  O  O33  1  0.141091  0.150571  0.638636  1
  O  O34  1  0.141091  0.849429  0.861364  1
  O  O35  1  0.358909  0.650571  0.361364  1
