# generated using pymatgen
data_Pr5AgSe8
_symmetry_space_group_name_H-M   'P 1'
_cell_length_a   7.79649392
_cell_length_b   7.79649392
_cell_length_c   7.79649392
_cell_angle_alpha   109.88590171
_cell_angle_beta   109.88590171
_cell_angle_gamma   108.64500432
_symmetry_Int_Tables_number   1
_chemical_formula_structural   Pr5AgSe8
_chemical_formula_sum   'Pr5 Ag1 Se8'
_cell_volume   364.76110608
_cell_formula_units_Z   1
loop_
 _symmetry_equiv_pos_site_id
 _symmetry_equiv_pos_as_xyz
  1  'x, y, z'
loop_
 _atom_site_type_symbol
 _atom_site_label
 _atom_site_symmetry_multiplicity
 _atom_site_fract_x
 _atom_site_fract_y
 _atom_site_fract_z
 _atom_site_occupancy
  Pr  Pr0  1  0.238431  0.621826  0.120979  1
  Pr  Pr1  1  0.378174  0.499153  0.616605  1
  Pr  Pr2  1  0.500847  0.117452  0.879021  1
  Pr  Pr3  1  0.882548  0.761569  0.383395  1
  Pr  Pr4  1  0.750000  0.250000  0.500000  1
  Ag  Ag5  1  1.000000  1.000000  0.000000  1
  Se  Se6  1  0.116437  0.727945  0.751806  1
  Se  Se7  1  0.272055  0.023860  0.388492  1
  Se  Se8  1  0.495283  0.390320  0.257706  1
  Se  Se9  1  0.762423  0.504717  0.895037  1
  Se  Se10  1  0.609680  0.867386  0.104963  1
  Se  Se11  1  0.635368  0.883563  0.611508  1
  Se  Se12  1  0.976140  0.364632  0.248194  1
  Se  Se13  1  0.132614  0.237577  0.742294  1
