# generated using pymatgen
data_Li2SnO3
_symmetry_space_group_name_H-M   'P 1'
_cell_length_a   5.37038543
_cell_length_b   5.37038543
_cell_length_c   10.15341340
_cell_angle_alpha   84.85715275
_cell_angle_beta   95.14284725
_cell_angle_gamma   59.84681427
_symmetry_Int_Tables_number   1
_chemical_formula_structural   Li2SnO3
_chemical_formula_sum   'Li8 Sn4 O12'
_cell_volume   249.08854280
_cell_formula_units_Z   4
loop_
 _symmetry_equiv_pos_site_id
 _symmetry_equiv_pos_as_xyz
  1  'x, y, z'
loop_
 _atom_site_type_symbol
 _atom_site_label
 _atom_site_symmetry_multiplicity
 _atom_site_fract_x
 _atom_site_fract_y
 _atom_site_fract_z
 _atom_site_occupancy
  Li  Li0  1  0.158845  0.684354  0.999099  1
  Li  Li1  1  0.684354  0.158845  0.500901  1
  Li  Li2  1  0.841155  0.315646  0.000901  1
  Li  Li3  1  0.315646  0.841155  0.499099  1
  Li  Li4  1  0.000000  0.500000  0.500000  1
  Li  Li5  1  0.500000  1.000000  0.000000  1
  Li  Li6  1  0.915135  0.915135  0.250000  1
  Li  Li7  1  0.084865  0.084865  0.750000  1
  Sn  Sn8  1  0.417184  0.417184  0.750000  1
  Sn  Sn9  1  0.749746  0.749746  0.750000  1
  Sn  Sn10  1  0.250254  0.250254  0.250000  1
  Sn  Sn11  1  0.582816  0.582816  0.250000  1
  O  O12  1  0.041872  0.772919  0.630302  1
  O  O13  1  0.876343  0.604075  0.132991  1
  O  O14  1  0.772919  0.041872  0.869698  1
  O  O15  1  0.958128  0.227081  0.369698  1
  O  O16  1  0.526951  0.306768  0.132949  1
  O  O17  1  0.604075  0.876343  0.367009  1
  O  O18  1  0.123657  0.395925  0.867009  1
  O  O19  1  0.395925  0.123657  0.632991  1
  O  O20  1  0.693232  0.473049  0.632949  1
  O  O21  1  0.306768  0.526951  0.367051  1
  O  O22  1  0.473049  0.693232  0.867051  1
  O  O23  1  0.227081  0.958128  0.130302  1
