# generated using pymatgen
data_LiV2P3O11
_symmetry_space_group_name_H-M   'P 1'
_cell_length_a   7.28534392
_cell_length_b   7.28534392
_cell_length_c   8.82018143
_cell_angle_alpha   70.47573427
_cell_angle_beta   109.52426573
_cell_angle_gamma   106.66598599
_symmetry_Int_Tables_number   1
_chemical_formula_structural   LiV2P3O11
_chemical_formula_sum   'Li2 V4 P6 O22'
_cell_volume   407.69466250
_cell_formula_units_Z   2
loop_
 _symmetry_equiv_pos_site_id
 _symmetry_equiv_pos_as_xyz
  1  'x, y, z'
loop_
 _atom_site_type_symbol
 _atom_site_label
 _atom_site_symmetry_multiplicity
 _atom_site_fract_x
 _atom_site_fract_y
 _atom_site_fract_z
 _atom_site_occupancy
  Li  Li0  1  0.014686  0.516464  0.260706  1
  Li  Li1  1  0.516464  0.014686  0.739294  1
  V  V2  1  0.885714  0.637582  0.792452  1
  V  V3  1  0.114853  0.362654  0.708548  1
  V  V4  1  0.362654  0.114853  0.291452  1
  V  V5  1  0.637582  0.885714  0.207548  1
  P  P6  1  0.324489  0.548524  0.035816  1
  P  P7  1  0.451910  0.676941  0.535292  1
  P  P8  1  0.548524  0.324489  0.964184  1
  P  P9  1  0.956517  0.956517  0.000000  1
  P  P10  1  0.043334  0.043334  0.500000  1
  P  P11  1  0.676941  0.451910  0.464708  1
  O  O12  1  0.614577  0.240532  0.446769  1
  O  O13  1  0.876458  0.015136  0.343487  1
  O  O14  1  0.384756  0.757326  0.057890  1
  O  O15  1  0.730976  0.611115  0.314489  1
  O  O16  1  0.489552  0.489552  0.500000  1
  O  O17  1  0.271133  0.387544  0.185991  1
  O  O18  1  0.954594  0.748490  0.984829  1
  O  O19  1  0.155959  0.532232  0.873566  1
  O  O20  1  0.468139  0.845090  0.373058  1
  O  O21  1  0.512026  0.512026  0.000000  1
  O  O22  1  0.015136  0.876458  0.656513  1
  O  O23  1  0.251594  0.046165  0.484142  1
  O  O24  1  0.611115  0.730976  0.685511  1
  O  O25  1  0.387544  0.271133  0.814009  1
  O  O26  1  0.123159  0.982748  0.157456  1
  O  O27  1  0.845090  0.468139  0.626942  1
  O  O28  1  0.748490  0.954594  0.015171  1
  O  O29  1  0.982748  0.123159  0.842544  1
  O  O30  1  0.532232  0.155959  0.126434  1
  O  O31  1  0.240532  0.614577  0.553231  1
  O  O32  1  0.046165  0.251594  0.515858  1
  O  O33  1  0.757326  0.384756  0.942110  1
