# generated using pymatgen
data_Zn(InSe2)2
_symmetry_space_group_name_H-M   'P 1'
_cell_length_a   7.10267336
_cell_length_b   7.10267336
_cell_length_c   7.10267336
_cell_angle_alpha   131.08858067
_cell_angle_beta   131.08858067
_cell_angle_gamma   71.67238071
_symmetry_Int_Tables_number   1
_chemical_formula_structural   Zn(InSe2)2
_chemical_formula_sum   'Zn1 In2 Se4'
_cell_volume   199.14144754
_cell_formula_units_Z   1
loop_
 _symmetry_equiv_pos_site_id
 _symmetry_equiv_pos_as_xyz
  1  'x, y, z'
loop_
 _atom_site_type_symbol
 _atom_site_label
 _atom_site_symmetry_multiplicity
 _atom_site_fract_x
 _atom_site_fract_y
 _atom_site_fract_z
 _atom_site_occupancy
  Zn  Zn0  1  0.500000  0.500000  0.000000  1
  In  In1  1  0.750000  0.250000  0.500000  1
  In  In2  1  0.250000  0.750000  0.500000  1
  Se  Se3  1  0.649826  0.130718  0.000000  1
  Se  Se4  1  0.869282  0.869282  0.519108  1
  Se  Se5  1  0.130718  0.649826  0.000000  1
  Se  Se6  1  0.350174  0.350174  0.480892  1
