# generated using pymatgen
data_Na8SnSb4
_symmetry_space_group_name_H-M   'P 1'
_cell_length_a   10.55930848
_cell_length_b   10.55930848
_cell_length_c   10.55930848
_cell_angle_alpha   60.00000000
_cell_angle_beta   60.00000000
_cell_angle_gamma   60.00000000
_symmetry_Int_Tables_number   1
_chemical_formula_structural   Na8SnSb4
_chemical_formula_sum   'Na16 Sn2 Sb8'
_cell_volume   832.51378766
_cell_formula_units_Z   2
loop_
 _symmetry_equiv_pos_site_id
 _symmetry_equiv_pos_as_xyz
  1  'x, y, z'
loop_
 _atom_site_type_symbol
 _atom_site_label
 _atom_site_symmetry_multiplicity
 _atom_site_fract_x
 _atom_site_fract_y
 _atom_site_fract_z
 _atom_site_occupancy
  Na  Na0  1  0.625000  0.125000  0.625000  1
  Na  Na1  1  0.625000  0.625000  0.625000  1
  Na  Na2  1  0.625000  0.625000  0.125000  1
  Na  Na3  1  0.125000  0.625000  0.625000  1
  Na  Na4  1  0.479745  0.020255  0.020255  1
  Na  Na5  1  0.770255  0.229745  0.770255  1
  Na  Na6  1  0.229745  0.770255  0.229745  1
  Na  Na7  1  0.229745  0.770255  0.770255  1
  Na  Na8  1  0.229745  0.229745  0.770255  1
  Na  Na9  1  0.770255  0.770255  0.229745  1
  Na  Na10  1  0.020255  0.020255  0.479745  1
  Na  Na11  1  0.479745  0.020255  0.479745  1
  Na  Na12  1  0.020255  0.479745  0.020255  1
  Na  Na13  1  0.479745  0.479745  0.020255  1
  Na  Na14  1  0.770255  0.229745  0.229745  1
  Na  Na15  1  0.020255  0.479745  0.479745  1
  Sn  Sn16  1  0.500000  0.500000  0.500000  1
  Sn  Sn17  1  0.750000  0.750000  0.750000  1
  Sb  Sb18  1  0.861534  0.861534  0.415397  1
  Sb  Sb19  1  0.415397  0.861534  0.861534  1
  Sb  Sb20  1  0.388466  0.388466  0.834603  1
  Sb  Sb21  1  0.834603  0.388466  0.388466  1
  Sb  Sb22  1  0.388466  0.388466  0.388466  1
  Sb  Sb23  1  0.861534  0.415397  0.861534  1
  Sb  Sb24  1  0.861534  0.861534  0.861534  1
  Sb  Sb25  1  0.388466  0.834603  0.388466  1
