# generated using pymatgen
data_CsB3O5
_symmetry_space_group_name_H-M   'P 1'
_cell_length_a   6.10433600
_cell_length_b   8.56220002
_cell_length_c   9.93936748
_cell_angle_alpha   90.00000000
_cell_angle_beta   90.00000000
_cell_angle_gamma   90.00000000
_symmetry_Int_Tables_number   1
_chemical_formula_structural   CsB3O5
_chemical_formula_sum   'Cs4 B12 O20'
_cell_volume   519.49640583
_cell_formula_units_Z   4
loop_
 _symmetry_equiv_pos_site_id
 _symmetry_equiv_pos_as_xyz
  1  'x, y, z'
loop_
 _atom_site_type_symbol
 _atom_site_label
 _atom_site_symmetry_multiplicity
 _atom_site_fract_x
 _atom_site_fract_y
 _atom_site_fract_z
 _atom_site_occupancy
  Cs  Cs0  1  0.509781  0.737010  0.636751  1
  Cs  Cs1  1  0.009781  0.762990  0.363249  1
  Cs  Cs2  1  0.490219  0.237010  0.863249  1
  Cs  Cs3  1  0.990219  0.262990  0.136751  1
  B  B4  1  0.937444  0.350004  0.642613  1
  B  B5  1  0.437444  0.149996  0.357387  1
  B  B6  1  0.062556  0.850004  0.857387  1
  B  B7  1  0.562556  0.649996  0.142613  1
  B  B8  1  0.971191  0.570667  0.804400  1
  B  B9  1  0.471191  0.929333  0.195600  1
  B  B10  1  0.740508  0.127623  0.533664  1
  B  B11  1  0.240508  0.372377  0.466336  1
  B  B12  1  0.259492  0.627623  0.966336  1
  B  B13  1  0.759492  0.872377  0.033664  1
  B  B14  1  0.028809  0.070667  0.695600  1
  B  B15  1  0.528809  0.429333  0.304400  1
  O  O16  1  0.841847  0.465611  0.736099  1
  O  O17  1  0.243579  0.783151  0.937792  1
  O  O18  1  0.256421  0.216849  0.437792  1
  O  O19  1  0.743579  0.716849  0.062208  1
  O  O20  1  0.446589  0.773609  0.219678  1
  O  O21  1  0.946589  0.726391  0.780322  1
  O  O22  1  0.553411  0.273609  0.280322  1
  O  O23  1  0.053411  0.226391  0.719678  1
  O  O24  1  0.628345  0.982370  0.102891  1
  O  O25  1  0.128345  0.517630  0.897109  1
  O  O26  1  0.371655  0.482370  0.397109  1
  O  O27  1  0.871655  0.017630  0.602891  1
  O  O28  1  0.158153  0.965611  0.763901  1
  O  O29  1  0.658153  0.534389  0.236099  1
  O  O30  1  0.095692  0.435631  0.555523  1
  O  O31  1  0.595692  0.064369  0.444477  1
  O  O32  1  0.904308  0.935631  0.944477  1
  O  O33  1  0.404308  0.564369  0.055523  1
  O  O34  1  0.756421  0.283151  0.562208  1
  O  O35  1  0.341847  0.034389  0.263901  1
