# generated using pymatgen
data_LiMn2(PO3)5
_symmetry_space_group_name_H-M   'P 1'
_cell_length_a   5.34416447
_cell_length_b   9.03898157
_cell_length_c   13.39133308
_cell_angle_alpha   90.00000000
_cell_angle_beta   111.55975641
_cell_angle_gamma   90.00000000
_symmetry_Int_Tables_number   1
_chemical_formula_structural   LiMn2(PO3)5
_chemical_formula_sum   'Li2 Mn4 P10 O30'
_cell_volume   601.62010006
_cell_formula_units_Z   2
loop_
 _symmetry_equiv_pos_site_id
 _symmetry_equiv_pos_as_xyz
  1  'x, y, z'
loop_
 _atom_site_type_symbol
 _atom_site_label
 _atom_site_symmetry_multiplicity
 _atom_site_fract_x
 _atom_site_fract_y
 _atom_site_fract_z
 _atom_site_occupancy
  Li  Li0  1  0.084432  0.013360  0.029301  1
  Li  Li1  1  0.084432  0.986640  0.529301  1
  Mn  Mn2  1  0.954234  0.307689  0.572696  1
  Mn  Mn3  1  0.041974  0.688740  0.424578  1
  Mn  Mn4  1  0.954234  0.692311  0.072696  1
  Mn  Mn5  1  0.041974  0.311260  0.924578  1
  P  P6  1  0.336927  0.191234  0.420986  1
  P  P7  1  0.336927  0.808766  0.920986  1
  P  P8  1  0.663627  0.812691  0.580429  1
  P  P9  1  0.541335  0.481607  0.145904  1
  P  P10  1  0.455850  0.482960  0.353098  1
  P  P11  1  0.541335  0.518393  0.645904  1
  P  P12  1  0.663627  0.187309  0.080429  1
  P  P13  1  0.004245  0.023368  0.750514  1
  P  P14  1  0.004245  0.976632  0.250514  1
  P  P15  1  0.455850  0.517040  0.853098  1
  O  O16  1  0.733915  0.508422  0.940478  1
  O  O17  1  0.365338  0.164514  0.025535  1
  O  O18  1  0.089949  0.900304  0.168157  1
  O  O19  1  0.923242  0.888507  0.328218  1
  O  O20  1  0.155778  0.173338  0.483445  1
  O  O21  1  0.264971  0.489692  0.057573  1
  O  O22  1  0.281847  0.619027  0.328572  1
  O  O23  1  0.496226  0.416321  0.249214  1
  O  O24  1  0.633575  0.171022  0.477145  1
  O  O25  1  0.843362  0.828553  0.517190  1
  O  O26  1  0.264971  0.510308  0.557573  1
  O  O27  1  0.155778  0.826662  0.983445  1
  O  O28  1  0.718202  0.383397  0.670951  1
  O  O29  1  0.244330  0.090462  0.314484  1
  O  O30  1  0.633575  0.828978  0.977145  1
  O  O31  1  0.723539  0.351677  0.128359  1
  O  O32  1  0.281847  0.380973  0.828572  1
  O  O33  1  0.756509  0.088035  0.187587  1
  O  O34  1  0.365338  0.835486  0.525535  1
  O  O35  1  0.271191  0.354772  0.371184  1
  O  O36  1  0.496226  0.583679  0.749214  1
  O  O37  1  0.756509  0.911965  0.687587  1
  O  O38  1  0.718202  0.616603  0.170951  1
  O  O39  1  0.923242  0.111493  0.828218  1
  O  O40  1  0.089949  0.099696  0.668157  1
  O  O41  1  0.733915  0.491578  0.440478  1
  O  O42  1  0.843362  0.171447  0.017190  1
  O  O43  1  0.723539  0.648323  0.628359  1
  O  O44  1  0.244330  0.909538  0.814484  1
  O  O45  1  0.271191  0.645228  0.871184  1
