# generated using pymatgen
data_PPdSe
_symmetry_space_group_name_H-M   'P 1'
_cell_length_a   5.86650903
_cell_length_b   5.91682386
_cell_length_c   14.98561409
_cell_angle_alpha   90.00000000
_cell_angle_beta   90.00000000
_cell_angle_gamma   90.00000000
_symmetry_Int_Tables_number   1
_chemical_formula_structural   PPdSe
_chemical_formula_sum   'P8 Pd8 Se8'
_cell_volume   520.16715828
_cell_formula_units_Z   8
loop_
 _symmetry_equiv_pos_site_id
 _symmetry_equiv_pos_as_xyz
  1  'x, y, z'
loop_
 _atom_site_type_symbol
 _atom_site_label
 _atom_site_symmetry_multiplicity
 _atom_site_fract_x
 _atom_site_fract_y
 _atom_site_fract_z
 _atom_site_occupancy
  P  P0  1  0.624150  0.285192  0.572753  1
  P  P1  1  0.624150  0.214808  0.427247  1
  P  P2  1  0.875850  0.785192  0.927247  1
  P  P3  1  0.875850  0.714808  0.072753  1
  P  P4  1  0.375850  0.714808  0.427247  1
  P  P5  1  0.375850  0.785192  0.572753  1
  P  P6  1  0.124150  0.214808  0.072753  1
  P  P7  1  0.124150  0.285192  0.927247  1
  Pd  Pd8  1  0.757904  0.153638  0.899405  1
  Pd  Pd9  1  0.757904  0.346362  0.100595  1
  Pd  Pd10  1  0.742096  0.653638  0.600595  1
  Pd  Pd11  1  0.742096  0.846362  0.399405  1
  Pd  Pd12  1  0.242096  0.846362  0.100595  1
  Pd  Pd13  1  0.242096  0.653638  0.899405  1
  Pd  Pd14  1  0.257904  0.346362  0.399405  1
  Pd  Pd15  1  0.257904  0.153638  0.600595  1
  Se  Se16  1  0.364183  0.039420  0.853405  1
  Se  Se17  1  0.364183  0.460580  0.146595  1
  Se  Se18  1  0.135817  0.539420  0.646595  1
  Se  Se19  1  0.135817  0.960580  0.353405  1
  Se  Se20  1  0.635817  0.960580  0.146595  1
  Se  Se21  1  0.635817  0.539420  0.853405  1
  Se  Se22  1  0.864183  0.460580  0.353405  1
  Se  Se23  1  0.864183  0.039420  0.646595  1
