# generated using pymatgen
data_Dy6Se11
_symmetry_space_group_name_H-M   'P 1'
_cell_length_a   11.58043533
_cell_length_b   11.62528639
_cell_length_c   12.07541637
_cell_angle_alpha   89.90232093
_cell_angle_beta   89.81080175
_cell_angle_gamma   88.26592171
_symmetry_Int_Tables_number   1
_chemical_formula_structural   Dy6Se11
_chemical_formula_sum   'Dy24 Se44'
_cell_volume   1624.90807698
_cell_formula_units_Z   4
loop_
 _symmetry_equiv_pos_site_id
 _symmetry_equiv_pos_as_xyz
  1  'x, y, z'
loop_
 _atom_site_type_symbol
 _atom_site_label
 _atom_site_symmetry_multiplicity
 _atom_site_fract_x
 _atom_site_fract_y
 _atom_site_fract_z
 _atom_site_occupancy
  Dy  Dy0  1  0.006406  0.750342  0.499255  1
  Dy  Dy1  1  0.138677  0.138991  0.333463  1
  Dy  Dy2  1  0.139882  0.137918  0.663680  1
  Dy  Dy3  1  0.154935  0.155921  0.000692  1
  Dy  Dy4  1  0.239230  0.486615  0.500153  1
  Dy  Dy5  1  0.245899  0.502385  0.169990  1
  Dy  Dy6  1  0.254068  0.500993  0.829535  1
  Dy  Dy7  1  0.387173  0.880738  0.667422  1
  Dy  Dy8  1  0.385603  0.880155  0.331451  1
  Dy  Dy9  1  0.386803  0.893487  0.000763  1
  Dy  Dy10  1  0.483329  0.224635  0.495875  1
  Dy  Dy11  1  0.495667  0.241780  0.835060  1
  Dy  Dy12  1  0.502161  0.247255  0.171958  1
  Dy  Dy13  1  0.625430  0.627563  0.999030  1
  Dy  Dy14  1  0.651211  0.657751  0.671199  1
  Dy  Dy15  1  0.647452  0.645564  0.334909  1
  Dy  Dy16  1  0.749345  0.008011  0.499038  1
  Dy  Dy17  1  0.740053  0.986927  0.162792  1
  Dy  Dy18  1  0.739879  0.991417  0.836718  1
  Dy  Dy19  1  0.893584  0.390160  0.667818  1
  Dy  Dy20  1  0.879818  0.384215  0.336495  1
  Dy  Dy21  1  0.891919  0.387159  0.999992  1
  Dy  Dy22  1  0.989767  0.738636  0.837102  1
  Dy  Dy23  1  0.986756  0.737626  0.162593  1
  Se  Se24  1  0.004065  0.006302  0.496974  1
  Se  Se25  1  0.059258  0.310960  0.499648  1
  Se  Se26  1  0.066804  0.314507  0.167054  1
  Se  Se27  1  0.070483  0.314021  0.832781  1
  Se  Se28  1  0.069355  0.568231  0.999340  1
  Se  Se29  1  0.072870  0.569408  0.667513  1
  Se  Se30  1  0.066325  0.567377  0.334277  1
  Se  Se31  1  0.066509  0.917981  0.998184  1
  Se  Se32  1  0.122747  0.885080  0.304987  1
  Se  Se33  1  0.125599  0.883921  0.691172  1
  Se  Se34  1  0.244180  0.767314  0.838185  1
  Se  Se35  1  0.238285  0.771480  0.160061  1
  Se  Se36  1  0.270042  0.736759  0.501374  1
  Se  Se37  1  0.308862  0.052448  0.498802  1
  Se  Se38  1  0.314627  0.068208  0.166411  1
  Se  Se39  1  0.312304  0.066310  0.833940  1
  Se  Se40  1  0.318340  0.316814  0.335344  1
  Se  Se41  1  0.324524  0.315608  0.662374  1
  Se  Se42  1  0.329389  0.329685  0.001139  1
  Se  Se43  1  0.368602  0.639961  0.997265  1
  Se  Se44  1  0.405877  0.601509  0.651336  1
  Se  Se45  1  0.391371  0.616027  0.348668  1
  Se  Se46  1  0.522202  0.489185  0.795242  1
  Se  Se47  1  0.505363  0.502504  0.189876  1
  Se  Se48  1  0.566747  0.067594  0.668728  1
  Se  Se49  1  0.568625  0.065143  0.331524  1
  Se  Se50  1  0.569418  0.069077  0.001301  1
  Se  Se51  1  0.559787  0.813782  0.835018  1
  Se  Se52  1  0.559687  0.810503  0.166463  1
  Se  Se53  1  0.570223  0.817648  0.500281  1
  Se  Se54  1  0.619069  0.390009  0.370950  1
  Se  Se55  1  0.635508  0.372042  0.997066  1
  Se  Se56  1  0.725555  0.279792  0.521577  1
  Se  Se57  1  0.761150  0.250338  0.829218  1
  Se  Se58  1  0.767024  0.241622  0.162711  1
  Se  Se59  1  0.813330  0.559504  0.832003  1
  Se  Se60  1  0.810892  0.557498  0.167913  1
  Se  Se61  1  0.804034  0.803777  0.999576  1
  Se  Se62  1  0.814258  0.568468  0.505413  1
  Se  Se63  1  0.827162  0.829379  0.669803  1
  Se  Se64  1  0.823959  0.823769  0.331771  1
  Se  Se65  1  0.879726  0.130567  0.686008  1
  Se  Se66  1  0.881434  0.126503  0.310260  1
  Se  Se67  1  0.914084  0.070647  0.999282  1
