# generated using pymatgen
data_Cd2Te2O7
_symmetry_space_group_name_H-M   'P 1'
_cell_length_a   7.54877032
_cell_length_b   8.50689665
_cell_length_c   10.13132682
_cell_angle_alpha   86.63089222
_cell_angle_beta   78.84978440
_cell_angle_gamma   77.18722926
_symmetry_Int_Tables_number   1
_chemical_formula_structural   Cd2Te2O7
_chemical_formula_sum   'Cd8 Te8 O28'
_cell_volume   622.33850622
_cell_formula_units_Z   4
loop_
 _symmetry_equiv_pos_site_id
 _symmetry_equiv_pos_as_xyz
  1  'x, y, z'
loop_
 _atom_site_type_symbol
 _atom_site_label
 _atom_site_symmetry_multiplicity
 _atom_site_fract_x
 _atom_site_fract_y
 _atom_site_fract_z
 _atom_site_occupancy
  Cd  Cd0  1  0.190583  0.348231  0.890132  1
  Cd  Cd1  1  0.809417  0.651769  0.109868  1
  Cd  Cd2  1  0.256280  0.490816  0.491865  1
  Cd  Cd3  1  0.743720  0.509184  0.508135  1
  Cd  Cd4  1  0.307489  0.624209  0.113537  1
  Cd  Cd5  1  0.692511  0.375791  0.886463  1
  Cd  Cd6  1  0.500000  0.000000  0.000000  1
  Cd  Cd7  1  0.000000  0.000000  0.000000  1
  Te  Te8  1  0.041651  0.167797  0.645885  1
  Te  Te9  1  0.958349  0.832203  0.354115  1
  Te  Te10  1  0.119791  0.268475  0.234516  1
  Te  Te11  1  0.880209  0.731525  0.765484  1
  Te  Te12  1  0.559193  0.101341  0.650648  1
  Te  Te13  1  0.440807  0.898659  0.349352  1
  Te  Te14  1  0.623411  0.275852  0.227886  1
  Te  Te15  1  0.376589  0.724148  0.772114  1
  O  O16  1  0.113888  0.806265  0.755752  1
  O  O17  1  0.886112  0.193735  0.244248  1
  O  O18  1  0.318992  0.845289  0.934607  1
  O  O19  1  0.681008  0.154711  0.065393  1
  O  O20  1  0.367785  0.532547  0.888084  1
  O  O21  1  0.632215  0.467453  0.111916  1
  O  O22  1  0.411189  0.937187  0.663631  1
  O  O23  1  0.588811  0.062813  0.336369  1
  O  O24  1  0.429680  0.614821  0.606347  1
  O  O25  1  0.570320  0.385179  0.393653  1
  O  O26  1  0.494900  0.181779  0.826846  1
  O  O27  1  0.505100  0.818221  0.173154  1
  O  O28  1  0.642268  0.666040  0.775683  1
  O  O29  1  0.357732  0.333960  0.224317  1
  O  O30  1  0.767915  0.711519  0.356813  1
  O  O31  1  0.232085  0.288481  0.643187  1
  O  O32  1  0.003596  0.818963  0.161774  1
  O  O33  1  0.996404  0.181037  0.838226  1
  O  O34  1  0.042423  0.352581  0.412196  1
  O  O35  1  0.957577  0.647419  0.587804  1
  O  O36  1  0.062895  0.463359  0.132870  1
  O  O37  1  0.937105  0.536641  0.867130  1
  O  O38  1  0.201474  0.693596  0.342587  1
  O  O39  1  0.798526  0.306404  0.657413  1
  O  O40  1  0.206545  0.153601  0.067356  1
  O  O41  1  0.793455  0.846399  0.932644  1
  O  O42  1  0.209686  0.050175  0.329314  1
  O  O43  1  0.790314  0.949825  0.670686  1
