# generated using pymatgen
data_Al2HgSe4
_symmetry_space_group_name_H-M   'P 1'
_cell_length_a   6.86469538
_cell_length_b   6.86469538
_cell_length_c   6.86469538
_cell_angle_alpha   129.27737311
_cell_angle_beta   129.27737311
_cell_angle_gamma   74.56467629
_symmetry_Int_Tables_number   1
_chemical_formula_structural   Al2HgSe4
_chemical_formula_sum   'Al2 Hg1 Se4'
_cell_volume   188.88544915
_cell_formula_units_Z   1
loop_
 _symmetry_equiv_pos_site_id
 _symmetry_equiv_pos_as_xyz
  1  'x, y, z'
loop_
 _atom_site_type_symbol
 _atom_site_label
 _atom_site_symmetry_multiplicity
 _atom_site_fract_x
 _atom_site_fract_y
 _atom_site_fract_z
 _atom_site_occupancy
  Al  Al0  1  0.250000  0.750000  0.500000  1
  Al  Al1  1  0.500000  0.500000  0.000000  1
  Hg  Hg2  1  0.000000  0.000000  0.000000  1
  Se  Se3  1  0.131882  0.589254  0.997393  1
  Se  Se4  1  0.591861  0.134489  0.002607  1
  Se  Se5  1  0.865511  0.868118  0.457372  1
  Se  Se6  1  0.410746  0.408139  0.542628  1
