# generated using pymatgen
data_CsClO4
_symmetry_space_group_name_H-M   'P 1'
_cell_length_a   6.14667560
_cell_length_b   8.01869712
_cell_length_c   10.04956524
_cell_angle_alpha   90.00000000
_cell_angle_beta   90.00000000
_cell_angle_gamma   90.00000000
_symmetry_Int_Tables_number   1
_chemical_formula_structural   CsClO4
_chemical_formula_sum   'Cs4 Cl4 O16'
_cell_volume   495.32628722
_cell_formula_units_Z   4
loop_
 _symmetry_equiv_pos_site_id
 _symmetry_equiv_pos_as_xyz
  1  'x, y, z'
loop_
 _atom_site_type_symbol
 _atom_site_label
 _atom_site_symmetry_multiplicity
 _atom_site_fract_x
 _atom_site_fract_y
 _atom_site_fract_z
 _atom_site_occupancy
  Cs  Cs0  1  0.250000  0.837707  0.688615  1
  Cs  Cs1  1  0.750000  0.162293  0.311385  1
  Cs  Cs2  1  0.750000  0.337707  0.811385  1
  Cs  Cs3  1  0.250000  0.662293  0.188615  1
  Cl  Cl4  1  0.250000  0.196869  0.056563  1
  Cl  Cl5  1  0.750000  0.803131  0.943437  1
  Cl  Cl6  1  0.750000  0.696869  0.443437  1
  Cl  Cl7  1  0.250000  0.303131  0.556563  1
  O  O8  1  0.750000  0.625646  0.576660  1
  O  O9  1  0.555747  0.801599  0.425983  1
  O  O10  1  0.055747  0.301599  0.074017  1
  O  O11  1  0.250000  0.434633  0.657156  1
  O  O12  1  0.250000  0.065367  0.157156  1
  O  O13  1  0.750000  0.874354  0.076660  1
  O  O14  1  0.444253  0.301599  0.074017  1
  O  O15  1  0.555747  0.698401  0.925983  1
  O  O16  1  0.250000  0.125646  0.923340  1
  O  O17  1  0.444253  0.198401  0.574017  1
  O  O18  1  0.944253  0.698401  0.925983  1
  O  O19  1  0.055747  0.198401  0.574017  1
  O  O20  1  0.750000  0.565367  0.342844  1
  O  O21  1  0.750000  0.934633  0.842844  1
  O  O22  1  0.250000  0.374354  0.423340  1
  O  O23  1  0.944253  0.801599  0.425983  1
