# generated using pymatgen
data_Nd5AgS8
_symmetry_space_group_name_H-M   'P 1'
_cell_length_a   7.43465445
_cell_length_b   7.43465445
_cell_length_c   7.43465445
_cell_angle_alpha   109.71737081
_cell_angle_beta   109.71737081
_cell_angle_gamma   108.98003404
_symmetry_Int_Tables_number   1
_chemical_formula_structural   Nd5AgS8
_chemical_formula_sum   'Nd5 Ag1 S8'
_cell_volume   316.32721575
_cell_formula_units_Z   1
loop_
 _symmetry_equiv_pos_site_id
 _symmetry_equiv_pos_as_xyz
  1  'x, y, z'
loop_
 _atom_site_type_symbol
 _atom_site_label
 _atom_site_symmetry_multiplicity
 _atom_site_fract_x
 _atom_site_fract_y
 _atom_site_fract_z
 _atom_site_occupancy
  Nd  Nd0  1  0.235487  0.620506  0.118230  1
  Nd  Nd1  1  0.379494  0.497724  0.614980  1
  Nd  Nd2  1  0.502276  0.117257  0.881770  1
  Nd  Nd3  1  0.750000  0.250000  0.500000  1
  Nd  Nd4  1  0.882743  0.764513  0.385020  1
  Ag  Ag5  1  0.000000  0.000000  0.000000  1
  S  S6  1  0.117612  0.726293  0.749026  1
  S  S7  1  0.608422  0.867756  0.106374  1
  S  S8  1  0.631414  0.882388  0.608680  1
  S  S9  1  0.273707  0.022734  0.391320  1
  S  S10  1  0.497952  0.391578  0.259334  1
  S  S11  1  0.761382  0.502048  0.893626  1
  S  S12  1  0.977266  0.368586  0.250974  1
  S  S13  1  0.132244  0.238618  0.740666  1
