# generated using pymatgen
data_Pr5AgS8
_symmetry_space_group_name_H-M   'P 1'
_cell_length_a   7.48605138
_cell_length_b   7.48605138
_cell_length_c   7.48605138
_cell_angle_alpha   109.75367652
_cell_angle_beta   109.75367652
_cell_angle_gamma   108.90777388
_symmetry_Int_Tables_number   1
_chemical_formula_structural   Pr5AgS8
_chemical_formula_sum   'Pr5 Ag1 S8'
_cell_volume   322.92751925
_cell_formula_units_Z   1
loop_
 _symmetry_equiv_pos_site_id
 _symmetry_equiv_pos_as_xyz
  1  'x, y, z'
loop_
 _atom_site_type_symbol
 _atom_site_label
 _atom_site_symmetry_multiplicity
 _atom_site_fract_x
 _atom_site_fract_y
 _atom_site_fract_z
 _atom_site_occupancy
  Pr  Pr0  1  0.235877  0.619735  0.118660  1
  Pr  Pr1  1  0.380265  0.498926  0.616143  1
  Pr  Pr2  1  0.501074  0.117217  0.881340  1
  Pr  Pr3  1  0.882783  0.764123  0.383857  1
  Pr  Pr4  1  0.750000  0.250000  0.500000  1
  Ag  Ag5  1  1.000000  1.000000  0.000000  1
  S  S6  1  0.274957  0.023563  0.390624  1
  S  S7  1  0.632939  0.884333  0.609376  1
  S  S8  1  0.497582  0.392868  0.259841  1
  S  S9  1  0.762259  0.502418  0.895286  1
  S  S10  1  0.607132  0.866973  0.104714  1
  S  S11  1  0.115667  0.725043  0.748606  1
  S  S12  1  0.976437  0.367061  0.251394  1
  S  S13  1  0.133027  0.237741  0.740159  1
