# generated using pymatgen
data_HgClO3
_symmetry_space_group_name_H-M   'P 1'
_cell_length_a   8.74189256
_cell_length_b   6.49992344
_cell_length_c   15.49749488
_cell_angle_alpha   90.00000000
_cell_angle_beta   117.50590021
_cell_angle_gamma   90.00000000
_symmetry_Int_Tables_number   1
_chemical_formula_structural   HgClO3
_chemical_formula_sum   'Hg8 Cl8 O24'
_cell_volume   781.05361559
_cell_formula_units_Z   8
loop_
 _symmetry_equiv_pos_site_id
 _symmetry_equiv_pos_as_xyz
  1  'x, y, z'
loop_
 _atom_site_type_symbol
 _atom_site_label
 _atom_site_symmetry_multiplicity
 _atom_site_fract_x
 _atom_site_fract_y
 _atom_site_fract_z
 _atom_site_occupancy
  Hg  Hg0  1  0.823972  0.695970  0.810629  1
  Hg  Hg1  1  0.176028  0.195970  0.689371  1
  Hg  Hg2  1  0.176028  0.304030  0.189371  1
  Hg  Hg3  1  0.823972  0.804030  0.310629  1
  Hg  Hg4  1  0.795668  0.324464  0.861223  1
  Hg  Hg5  1  0.204332  0.824464  0.638777  1
  Hg  Hg6  1  0.204332  0.675536  0.138777  1
  Hg  Hg7  1  0.795668  0.175536  0.361223  1
  Cl  Cl8  1  0.649578  0.482338  0.137267  1
  Cl  Cl9  1  0.350422  0.982338  0.362733  1
  Cl  Cl10  1  0.350422  0.517662  0.862733  1
  Cl  Cl11  1  0.649578  0.017662  0.637267  1
  Cl  Cl12  1  0.743948  0.983446  0.003057  1
  Cl  Cl13  1  0.256052  0.483446  0.496943  1
  Cl  Cl14  1  0.256052  0.016554  0.996943  1
  Cl  Cl15  1  0.743948  0.516554  0.503057  1
  O  O16  1  0.550294  0.824455  0.627082  1
  O  O17  1  0.449706  0.324455  0.872918  1
  O  O18  1  0.449706  0.175545  0.372918  1
  O  O19  1  0.550294  0.675545  0.127082  1
  O  O20  1  0.567777  0.191742  0.662066  1
  O  O21  1  0.432223  0.691742  0.837934  1
  O  O22  1  0.432223  0.808258  0.337934  1
  O  O23  1  0.567777  0.308258  0.162066  1
  O  O24  1  0.829548  0.981717  0.730324  1
  O  O25  1  0.170452  0.481717  0.769676  1
  O  O26  1  0.170452  0.018283  0.269676  1
  O  O27  1  0.829548  0.518283  0.230324  1
  O  O28  1  0.166973  0.663968  0.435632  1
  O  O29  1  0.833027  0.163968  0.064368  1
  O  O30  1  0.833027  0.336032  0.564368  1
  O  O31  1  0.166973  0.836032  0.935632  1
  O  O32  1  0.162722  0.290596  0.454411  1
  O  O33  1  0.837278  0.790596  0.045589  1
  O  O34  1  0.837278  0.709404  0.545589  1
  O  O35  1  0.162722  0.209404  0.954411  1
  O  O36  1  0.763297  0.489506  0.405109  1
  O  O37  1  0.236703  0.989506  0.094891  1
  O  O38  1  0.236703  0.510494  0.594891  1
  O  O39  1  0.763297  0.010494  0.905109  1
