# generated using pymatgen
data_Ba3P4O13
_symmetry_space_group_name_H-M   'P 1'
_cell_length_a   7.68279160
_cell_length_b   8.77616802
_cell_length_c   10.77285418
_cell_angle_alpha   108.10358094
_cell_angle_beta   104.22072591
_cell_angle_gamma   102.51862483
_symmetry_Int_Tables_number   1
_chemical_formula_structural   Ba3P4O13
_chemical_formula_sum   'Ba6 P8 O26'
_cell_volume   634.48682735
_cell_formula_units_Z   2
loop_
 _symmetry_equiv_pos_site_id
 _symmetry_equiv_pos_as_xyz
  1  'x, y, z'
loop_
 _atom_site_type_symbol
 _atom_site_label
 _atom_site_symmetry_multiplicity
 _atom_site_fract_x
 _atom_site_fract_y
 _atom_site_fract_z
 _atom_site_occupancy
  Ba  Ba0  1  0.151321  0.230138  0.230440  1
  Ba  Ba1  1  0.848679  0.769862  0.769560  1
  Ba  Ba2  1  0.636852  0.224150  0.730604  1
  Ba  Ba3  1  0.363148  0.775850  0.269396  1
  Ba  Ba4  1  0.000000  0.000000  0.500000  1
  Ba  Ba5  1  0.500000  0.000000  0.000000  1
  P  P6  1  0.152629  0.522597  0.864620  1
  P  P7  1  0.847371  0.477403  0.135380  1
  P  P8  1  0.337700  0.460899  0.632991  1
  P  P9  1  0.662300  0.539101  0.367009  1
  P  P10  1  0.327105  0.798193  0.636863  1
  P  P11  1  0.672895  0.201807  0.363137  1
  P  P12  1  0.839914  0.816014  0.144878  1
  P  P13  1  0.160086  0.183986  0.855122  1
  O  O14  1  0.300261  0.168530  0.777292  1
  O  O15  1  0.699739  0.831470  0.222708  1
  O  O16  1  0.952096  0.104327  0.757021  1
  O  O17  1  0.047904  0.895673  0.242979  1
  O  O18  1  0.191793  0.122278  0.974528  1
  O  O19  1  0.808207  0.877722  0.025472  1
  O  O20  1  0.196468  0.388797  0.930110  1
  O  O21  1  0.803532  0.611203  0.069890  1
  O  O22  1  0.703229  0.143173  0.484311  1
  O  O23  1  0.296771  0.856827  0.515689  1
  O  O24  1  0.822681  0.198382  0.293805  1
  O  O25  1  0.177319  0.801618  0.706195  1
  O  O26  1  0.468480  0.112947  0.259279  1
  O  O27  1  0.531520  0.887053  0.740721  1
  O  O28  1  0.691251  0.405482  0.437021  1
  O  O29  1  0.308749  0.594518  0.562979  1
  O  O30  1  0.281591  0.694218  0.969571  1
  O  O31  1  0.718409  0.305782  0.030429  1
  O  O32  1  0.738205  0.711588  0.483866  1
  O  O33  1  0.261795  0.288412  0.516134  1
  O  O34  1  0.460385  0.488038  0.273714  1
  O  O35  1  0.539615  0.511962  0.726286  1
  O  O36  1  0.803463  0.534810  0.278924  1
  O  O37  1  0.196537  0.465190  0.721076  1
  O  O38  1  0.943602  0.500243  0.819074  1
  O  O39  1  0.056398  0.499757  0.180926  1
