# generated using pymatgen
data_NaCaTaTiO6
_symmetry_space_group_name_H-M   'P 1'
_cell_length_a   5.45648370
_cell_length_b   5.55056885
_cell_length_c   9.48649708
_cell_angle_alpha   90.00000000
_cell_angle_beta   125.18333750
_cell_angle_gamma   90.00000000
_symmetry_Int_Tables_number   1
_chemical_formula_structural   NaCaTaTiO6
_chemical_formula_sum   'Na2 Ca2 Ta2 Ti2 O12'
_cell_volume   234.82502359
_cell_formula_units_Z   2
loop_
 _symmetry_equiv_pos_site_id
 _symmetry_equiv_pos_as_xyz
  1  'x, y, z'
loop_
 _atom_site_type_symbol
 _atom_site_label
 _atom_site_symmetry_multiplicity
 _atom_site_fract_x
 _atom_site_fract_y
 _atom_site_fract_z
 _atom_site_occupancy
  Na  Na0  1  0.745657  0.226130  0.750071  1
  Na  Na1  1  0.745657  0.773870  0.250071  1
  Ca  Ca2  1  0.262810  0.704963  0.749993  1
  Ca  Ca3  1  0.262810  0.295037  0.249993  1
  Ta  Ta4  1  0.506196  0.243969  0.000224  1
  Ta  Ta5  1  0.506196  0.756031  0.500224  1
  Ti  Ti6  1  0.009420  0.244979  0.503044  1
  Ti  Ti7  1  0.009420  0.755021  0.003044  1
  O  O8  1  0.173263  0.732302  0.248053  1
  O  O9  1  0.314705  0.469890  0.537855  1
  O  O10  1  0.741132  0.469022  0.961010  1
  O  O11  1  0.249262  0.962252  0.543190  1
  O  O12  1  0.663808  0.957310  0.955643  1
  O  O13  1  0.833747  0.233270  0.250915  1
  O  O14  1  0.173263  0.267698  0.748053  1
  O  O15  1  0.314705  0.530110  0.037855  1
  O  O16  1  0.741132  0.530978  0.461010  1
  O  O17  1  0.249262  0.037748  0.043190  1
  O  O18  1  0.663808  0.042690  0.455643  1
  O  O19  1  0.833747  0.766730  0.750915  1
