# generated using pymatgen
data_Li5ReN4
_symmetry_space_group_name_H-M   'P 1'
_cell_length_a   4.92413095
_cell_length_b   6.67056271
_cell_length_c   6.75608236
_cell_angle_alpha   90.00000000
_cell_angle_beta   90.00000000
_cell_angle_gamma   90.00000000
_symmetry_Int_Tables_number   1
_chemical_formula_structural   Li5ReN4
_chemical_formula_sum   'Li10 Re2 N8'
_cell_volume   221.91517459
_cell_formula_units_Z   2
loop_
 _symmetry_equiv_pos_site_id
 _symmetry_equiv_pos_as_xyz
  1  'x, y, z'
loop_
 _atom_site_type_symbol
 _atom_site_label
 _atom_site_symmetry_multiplicity
 _atom_site_fract_x
 _atom_site_fract_y
 _atom_site_fract_z
 _atom_site_occupancy
  Li  Li0  1  0.303501  0.000000  0.000000  1
  Li  Li1  1  0.696499  0.500000  0.500000  1
  Li  Li2  1  0.244675  0.762340  0.301304  1
  Li  Li3  1  0.244675  0.237660  0.698696  1
  Li  Li4  1  0.755325  0.262340  0.198696  1
  Li  Li5  1  0.755325  0.737660  0.801304  1
  Li  Li6  1  0.755325  0.737660  0.198696  1
  Li  Li7  1  0.755325  0.262340  0.801304  1
  Li  Li8  1  0.244675  0.762340  0.698696  1
  Li  Li9  1  0.244675  0.237660  0.301304  1
  Re  Re10  1  0.278235  0.500000  0.000000  1
  Re  Re11  1  0.721765  0.000000  0.500000  1
  N  N12  1  0.073180  0.729807  0.000000  1
  N  N13  1  0.518257  0.000000  0.728731  1
  N  N14  1  0.481743  0.500000  0.228731  1
  N  N15  1  0.481743  0.500000  0.771269  1
  N  N16  1  0.073180  0.270193  0.000000  1
  N  N17  1  0.926820  0.229807  0.500000  1
  N  N18  1  0.926820  0.770193  0.500000  1
  N  N19  1  0.518257  0.000000  0.271269  1
