# generated using pymatgen
data_YPS4
_symmetry_space_group_name_H-M   'P 1'
_cell_length_a   12.24994162
_cell_length_b   12.24994162
_cell_length_c   12.24994162
_cell_angle_alpha   127.60766434
_cell_angle_beta   127.60766434
_cell_angle_gamma   77.26146382
_symmetry_Int_Tables_number   1
_chemical_formula_structural   YPS4
_chemical_formula_sum   'Y8 P8 S32'
_cell_volume   1119.36366430
_cell_formula_units_Z   8
loop_
 _symmetry_equiv_pos_site_id
 _symmetry_equiv_pos_as_xyz
  1  'x, y, z'
loop_
 _atom_site_type_symbol
 _atom_site_label
 _atom_site_symmetry_multiplicity
 _atom_site_fract_x
 _atom_site_fract_y
 _atom_site_fract_z
 _atom_site_occupancy
  Y  Y0  1  0.000000  0.000000  0.000000  1
  Y  Y1  1  0.750000  0.250000  0.500000  1
  Y  Y2  1  0.250000  0.750000  0.500000  1
  Y  Y3  1  0.500000  0.500000  0.000000  1
  Y  Y4  1  0.750000  0.750000  0.000000  1
  Y  Y5  1  0.500000  0.000000  0.500000  1
  Y  Y6  1  0.000000  0.500000  0.500000  1
  Y  Y7  1  0.250000  0.250000  0.000000  1
  P  P8  1  0.125000  0.412562  0.787562  1
  P  P9  1  0.125000  0.912562  0.287562  1
  P  P10  1  0.662562  0.875000  0.287562  1
  P  P11  1  0.587438  0.375000  0.712438  1
  P  P12  1  0.625000  0.837438  0.712438  1
  P  P13  1  0.625000  0.337438  0.212438  1
  P  P14  1  0.087438  0.375000  0.212438  1
  P  P15  1  0.162562  0.875000  0.787562  1
  S  S16  1  0.486432  0.209870  0.452136  1
  S  S17  1  0.757734  0.034296  0.547864  1
  S  S18  1  0.784296  0.736432  0.776562  1
  S  S19  1  0.959870  0.007734  0.223438  1
  S  S20  1  0.492266  0.540130  0.776562  1
  S  S21  1  0.763568  0.715704  0.223438  1
  S  S22  1  0.290130  0.013568  0.547864  1
  S  S23  1  0.465704  0.742266  0.452136  1
  S  S24  1  0.279797  0.468490  0.318900  1
  S  S25  1  0.218490  0.399590  0.688693  1
  S  S26  1  0.710897  0.529797  0.311307  1
  S  S27  1  0.970203  0.789103  0.688693  1
  S  S28  1  0.100410  0.281510  0.311307  1
  S  S29  1  0.539103  0.350410  0.318900  1
  S  S30  1  0.031510  0.220203  0.681100  1
  S  S31  1  0.149590  0.960897  0.681100  1
  S  S32  1  0.470203  0.781510  0.181100  1
  S  S33  1  0.531510  0.850410  0.811307  1
  S  S34  1  0.039103  0.720203  0.188693  1
  S  S35  1  0.779797  0.460897  0.811307  1
  S  S36  1  0.649590  0.968490  0.188693  1
  S  S37  1  0.210897  0.899590  0.181100  1
  S  S38  1  0.718490  0.029797  0.818900  1
  S  S39  1  0.600410  0.289103  0.818900  1
  S  S40  1  0.992266  0.215704  0.952136  1
  S  S41  1  0.965704  0.513568  0.723438  1
  S  S42  1  0.790130  0.242266  0.276562  1
  S  S43  1  0.257734  0.709870  0.723438  1
  S  S44  1  0.986432  0.534296  0.276562  1
  S  S45  1  0.459870  0.236432  0.952136  1
  S  S46  1  0.284296  0.507734  0.047864  1
  S  S47  1  0.263568  0.040130  0.047864  1
