# generated using pymatgen
data_Sr2TaFeO6
_symmetry_space_group_name_H-M   'P 1'
_cell_length_a   5.67907422
_cell_length_b   5.66717506
_cell_length_c   9.81532612
_cell_angle_alpha   90.00000000
_cell_angle_beta   125.34884327
_cell_angle_gamma   90.00000000
_symmetry_Int_Tables_number   1
_chemical_formula_structural   Sr2TaFeO6
_chemical_formula_sum   'Sr4 Ta2 Fe2 O12'
_cell_volume   257.66172882
_cell_formula_units_Z   2
loop_
 _symmetry_equiv_pos_site_id
 _symmetry_equiv_pos_as_xyz
  1  'x, y, z'
loop_
 _atom_site_type_symbol
 _atom_site_label
 _atom_site_symmetry_multiplicity
 _atom_site_fract_x
 _atom_site_fract_y
 _atom_site_fract_z
 _atom_site_occupancy
  Sr  Sr0  1  0.753086  0.487398  0.750331  1
  Sr  Sr1  1  0.246914  0.987398  0.749669  1
  Sr  Sr2  1  0.753086  0.012602  0.250331  1
  Sr  Sr3  1  0.246914  0.512602  0.249669  1
  Ta  Ta4  1  0.500000  0.000000  0.500000  1
  Ta  Ta5  1  0.500000  0.500000  0.000000  1
  Fe  Fe6  1  0.000000  0.000000  0.000000  1
  Fe  Fe7  1  0.000000  0.500000  0.500000  1
  O  O8  1  0.697378  0.494926  0.247450  1
  O  O9  1  0.302622  0.994926  0.252550  1
  O  O10  1  0.302622  0.505074  0.752550  1
  O  O11  1  0.697378  0.005074  0.747450  1
  O  O12  1  0.244942  0.233827  0.973858  1
  O  O13  1  0.755058  0.733827  0.526142  1
  O  O14  1  0.755058  0.766173  0.026142  1
  O  O15  1  0.244942  0.266173  0.473858  1
  O  O16  1  0.208618  0.770696  0.474204  1
  O  O17  1  0.791382  0.270696  0.025796  1
  O  O18  1  0.791382  0.229304  0.525796  1
  O  O19  1  0.208618  0.729304  0.974204  1
