# generated using pymatgen
data_Tb5AgS8
_symmetry_space_group_name_H-M   'P 1'
_cell_length_a   7.24185532
_cell_length_b   7.24185532
_cell_length_c   7.24185532
_cell_angle_alpha   109.63077990
_cell_angle_beta   109.63077990
_cell_angle_gamma   109.15257126
_symmetry_Int_Tables_number   1
_chemical_formula_structural   Tb5AgS8
_chemical_formula_sum   'Tb5 Ag1 S8'
_cell_volume   292.35974476
_cell_formula_units_Z   1
loop_
 _symmetry_equiv_pos_site_id
 _symmetry_equiv_pos_as_xyz
  1  'x, y, z'
loop_
 _atom_site_type_symbol
 _atom_site_label
 _atom_site_symmetry_multiplicity
 _atom_site_fract_x
 _atom_site_fract_y
 _atom_site_fract_z
 _atom_site_occupancy
  Tb  Tb0  1  0.235342  0.621328  0.118882  1
  Tb  Tb1  1  0.378672  0.497553  0.614014  1
  Tb  Tb2  1  0.502447  0.116460  0.881118  1
  Tb  Tb3  1  0.750000  0.250000  0.500000  1
  Tb  Tb4  1  0.883540  0.764658  0.385986  1
  Ag  Ag5  1  1.000000  1.000000  0.000000  1
  S  S6  1  0.120259  0.728411  0.747834  1
  S  S7  1  0.131702  0.242646  0.740701  1
  S  S8  1  0.608999  0.868298  0.110944  1
  S  S9  1  0.271589  0.019423  0.391848  1
  S  S10  1  0.627575  0.879741  0.608152  1
  S  S11  1  0.501946  0.391001  0.259299  1
  S  S12  1  0.757354  0.498054  0.889056  1
  S  S13  1  0.980577  0.372425  0.252166  1
