# generated using pymatgen
data_Nd4Au2O9
_symmetry_space_group_name_H-M   'P 1'
_cell_length_a   6.21206526
_cell_length_b   12.06232243
_cell_length_c   12.07583955
_cell_angle_alpha   90.00000000
_cell_angle_beta   90.00000000
_cell_angle_gamma   90.00000000
_symmetry_Int_Tables_number   1
_chemical_formula_structural   Nd4Au2O9
_chemical_formula_sum   'Nd16 Au8 O36'
_cell_volume   904.86601363
_cell_formula_units_Z   4
loop_
 _symmetry_equiv_pos_site_id
 _symmetry_equiv_pos_as_xyz
  1  'x, y, z'
loop_
 _atom_site_type_symbol
 _atom_site_label
 _atom_site_symmetry_multiplicity
 _atom_site_fract_x
 _atom_site_fract_y
 _atom_site_fract_z
 _atom_site_occupancy
  Nd  Nd0  1  0.257904  0.988563  0.089360  1
  Nd  Nd1  1  0.257904  0.011437  0.410640  1
  Nd  Nd2  1  0.242096  0.511437  0.589360  1
  Nd  Nd3  1  0.242096  0.488563  0.910640  1
  Nd  Nd4  1  0.742096  0.011437  0.910640  1
  Nd  Nd5  1  0.742096  0.988563  0.589360  1
  Nd  Nd6  1  0.757904  0.488563  0.410640  1
  Nd  Nd7  1  0.757904  0.511437  0.089360  1
  Nd  Nd8  1  0.196258  0.659731  0.264164  1
  Nd  Nd9  1  0.196258  0.340269  0.235836  1
  Nd  Nd10  1  0.303742  0.840269  0.764164  1
  Nd  Nd11  1  0.303742  0.159731  0.735836  1
  Nd  Nd12  1  0.803742  0.340269  0.735836  1
  Nd  Nd13  1  0.803742  0.659731  0.764164  1
  Nd  Nd14  1  0.696258  0.159731  0.235836  1
  Nd  Nd15  1  0.696258  0.840269  0.264164  1
  Au  Au16  1  0.420020  0.728938  0.010908  1
  Au  Au17  1  0.420020  0.271062  0.489092  1
  Au  Au18  1  0.079980  0.771062  0.510908  1
  Au  Au19  1  0.079980  0.228938  0.989092  1
  Au  Au20  1  0.579980  0.271062  0.989092  1
  Au  Au21  1  0.579980  0.728938  0.510908  1
  Au  Au22  1  0.920020  0.228938  0.489092  1
  Au  Au23  1  0.920020  0.771062  0.010908  1
  O  O24  1  0.061076  0.614857  0.446133  1
  O  O25  1  0.061076  0.385143  0.053867  1
  O  O26  1  0.438924  0.885143  0.946133  1
  O  O27  1  0.438924  0.114857  0.553867  1
  O  O28  1  0.938924  0.385143  0.553867  1
  O  O29  1  0.938924  0.614857  0.946133  1
  O  O30  1  0.561076  0.114857  0.053867  1
  O  O31  1  0.561076  0.885143  0.446133  1
  O  O32  1  0.059077  0.836199  0.352345  1
  O  O33  1  0.059077  0.163801  0.147655  1
  O  O34  1  0.440923  0.663801  0.852345  1
  O  O35  1  0.440923  0.336199  0.647655  1
  O  O36  1  0.940923  0.163801  0.647655  1
  O  O37  1  0.940923  0.836199  0.852345  1
  O  O38  1  0.374419  0.802977  0.158454  1
  O  O39  1  0.559077  0.336199  0.147655  1
  O  O40  1  0.388831  0.577455  0.088155  1
  O  O41  1  0.388831  0.422545  0.411845  1
  O  O42  1  0.111169  0.922545  0.588155  1
  O  O43  1  0.111169  0.077455  0.911845  1
  O  O44  1  0.611169  0.422545  0.911845  1
  O  O45  1  0.611169  0.577455  0.588155  1
  O  O46  1  0.888831  0.077455  0.411845  1
  O  O47  1  0.888831  0.922545  0.088155  1
  O  O48  1  0.976125  0.500000  0.250000  1
  O  O49  1  0.523875  0.000000  0.750000  1
  O  O50  1  0.023875  0.500000  0.750000  1
  O  O51  1  0.476125  0.000000  0.250000  1
  O  O52  1  0.874419  0.697023  0.158454  1
  O  O53  1  0.874419  0.302977  0.341546  1
  O  O54  1  0.625581  0.802977  0.658454  1
  O  O55  1  0.625581  0.197023  0.841546  1
  O  O56  1  0.125581  0.302977  0.841546  1
  O  O57  1  0.125581  0.697023  0.658454  1
  O  O58  1  0.374419  0.197023  0.341546  1
  O  O59  1  0.559077  0.663801  0.352345  1
