# generated using pymatgen
data_Tb2Se2O7
_symmetry_space_group_name_H-M   'P 1'
_cell_length_a   10.70874342
_cell_length_b   10.70874342
_cell_length_c   5.28585827
_cell_angle_alpha   90.00000000
_cell_angle_beta   90.00000000
_cell_angle_gamma   90.00000000
_symmetry_Int_Tables_number   1
_chemical_formula_structural   Tb2Se2O7
_chemical_formula_sum   'Tb8 Se8 O28'
_cell_volume   606.16735007
_cell_formula_units_Z   4
loop_
 _symmetry_equiv_pos_site_id
 _symmetry_equiv_pos_as_xyz
  1  'x, y, z'
loop_
 _atom_site_type_symbol
 _atom_site_label
 _atom_site_symmetry_multiplicity
 _atom_site_fract_x
 _atom_site_fract_y
 _atom_site_fract_z
 _atom_site_occupancy
  Tb  Tb0  1  0.121777  0.878223  0.750000  1
  Tb  Tb1  1  0.378223  0.378223  0.250000  1
  Tb  Tb2  1  0.621777  0.621777  0.250000  1
  Tb  Tb3  1  0.878223  0.121777  0.750000  1
  Tb  Tb4  1  0.378223  0.621777  0.750000  1
  Tb  Tb5  1  0.121777  0.121777  0.250000  1
  Tb  Tb6  1  0.878223  0.878223  0.250000  1
  Tb  Tb7  1  0.621777  0.378223  0.750000  1
  Se  Se8  1  0.622275  0.122275  0.213958  1
  Se  Se9  1  0.377725  0.877725  0.213958  1
  Se  Se10  1  0.377725  0.122275  0.713958  1
  Se  Se11  1  0.622275  0.877725  0.713958  1
  Se  Se12  1  0.122275  0.622275  0.286042  1
  Se  Se13  1  0.122275  0.377725  0.786042  1
  Se  Se14  1  0.877725  0.622275  0.786042  1
  Se  Se15  1  0.877725  0.377725  0.286042  1
  O  O16  1  0.752769  0.930305  0.878098  1
  O  O17  1  0.247231  0.069695  0.878098  1
  O  O18  1  0.569695  0.252769  0.378098  1
  O  O19  1  0.430305  0.747231  0.378098  1
  O  O20  1  0.930305  0.752769  0.621902  1
  O  O21  1  0.252769  0.569695  0.121902  1
  O  O22  1  0.747231  0.430305  0.121902  1
  O  O23  1  0.069695  0.247231  0.621902  1
  O  O24  1  0.747231  0.569695  0.621902  1
  O  O25  1  0.252769  0.430305  0.621902  1
  O  O26  1  0.930305  0.247231  0.121902  1
  O  O27  1  0.069695  0.752769  0.121902  1
  O  O28  1  0.569695  0.747231  0.878098  1
  O  O29  1  0.247231  0.930305  0.378098  1
  O  O30  1  0.752769  0.069695  0.378098  1
  O  O31  1  0.430305  0.252769  0.878098  1
  O  O32  1  0.000000  0.000000  0.500000  1
  O  O33  1  0.500000  0.500000  0.000000  1
  O  O34  1  0.500000  0.500000  0.500000  1
  O  O35  1  0.000000  0.000000  0.000000  1
  O  O36  1  0.814185  0.314185  0.559762  1
  O  O37  1  0.814185  0.685815  0.059762  1
  O  O38  1  0.185815  0.314185  0.059762  1
  O  O39  1  0.185815  0.685815  0.559762  1
  O  O40  1  0.685815  0.814185  0.440238  1
  O  O41  1  0.314185  0.185815  0.440238  1
  O  O42  1  0.314185  0.814185  0.940238  1
  O  O43  1  0.685815  0.185815  0.940238  1
