# generated using pymatgen
data_TlAuF6
_symmetry_space_group_name_H-M   'P 1'
_cell_length_a   5.92577488
_cell_length_b   5.92577488
_cell_length_c   28.51239125
_cell_angle_alpha   90.00000000
_cell_angle_beta   90.00000000
_cell_angle_gamma   90.00000000
_symmetry_Int_Tables_number   1
_chemical_formula_structural   TlAuF6
_chemical_formula_sum   'Tl8 Au8 F48'
_cell_volume   1001.20714232
_cell_formula_units_Z   8
loop_
 _symmetry_equiv_pos_site_id
 _symmetry_equiv_pos_as_xyz
  1  'x, y, z'
loop_
 _atom_site_type_symbol
 _atom_site_label
 _atom_site_symmetry_multiplicity
 _atom_site_fract_x
 _atom_site_fract_y
 _atom_site_fract_z
 _atom_site_occupancy
  Tl  Tl0  1  0.660728  0.829732  0.266254  1
  Tl  Tl1  1  0.339272  0.170268  0.766254  1
  Tl  Tl2  1  0.829732  0.660728  0.733746  1
  Tl  Tl3  1  0.329732  0.839272  0.016254  1
  Tl  Tl4  1  0.670268  0.160728  0.516254  1
  Tl  Tl5  1  0.839272  0.329732  0.983746  1
  Tl  Tl6  1  0.160728  0.670268  0.483746  1
  Tl  Tl7  1  0.170268  0.339272  0.233746  1
  Au  Au8  1  0.821187  0.991242  0.382472  1
  Au  Au9  1  0.178813  0.008758  0.882472  1
  Au  Au10  1  0.991242  0.821187  0.617528  1
  Au  Au11  1  0.491242  0.678813  0.132472  1
  Au  Au12  1  0.508758  0.321187  0.632472  1
  Au  Au13  1  0.678813  0.491242  0.867528  1
  Au  Au14  1  0.321187  0.508758  0.367528  1
  Au  Au15  1  0.008758  0.178813  0.117528  1
  F  F16  1  0.433427  0.433427  0.500000  1
  F  F17  1  0.066573  0.933427  0.750000  1
  F  F18  1  0.933427  0.066573  0.250000  1
  F  F19  1  0.566573  0.566573  0.000000  1
  F  F20  1  0.959761  0.364990  0.499421  1
  F  F21  1  0.040239  0.635010  0.999421  1
  F  F22  1  0.364990  0.959761  0.500579  1
  F  F23  1  0.864990  0.540239  0.249421  1
  F  F24  1  0.135010  0.459761  0.749421  1
  F  F25  1  0.540239  0.864990  0.750579  1
  F  F26  1  0.459761  0.135010  0.250579  1
  F  F27  1  0.635010  0.040239  0.000579  1
  F  F28  1  0.087428  0.962811  0.423121  1
  F  F29  1  0.912572  0.037189  0.923121  1
  F  F30  1  0.962811  0.087428  0.576879  1
  F  F31  1  0.537189  0.587428  0.673121  1
  F  F32  1  0.462811  0.412572  0.173121  1
  F  F33  1  0.167773  0.659828  0.569418  1
  F  F34  1  0.832227  0.340172  0.069418  1
  F  F35  1  0.659828  0.167773  0.430582  1
  F  F36  1  0.340172  0.832227  0.930582  1
  F  F37  1  0.840172  0.667773  0.819418  1
  F  F38  1  0.332227  0.159828  0.680582  1
  F  F39  1  0.667773  0.840172  0.180582  1
  F  F40  1  0.176667  0.034483  0.168504  1
  F  F41  1  0.465517  0.676667  0.418504  1
  F  F42  1  0.534483  0.323333  0.918504  1
  F  F43  1  0.676667  0.465517  0.581496  1
  F  F44  1  0.323333  0.534483  0.081496  1
  F  F45  1  0.823333  0.965517  0.668504  1
  F  F46  1  0.034483  0.176667  0.831496  1
  F  F47  1  0.965517  0.823333  0.331496  1
  F  F48  1  0.064615  0.484311  0.411418  1
  F  F49  1  0.015689  0.564615  0.661418  1
  F  F50  1  0.984311  0.435385  0.161418  1
  F  F51  1  0.564615  0.015689  0.338582  1
  F  F52  1  0.435385  0.984311  0.838582  1
  F  F53  1  0.935385  0.515689  0.911418  1
  F  F54  1  0.484311  0.064615  0.588582  1
  F  F55  1  0.515689  0.935385  0.088582  1
  F  F56  1  0.167357  0.167357  0.000000  1
  F  F57  1  0.332643  0.667357  0.250000  1
  F  F58  1  0.667357  0.332643  0.750000  1
  F  F59  1  0.832643  0.832643  0.500000  1
  F  F60  1  0.037189  0.912572  0.076879  1
  F  F61  1  0.587428  0.537189  0.326879  1
  F  F62  1  0.412572  0.462811  0.826879  1
  F  F63  1  0.159828  0.332227  0.319418  1
