# generated using pymatgen
data_K2TaF7
_symmetry_space_group_name_H-M   'P 1'
_cell_length_a   5.95223726
_cell_length_b   12.90102114
_cell_length_c   8.71027729
_cell_angle_alpha   90.00000000
_cell_angle_beta   90.30044150
_cell_angle_gamma   90.00000000
_symmetry_Int_Tables_number   1
_chemical_formula_structural   K2TaF7
_chemical_formula_sum   'K8 Ta4 F28'
_cell_volume   668.85246362
_cell_formula_units_Z   4
loop_
 _symmetry_equiv_pos_site_id
 _symmetry_equiv_pos_as_xyz
  1  'x, y, z'
loop_
 _atom_site_type_symbol
 _atom_site_label
 _atom_site_symmetry_multiplicity
 _atom_site_fract_x
 _atom_site_fract_y
 _atom_site_fract_z
 _atom_site_occupancy
  K  K0  1  0.763635  0.215183  0.945719  1
  K  K1  1  0.236365  0.715183  0.554281  1
  K  K2  1  0.236365  0.784817  0.054281  1
  K  K3  1  0.763635  0.284817  0.445719  1
  K  K4  1  0.236655  0.058633  0.680759  1
  K  K5  1  0.763345  0.558633  0.819241  1
  K  K6  1  0.763345  0.941367  0.319241  1
  K  K7  1  0.236655  0.441367  0.180759  1
  Ta  Ta8  1  0.271278  0.370611  0.723586  1
  Ta  Ta9  1  0.728722  0.870611  0.776414  1
  Ta  Ta10  1  0.728722  0.629389  0.276414  1
  Ta  Ta11  1  0.271278  0.129389  0.223586  1
  F  F12  1  0.557139  0.420885  0.633363  1
  F  F13  1  0.442861  0.920885  0.866637  1
  F  F14  1  0.442861  0.579115  0.366637  1
  F  F15  1  0.557139  0.079115  0.133363  1
  F  F16  1  0.184757  0.377102  0.506441  1
  F  F17  1  0.815243  0.877102  0.993559  1
  F  F18  1  0.815243  0.622898  0.493559  1
  F  F19  1  0.184757  0.122898  0.006441  1
  F  F20  1  0.209144  0.520597  0.714373  1
  F  F21  1  0.790856  0.020597  0.785627  1
  F  F22  1  0.790856  0.479403  0.285627  1
  F  F23  1  0.209144  0.979403  0.214373  1
  F  F24  1  0.044655  0.243634  0.201070  1
  F  F25  1  0.955345  0.743634  0.298930  1
  F  F26  1  0.955345  0.756366  0.798930  1
  F  F27  1  0.044655  0.256366  0.701070  1
  F  F28  1  0.455679  0.257895  0.213007  1
  F  F29  1  0.544321  0.757895  0.286993  1
  F  F30  1  0.544321  0.742105  0.786993  1
  F  F31  1  0.455679  0.242105  0.713007  1
  F  F32  1  0.044298  0.108181  0.388912  1
  F  F33  1  0.955702  0.608181  0.111088  1
  F  F34  1  0.955702  0.891819  0.611088  1
  F  F35  1  0.044298  0.391819  0.888912  1
  F  F36  1  0.460472  0.110350  0.410241  1
  F  F37  1  0.539528  0.610350  0.089759  1
  F  F38  1  0.539528  0.889650  0.589759  1
  F  F39  1  0.460472  0.389650  0.910241  1
