# generated using pymatgen
data_Na2Si2O5
_symmetry_space_group_name_H-M   'P 1'
_cell_length_a   8.22125294
_cell_length_b   4.92057640
_cell_length_c   12.46557037
_cell_angle_alpha   90.00000000
_cell_angle_beta   104.23507443
_cell_angle_gamma   90.00000000
_symmetry_Int_Tables_number   1
_chemical_formula_structural   Na2Si2O5
_chemical_formula_sum   'Na8 Si8 O20'
_cell_volume   488.78978011
_cell_formula_units_Z   4
loop_
 _symmetry_equiv_pos_site_id
 _symmetry_equiv_pos_as_xyz
  1  'x, y, z'
loop_
 _atom_site_type_symbol
 _atom_site_label
 _atom_site_symmetry_multiplicity
 _atom_site_fract_x
 _atom_site_fract_y
 _atom_site_fract_z
 _atom_site_occupancy
  Na  Na0  1  0.620664  0.753863  0.557459  1
  Na  Na1  1  0.379336  0.253863  0.942541  1
  Na  Na2  1  0.379336  0.246137  0.442541  1
  Na  Na3  1  0.620664  0.746137  0.057459  1
  Na  Na4  1  0.864661  0.226410  0.528299  1
  Na  Na5  1  0.135339  0.726410  0.971701  1
  Na  Na6  1  0.135339  0.773590  0.471701  1
  Na  Na7  1  0.864661  0.273590  0.028299  1
  Si  Si8  1  0.972460  0.188427  0.817442  1
  Si  Si9  1  0.027540  0.688427  0.682558  1
  Si  Si10  1  0.027540  0.811573  0.182558  1
  Si  Si11  1  0.972460  0.311573  0.317442  1
  Si  Si12  1  0.596769  0.291868  0.722787  1
  Si  Si13  1  0.403231  0.791868  0.777213  1
  Si  Si14  1  0.403231  0.708132  0.277213  1
  Si  Si15  1  0.596769  0.208132  0.222787  1
  O  O16  1  0.093337  0.251519  0.436028  1
  O  O17  1  0.906663  0.751519  0.063972  1
  O  O18  1  0.906663  0.748481  0.563972  1
  O  O19  1  0.093337  0.248481  0.936028  1
  O  O20  1  0.608566  0.269928  0.098794  1
  O  O21  1  0.391434  0.769928  0.401206  1
  O  O22  1  0.391434  0.730072  0.901206  1
  O  O23  1  0.608566  0.230072  0.598794  1
  O  O24  1  0.774360  0.253192  0.319091  1
  O  O25  1  0.225640  0.753192  0.180909  1
  O  O26  1  0.225640  0.746808  0.680909  1
  O  O27  1  0.774360  0.246808  0.819091  1
  O  O28  1  0.544817  0.884285  0.232203  1
  O  O29  1  0.455183  0.384285  0.267797  1
  O  O30  1  0.455183  0.115715  0.767797  1
  O  O31  1  0.544817  0.615715  0.732203  1
  O  O32  1  0.985462  0.863296  0.785544  1
  O  O33  1  0.014538  0.363296  0.714456  1
  O  O34  1  0.014538  0.136704  0.214456  1
  O  O35  1  0.985462  0.636704  0.285544  1
