# generated using pymatgen
data_Mn(SeO3)2
_symmetry_space_group_name_H-M   'P 1'
_cell_length_a   5.17110637
_cell_length_b   6.89054824
_cell_length_c   9.00710343
_cell_angle_alpha   90.00000000
_cell_angle_beta   124.31773549
_cell_angle_gamma   90.00000000
_symmetry_Int_Tables_number   1
_chemical_formula_structural   Mn(SeO3)2
_chemical_formula_sum   'Mn2 Se4 O12'
_cell_volume   265.07110570
_cell_formula_units_Z   2
loop_
 _symmetry_equiv_pos_site_id
 _symmetry_equiv_pos_as_xyz
  1  'x, y, z'
loop_
 _atom_site_type_symbol
 _atom_site_label
 _atom_site_symmetry_multiplicity
 _atom_site_fract_x
 _atom_site_fract_y
 _atom_site_fract_z
 _atom_site_occupancy
  Mn  Mn0  1  0.000000  0.500000  0.500000  1
  Mn  Mn1  1  0.000000  0.000000  0.000000  1
  Se  Se2  1  0.685743  0.174815  0.198150  1
  Se  Se3  1  0.314257  0.674815  0.301850  1
  Se  Se4  1  0.685743  0.325185  0.698150  1
  Se  Se5  1  0.314257  0.825185  0.801850  1
  O  O6  1  0.195729  0.583772  0.746383  1
  O  O7  1  0.804271  0.083772  0.753617  1
  O  O8  1  0.804271  0.416228  0.253617  1
  O  O9  1  0.195729  0.916228  0.246383  1
  O  O10  1  0.713836  0.780005  0.916365  1
  O  O11  1  0.286164  0.280005  0.583635  1
  O  O12  1  0.293168  0.663297  0.489892  1
  O  O13  1  0.706832  0.163297  0.010108  1
  O  O14  1  0.706832  0.336703  0.510108  1
  O  O15  1  0.293168  0.836703  0.989892  1
  O  O16  1  0.713836  0.719995  0.416365  1
  O  O17  1  0.286164  0.219995  0.083635  1
