# generated using pymatgen
data_CsNO2
_symmetry_space_group_name_H-M   'P 1'
_cell_length_a   6.07636726
_cell_length_b   6.07636726
_cell_length_c   8.09620341
_cell_angle_alpha   90.00000000
_cell_angle_beta   90.00000000
_cell_angle_gamma   120.00000000
_symmetry_Int_Tables_number   1
_chemical_formula_structural   CsNO2
_chemical_formula_sum   'Cs3 N3 O6'
_cell_volume   258.88093710
_cell_formula_units_Z   3
loop_
 _symmetry_equiv_pos_site_id
 _symmetry_equiv_pos_as_xyz
  1  'x, y, z'
loop_
 _atom_site_type_symbol
 _atom_site_label
 _atom_site_symmetry_multiplicity
 _atom_site_fract_x
 _atom_site_fract_y
 _atom_site_fract_z
 _atom_site_occupancy
  Cs  Cs0  1  0.000000  0.690646  0.666667  1
  Cs  Cs1  1  0.690646  0.000000  0.333333  1
  Cs  Cs2  1  0.309354  0.309354  0.000000  1
  N  N3  1  0.691371  0.000000  0.833333  1
  N  N4  1  0.000000  0.691371  0.166667  1
  N  N5  1  0.308629  0.308629  0.500000  1
  O  O6  1  0.898053  0.528006  0.051656  1
  O  O7  1  0.471994  0.370047  0.384989  1
  O  O8  1  0.629953  0.101947  0.718323  1
  O  O9  1  0.370047  0.471994  0.615011  1
  O  O10  1  0.528006  0.898053  0.948344  1
  O  O11  1  0.101947  0.629953  0.281677  1
