# generated using pymatgen
data_Na2S2O3
_symmetry_space_group_name_H-M   'P 1'
_cell_length_a   6.52238156
_cell_length_b   8.24209852
_cell_length_c   8.62056326
_cell_angle_alpha   90.00000000
_cell_angle_beta   97.33667849
_cell_angle_gamma   90.00000000
_symmetry_Int_Tables_number   1
_chemical_formula_structural   Na2S2O3
_chemical_formula_sum   'Na8 S8 O12'
_cell_volume   459.63109029
_cell_formula_units_Z   4
loop_
 _symmetry_equiv_pos_site_id
 _symmetry_equiv_pos_as_xyz
  1  'x, y, z'
loop_
 _atom_site_type_symbol
 _atom_site_label
 _atom_site_symmetry_multiplicity
 _atom_site_fract_x
 _atom_site_fract_y
 _atom_site_fract_z
 _atom_site_occupancy
  Na  Na0  1  0.876216  0.197977  0.454042  1
  Na  Na1  1  0.623784  0.697977  0.545958  1
  Na  Na2  1  0.292160  0.620992  0.086133  1
  Na  Na3  1  0.376216  0.302023  0.454042  1
  Na  Na4  1  0.792160  0.879008  0.086133  1
  Na  Na5  1  0.707840  0.379008  0.913867  1
  Na  Na6  1  0.207840  0.120992  0.913867  1
  Na  Na7  1  0.123784  0.802023  0.545958  1
  S  S8  1  0.791997  0.548358  0.266351  1
  S  S9  1  0.208003  0.451642  0.733649  1
  S  S10  1  0.291997  0.951642  0.266351  1
  S  S11  1  0.017129  0.396862  0.212919  1
  S  S12  1  0.482871  0.896862  0.787081  1
  S  S13  1  0.982871  0.603138  0.787081  1
  S  S14  1  0.517129  0.103138  0.212919  1
  S  S15  1  0.708003  0.048358  0.733649  1
  O  O16  1  0.659683  0.587844  0.116362  1
  O  O17  1  0.828161  0.963770  0.621923  1
  O  O18  1  0.328161  0.536230  0.621923  1
  O  O19  1  0.171839  0.036230  0.378077  1
  O  O20  1  0.379913  0.798423  0.337937  1
  O  O21  1  0.671839  0.463770  0.378077  1
  O  O22  1  0.120087  0.298423  0.662063  1
  O  O23  1  0.620087  0.201577  0.662063  1
  O  O24  1  0.840317  0.087844  0.883638  1
  O  O25  1  0.340317  0.412156  0.883638  1
  O  O26  1  0.159683  0.912156  0.116362  1
  O  O27  1  0.879913  0.701577  0.337937  1
