# generated using pymatgen
data_Rb2SeO4
_symmetry_space_group_name_H-M   'P 1'
_cell_length_a   6.32223262
_cell_length_b   8.15737582
_cell_length_c   11.05610287
_cell_angle_alpha   90.00000000
_cell_angle_beta   90.00000000
_cell_angle_gamma   90.00000000
_symmetry_Int_Tables_number   1
_chemical_formula_structural   Rb2SeO4
_chemical_formula_sum   'Rb8 Se4 O16'
_cell_volume   570.19448617
_cell_formula_units_Z   4
loop_
 _symmetry_equiv_pos_site_id
 _symmetry_equiv_pos_as_xyz
  1  'x, y, z'
loop_
 _atom_site_type_symbol
 _atom_site_label
 _atom_site_symmetry_multiplicity
 _atom_site_fract_x
 _atom_site_fract_y
 _atom_site_fract_z
 _atom_site_occupancy
  Rb  Rb0  1  0.250000  0.500688  0.204539  1
  Rb  Rb1  1  0.750000  0.499312  0.795461  1
  Rb  Rb2  1  0.250000  0.000688  0.295461  1
  Rb  Rb3  1  0.750000  0.999312  0.704539  1
  Rb  Rb4  1  0.250000  0.827491  0.918706  1
  Rb  Rb5  1  0.750000  0.172509  0.081294  1
  Rb  Rb6  1  0.250000  0.327491  0.581294  1
  Rb  Rb7  1  0.750000  0.672509  0.418706  1
  Se  Se8  1  0.250000  0.275092  0.917288  1
  Se  Se9  1  0.750000  0.724908  0.082712  1
  Se  Se10  1  0.250000  0.775092  0.582712  1
  Se  Se11  1  0.750000  0.224908  0.417288  1
  O  O12  1  0.967182  0.789134  0.156486  1
  O  O13  1  0.467182  0.210866  0.843514  1
  O  O14  1  0.532818  0.289134  0.343514  1
  O  O15  1  0.032818  0.710866  0.656486  1
  O  O16  1  0.032818  0.210866  0.843514  1
  O  O17  1  0.532818  0.789134  0.156486  1
  O  O18  1  0.467182  0.710866  0.656486  1
  O  O19  1  0.967182  0.289134  0.343514  1
  O  O20  1  0.250000  0.191028  0.056600  1
  O  O21  1  0.750000  0.808972  0.943400  1
  O  O22  1  0.250000  0.691028  0.443400  1
  O  O23  1  0.750000  0.308972  0.556600  1
  O  O24  1  0.750000  0.020523  0.426074  1
  O  O25  1  0.250000  0.979477  0.573926  1
  O  O26  1  0.750000  0.520523  0.073926  1
  O  O27  1  0.250000  0.479477  0.926074  1
