# generated using pymatgen
data_NaDy3Ti2(SbO7)2
_symmetry_space_group_name_H-M   'P 1'
_cell_length_a   7.30736598
_cell_length_b   7.29053987
_cell_length_c   12.60025805
_cell_angle_alpha   90.00000000
_cell_angle_beta   125.04805633
_cell_angle_gamma   90.00000000
_symmetry_Int_Tables_number   1
_chemical_formula_structural   NaDy3Ti2(SbO7)2
_chemical_formula_sum   'Na2 Dy6 Ti4 Sb4 O28'
_cell_volume   549.55254218
_cell_formula_units_Z   2
loop_
 _symmetry_equiv_pos_site_id
 _symmetry_equiv_pos_as_xyz
  1  'x, y, z'
loop_
 _atom_site_type_symbol
 _atom_site_label
 _atom_site_symmetry_multiplicity
 _atom_site_fract_x
 _atom_site_fract_y
 _atom_site_fract_z
 _atom_site_occupancy
  Na  Na0  1  0.500000  0.000000  0.000000  1
  Na  Na1  1  0.500000  0.000000  0.500000  1
  Dy  Dy2  1  0.000000  0.226692  0.250000  1
  Dy  Dy3  1  0.500000  0.245823  0.250000  1
  Dy  Dy4  1  0.000000  0.773308  0.750000  1
  Dy  Dy5  1  0.500000  0.500000  0.000000  1
  Dy  Dy6  1  0.500000  0.754177  0.750000  1
  Dy  Dy7  1  0.500000  0.500000  0.500000  1
  Ti  Ti8  1  0.000000  0.263011  0.750000  1
  Ti  Ti9  1  0.000000  0.500000  0.500000  1
  Ti  Ti10  1  0.000000  0.736989  0.250000  1
  Ti  Ti11  1  0.000000  0.500000  0.000000  1
  Sb  Sb12  1  0.500000  0.254612  0.750000  1
  Sb  Sb13  1  0.000000  0.000000  0.000000  1
  Sb  Sb14  1  0.500000  0.745388  0.250000  1
  Sb  Sb15  1  0.000000  0.000000  0.500000  1
  O  O16  1  0.365196  0.263558  0.367262  1
  O  O17  1  0.943197  0.048445  0.633204  1
  O  O18  1  0.323645  0.269769  0.824140  1
  O  O19  1  0.365196  0.736442  0.867262  1
  O  O20  1  0.331071  0.042702  0.629383  1
  O  O21  1  0.924088  0.553525  0.121222  1
  O  O22  1  0.668929  0.042702  0.870617  1
  O  O23  1  0.943197  0.951555  0.133204  1
  O  O24  1  0.922000  0.749377  0.921117  1
  O  O25  1  0.323645  0.730231  0.324140  1
  O  O26  1  0.078000  0.250623  0.078883  1
  O  O27  1  0.325561  0.543161  0.122655  1
  O  O28  1  0.056803  0.048445  0.866796  1
  O  O29  1  0.331071  0.957298  0.129383  1
  O  O30  1  0.668929  0.957298  0.370617  1
  O  O31  1  0.924088  0.446475  0.621222  1
  O  O32  1  0.674439  0.543161  0.377345  1
  O  O33  1  0.922000  0.250623  0.421117  1
  O  O34  1  0.676355  0.730231  0.175860  1
  O  O35  1  0.634804  0.263558  0.132738  1
  O  O36  1  0.078000  0.749377  0.578883  1
  O  O37  1  0.056803  0.951555  0.366796  1
  O  O38  1  0.075912  0.553525  0.378778  1
  O  O39  1  0.325561  0.456839  0.622655  1
  O  O40  1  0.674439  0.456839  0.877345  1
  O  O41  1  0.634804  0.736442  0.632738  1
  O  O42  1  0.676355  0.269769  0.675860  1
  O  O43  1  0.075912  0.446475  0.878778  1
