# generated using pymatgen
data_HoPO4
_symmetry_space_group_name_H-M   'P 1'
_cell_length_a   5.76029104
_cell_length_b   5.76029104
_cell_length_c   5.76029104
_cell_angle_alpha   105.95196926
_cell_angle_beta   105.95196926
_cell_angle_gamma   116.76531545
_symmetry_Int_Tables_number   1
_chemical_formula_structural   HoPO4
_chemical_formula_sum   'Ho2 P2 O8'
_cell_volume   145.32336652
_cell_formula_units_Z   2
loop_
 _symmetry_equiv_pos_site_id
 _symmetry_equiv_pos_as_xyz
  1  'x, y, z'
loop_
 _atom_site_type_symbol
 _atom_site_label
 _atom_site_symmetry_multiplicity
 _atom_site_fract_x
 _atom_site_fract_y
 _atom_site_fract_z
 _atom_site_occupancy
  Ho  Ho0  1  0.000000  0.000000  0.000000  1
  Ho  Ho1  1  0.250000  0.750000  0.500000  1
  P  P2  1  0.750000  0.250000  0.500000  1
  P  P3  1  0.500000  0.500000  0.000000  1
  O  O4  1  0.486130  0.660951  0.825179  1
  O  O5  1  0.910951  0.585771  0.674821  1
  O  O6  1  0.910951  0.236130  0.325179  1
  O  O7  1  0.835771  0.660951  0.174821  1
  O  O8  1  0.339049  0.164229  0.825179  1
  O  O9  1  0.763870  0.089049  0.674821  1
  O  O10  1  0.414229  0.089049  0.325179  1
  O  O11  1  0.339049  0.513870  0.174821  1
