# generated using pymatgen
data_NaNdTiNbO6F
_symmetry_space_group_name_H-M   'P 1'
_cell_length_a   7.37842912
_cell_length_b   7.37842912
_cell_length_c   10.47547692
_cell_angle_alpha   90.00000000
_cell_angle_beta   90.00000000
_cell_angle_gamma   90.00000000
_symmetry_Int_Tables_number   1
_chemical_formula_structural   NaNdTiNbO6F
_chemical_formula_sum   'Na4 Nd4 Ti4 Nb4 O24 F4'
_cell_volume   570.29770434
_cell_formula_units_Z   4
loop_
 _symmetry_equiv_pos_site_id
 _symmetry_equiv_pos_as_xyz
  1  'x, y, z'
loop_
 _atom_site_type_symbol
 _atom_site_label
 _atom_site_symmetry_multiplicity
 _atom_site_fract_x
 _atom_site_fract_y
 _atom_site_fract_z
 _atom_site_occupancy
  Na  Na0  1  0.500000  0.729606  0.000000  1
  Na  Na1  1  0.500000  0.270394  0.500000  1
  Na  Na2  1  0.729606  0.500000  0.750000  1
  Na  Na3  1  0.270394  0.500000  0.250000  1
  Nd  Nd4  1  0.000000  0.725994  0.000000  1
  Nd  Nd5  1  0.274006  0.000000  0.250000  1
  Nd  Nd6  1  0.725994  0.000000  0.750000  1
  Nd  Nd7  1  0.000000  0.274006  0.500000  1
  Ti  Ti8  1  0.764671  0.000000  0.250000  1
  Ti  Ti9  1  0.000000  0.235329  0.000000  1
  Ti  Ti10  1  0.235329  0.000000  0.750000  1
  Ti  Ti11  1  0.000000  0.764671  0.500000  1
  Nb  Nb12  1  0.500000  0.757483  0.500000  1
  Nb  Nb13  1  0.242517  0.500000  0.750000  1
  Nb  Nb14  1  0.500000  0.242517  0.000000  1
  Nb  Nb15  1  0.757483  0.500000  0.250000  1
  O  O16  1  0.556722  0.948101  0.367710  1
  O  O17  1  0.751468  0.773190  0.571739  1
  O  O18  1  0.958366  0.958366  0.375000  1
  O  O19  1  0.041634  0.041634  0.875000  1
  O  O20  1  0.051899  0.443278  0.882290  1
  O  O21  1  0.041634  0.958366  0.625000  1
  O  O22  1  0.226810  0.248532  0.678261  1
  O  O23  1  0.226810  0.751468  0.821739  1
  O  O24  1  0.248532  0.226810  0.071739  1
  O  O25  1  0.443278  0.051899  0.867710  1
  O  O26  1  0.437841  0.437841  0.875000  1
  O  O27  1  0.443278  0.948101  0.632290  1
  O  O28  1  0.562159  0.437841  0.125000  1
  O  O29  1  0.562159  0.562159  0.375000  1
  O  O30  1  0.556722  0.051899  0.132290  1
  O  O31  1  0.773190  0.751468  0.178261  1
  O  O32  1  0.751468  0.226810  0.928261  1
  O  O33  1  0.773190  0.248532  0.321739  1
  O  O34  1  0.948101  0.556722  0.382290  1
  O  O35  1  0.958366  0.041634  0.125000  1
  O  O36  1  0.948101  0.443278  0.117710  1
  O  O37  1  0.051899  0.556722  0.617710  1
  O  O38  1  0.248532  0.773190  0.428261  1
  O  O39  1  0.437841  0.562159  0.625000  1
  F  F40  1  0.741283  0.258717  0.625000  1
  F  F41  1  0.258717  0.741283  0.125000  1
  F  F42  1  0.258717  0.258717  0.375000  1
  F  F43  1  0.741283  0.741283  0.875000  1
