# generated using pymatgen
data_KAsF6
_symmetry_space_group_name_H-M   'P 1'
_cell_length_a   5.02721531
_cell_length_b   5.02721531
_cell_length_c   5.02721531
_cell_angle_alpha   97.90116553
_cell_angle_beta   97.90116553
_cell_angle_gamma   97.90116553
_symmetry_Int_Tables_number   1
_chemical_formula_structural   KAsF6
_chemical_formula_sum   'K1 As1 F6'
_cell_volume   123.05819337
_cell_formula_units_Z   1
loop_
 _symmetry_equiv_pos_site_id
 _symmetry_equiv_pos_as_xyz
  1  'x, y, z'
loop_
 _atom_site_type_symbol
 _atom_site_label
 _atom_site_symmetry_multiplicity
 _atom_site_fract_x
 _atom_site_fract_y
 _atom_site_fract_z
 _atom_site_occupancy
  K  K0  1  0.500000  0.500000  0.500000  1
  As  As1  1  0.000000  0.000000  0.000000  1
  F  F2  1  0.729940  0.077439  0.771734  1
  F  F3  1  0.771734  0.729940  0.077439  1
  F  F4  1  0.922561  0.228266  0.270060  1
  F  F5  1  0.228266  0.270060  0.922561  1
  F  F6  1  0.270060  0.922561  0.228266  1
  F  F7  1  0.077439  0.771734  0.729940  1
