# generated using pymatgen
data_Na6Sn2S7
_symmetry_space_group_name_H-M   'P 1'
_cell_length_a   7.22199840
_cell_length_b   7.22199840
_cell_length_c   15.34021702
_cell_angle_alpha   80.10128377
_cell_angle_beta   99.89871623
_cell_angle_gamma   82.99761417
_symmetry_Int_Tables_number   1
_chemical_formula_structural   Na6Sn2S7
_chemical_formula_sum   'Na12 Sn4 S14'
_cell_volume   766.94366670
_cell_formula_units_Z   2
loop_
 _symmetry_equiv_pos_site_id
 _symmetry_equiv_pos_as_xyz
  1  'x, y, z'
loop_
 _atom_site_type_symbol
 _atom_site_label
 _atom_site_symmetry_multiplicity
 _atom_site_fract_x
 _atom_site_fract_y
 _atom_site_fract_z
 _atom_site_occupancy
  Na  Na0  1  0.951342  0.761168  0.072672  1
  Na  Na1  1  0.761168  0.951342  0.427328  1
  Na  Na2  1  0.048658  0.238832  0.927328  1
  Na  Na3  1  0.238832  0.048658  0.572672  1
  Na  Na4  1  0.503719  0.038139  0.863579  1
  Na  Na5  1  0.038139  0.503719  0.636421  1
  Na  Na6  1  0.431590  0.431590  0.250000  1
  Na  Na7  1  0.568410  0.568410  0.750000  1
  Na  Na8  1  0.500000  0.500000  0.500000  1
  Na  Na9  1  0.500000  0.500000  0.000000  1
  Na  Na10  1  0.496281  0.961861  0.136421  1
  Na  Na11  1  0.961861  0.496281  0.363579  1
  Sn  Sn12  1  0.248264  0.929471  0.362624  1
  Sn  Sn13  1  0.929471  0.248264  0.137376  1
  Sn  Sn14  1  0.751736  0.070529  0.637376  1
  Sn  Sn15  1  0.070529  0.751736  0.862624  1
  S  S16  1  0.770947  0.688689  0.896356  1
  S  S17  1  0.229053  0.311311  0.103644  1
  S  S18  1  0.857036  0.266390  0.516883  1
  S  S19  1  0.266390  0.857036  0.983117  1
  S  S20  1  0.142964  0.733610  0.483117  1
  S  S21  1  0.733610  0.142964  0.016883  1
  S  S22  1  0.759873  0.511648  0.181229  1
  S  S23  1  0.511648  0.759873  0.318771  1
  S  S24  1  0.240127  0.488352  0.818771  1
  S  S25  1  0.488352  0.240127  0.681229  1
  S  S26  1  0.953904  0.953904  0.250000  1
  S  S27  1  0.046096  0.046096  0.750000  1
  S  S28  1  0.311311  0.229053  0.396356  1
  S  S29  1  0.688689  0.770947  0.603644  1
