# generated using pymatgen
data_RbReO4
_symmetry_space_group_name_H-M   'P 1'
_cell_length_a   7.97191013
_cell_length_b   7.97191013
_cell_length_c   7.97191013
_cell_angle_alpha   135.71313834
_cell_angle_beta   135.71313834
_cell_angle_gamma   64.42414094
_symmetry_Int_Tables_number   1
_chemical_formula_structural   RbReO4
_chemical_formula_sum   'Rb2 Re2 O8'
_cell_volume   243.59722732
_cell_formula_units_Z   2
loop_
 _symmetry_equiv_pos_site_id
 _symmetry_equiv_pos_as_xyz
  1  'x, y, z'
loop_
 _atom_site_type_symbol
 _atom_site_label
 _atom_site_symmetry_multiplicity
 _atom_site_fract_x
 _atom_site_fract_y
 _atom_site_fract_z
 _atom_site_occupancy
  Rb  Rb0  1  0.750000  0.250000  0.500000  1
  Rb  Rb1  1  0.000000  0.000000  0.000000  1
  Re  Re2  1  0.250000  0.750000  0.500000  1
  Re  Re3  1  0.500000  0.500000  0.000000  1
  O  O4  1  0.212008  0.534884  0.895577  1
  O  O5  1  0.284884  0.889308  0.822877  1
  O  O6  1  0.066431  0.462008  0.177123  1
  O  O7  1  0.639308  0.316431  0.104423  1
  O  O8  1  0.110692  0.933569  0.395577  1
  O  O9  1  0.683569  0.787992  0.322877  1
  O  O10  1  0.465116  0.360692  0.677123  1
  O  O11  1  0.537992  0.715116  0.604423  1
