# generated using pymatgen
data_HoTaO4
_symmetry_space_group_name_H-M   'P 1'
_cell_length_a   6.53921518
_cell_length_b   6.53921518
_cell_length_c   5.09102724
_cell_angle_alpha   69.48821450
_cell_angle_beta   110.51178550
_cell_angle_gamma   64.93353604
_symmetry_Int_Tables_number   1
_chemical_formula_structural   HoTaO4
_chemical_formula_sum   'Ho2 Ta2 O8'
_cell_volume   149.39102272
_cell_formula_units_Z   2
loop_
 _symmetry_equiv_pos_site_id
 _symmetry_equiv_pos_as_xyz
  1  'x, y, z'
loop_
 _atom_site_type_symbol
 _atom_site_label
 _atom_site_symmetry_multiplicity
 _atom_site_fract_x
 _atom_site_fract_y
 _atom_site_fract_z
 _atom_site_occupancy
  Ho  Ho0  1  0.631450  0.631450  0.750000  1
  Ho  Ho1  1  0.368550  0.368550  0.250000  1
  Ta  Ta2  1  0.101850  0.101850  0.750000  1
  Ta  Ta3  1  0.898150  0.898150  0.250000  1
  O  O4  1  0.276622  0.786581  0.214042  1
  O  O5  1  0.786581  0.276622  0.285958  1
  O  O6  1  0.723378  0.213419  0.785958  1
  O  O7  1  0.213419  0.723378  0.714042  1
  O  O8  1  0.051748  0.367712  0.840929  1
  O  O9  1  0.367712  0.051748  0.659071  1
  O  O10  1  0.948252  0.632288  0.159071  1
  O  O11  1  0.632288  0.948252  0.340929  1
