# generated using pymatgen
data_KGaO2
_symmetry_space_group_name_H-M   'P 1'
_cell_length_a   5.61039925
_cell_length_b   11.25135922
_cell_length_c   15.95815986
_cell_angle_alpha   90.00000000
_cell_angle_beta   90.00000000
_cell_angle_gamma   90.00000000
_symmetry_Int_Tables_number   1
_chemical_formula_structural   KGaO2
_chemical_formula_sum   'K16 Ga16 O32'
_cell_volume   1007.35273444
_cell_formula_units_Z   16
loop_
 _symmetry_equiv_pos_site_id
 _symmetry_equiv_pos_as_xyz
  1  'x, y, z'
loop_
 _atom_site_type_symbol
 _atom_site_label
 _atom_site_symmetry_multiplicity
 _atom_site_fract_x
 _atom_site_fract_y
 _atom_site_fract_z
 _atom_site_occupancy
  K  K0  1  0.293751  0.266342  0.316119  1
  K  K1  1  0.793751  0.233658  0.683881  1
  K  K2  1  0.706249  0.766342  0.183881  1
  K  K3  1  0.206249  0.733658  0.816119  1
  K  K4  1  0.706249  0.733658  0.683881  1
  K  K5  1  0.206249  0.766342  0.316119  1
  K  K6  1  0.293751  0.233658  0.816119  1
  K  K7  1  0.793751  0.266342  0.183881  1
  K  K8  1  0.257091  0.013870  0.439311  1
  K  K9  1  0.757091  0.486130  0.560689  1
  K  K10  1  0.742909  0.513870  0.060689  1
  K  K11  1  0.242909  0.986130  0.939311  1
  K  K12  1  0.742909  0.986130  0.560689  1
  K  K13  1  0.242909  0.513870  0.439311  1
  K  K14  1  0.257091  0.486130  0.939311  1
  K  K15  1  0.757091  0.013870  0.060689  1
  Ga  Ga16  1  0.777773  0.262538  0.435493  1
  Ga  Ga17  1  0.277773  0.237462  0.564507  1
  Ga  Ga18  1  0.222227  0.762538  0.064507  1
  Ga  Ga19  1  0.722227  0.737462  0.935493  1
  Ga  Ga20  1  0.222227  0.737462  0.564507  1
  Ga  Ga21  1  0.722227  0.762538  0.435493  1
  Ga  Ga22  1  0.777773  0.237462  0.935493  1
  Ga  Ga23  1  0.277773  0.262538  0.064507  1
  Ga  Ga24  1  0.766681  0.009344  0.310982  1
  Ga  Ga25  1  0.266681  0.490656  0.689018  1
  Ga  Ga26  1  0.233319  0.509344  0.189018  1
  Ga  Ga27  1  0.733319  0.990656  0.810982  1
  Ga  Ga28  1  0.233319  0.990656  0.689018  1
  Ga  Ga29  1  0.733319  0.509344  0.310982  1
  Ga  Ga30  1  0.766681  0.490656  0.810982  1
  Ga  Ga31  1  0.266681  0.009344  0.189018  1
  O  O32  1  0.445811  0.980647  0.286149  1
  O  O33  1  0.945811  0.519353  0.713851  1
  O  O34  1  0.554189  0.480647  0.213851  1
  O  O35  1  0.054189  0.019353  0.786149  1
  O  O36  1  0.554189  0.019353  0.713851  1
  O  O37  1  0.054189  0.480647  0.286149  1
  O  O38  1  0.445811  0.519353  0.786149  1
  O  O39  1  0.945811  0.980647  0.213851  1
  O  O40  1  0.839196  0.165468  0.343242  1
  O  O41  1  0.339196  0.334532  0.656758  1
  O  O42  1  0.160804  0.665468  0.156758  1
  O  O43  1  0.660804  0.834532  0.843242  1
  O  O44  1  0.160804  0.834532  0.656758  1
  O  O45  1  0.660804  0.665468  0.343242  1
  O  O46  1  0.839196  0.334532  0.843242  1
  O  O47  1  0.560916  0.305513  0.010098  1
  O  O48  1  0.645235  0.406023  0.397658  1
  O  O49  1  0.145235  0.093977  0.602342  1
  O  O50  1  0.354765  0.906023  0.102342  1
  O  O51  1  0.854765  0.593977  0.897658  1
  O  O52  1  0.354765  0.593977  0.602342  1
  O  O53  1  0.854765  0.906023  0.397658  1
  O  O54  1  0.645235  0.093977  0.897658  1
  O  O55  1  0.145235  0.406023  0.102342  1
  O  O56  1  0.060916  0.305513  0.489902  1
  O  O57  1  0.560916  0.194487  0.510098  1
  O  O58  1  0.939084  0.805513  0.010098  1
  O  O59  1  0.439084  0.694487  0.989902  1
  O  O60  1  0.939084  0.694487  0.510098  1
  O  O61  1  0.439084  0.805513  0.489902  1
  O  O62  1  0.060916  0.194487  0.989902  1
  O  O63  1  0.339196  0.165468  0.156758  1
