# generated using pymatgen
data_K4Sn3Se8
_symmetry_space_group_name_H-M   'P 1'
_cell_length_a   14.73955864
_cell_length_b   14.73955864
_cell_length_c   8.42020177
_cell_angle_alpha   90.00000000
_cell_angle_beta   90.00000000
_cell_angle_gamma   146.64409708
_symmetry_Int_Tables_number   1
_chemical_formula_structural   K4Sn3Se8
_chemical_formula_sum   'K8 Sn6 Se16'
_cell_volume   1005.83384229
_cell_formula_units_Z   2
loop_
 _symmetry_equiv_pos_site_id
 _symmetry_equiv_pos_as_xyz
  1  'x, y, z'
loop_
 _atom_site_type_symbol
 _atom_site_label
 _atom_site_symmetry_multiplicity
 _atom_site_fract_x
 _atom_site_fract_y
 _atom_site_fract_z
 _atom_site_occupancy
  K  K0  1  0.103142  0.896858  0.000000  1
  K  K1  1  0.896858  0.103142  1.000000  1
  K  K2  1  0.396858  0.603142  0.500000  1
  K  K3  1  0.603142  0.396858  0.500000  1
  K  K4  1  0.767002  0.232998  0.000000  1
  K  K5  1  0.232998  0.767002  0.000000  1
  K  K6  1  0.732998  0.267002  0.500000  1
  K  K7  1  0.267002  0.732998  0.500000  1
  Sn  Sn8  1  0.626408  0.373592  0.000000  1
  Sn  Sn9  1  0.373592  0.626408  1.000000  1
  Sn  Sn10  1  0.873592  0.126408  0.500000  1
  Sn  Sn11  1  0.126408  0.873592  0.500000  1
  Sn  Sn12  1  0.500000  0.500000  1.000000  1
  Sn  Sn13  1  0.000000  0.000000  0.500000  1
  Se  Se14  1  0.777737  0.899998  0.661492  1
  Se  Se15  1  0.899998  0.777737  0.338508  1
  Se  Se16  1  0.277737  0.399998  0.838508  1
  Se  Se17  1  0.100002  0.222263  0.338508  1
  Se  Se18  1  0.399998  0.277737  0.161492  1
  Se  Se19  1  0.600002  0.722263  0.161492  1
  Se  Se20  1  0.993304  0.647364  0.680307  1
  Se  Se21  1  0.006696  0.352636  0.680307  1
  Se  Se22  1  0.647364  0.993304  0.319693  1
  Se  Se23  1  0.352636  0.006696  0.319693  1
  Se  Se24  1  0.506696  0.852636  0.819693  1
  Se  Se25  1  0.493304  0.147364  0.819693  1
  Se  Se26  1  0.852636  0.506696  0.180307  1
  Se  Se27  1  0.147364  0.493304  0.180307  1
  Se  Se28  1  0.722263  0.600002  0.838508  1
  Se  Se29  1  0.222263  0.100002  0.661492  1
