# generated using pymatgen
data_PrPO4
_symmetry_space_group_name_H-M   'P 1'
_cell_length_a   6.48784102
_cell_length_b   7.08696247
_cell_length_c   8.25534819
_cell_angle_alpha   90.00000000
_cell_angle_beta   125.89079855
_cell_angle_gamma   90.00000000
_symmetry_Int_Tables_number   1
_chemical_formula_structural   PrPO4
_chemical_formula_sum   'Pr4 P4 O16'
_cell_volume   307.50596964
_cell_formula_units_Z   4
loop_
 _symmetry_equiv_pos_site_id
 _symmetry_equiv_pos_as_xyz
  1  'x, y, z'
loop_
 _atom_site_type_symbol
 _atom_site_label
 _atom_site_symmetry_multiplicity
 _atom_site_fract_x
 _atom_site_fract_y
 _atom_site_fract_z
 _atom_site_occupancy
  Pr  Pr0  1  0.186633  0.657470  0.784412  1
  Pr  Pr1  1  0.813367  0.157470  0.715588  1
  Pr  Pr2  1  0.813367  0.342530  0.215588  1
  Pr  Pr3  1  0.186633  0.842530  0.284412  1
  P  P4  1  0.692120  0.661026  0.802950  1
  P  P5  1  0.307880  0.161026  0.697050  1
  P  P6  1  0.307880  0.338974  0.197050  1
  P  P7  1  0.692120  0.838974  0.302950  1
  O  O8  1  0.417126  0.711199  0.626023  1
  O  O9  1  0.582874  0.211199  0.873977  1
  O  O10  1  0.582874  0.288801  0.373977  1
  O  O11  1  0.417126  0.788801  0.126023  1
  O  O12  1  0.663281  0.602159  0.970033  1
  O  O13  1  0.336719  0.102159  0.529967  1
  O  O14  1  0.336719  0.397841  0.029967  1
  O  O15  1  0.663281  0.897841  0.470033  1
  O  O16  1  0.810529  0.994917  0.249434  1
  O  O17  1  0.189471  0.494917  0.250566  1
  O  O18  1  0.189471  0.005083  0.750566  1
  O  O19  1  0.810529  0.505083  0.749434  1
  O  O20  1  0.882912  0.669706  0.381138  1
  O  O21  1  0.117088  0.169706  0.118862  1
  O  O22  1  0.117088  0.330294  0.618862  1
  O  O23  1  0.882912  0.830294  0.881138  1
