# generated using pymatgen
data_K2Ge8O17
_symmetry_space_group_name_H-M   'P 1'
_cell_length_a   8.92518732
_cell_length_b   13.65934939
_cell_length_c   13.76841882
_cell_angle_alpha   90.00000000
_cell_angle_beta   90.00000000
_cell_angle_gamma   90.00000000
_symmetry_Int_Tables_number   1
_chemical_formula_structural   K2Ge8O17
_chemical_formula_sum   'K8 Ge32 O68'
_cell_volume   1678.53894448
_cell_formula_units_Z   4
loop_
 _symmetry_equiv_pos_site_id
 _symmetry_equiv_pos_as_xyz
  1  'x, y, z'
loop_
 _atom_site_type_symbol
 _atom_site_label
 _atom_site_symmetry_multiplicity
 _atom_site_fract_x
 _atom_site_fract_y
 _atom_site_fract_z
 _atom_site_occupancy
  K  K0  1  0.250000  0.507540  0.093508  1
  K  K1  1  0.750000  0.492460  0.906492  1
  K  K2  1  0.250000  0.007540  0.406492  1
  K  K3  1  0.750000  0.992460  0.593508  1
  K  K4  1  0.250000  0.592173  0.481764  1
  K  K5  1  0.750000  0.407827  0.518236  1
  K  K6  1  0.250000  0.092173  0.018236  1
  K  K7  1  0.750000  0.907827  0.981764  1
  Ge  Ge8  1  0.070345  0.876192  0.180857  1
  Ge  Ge9  1  0.570345  0.123808  0.819143  1
  Ge  Ge10  1  0.429655  0.376192  0.319143  1
  Ge  Ge11  1  0.929655  0.623808  0.680857  1
  Ge  Ge12  1  0.929655  0.123808  0.819143  1
  Ge  Ge13  1  0.429655  0.876192  0.180857  1
  Ge  Ge14  1  0.570345  0.623808  0.680857  1
  Ge  Ge15  1  0.070345  0.376192  0.319143  1
  Ge  Ge16  1  0.925276  0.673426  0.102851  1
  Ge  Ge17  1  0.425276  0.326574  0.897149  1
  Ge  Ge18  1  0.574724  0.173426  0.397149  1
  Ge  Ge19  1  0.074724  0.826574  0.602851  1
  Ge  Ge20  1  0.074724  0.326574  0.897149  1
  Ge  Ge21  1  0.574724  0.673426  0.102851  1
  Ge  Ge22  1  0.425276  0.826574  0.602851  1
  Ge  Ge23  1  0.925276  0.173426  0.397149  1
  Ge  Ge24  1  0.928933  0.805966  0.386973  1
  Ge  Ge25  1  0.428933  0.194034  0.613027  1
  Ge  Ge26  1  0.571067  0.305966  0.113027  1
  Ge  Ge27  1  0.071067  0.694034  0.886973  1
  Ge  Ge28  1  0.071067  0.194034  0.613027  1
  Ge  Ge29  1  0.571067  0.805966  0.386973  1
  Ge  Ge30  1  0.428933  0.694034  0.886973  1
  Ge  Ge31  1  0.928933  0.305966  0.113027  1
  Ge  Ge32  1  0.907036  0.587626  0.306478  1
  Ge  Ge33  1  0.407036  0.412374  0.693522  1
  Ge  Ge34  1  0.592964  0.087626  0.193522  1
  Ge  Ge35  1  0.092964  0.912374  0.806478  1
  Ge  Ge36  1  0.092964  0.412374  0.693522  1
  Ge  Ge37  1  0.592964  0.587626  0.306478  1
  Ge  Ge38  1  0.407036  0.912374  0.806478  1
  Ge  Ge39  1  0.907036  0.087626  0.193522  1
  O  O40  1  0.529414  0.680008  0.393151  1
  O  O41  1  0.029414  0.319992  0.606849  1
  O  O42  1  0.970586  0.180008  0.106849  1
  O  O43  1  0.470586  0.819992  0.893151  1
  O  O44  1  0.470586  0.319992  0.606849  1
  O  O45  1  0.970586  0.680008  0.393151  1
  O  O46  1  0.029414  0.819992  0.893151  1
  O  O47  1  0.529414  0.180008  0.106849  1
  O  O48  1  0.490466  0.596710  0.190491  1
  O  O49  1  0.990466  0.403290  0.809509  1
  O  O50  1  0.009534  0.096710  0.309509  1
  O  O51  1  0.509534  0.903290  0.690491  1
  O  O52  1  0.509534  0.403290  0.809509  1
  O  O53  1  0.009534  0.596710  0.190491  1
  O  O54  1  0.990466  0.903290  0.690491  1
  O  O55  1  0.490466  0.096710  0.309509  1
  O  O56  1  0.546661  0.858821  0.503341  1
  O  O57  1  0.046661  0.141179  0.496659  1
  O  O58  1  0.953339  0.358821  0.996659  1
  O  O59  1  0.453339  0.641179  0.003341  1
  O  O60  1  0.453339  0.141179  0.496659  1
  O  O61  1  0.953339  0.858821  0.503341  1
  O  O62  1  0.046661  0.641179  0.003341  1
  O  O63  1  0.546661  0.358821  0.996659  1
  O  O64  1  0.450482  0.498214  0.354913  1
  O  O65  1  0.950482  0.501786  0.645087  1
  O  O66  1  0.935731  0.802076  0.121256  1
  O  O67  1  0.049518  0.998214  0.145087  1
  O  O68  1  0.549518  0.501786  0.645087  1
  O  O69  1  0.049518  0.498214  0.354913  1
  O  O70  1  0.950482  0.001786  0.854913  1
  O  O71  1  0.450482  0.998214  0.145087  1
  O  O72  1  0.439710  0.865439  0.309737  1
  O  O73  1  0.939710  0.134561  0.690263  1
  O  O74  1  0.060290  0.365439  0.190263  1
  O  O75  1  0.560290  0.634561  0.809737  1
  O  O76  1  0.560290  0.134561  0.690263  1
  O  O77  1  0.060290  0.865439  0.309737  1
  O  O78  1  0.939710  0.634561  0.809737  1
  O  O79  1  0.439710  0.365439  0.190263  1
  O  O80  1  0.750000  0.013152  0.150774  1
  O  O81  1  0.250000  0.986848  0.849226  1
  O  O82  1  0.750000  0.513152  0.349226  1
  O  O83  1  0.250000  0.486848  0.650774  1
  O  O84  1  0.750000  0.148539  0.454804  1
  O  O85  1  0.250000  0.851461  0.545196  1
  O  O86  1  0.750000  0.648539  0.045196  1
  O  O87  1  0.250000  0.351461  0.954804  1
  O  O88  1  0.750000  0.348734  0.148303  1
  O  O89  1  0.250000  0.651266  0.851697  1
  O  O90  1  0.750000  0.848734  0.351697  1
  O  O91  1  0.250000  0.151266  0.648303  1
  O  O92  1  0.750000  0.163575  0.252227  1
  O  O93  1  0.250000  0.836425  0.747773  1
  O  O94  1  0.750000  0.663575  0.247773  1
  O  O95  1  0.250000  0.336425  0.752227  1
  O  O96  1  0.750000  0.665876  0.643720  1
  O  O97  1  0.250000  0.334124  0.356280  1
  O  O98  1  0.750000  0.165876  0.856280  1
  O  O99  1  0.250000  0.834124  0.143720  1
  O  O100  1  0.935731  0.302076  0.378744  1
  O  O101  1  0.435731  0.697924  0.621256  1
  O  O102  1  0.564269  0.802076  0.121256  1
  O  O103  1  0.064269  0.197924  0.878744  1
  O  O104  1  0.064269  0.697924  0.621256  1
  O  O105  1  0.564269  0.302076  0.378744  1
  O  O106  1  0.435731  0.197924  0.878744  1
  O  O107  1  0.549518  0.001786  0.854913  1
