# generated using pymatgen
data_NbCu3Se4
_symmetry_space_group_name_H-M   'P 1'
_cell_length_a   5.71044933
_cell_length_b   5.71044933
_cell_length_c   5.71044933
_cell_angle_alpha   90.00000000
_cell_angle_beta   90.00000000
_cell_angle_gamma   90.00000000
_symmetry_Int_Tables_number   1
_chemical_formula_structural   NbCu3Se4
_chemical_formula_sum   'Nb1 Cu3 Se4'
_cell_volume   186.21336446
_cell_formula_units_Z   1
loop_
 _symmetry_equiv_pos_site_id
 _symmetry_equiv_pos_as_xyz
  1  'x, y, z'
loop_
 _atom_site_type_symbol
 _atom_site_label
 _atom_site_symmetry_multiplicity
 _atom_site_fract_x
 _atom_site_fract_y
 _atom_site_fract_z
 _atom_site_occupancy
  Nb  Nb0  1  0.000000  0.000000  0.000000  1
  Cu  Cu1  1  0.500000  0.000000  0.000000  1
  Cu  Cu2  1  0.000000  0.000000  0.500000  1
  Cu  Cu3  1  0.000000  0.500000  0.000000  1
  Se  Se4  1  0.249497  0.249497  0.249497  1
  Se  Se5  1  0.750503  0.750503  0.249497  1
  Se  Se6  1  0.750503  0.249497  0.750503  1
  Se  Se7  1  0.249497  0.750503  0.750503  1
