# generated using pymatgen
data_LiCaPrTeO6
_symmetry_space_group_name_H-M   'P 1'
_cell_length_a   5.56712500
_cell_length_b   5.84494312
_cell_length_c   9.52306459
_cell_angle_alpha   90.00000000
_cell_angle_beta   125.10056915
_cell_angle_gamma   90.00000000
_symmetry_Int_Tables_number   1
_chemical_formula_structural   LiCaPrTeO6
_chemical_formula_sum   'Li2 Ca2 Pr2 Te2 O12'
_cell_volume   253.52322141
_cell_formula_units_Z   2
loop_
 _symmetry_equiv_pos_site_id
 _symmetry_equiv_pos_as_xyz
  1  'x, y, z'
loop_
 _atom_site_type_symbol
 _atom_site_label
 _atom_site_symmetry_multiplicity
 _atom_site_fract_x
 _atom_site_fract_y
 _atom_site_fract_z
 _atom_site_occupancy
  Li  Li0  1  0.502499  0.280006  0.002920  1
  Li  Li1  1  0.502499  0.719994  0.502920  1
  Ca  Ca2  1  0.257763  0.693586  0.747618  1
  Ca  Ca3  1  0.257763  0.306414  0.247618  1
  Pr  Pr4  1  0.732832  0.181496  0.747258  1
  Pr  Pr5  1  0.732832  0.818504  0.247258  1
  Te  Te6  1  0.999519  0.739997  0.999357  1
  Te  Te7  1  0.999519  0.260003  0.499357  1
  O  O8  1  0.143557  0.708989  0.239813  1
  O  O9  1  0.776595  0.458197  0.950096  1
  O  O10  1  0.335597  0.435140  0.546523  1
  O  O11  1  0.667911  0.922513  0.954241  1
  O  O12  1  0.229585  0.976742  0.552755  1
  O  O13  1  0.854143  0.222777  0.259419  1
  O  O14  1  0.143557  0.291011  0.739813  1
  O  O15  1  0.776595  0.541803  0.450096  1
  O  O16  1  0.335597  0.564860  0.046523  1
  O  O17  1  0.667911  0.077487  0.454241  1
  O  O18  1  0.229585  0.023258  0.052755  1
  O  O19  1  0.854143  0.777223  0.759419  1
