# generated using pymatgen
data_CaZrO3
_symmetry_space_group_name_H-M   'P 1'
_cell_length_a   5.63837214
_cell_length_b   5.83322589
_cell_length_c   8.10692434
_cell_angle_alpha   90.00000000
_cell_angle_beta   90.00000000
_cell_angle_gamma   90.00000000
_symmetry_Int_Tables_number   1
_chemical_formula_structural   CaZrO3
_chemical_formula_sum   'Ca4 Zr4 O12'
_cell_volume   266.63591743
_cell_formula_units_Z   4
loop_
 _symmetry_equiv_pos_site_id
 _symmetry_equiv_pos_as_xyz
  1  'x, y, z'
loop_
 _atom_site_type_symbol
 _atom_site_label
 _atom_site_symmetry_multiplicity
 _atom_site_fract_x
 _atom_site_fract_y
 _atom_site_fract_z
 _atom_site_occupancy
  Ca  Ca0  1  0.013125  0.949205  0.250000  1
  Ca  Ca1  1  0.513125  0.550795  0.750000  1
  Ca  Ca2  1  0.486875  0.449205  0.250000  1
  Ca  Ca3  1  0.986875  0.050795  0.750000  1
  Zr  Zr4  1  0.000000  0.500000  0.000000  1
  Zr  Zr5  1  0.500000  0.000000  0.000000  1
  Zr  Zr6  1  0.500000  0.000000  0.500000  1
  Zr  Zr7  1  0.000000  0.500000  0.500000  1
  O  O8  1  0.303404  0.699277  0.442244  1
  O  O9  1  0.803404  0.800723  0.557756  1
  O  O10  1  0.196596  0.199277  0.057756  1
  O  O11  1  0.696596  0.300723  0.942244  1
  O  O12  1  0.696596  0.300723  0.557756  1
  O  O13  1  0.196596  0.199277  0.442244  1
  O  O14  1  0.803404  0.800723  0.942244  1
  O  O15  1  0.303404  0.699277  0.057756  1
  O  O16  1  0.608804  0.042656  0.250000  1
  O  O17  1  0.108804  0.457344  0.750000  1
  O  O18  1  0.891196  0.542656  0.250000  1
  O  O19  1  0.391196  0.957344  0.750000  1
