# generated using pymatgen
data_NbPO5
_symmetry_space_group_name_H-M   'P 1'
_cell_length_a   6.51318882
_cell_length_b   6.51318882
_cell_length_c   4.21344152
_cell_angle_alpha   90.00000000
_cell_angle_beta   90.00000000
_cell_angle_gamma   90.00000000
_symmetry_Int_Tables_number   1
_chemical_formula_structural   NbPO5
_chemical_formula_sum   'Nb2 P2 O10'
_cell_volume   178.74105131
_cell_formula_units_Z   2
loop_
 _symmetry_equiv_pos_site_id
 _symmetry_equiv_pos_as_xyz
  1  'x, y, z'
loop_
 _atom_site_type_symbol
 _atom_site_label
 _atom_site_symmetry_multiplicity
 _atom_site_fract_x
 _atom_site_fract_y
 _atom_site_fract_z
 _atom_site_occupancy
  Nb  Nb0  1  0.500000  0.000000  0.223491  1
  Nb  Nb1  1  0.000000  0.500000  0.776509  1
  P  P2  1  0.000000  0.000000  0.500000  1
  P  P3  1  0.500000  0.500000  0.500000  1
  O  O4  1  0.000000  0.806536  0.710233  1
  O  O5  1  0.000000  0.193464  0.710233  1
  O  O6  1  0.000000  0.500000  0.199646  1
  O  O7  1  0.500000  0.000000  0.800354  1
  O  O8  1  0.693464  0.500000  0.710233  1
  O  O9  1  0.306536  0.500000  0.710233  1
  O  O10  1  0.193464  0.000000  0.289767  1
  O  O11  1  0.500000  0.306536  0.289767  1
  O  O12  1  0.500000  0.693464  0.289767  1
  O  O13  1  0.806536  0.000000  0.289767  1
