# generated using pymatgen
data_BNF8
_symmetry_space_group_name_H-M   'P 1'
_cell_length_a   9.99298779
_cell_length_b   9.99298779
_cell_length_c   5.28192174
_cell_angle_alpha   90.00000000
_cell_angle_beta   90.00000000
_cell_angle_gamma   90.00000000
_symmetry_Int_Tables_number   1
_chemical_formula_structural   BNF8
_chemical_formula_sum   'B4 N4 F32'
_cell_volume   527.45167483
_cell_formula_units_Z   4
loop_
 _symmetry_equiv_pos_site_id
 _symmetry_equiv_pos_as_xyz
  1  'x, y, z'
loop_
 _atom_site_type_symbol
 _atom_site_label
 _atom_site_symmetry_multiplicity
 _atom_site_fract_x
 _atom_site_fract_y
 _atom_site_fract_z
 _atom_site_occupancy
  B  B0  1  0.244053  0.255947  0.598886  1
  B  B1  1  0.744053  0.244053  0.401114  1
  B  B2  1  0.255947  0.755947  0.401114  1
  B  B3  1  0.755947  0.744053  0.598886  1
  N  N4  1  0.000000  0.000000  0.000000  1
  N  N5  1  0.500000  0.500000  0.000000  1
  N  N6  1  0.000000  0.500000  0.962778  1
  N  N7  1  0.500000  0.000000  0.037222  1
  F  F8  1  0.942478  0.906938  0.146748  1
  F  F9  1  0.093062  0.942478  0.853252  1
  F  F10  1  0.906938  0.057522  0.853252  1
  F  F11  1  0.057522  0.093062  0.146748  1
  F  F12  1  0.442478  0.593062  0.853252  1
  F  F13  1  0.557522  0.406938  0.853252  1
  F  F14  1  0.406938  0.442478  0.146748  1
  F  F15  1  0.593062  0.557522  0.146748  1
  F  F16  1  0.077717  0.422283  0.108519  1
  F  F17  1  0.577717  0.077717  0.891481  1
  F  F18  1  0.422283  0.922283  0.891481  1
  F  F19  1  0.922283  0.577717  0.108519  1
  F  F20  1  0.077361  0.577361  0.815962  1
  F  F21  1  0.422639  0.077361  0.184038  1
  F  F22  1  0.577361  0.922639  0.184038  1
  F  F23  1  0.922639  0.422639  0.815962  1
  F  F24  1  0.278778  0.385162  0.689131  1
  F  F25  1  0.614838  0.278778  0.310869  1
  F  F26  1  0.385162  0.721222  0.310869  1
  F  F27  1  0.721222  0.614838  0.689131  1
  F  F28  1  0.778778  0.114838  0.310869  1
  F  F29  1  0.221222  0.885162  0.310869  1
  F  F30  1  0.885162  0.778778  0.689131  1
  F  F31  1  0.114838  0.221222  0.689131  1
  F  F32  1  0.242016  0.257984  0.329289  1
  F  F33  1  0.742016  0.242016  0.670711  1
  F  F34  1  0.257984  0.757984  0.670711  1
  F  F35  1  0.757984  0.742016  0.329289  1
  F  F36  1  0.338975  0.161025  0.683606  1
  F  F37  1  0.838975  0.338975  0.316394  1
  F  F38  1  0.161025  0.661025  0.316394  1
  F  F39  1  0.661025  0.838975  0.683606  1
