# generated using pymatgen
data_Na3Al3Si3AgBrO12
_symmetry_space_group_name_H-M   'P 1'
_cell_length_a   9.03960938
_cell_length_b   9.03960938
_cell_length_c   9.04404837
_cell_angle_alpha   89.99153319
_cell_angle_beta   90.00846681
_cell_angle_gamma   89.95604398
_symmetry_Int_Tables_number   1
_chemical_formula_structural   Na3Al3Si3AgBrO12
_chemical_formula_sum   'Na6 Al6 Si6 Ag2 Br2 O24'
_cell_volume   739.02999862
_cell_formula_units_Z   2
loop_
 _symmetry_equiv_pos_site_id
 _symmetry_equiv_pos_as_xyz
  1  'x, y, z'
loop_
 _atom_site_type_symbol
 _atom_site_label
 _atom_site_symmetry_multiplicity
 _atom_site_fract_x
 _atom_site_fract_y
 _atom_site_fract_z
 _atom_site_occupancy
  Na  Na0  1  0.812110  0.690322  0.809430  1
  Na  Na1  1  0.688872  0.809578  0.310543  1
  Na  Na2  1  0.309678  0.187890  0.309430  1
  Na  Na3  1  0.689424  0.190303  0.690316  1
  Na  Na4  1  0.190422  0.311128  0.810543  1
  Na  Na5  1  0.809697  0.310576  0.190316  1
  Al  Al6  1  0.498535  0.500327  0.250284  1
  Al  Al7  1  0.001815  0.750048  0.498864  1
  Al  Al8  1  0.750021  0.000055  0.999924  1
  Al  Al9  1  0.249952  0.998185  0.998864  1
  Al  Al10  1  0.999945  0.249979  0.499924  1
  Al  Al11  1  0.499673  0.501465  0.750284  1
  Si  Si12  1  0.250033  0.499453  0.499437  1
  Si  Si13  1  0.500547  0.749967  0.999437  1
  Si  Si14  1  0.000068  0.000156  0.750319  1
  Si  Si15  1  0.999844  0.999932  0.250319  1
  Si  Si16  1  0.499527  0.250020  0.999648  1
  Si  Si17  1  0.749980  0.500473  0.499648  1
  Ag  Ag18  1  0.164993  0.664938  0.164066  1
  Ag  Ag19  1  0.335062  0.835007  0.664066  1
  Br  Br20  1  0.997030  0.497137  0.998843  1
  Br  Br21  1  0.502863  0.002970  0.498843  1
  O  O22  1  0.348109  0.556929  0.641190  1
  O  O23  1  0.650790  0.556447  0.358360  1
  O  O24  1  0.149557  0.638044  0.439500  1
  O  O25  1  0.850320  0.640749  0.555537  1
  O  O26  1  0.443071  0.651891  0.141190  1
  O  O27  1  0.560682  0.647980  0.862271  1
  O  O28  1  0.361956  0.850443  0.939500  1
  O  O29  1  0.640906  0.849660  0.057206  1
  O  O30  1  0.056623  0.858918  0.651149  1
  O  O31  1  0.940874  0.862223  0.351919  1
  O  O32  1  0.141082  0.943377  0.151149  1
  O  O33  1  0.858201  0.943441  0.848433  1
  O  O34  1  0.137777  0.059126  0.851919  1
  O  O35  1  0.859327  0.056841  0.150384  1
  O  O36  1  0.056559  0.141799  0.348433  1
  O  O37  1  0.943159  0.140673  0.650384  1
  O  O38  1  0.359251  0.149680  0.055537  1
  O  O39  1  0.641472  0.151603  0.943793  1
  O  O40  1  0.443553  0.349210  0.858360  1
  O  O41  1  0.555311  0.349600  0.140616  1
  O  O42  1  0.150340  0.359094  0.557206  1
  O  O43  1  0.848397  0.358528  0.443793  1
  O  O44  1  0.352020  0.439318  0.362271  1
  O  O45  1  0.650400  0.444689  0.640616  1
