# generated using pymatgen
data_GaPO4
_symmetry_space_group_name_H-M   'P 1'
_cell_length_a   5.00913586
_cell_length_b   5.00913586
_cell_length_c   11.24742987
_cell_angle_alpha   90.00000000
_cell_angle_beta   90.00000000
_cell_angle_gamma   120.00000000
_symmetry_Int_Tables_number   1
_chemical_formula_structural   GaPO4
_chemical_formula_sum   'Ga3 P3 O12'
_cell_volume   244.40469696
_cell_formula_units_Z   3
loop_
 _symmetry_equiv_pos_site_id
 _symmetry_equiv_pos_as_xyz
  1  'x, y, z'
loop_
 _atom_site_type_symbol
 _atom_site_label
 _atom_site_symmetry_multiplicity
 _atom_site_fract_x
 _atom_site_fract_y
 _atom_site_fract_z
 _atom_site_occupancy
  Ga  Ga0  1  0.539263  0.539263  0.000000  1
  Ga  Ga1  1  0.000000  0.460737  0.666667  1
  Ga  Ga2  1  0.460737  0.000000  0.333333  1
  P  P3  1  0.537686  0.537686  0.500000  1
  P  P4  1  0.000000  0.462314  0.166667  1
  P  P5  1  0.462314  0.000000  0.833333  1
  O  O6  1  0.266576  0.412468  0.125736  1
  O  O7  1  0.587532  0.854108  0.459069  1
  O  O8  1  0.145892  0.733424  0.792402  1
  O  O9  1  0.854108  0.587532  0.540931  1
  O  O10  1  0.733424  0.145892  0.207598  1
  O  O11  1  0.412468  0.266576  0.874264  1
  O  O12  1  0.408040  0.310598  0.394203  1
  O  O13  1  0.689402  0.097442  0.727536  1
  O  O14  1  0.902558  0.591960  0.060869  1
  O  O15  1  0.097442  0.689402  0.272464  1
  O  O16  1  0.591960  0.902558  0.939131  1
  O  O17  1  0.310598  0.408040  0.605797  1
