# generated using pymatgen
data_SiP2O7
_symmetry_space_group_name_H-M   'P 1'
_cell_length_a   4.81554974
_cell_length_b   6.40035797
_cell_length_c   14.98078642
_cell_angle_alpha   90.00000000
_cell_angle_beta   90.02117461
_cell_angle_gamma   90.00000000
_symmetry_Int_Tables_number   1
_chemical_formula_structural   SiP2O7
_chemical_formula_sum   'Si4 P8 O28'
_cell_volume   461.72641479
_cell_formula_units_Z   4
loop_
 _symmetry_equiv_pos_site_id
 _symmetry_equiv_pos_as_xyz
  1  'x, y, z'
loop_
 _atom_site_type_symbol
 _atom_site_label
 _atom_site_symmetry_multiplicity
 _atom_site_fract_x
 _atom_site_fract_y
 _atom_site_fract_z
 _atom_site_occupancy
  Si  Si0  1  0.749649  0.914762  0.864988  1
  Si  Si1  1  0.250351  0.414762  0.635012  1
  Si  Si2  1  0.250351  0.085238  0.135012  1
  Si  Si3  1  0.749649  0.585238  0.364988  1
  P  P4  1  0.253128  0.310935  0.427121  1
  P  P5  1  0.746872  0.810935  0.072879  1
  P  P6  1  0.746872  0.689065  0.572879  1
  P  P7  1  0.253128  0.189065  0.927121  1
  P  P8  1  0.260777  0.603041  0.831200  1
  P  P9  1  0.739223  0.103041  0.668800  1
  P  P10  1  0.739223  0.396959  0.168800  1
  P  P11  1  0.260777  0.896959  0.331200  1
  O  O12  1  0.170401  0.010332  0.246874  1
  O  O13  1  0.829599  0.510332  0.253126  1
  O  O14  1  0.829599  0.989668  0.753126  1
  O  O15  1  0.170401  0.489668  0.746874  1
  O  O16  1  0.546620  0.797335  0.322344  1
  O  O17  1  0.453380  0.297335  0.177656  1
  O  O18  1  0.453380  0.202665  0.677656  1
  O  O19  1  0.546620  0.702665  0.822344  1
  O  O20  1  0.044880  0.745629  0.366248  1
  O  O21  1  0.955120  0.245629  0.133752  1
  O  O22  1  0.955120  0.254371  0.633752  1
  O  O23  1  0.044880  0.754371  0.866248  1
  O  O24  1  0.283079  0.434195  0.910108  1
  O  O25  1  0.716921  0.934195  0.589892  1
  O  O26  1  0.716921  0.565805  0.089892  1
  O  O27  1  0.283079  0.065805  0.410108  1
  O  O28  1  0.332024  0.168553  0.024836  1
  O  O29  1  0.667976  0.668553  0.475164  1
  O  O30  1  0.667976  0.831447  0.975164  1
  O  O31  1  0.332024  0.331447  0.524836  1
  O  O32  1  0.457794  0.081065  0.864597  1
  O  O33  1  0.542206  0.581065  0.635403  1
  O  O34  1  0.542206  0.918935  0.135403  1
  O  O35  1  0.457794  0.418935  0.364597  1
  O  O36  1  0.952000  0.130515  0.906942  1
  O  O37  1  0.048000  0.630515  0.593058  1
  O  O38  1  0.048000  0.869485  0.093058  1
  O  O39  1  0.952000  0.369485  0.406942  1
