# generated using pymatgen
data_NaHf2(PO4)3
_symmetry_space_group_name_H-M   'P 1'
_cell_length_a   9.18271538
_cell_length_b   9.18271538
_cell_length_c   9.18271538
_cell_angle_alpha   57.67412641
_cell_angle_beta   57.67412641
_cell_angle_gamma   57.67412641
_symmetry_Int_Tables_number   1
_chemical_formula_structural   NaHf2(PO4)3
_chemical_formula_sum   'Na2 Hf4 P6 O24'
_cell_volume   518.25565164
_cell_formula_units_Z   2
loop_
 _symmetry_equiv_pos_site_id
 _symmetry_equiv_pos_as_xyz
  1  'x, y, z'
loop_
 _atom_site_type_symbol
 _atom_site_label
 _atom_site_symmetry_multiplicity
 _atom_site_fract_x
 _atom_site_fract_y
 _atom_site_fract_z
 _atom_site_occupancy
  Na  Na0  1  0.000000  0.000000  0.000000  1
  Na  Na1  1  0.500000  0.500000  0.500000  1
  Hf  Hf2  1  0.854421  0.854421  0.854421  1
  Hf  Hf3  1  0.645579  0.645579  0.645579  1
  Hf  Hf4  1  0.354421  0.354421  0.354421  1
  Hf  Hf5  1  0.145579  0.145579  0.145579  1
  P  P6  1  0.959440  0.250000  0.540560  1
  P  P7  1  0.540560  0.959440  0.250000  1
  P  P8  1  0.250000  0.540560  0.959440  1
  P  P9  1  0.750000  0.459440  0.040560  1
  P  P10  1  0.459440  0.040560  0.750000  1
  P  P11  1  0.040560  0.750000  0.459440  1
  O  O12  1  0.436173  0.219360  0.581871  1
  O  O13  1  0.219360  0.581871  0.436173  1
  O  O14  1  0.581871  0.436173  0.219360  1
  O  O15  1  0.122670  0.286844  0.505632  1
  O  O16  1  0.505632  0.122670  0.286844  1
  O  O17  1  0.286844  0.505632  0.122670  1
  O  O18  1  0.994368  0.213156  0.377330  1
  O  O19  1  0.377330  0.994368  0.213156  1
  O  O20  1  0.213156  0.377330  0.994368  1
  O  O21  1  0.063827  0.918129  0.280640  1
  O  O22  1  0.918129  0.280640  0.063827  1
  O  O23  1  0.280640  0.063827  0.918129  1
  O  O24  1  0.719360  0.936173  0.081871  1
  O  O25  1  0.081871  0.719360  0.936173  1
  O  O26  1  0.936173  0.081871  0.719360  1
  O  O27  1  0.786844  0.622670  0.005632  1
  O  O28  1  0.622670  0.005632  0.786844  1
  O  O29  1  0.005632  0.786844  0.622670  1
  O  O30  1  0.713156  0.494368  0.877330  1
  O  O31  1  0.494368  0.877330  0.713156  1
  O  O32  1  0.877330  0.713156  0.494368  1
  O  O33  1  0.418129  0.563827  0.780640  1
  O  O34  1  0.780640  0.418129  0.563827  1
  O  O35  1  0.563827  0.780640  0.418129  1
