# generated using pymatgen
data_Ag5SbS4
_symmetry_space_group_name_H-M   'P 1'
_cell_length_a   7.37412332
_cell_length_b   7.37412332
_cell_length_c   9.12207898
_cell_angle_alpha   90.00000000
_cell_angle_beta   90.00000000
_cell_angle_gamma   116.27542731
_symmetry_Int_Tables_number   1
_chemical_formula_structural   Ag5SbS4
_chemical_formula_sum   'Ag10 Sb2 S8'
_cell_volume   444.78521732
_cell_formula_units_Z   2
loop_
 _symmetry_equiv_pos_site_id
 _symmetry_equiv_pos_as_xyz
  1  'x, y, z'
loop_
 _atom_site_type_symbol
 _atom_site_label
 _atom_site_symmetry_multiplicity
 _atom_site_fract_x
 _atom_site_fract_y
 _atom_site_fract_z
 _atom_site_occupancy
  Ag  Ag0  1  0.260836  0.131833  0.820212  1
  Ag  Ag1  1  0.804835  0.571086  0.508843  1
  Ag  Ag2  1  0.571086  0.804835  0.008843  1
  Ag  Ag3  1  0.428914  0.195165  0.508843  1
  Ag  Ag4  1  0.868167  0.739164  0.820212  1
  Ag  Ag5  1  0.131833  0.260836  0.320212  1
  Ag  Ag6  1  0.862723  0.137277  0.677966  1
  Ag  Ag7  1  0.137277  0.862723  0.177966  1
  Ag  Ag8  1  0.195165  0.428914  0.008843  1
  Ag  Ag9  1  0.739164  0.868167  0.320212  1
  Sb  Sb10  1  0.324987  0.675013  0.617461  1
  Sb  Sb11  1  0.675013  0.324987  0.117461  1
  S  S12  1  0.504220  0.965588  0.782176  1
  S  S13  1  0.495780  0.034412  0.282176  1
  S  S14  1  0.517604  0.482396  0.697122  1
  S  S15  1  0.482396  0.517604  0.197122  1
  S  S16  1  0.018295  0.981705  0.510488  1
  S  S17  1  0.981705  0.018295  0.010488  1
  S  S18  1  0.034412  0.495780  0.782176  1
  S  S19  1  0.965588  0.504220  0.282176  1
