# generated using pymatgen
data_Na2SO4
_symmetry_space_group_name_H-M   'P 1'
_cell_length_a   7.97520226
_cell_length_b   6.90161127
_cell_length_c   5.79473958
_cell_angle_alpha   77.28328880
_cell_angle_beta   57.58165467
_cell_angle_gamma   45.13505653
_symmetry_Int_Tables_number   1
_chemical_formula_structural   Na2SO4
_chemical_formula_sum   'Na4 S2 O8'
_cell_volume   184.05500056
_cell_formula_units_Z   2
loop_
 _symmetry_equiv_pos_site_id
 _symmetry_equiv_pos_as_xyz
  1  'x, y, z'
loop_
 _atom_site_type_symbol
 _atom_site_label
 _atom_site_symmetry_multiplicity
 _atom_site_fract_x
 _atom_site_fract_y
 _atom_site_fract_z
 _atom_site_occupancy
  Na  Na0  1  0.814826  0.185174  0.814826  1
  Na  Na1  1  0.185174  0.814826  0.185174  1
  Na  Na2  1  0.064826  0.435174  0.064826  1
  Na  Na3  1  0.435174  0.064826  0.435174  1
  S  S4  1  0.500000  0.500000  0.500000  1
  S  S5  1  0.750000  0.750000  0.750000  1
  O  O6  1  0.760714  0.874772  0.916468  1
  O  O7  1  0.448046  0.916468  0.874772  1
  O  O8  1  0.916468  0.448046  0.760714  1
  O  O9  1  0.874772  0.760714  0.448046  1
  O  O10  1  0.489286  0.375228  0.333532  1
  O  O11  1  0.801954  0.333532  0.375228  1
  O  O12  1  0.375228  0.489286  0.801954  1
  O  O13  1  0.333532  0.801954  0.489286  1
