# generated using pymatgen
data_Sr4PtO6
_symmetry_space_group_name_H-M   'P 1'
_cell_length_a   6.96296880
_cell_length_b   6.96296880
_cell_length_c   6.96296880
_cell_angle_alpha   90.19060979
_cell_angle_beta   90.19060979
_cell_angle_gamma   90.19060979
_symmetry_Int_Tables_number   1
_chemical_formula_structural   Sr4PtO6
_chemical_formula_sum   'Sr8 Pt2 O12'
_cell_volume   337.57954315
_cell_formula_units_Z   2
loop_
 _symmetry_equiv_pos_site_id
 _symmetry_equiv_pos_as_xyz
  1  'x, y, z'
loop_
 _atom_site_type_symbol
 _atom_site_label
 _atom_site_symmetry_multiplicity
 _atom_site_fract_x
 _atom_site_fract_y
 _atom_site_fract_z
 _atom_site_occupancy
  Sr  Sr0  1  0.381787  0.750000  0.118213  1
  Sr  Sr1  1  0.118213  0.381787  0.750000  1
  Sr  Sr2  1  0.750000  0.118213  0.381787  1
  Sr  Sr3  1  0.618213  0.250000  0.881787  1
  Sr  Sr4  1  0.881787  0.618213  0.250000  1
  Sr  Sr5  1  0.250000  0.881787  0.618213  1
  Sr  Sr6  1  0.750000  0.750000  0.750000  1
  Sr  Sr7  1  0.250000  0.250000  0.250000  1
  Pt  Pt8  1  0.500000  0.500000  0.500000  1
  Pt  Pt9  1  0.000000  0.000000  0.000000  1
  O  O10  1  0.442634  0.572169  0.786277  1
  O  O11  1  0.786277  0.442634  0.572169  1
  O  O12  1  0.572169  0.786277  0.442634  1
  O  O13  1  0.713723  0.927831  0.057366  1
  O  O14  1  0.057366  0.713723  0.927831  1
  O  O15  1  0.927831  0.057366  0.713723  1
  O  O16  1  0.557366  0.427831  0.213723  1
  O  O17  1  0.213723  0.557366  0.427831  1
  O  O18  1  0.427831  0.213723  0.557366  1
  O  O19  1  0.286277  0.072169  0.942634  1
  O  O20  1  0.072169  0.942634  0.286277  1
  O  O21  1  0.942634  0.286277  0.072169  1
