# generated using pymatgen
data_BaYMnCoO5
_symmetry_space_group_name_H-M   'P 1'
_cell_length_a   5.55967023
_cell_length_b   5.55967023
_cell_length_c   7.78633102
_cell_angle_alpha   90.00000000
_cell_angle_beta   90.00000000
_cell_angle_gamma   90.00000000
_symmetry_Int_Tables_number   1
_chemical_formula_structural   BaYMnCoO5
_chemical_formula_sum   'Ba2 Y2 Mn2 Co2 O10'
_cell_volume   240.67497026
_cell_formula_units_Z   2
loop_
 _symmetry_equiv_pos_site_id
 _symmetry_equiv_pos_as_xyz
  1  'x, y, z'
loop_
 _atom_site_type_symbol
 _atom_site_label
 _atom_site_symmetry_multiplicity
 _atom_site_fract_x
 _atom_site_fract_y
 _atom_site_fract_z
 _atom_site_occupancy
  Ba  Ba0  1  0.500000  0.500000  0.000000  1
  Ba  Ba1  1  0.000000  0.000000  0.000000  1
  Y  Y2  1  0.500000  0.500000  0.500000  1
  Y  Y3  1  0.000000  0.000000  0.500000  1
  Mn  Mn4  1  0.500000  0.000000  0.733160  1
  Mn  Mn5  1  0.000000  0.500000  0.266840  1
  Co  Co6  1  0.500000  0.000000  0.265467  1
  Co  Co7  1  0.000000  0.500000  0.734533  1
  O  O8  1  0.500000  0.000000  0.997440  1
  O  O9  1  0.753992  0.746008  0.316982  1
  O  O10  1  0.746008  0.753992  0.683018  1
  O  O11  1  0.753992  0.253992  0.316982  1
  O  O12  1  0.746008  0.246008  0.683018  1
  O  O13  1  0.000000  0.500000  0.002560  1
  O  O14  1  0.246008  0.746008  0.316982  1
  O  O15  1  0.253992  0.753992  0.683018  1
  O  O16  1  0.246008  0.253992  0.316982  1
  O  O17  1  0.253992  0.246008  0.683018  1
