# generated using pymatgen
data_Tl3PSe4
_symmetry_space_group_name_H-M   'P 1'
_cell_length_a   9.47131546
_cell_length_b   9.58660741
_cell_length_c   11.29889780
_cell_angle_alpha   90.00000000
_cell_angle_beta   90.00000000
_cell_angle_gamma   90.00000000
_symmetry_Int_Tables_number   1
_chemical_formula_structural   Tl3PSe4
_chemical_formula_sum   'Tl12 P4 Se16'
_cell_volume   1025.91487026
_cell_formula_units_Z   4
loop_
 _symmetry_equiv_pos_site_id
 _symmetry_equiv_pos_as_xyz
  1  'x, y, z'
loop_
 _atom_site_type_symbol
 _atom_site_label
 _atom_site_symmetry_multiplicity
 _atom_site_fract_x
 _atom_site_fract_y
 _atom_site_fract_z
 _atom_site_occupancy
  Tl  Tl0  1  0.432531  0.194423  0.446032  1
  Tl  Tl1  1  0.932531  0.305577  0.053968  1
  Tl  Tl2  1  0.067469  0.694423  0.553968  1
  Tl  Tl3  1  0.567469  0.805577  0.946032  1
  Tl  Tl4  1  0.567469  0.805577  0.553968  1
  Tl  Tl5  1  0.067469  0.694423  0.946032  1
  Tl  Tl6  1  0.932531  0.305577  0.446032  1
  Tl  Tl7  1  0.432531  0.194423  0.053968  1
  Tl  Tl8  1  0.902098  0.108439  0.750000  1
  Tl  Tl9  1  0.402098  0.391561  0.750000  1
  Tl  Tl10  1  0.597902  0.608439  0.250000  1
  Tl  Tl11  1  0.097902  0.891561  0.250000  1
  P  P12  1  0.779624  0.527786  0.750000  1
  P  P13  1  0.279624  0.972214  0.750000  1
  P  P14  1  0.720376  0.027786  0.250000  1
  P  P15  1  0.220376  0.472214  0.250000  1
  Se  Se16  1  0.340342  0.532626  0.412239  1
  Se  Se17  1  0.840342  0.967374  0.087761  1
  Se  Se18  1  0.159658  0.032626  0.587761  1
  Se  Se19  1  0.659658  0.467374  0.912239  1
  Se  Se20  1  0.659658  0.467374  0.587761  1
  Se  Se21  1  0.159658  0.032626  0.912239  1
  Se  Se22  1  0.840342  0.967374  0.412239  1
  Se  Se23  1  0.340342  0.532626  0.087761  1
  Se  Se24  1  0.191137  0.238702  0.250000  1
  Se  Se25  1  0.691137  0.261298  0.250000  1
  Se  Se26  1  0.308863  0.738702  0.750000  1
  Se  Se27  1  0.808863  0.761298  0.750000  1
  Se  Se28  1  0.505437  0.932885  0.250000  1
  Se  Se29  1  0.005437  0.567115  0.250000  1
  Se  Se30  1  0.994563  0.432885  0.750000  1
  Se  Se31  1  0.494563  0.067115  0.750000  1
