# generated using pymatgen
data_BaAlF5
_symmetry_space_group_name_H-M   'P 1'
_cell_length_a   5.09060859
_cell_length_b   5.68272172
_cell_length_c   13.94057883
_cell_angle_alpha   90.00000000
_cell_angle_beta   90.00000000
_cell_angle_gamma   90.00000000
_symmetry_Int_Tables_number   1
_chemical_formula_structural   BaAlF5
_chemical_formula_sum   'Ba4 Al4 F20'
_cell_volume   403.28020200
_cell_formula_units_Z   4
loop_
 _symmetry_equiv_pos_site_id
 _symmetry_equiv_pos_as_xyz
  1  'x, y, z'
loop_
 _atom_site_type_symbol
 _atom_site_label
 _atom_site_symmetry_multiplicity
 _atom_site_fract_x
 _atom_site_fract_y
 _atom_site_fract_z
 _atom_site_occupancy
  Ba  Ba0  1  0.765160  0.339307  0.345646  1
  Ba  Ba1  1  0.265160  0.160693  0.654354  1
  Ba  Ba2  1  0.234840  0.839307  0.154354  1
  Ba  Ba3  1  0.734840  0.660693  0.845646  1
  Al  Al4  1  0.192221  0.843621  0.413599  1
  Al  Al5  1  0.692221  0.656379  0.586401  1
  Al  Al6  1  0.807779  0.343621  0.086401  1
  Al  Al7  1  0.307779  0.156379  0.913599  1
  F  F8  1  0.965044  0.667880  0.495605  1
  F  F9  1  0.465044  0.832120  0.504395  1
  F  F10  1  0.034956  0.167880  0.004395  1
  F  F11  1  0.534956  0.332120  0.995605  1
  F  F12  1  0.925991  0.853006  0.325521  1
  F  F13  1  0.425991  0.646994  0.674479  1
  F  F14  1  0.074009  0.353006  0.174479  1
  F  F15  1  0.574009  0.146994  0.825521  1
  F  F16  1  0.922278  0.605828  0.028107  1
  F  F17  1  0.422278  0.894172  0.971893  1
  F  F18  1  0.077722  0.105828  0.471893  1
  F  F19  1  0.577722  0.394172  0.528107  1
  F  F20  1  0.611914  0.517092  0.168856  1
  F  F21  1  0.111914  0.982908  0.831144  1
  F  F22  1  0.388086  0.017092  0.331144  1
  F  F23  1  0.888086  0.482908  0.668856  1
  F  F24  1  0.203039  0.427227  0.859231  1
  F  F25  1  0.703039  0.072773  0.140769  1
  F  F26  1  0.796961  0.927227  0.640769  1
  F  F27  1  0.296961  0.572773  0.359231  1
