# generated using pymatgen
data_Na3Sr7Ta3Ti7O30
_symmetry_space_group_name_H-M   'P 1'
_cell_length_a   7.94250673
_cell_length_b   3.95631697
_cell_length_c   19.81127525
_cell_angle_alpha   90.00000000
_cell_angle_beta   90.05299630
_cell_angle_gamma   90.00000000
_symmetry_Int_Tables_number   1
_chemical_formula_structural   Na3Sr7Ta3Ti7O30
_chemical_formula_sum   'Na3 Sr7 Ta3 Ti7 O30'
_cell_volume   622.53090500
_cell_formula_units_Z   1
loop_
 _symmetry_equiv_pos_site_id
 _symmetry_equiv_pos_as_xyz
  1  'x, y, z'
loop_
 _atom_site_type_symbol
 _atom_site_label
 _atom_site_symmetry_multiplicity
 _atom_site_fract_x
 _atom_site_fract_y
 _atom_site_fract_z
 _atom_site_occupancy
  Na  Na0  1  0.493895  0.000000  0.991043  1
  Na  Na1  1  0.520355  0.000000  0.208599  1
  Na  Na2  1  0.980297  0.000000  0.206735  1
  Sr  Sr3  1  0.995054  0.000000  0.994272  1
  Sr  Sr4  1  0.493892  0.000000  0.801634  1
  Sr  Sr5  1  0.495320  0.000000  0.602208  1
  Sr  Sr6  1  0.992148  0.000000  0.801176  1
  Sr  Sr7  1  0.995810  0.000000  0.602120  1
  Sr  Sr8  1  0.505386  0.000000  0.403692  1
  Sr  Sr9  1  0.991958  0.000000  0.403553  1
  Ta  Ta10  1  0.249783  0.500000  0.299115  1
  Ta  Ta11  1  0.747836  0.500000  0.102619  1
  Ta  Ta12  1  0.252478  0.500000  0.099072  1
  Ti  Ti13  1  0.736387  0.500000  0.902066  1
  Ti  Ti14  1  0.242011  0.500000  0.701713  1
  Ti  Ti15  1  0.741745  0.500000  0.702709  1
  Ti  Ti16  1  0.243221  0.500000  0.899604  1
  Ti  Ti17  1  0.744233  0.500000  0.503538  1
  Ti  Ti18  1  0.749619  0.500000  0.302707  1
  Ti  Ti19  1  0.244101  0.500000  0.502841  1
  O  O20  1  0.756224  0.000000  0.896965  1
  O  O21  1  0.755838  0.000000  0.097267  1
  O  O22  1  0.246349  0.000000  0.096782  1
  O  O23  1  0.753592  0.500000  0.798180  1
  O  O24  1  0.503618  0.500000  0.896716  1
  O  O25  1  0.244744  0.500000  0.998257  1
  O  O26  1  0.005767  0.500000  0.897156  1
  O  O27  1  0.760698  0.500000  0.998068  1
  O  O28  1  0.504587  0.500000  0.698487  1
  O  O29  1  0.255382  0.500000  0.798266  1
  O  O30  1  0.751942  0.500000  0.400019  1
  O  O31  1  0.504025  0.500000  0.499848  1
  O  O32  1  0.253547  0.500000  0.599196  1
  O  O33  1  0.004916  0.500000  0.698858  1
  O  O34  1  0.754203  0.500000  0.599065  1
  O  O35  1  0.500838  0.500000  0.302253  1
  O  O36  1  0.252297  0.500000  0.400091  1
  O  O37  1  0.500870  0.500000  0.097305  1
  O  O38  1  0.251695  0.500000  0.199171  1
  O  O39  1  0.000993  0.500000  0.302220  1
  O  O40  1  0.750321  0.500000  0.199644  1
  O  O41  1  0.003602  0.500000  0.499697  1
  O  O42  1  0.000913  0.500000  0.096947  1
  O  O43  1  0.754408  0.000000  0.698453  1
  O  O44  1  0.753055  0.000000  0.499636  1
  O  O45  1  0.251141  0.000000  0.897149  1
  O  O46  1  0.750483  0.000000  0.302653  1
  O  O47  1  0.254423  0.000000  0.698660  1
  O  O48  1  0.253129  0.000000  0.499782  1
  O  O49  1  0.250871  0.000000  0.302195  1
