# generated using pymatgen
data_Sr(NO3)2
_symmetry_space_group_name_H-M   'P 1'
_cell_length_a   7.91861275
_cell_length_b   7.91861275
_cell_length_c   7.91861275
_cell_angle_alpha   90.00000000
_cell_angle_beta   90.00000000
_cell_angle_gamma   90.00000000
_symmetry_Int_Tables_number   1
_chemical_formula_structural   Sr(NO3)2
_chemical_formula_sum   'Sr4 N8 O24'
_cell_volume   496.53208213
_cell_formula_units_Z   4
loop_
 _symmetry_equiv_pos_site_id
 _symmetry_equiv_pos_as_xyz
  1  'x, y, z'
loop_
 _atom_site_type_symbol
 _atom_site_label
 _atom_site_symmetry_multiplicity
 _atom_site_fract_x
 _atom_site_fract_y
 _atom_site_fract_z
 _atom_site_occupancy
  Sr  Sr0  1  0.000000  0.500000  0.500000  1
  Sr  Sr1  1  0.500000  0.500000  0.000000  1
  Sr  Sr2  1  0.500000  0.000000  0.500000  1
  Sr  Sr3  1  0.000000  0.000000  0.000000  1
  N  N4  1  0.342416  0.342416  0.342416  1
  N  N5  1  0.342416  0.157584  0.842416  1
  N  N6  1  0.157584  0.842416  0.342416  1
  N  N7  1  0.842416  0.342416  0.157584  1
  N  N8  1  0.657584  0.657584  0.657584  1
  N  N9  1  0.157584  0.657584  0.842416  1
  N  N10  1  0.842416  0.157584  0.657584  1
  N  N11  1  0.657584  0.842416  0.157584  1
  O  O12  1  0.770582  0.283593  0.027222  1
  O  O13  1  0.216407  0.972778  0.270582  1
  O  O14  1  0.229418  0.783593  0.472778  1
  O  O15  1  0.270582  0.216407  0.972778  1
  O  O16  1  0.270582  0.283593  0.472778  1
  O  O17  1  0.472778  0.270582  0.283593  1
  O  O18  1  0.283593  0.472778  0.270582  1
  O  O19  1  0.216407  0.527222  0.770582  1
  O  O20  1  0.972778  0.229418  0.716407  1
  O  O21  1  0.716407  0.972778  0.229418  1
  O  O22  1  0.027222  0.729418  0.783593  1
  O  O23  1  0.527222  0.770582  0.216407  1
  O  O24  1  0.783593  0.027222  0.729418  1
  O  O25  1  0.770582  0.216407  0.527222  1
  O  O26  1  0.729418  0.783593  0.027222  1
  O  O27  1  0.229418  0.716407  0.972778  1
  O  O28  1  0.729418  0.716407  0.527222  1
  O  O29  1  0.527222  0.729418  0.716407  1
  O  O30  1  0.716407  0.527222  0.729418  1
  O  O31  1  0.783593  0.472778  0.229418  1
  O  O32  1  0.027222  0.770582  0.283593  1
  O  O33  1  0.283593  0.027222  0.770582  1
  O  O34  1  0.972778  0.270582  0.216407  1
  O  O35  1  0.472778  0.229418  0.783593  1
