# generated using pymatgen
data_RbSb3Se5
_symmetry_space_group_name_H-M   'P 1'
_cell_length_a   8.88770968
_cell_length_b   13.40075826
_cell_length_c   12.42516398
_cell_angle_alpha   90.00000000
_cell_angle_beta   128.04927789
_cell_angle_gamma   90.00000000
_symmetry_Int_Tables_number   1
_chemical_formula_structural   RbSb3Se5
_chemical_formula_sum   'Rb4 Sb12 Se20'
_cell_volume   1165.36352597
_cell_formula_units_Z   4
loop_
 _symmetry_equiv_pos_site_id
 _symmetry_equiv_pos_as_xyz
  1  'x, y, z'
loop_
 _atom_site_type_symbol
 _atom_site_label
 _atom_site_symmetry_multiplicity
 _atom_site_fract_x
 _atom_site_fract_y
 _atom_site_fract_z
 _atom_site_occupancy
  Rb  Rb0  1  0.322634  0.751667  0.697617  1
  Rb  Rb1  1  0.677366  0.251667  0.802383  1
  Rb  Rb2  1  0.677366  0.248333  0.302383  1
  Rb  Rb3  1  0.322634  0.748333  0.197617  1
  Sb  Sb4  1  0.186174  0.041077  0.178270  1
  Sb  Sb5  1  0.813826  0.541077  0.321730  1
  Sb  Sb6  1  0.813826  0.958923  0.821730  1
  Sb  Sb7  1  0.186174  0.458923  0.678270  1
  Sb  Sb8  1  0.141219  0.059823  0.459930  1
  Sb  Sb9  1  0.858781  0.559823  0.040070  1
  Sb  Sb10  1  0.858781  0.940177  0.540070  1
  Sb  Sb11  1  0.141219  0.440177  0.959930  1
  Sb  Sb12  1  0.753683  0.597747  0.630421  1
  Sb  Sb13  1  0.246317  0.097747  0.869579  1
  Sb  Sb14  1  0.246317  0.402253  0.369579  1
  Sb  Sb15  1  0.753683  0.902253  0.130421  1
  Se  Se16  1  0.821725  0.811053  0.964345  1
  Se  Se17  1  0.178275  0.311053  0.535655  1
  Se  Se18  1  0.178275  0.188947  0.035655  1
  Se  Se19  1  0.821725  0.688947  0.464345  1
  Se  Se20  1  0.824783  0.085789  0.098582  1
  Se  Se21  1  0.175217  0.585789  0.401418  1
  Se  Se22  1  0.175217  0.914211  0.901418  1
  Se  Se23  1  0.824783  0.414211  0.598582  1
  Se  Se24  1  0.109989  0.878445  0.355846  1
  Se  Se25  1  0.890011  0.378445  0.144154  1
  Se  Se26  1  0.890011  0.121555  0.644154  1
  Se  Se27  1  0.109989  0.621555  0.855846  1
  Se  Se28  1  0.357071  0.144669  0.405053  1
  Se  Se29  1  0.642929  0.644669  0.094947  1
  Se  Se30  1  0.642929  0.855331  0.594947  1
  Se  Se31  1  0.357071  0.355331  0.905053  1
  Se  Se32  1  0.401682  0.481798  0.213926  1
  Se  Se33  1  0.598318  0.981798  0.286074  1
  Se  Se34  1  0.598318  0.518202  0.786074  1
  Se  Se35  1  0.401682  0.018202  0.713926  1
