# generated using pymatgen
data_Te2SO7
_symmetry_space_group_name_H-M   'P 1'
_cell_length_a   4.77061153
_cell_length_b   7.12248296
_cell_length_c   9.06278579
_cell_angle_alpha   90.00000000
_cell_angle_beta   90.00000000
_cell_angle_gamma   90.00000000
_symmetry_Int_Tables_number   1
_chemical_formula_structural   Te2SO7
_chemical_formula_sum   'Te4 S2 O14'
_cell_volume   307.94076718
_cell_formula_units_Z   2
loop_
 _symmetry_equiv_pos_site_id
 _symmetry_equiv_pos_as_xyz
  1  'x, y, z'
loop_
 _atom_site_type_symbol
 _atom_site_label
 _atom_site_symmetry_multiplicity
 _atom_site_fract_x
 _atom_site_fract_y
 _atom_site_fract_z
 _atom_site_occupancy
  Te  Te0  1  0.752608  0.323000  0.697645  1
  Te  Te1  1  0.252608  0.677000  0.802355  1
  Te  Te2  1  0.252608  0.677000  0.197645  1
  Te  Te3  1  0.752608  0.323000  0.302355  1
  S  S4  1  0.173812  0.027207  0.500000  1
  S  S5  1  0.673812  0.972793  0.000000  1
  O  O6  1  0.270410  0.831520  0.500000  1
  O  O7  1  0.770410  0.168480  0.000000  1
  O  O8  1  0.113213  0.410842  0.762166  1
  O  O9  1  0.613213  0.589158  0.737834  1
  O  O10  1  0.613213  0.589158  0.262166  1
  O  O11  1  0.113213  0.410842  0.237834  1
  O  O12  1  0.996202  0.058212  0.363847  1
  O  O13  1  0.496202  0.941788  0.136153  1
  O  O14  1  0.496202  0.941788  0.863847  1
  O  O15  1  0.996202  0.058212  0.636153  1
  O  O16  1  0.906873  0.833990  0.000000  1
  O  O17  1  0.406873  0.166010  0.500000  1
  O  O18  1  0.336158  0.583686  0.000000  1
  O  O19  1  0.836158  0.416314  0.500000  1
