# generated using pymatgen
data_Ca10Si3S3(ClO12)2
_symmetry_space_group_name_H-M   'P 1'
_cell_length_a   9.77436832
_cell_length_b   6.82800037
_cell_length_c   9.84524622
_cell_angle_alpha   90.00000000
_cell_angle_beta   119.31570365
_cell_angle_gamma   90.00000000
_symmetry_Int_Tables_number   1
_chemical_formula_structural   Ca10Si3S3(ClO12)2
_chemical_formula_sum   'Ca10 Si3 S3 Cl2 O24'
_cell_volume   572.91868117
_cell_formula_units_Z   1
loop_
 _symmetry_equiv_pos_site_id
 _symmetry_equiv_pos_as_xyz
  1  'x, y, z'
loop_
 _atom_site_type_symbol
 _atom_site_label
 _atom_site_symmetry_multiplicity
 _atom_site_fract_x
 _atom_site_fract_y
 _atom_site_fract_z
 _atom_site_occupancy
  Ca  Ca0  1  0.028123  0.000000  0.260680  1
  Ca  Ca1  1  0.273933  0.000000  0.038621  1
  Ca  Ca2  1  0.661089  0.255108  0.313893  1
  Ca  Ca3  1  0.661089  0.744892  0.313893  1
  Ca  Ca4  1  0.260461  0.500000  0.245236  1
  Ca  Ca5  1  0.732901  0.000000  0.746079  1
  Ca  Ca6  1  0.325279  0.740108  0.645619  1
  Ca  Ca7  1  0.325279  0.259892  0.645619  1
  Ca  Ca8  1  0.773800  0.500000  0.040103  1
  Ca  Ca9  1  0.019198  0.500000  0.732224  1
  Si  Si10  1  0.403456  0.500000  0.024882  1
  Si  Si11  1  0.963219  0.500000  0.378988  1
  Si  Si12  1  0.385633  0.000000  0.413295  1
  S  S13  1  0.629765  0.500000  0.596313  1
  S  S14  1  0.031190  0.000000  0.624822  1
  S  S15  1  0.580816  0.000000  0.959146  1
  Cl  Cl16  1  0.992374  0.247240  0.987885  1
  Cl  Cl17  1  0.992374  0.752760  0.987885  1
  O  O18  1  0.906351  0.304116  0.264889  1
  O  O19  1  0.906351  0.695884  0.264889  1
  O  O20  1  0.597746  0.500000  0.121168  1
  O  O21  1  0.636072  0.000000  0.128937  1
  O  O22  1  0.356923  0.691081  0.096241  1
  O  O23  1  0.356923  0.308919  0.096241  1
  O  O24  1  0.857817  0.500000  0.469702  1
  O  O25  1  0.859033  0.000000  0.518431  1
  O  O26  1  0.512549  0.000000  0.349001  1
  O  O27  1  0.541986  0.500000  0.421747  1
  O  O28  1  0.268314  0.192815  0.358358  1
  O  O29  1  0.268314  0.807185  0.358358  1
  O  O30  1  0.730905  0.676620  0.651449  1
  O  O31  1  0.730905  0.323380  0.651449  1
  O  O32  1  0.472241  0.000000  0.607276  1
  O  O33  1  0.517293  0.500000  0.657688  1
  O  O34  1  0.150000  0.500000  0.506510  1
  O  O35  1  0.119398  0.000000  0.535325  1
  O  O36  1  0.639164  0.176469  0.913952  1
  O  O37  1  0.639164  0.823531  0.913952  1
  O  O38  1  0.322894  0.500000  0.834092  1
  O  O39  1  0.404820  0.000000  0.871254  1
  O  O40  1  0.082430  0.174630  0.726953  1
  O  O41  1  0.082430  0.825370  0.726953  1
