# generated using pymatgen
data_NaNd3Ti2(SbO7)2
_symmetry_space_group_name_H-M   'P 1'
_cell_length_a   7.43327679
_cell_length_b   7.38223466
_cell_length_c   12.80480643
_cell_angle_alpha   90.00000000
_cell_angle_beta   125.12655265
_cell_angle_gamma   90.00000000
_symmetry_Int_Tables_number   1
_chemical_formula_structural   NaNd3Ti2(SbO7)2
_chemical_formula_sum   'Na2 Nd6 Ti4 Sb4 O28'
_cell_volume   574.68840062
_cell_formula_units_Z   2
loop_
 _symmetry_equiv_pos_site_id
 _symmetry_equiv_pos_as_xyz
  1  'x, y, z'
loop_
 _atom_site_type_symbol
 _atom_site_label
 _atom_site_symmetry_multiplicity
 _atom_site_fract_x
 _atom_site_fract_y
 _atom_site_fract_z
 _atom_site_occupancy
  Na  Na0  1  0.500000  0.500000  0.500000  1
  Na  Na1  1  0.500000  0.500000  0.000000  1
  Nd  Nd2  1  0.000000  0.270553  0.250000  1
  Nd  Nd3  1  0.500000  0.257975  0.250000  1
  Nd  Nd4  1  0.500000  0.742025  0.750000  1
  Nd  Nd5  1  0.500000  0.000000  0.500000  1
  Nd  Nd6  1  0.000000  0.729447  0.750000  1
  Nd  Nd7  1  0.500000  0.000000  0.000000  1
  Ti  Ti8  1  0.000000  0.000000  0.000000  1
  Ti  Ti9  1  0.000000  0.000000  0.500000  1
  Ti  Ti10  1  0.000000  0.762132  0.250000  1
  Ti  Ti11  1  0.000000  0.237868  0.750000  1
  Sb  Sb12  1  0.500000  0.244937  0.750000  1
  Sb  Sb13  1  0.500000  0.755063  0.250000  1
  Sb  Sb14  1  0.000000  0.500000  0.500000  1
  Sb  Sb15  1  0.000000  0.500000  0.000000  1
  O  O16  1  0.371437  0.248619  0.372895  1
  O  O17  1  0.928404  0.053308  0.622409  1
  O  O18  1  0.924402  0.249899  0.424441  1
  O  O19  1  0.371437  0.751381  0.872895  1
  O  O20  1  0.321847  0.046266  0.622821  1
  O  O21  1  0.943537  0.554865  0.130924  1
  O  O22  1  0.928404  0.946692  0.122409  1
  O  O23  1  0.678153  0.046266  0.877179  1
  O  O24  1  0.318946  0.768199  0.319249  1
  O  O25  1  0.924402  0.750101  0.924441  1
  O  O26  1  0.681054  0.231801  0.680751  1
  O  O27  1  0.075598  0.249899  0.075559  1
  O  O28  1  0.327115  0.548997  0.127715  1
  O  O29  1  0.071596  0.053308  0.877591  1
  O  O30  1  0.321847  0.953734  0.122821  1
  O  O31  1  0.672885  0.548997  0.372285  1
  O  O32  1  0.943537  0.445135  0.630924  1
  O  O33  1  0.678153  0.953734  0.377179  1
  O  O34  1  0.681054  0.768199  0.180751  1
  O  O35  1  0.318946  0.231801  0.819249  1
  O  O36  1  0.628563  0.248619  0.127105  1
  O  O37  1  0.075598  0.750101  0.575559  1
  O  O38  1  0.056463  0.554865  0.369076  1
  O  O39  1  0.327115  0.451003  0.627715  1
  O  O40  1  0.071596  0.946692  0.377591  1
  O  O41  1  0.672885  0.451003  0.872285  1
  O  O42  1  0.628563  0.751381  0.627105  1
  O  O43  1  0.056463  0.445135  0.869076  1
