# generated using pymatgen
data_Cs2ZrTlOF5
_symmetry_space_group_name_H-M   'P 1'
_cell_length_a   6.81961645
_cell_length_b   6.81961645
_cell_length_c   6.81961645
_cell_angle_alpha   119.61822254
_cell_angle_beta   119.61822254
_cell_angle_gamma   90.66253977
_symmetry_Int_Tables_number   1
_chemical_formula_structural   Cs2ZrTlOF5
_chemical_formula_sum   'Cs2 Zr1 Tl1 O1 F5'
_cell_volume   225.54454819
_cell_formula_units_Z   1
loop_
 _symmetry_equiv_pos_site_id
 _symmetry_equiv_pos_as_xyz
  1  'x, y, z'
loop_
 _atom_site_type_symbol
 _atom_site_label
 _atom_site_symmetry_multiplicity
 _atom_site_fract_x
 _atom_site_fract_y
 _atom_site_fract_z
 _atom_site_occupancy
  Cs  Cs0  1  0.748346  0.248346  0.500000  1
  Cs  Cs1  1  0.248346  0.748346  0.500000  1
  Zr  Zr2  1  0.980998  0.980998  0.000000  1
  Tl  Tl3  1  0.513067  0.513067  0.000000  1
  O  O4  1  0.781170  0.781170  0.000000  1
  F  F5  1  0.219475  0.219475  0.429712  1
  F  F6  1  0.789763  0.219475  0.000000  1
  F  F7  1  0.219475  0.789763  1.000000  1
  F  F8  1  0.789763  0.789763  0.570288  1
  F  F9  1  0.209598  0.209598  0.000000  1
