# generated using pymatgen
data_Ca2SiO4
_symmetry_space_group_name_H-M   'P 1'
_cell_length_a   5.57569945
_cell_length_b   6.81557351
_cell_length_c   10.52285416
_cell_angle_alpha   90.00000000
_cell_angle_beta   117.30887022
_cell_angle_gamma   90.00000000
_symmetry_Int_Tables_number   1
_chemical_formula_structural   Ca2SiO4
_chemical_formula_sum   'Ca8 Si4 O16'
_cell_volume   355.31646695
_cell_formula_units_Z   4
loop_
 _symmetry_equiv_pos_site_id
 _symmetry_equiv_pos_as_xyz
  1  'x, y, z'
loop_
 _atom_site_type_symbol
 _atom_site_label
 _atom_site_symmetry_multiplicity
 _atom_site_fract_x
 _atom_site_fract_y
 _atom_site_fract_z
 _atom_site_occupancy
  Ca  Ca0  1  0.481161  0.503316  0.202515  1
  Ca  Ca1  1  0.518839  0.003316  0.297485  1
  Ca  Ca2  1  0.518839  0.496684  0.797485  1
  Ca  Ca3  1  0.481161  0.996684  0.702515  1
  Ca  Ca4  1  0.204475  0.158916  0.930974  1
  Ca  Ca5  1  0.795525  0.658916  0.569026  1
  Ca  Ca6  1  0.795525  0.841084  0.069026  1
  Ca  Ca7  1  0.204475  0.341084  0.430974  1
  Si  Si8  1  0.150278  0.718992  0.918463  1
  Si  Si9  1  0.849722  0.218992  0.581537  1
  Si  Si10  1  0.849722  0.281008  0.081537  1
  Si  Si11  1  0.150278  0.781008  0.418463  1
  O  O12  1  0.221195  0.830697  0.072309  1
  O  O13  1  0.778805  0.330697  0.427691  1
  O  O14  1  0.778805  0.169303  0.927691  1
  O  O15  1  0.221195  0.669303  0.572309  1
  O  O16  1  0.350759  0.832093  0.863782  1
  O  O17  1  0.649241  0.332093  0.636218  1
  O  O18  1  0.649241  0.167907  0.136218  1
  O  O19  1  0.350759  0.667907  0.363782  1
  O  O20  1  0.828278  0.748721  0.804402  1
  O  O21  1  0.171722  0.248721  0.695598  1
  O  O22  1  0.171722  0.251279  0.195598  1
  O  O23  1  0.828278  0.751279  0.304402  1
  O  O24  1  0.225148  0.012632  0.444055  1
  O  O25  1  0.774852  0.512632  0.055945  1
  O  O26  1  0.774852  0.987368  0.555945  1
  O  O27  1  0.225148  0.487368  0.944055  1
