# generated using pymatgen
data_Li5GaO4
_symmetry_space_group_name_H-M   'P 1'
_cell_length_a   9.19600448
_cell_length_b   9.26996408
_cell_length_c   9.29323621
_cell_angle_alpha   90.00000000
_cell_angle_beta   90.00000000
_cell_angle_gamma   90.00000000
_symmetry_Int_Tables_number   1
_chemical_formula_structural   Li5GaO4
_chemical_formula_sum   'Li40 Ga8 O32'
_cell_volume   792.21707993
_cell_formula_units_Z   8
loop_
 _symmetry_equiv_pos_site_id
 _symmetry_equiv_pos_as_xyz
  1  'x, y, z'
loop_
 _atom_site_type_symbol
 _atom_site_label
 _atom_site_symmetry_multiplicity
 _atom_site_fract_x
 _atom_site_fract_y
 _atom_site_fract_z
 _atom_site_occupancy
  Li  Li0  1  0.896594  0.381309  0.843014  1
  Li  Li1  1  0.396594  0.618691  0.656986  1
  Li  Li2  1  0.603406  0.881309  0.156986  1
  Li  Li3  1  0.103406  0.118691  0.343014  1
  Li  Li4  1  0.103406  0.618691  0.156986  1
  Li  Li5  1  0.603406  0.381309  0.343014  1
  Li  Li6  1  0.396594  0.118691  0.843014  1
  Li  Li7  1  0.896594  0.881309  0.656986  1
  Li  Li8  1  0.896458  0.126360  0.146751  1
  Li  Li9  1  0.396458  0.873640  0.353249  1
  Li  Li10  1  0.603542  0.626360  0.853249  1
  Li  Li11  1  0.103542  0.373640  0.646751  1
  Li  Li12  1  0.103542  0.873640  0.853249  1
  Li  Li13  1  0.603542  0.126360  0.646751  1
  Li  Li14  1  0.396458  0.373640  0.146751  1
  Li  Li15  1  0.896458  0.626360  0.353249  1
  Li  Li16  1  0.859232  0.387999  0.106495  1
  Li  Li17  1  0.359232  0.612001  0.393505  1
  Li  Li18  1  0.640768  0.887999  0.893505  1
  Li  Li19  1  0.836489  0.607489  0.619521  1
  Li  Li20  1  0.140768  0.612001  0.893505  1
  Li  Li21  1  0.640768  0.387999  0.606495  1
  Li  Li22  1  0.359232  0.112001  0.106495  1
  Li  Li23  1  0.859232  0.887999  0.393505  1
  Li  Li24  1  0.872580  0.146235  0.620925  1
  Li  Li25  1  0.372580  0.853765  0.879075  1
  Li  Li26  1  0.627420  0.646235  0.379075  1
  Li  Li27  1  0.127420  0.353765  0.120925  1
  Li  Li28  1  0.127420  0.853765  0.379075  1
  Li  Li29  1  0.627420  0.146235  0.120925  1
  Li  Li30  1  0.372580  0.353765  0.620925  1
  Li  Li31  1  0.872580  0.646235  0.879075  1
  Li  Li32  1  0.836489  0.107489  0.880479  1
  Li  Li33  1  0.336489  0.892511  0.619521  1
  Li  Li34  1  0.663511  0.607489  0.119521  1
  Li  Li35  1  0.163511  0.392511  0.380479  1
  Li  Li36  1  0.163511  0.892511  0.119521  1
  Li  Li37  1  0.663511  0.107489  0.380479  1
  Li  Li38  1  0.336489  0.392511  0.880479  1
  Li  Li39  1  0.140768  0.112001  0.606495  1
  Ga  Ga40  1  0.882724  0.354721  0.381973  1
  Ga  Ga41  1  0.382724  0.645279  0.118027  1
  Ga  Ga42  1  0.617276  0.854721  0.618027  1
  Ga  Ga43  1  0.117276  0.145279  0.881973  1
  Ga  Ga44  1  0.117276  0.645279  0.618027  1
  Ga  Ga45  1  0.617276  0.354721  0.881973  1
  Ga  Ga46  1  0.382724  0.145279  0.381973  1
  Ga  Ga47  1  0.882724  0.854721  0.118027  1
  O  O48  1  0.762149  0.250809  0.255086  1
  O  O49  1  0.262149  0.749191  0.244914  1
  O  O50  1  0.737851  0.750809  0.744914  1
  O  O51  1  0.237851  0.249191  0.755086  1
  O  O52  1  0.237851  0.749191  0.744914  1
  O  O53  1  0.737851  0.250809  0.755086  1
  O  O54  1  0.262149  0.249191  0.255086  1
  O  O55  1  0.762149  0.750809  0.244914  1
  O  O56  1  0.755895  0.490952  0.465598  1
  O  O57  1  0.255895  0.509048  0.034402  1
  O  O58  1  0.744105  0.990952  0.534402  1
  O  O59  1  0.244105  0.009048  0.965598  1
  O  O60  1  0.244105  0.509048  0.534402  1
  O  O61  1  0.744105  0.490952  0.965598  1
  O  O62  1  0.255895  0.009048  0.465598  1
  O  O63  1  0.755895  0.990952  0.034402  1
  O  O64  1  0.000359  0.466661  0.255659  1
  O  O65  1  0.500359  0.533339  0.244341  1
  O  O66  1  0.499641  0.966661  0.744341  1
  O  O67  1  0.999641  0.033339  0.755659  1
  O  O68  1  0.012584  0.750445  0.005457  1
  O  O69  1  0.499641  0.466661  0.755659  1
  O  O70  1  0.500359  0.033339  0.255659  1
  O  O71  1  0.000359  0.966661  0.244341  1
  O  O72  1  0.012584  0.250445  0.494543  1
  O  O73  1  0.512584  0.749555  0.005457  1
  O  O74  1  0.487416  0.750445  0.505457  1
  O  O75  1  0.987416  0.249555  0.994543  1
  O  O76  1  0.987416  0.749555  0.505457  1
  O  O77  1  0.487416  0.250445  0.994543  1
  O  O78  1  0.512584  0.249555  0.494543  1
  O  O79  1  0.999641  0.533339  0.744341  1
