# generated using pymatgen
data_AlPO4
_symmetry_space_group_name_H-M   'P 1'
_cell_length_a   5.12521550
_cell_length_b   5.12521550
_cell_length_c   7.16700421
_cell_angle_alpha   90.00000000
_cell_angle_beta   90.00000000
_cell_angle_gamma   90.09350749
_symmetry_Int_Tables_number   1
_chemical_formula_structural   AlPO4
_chemical_formula_sum   'Al2 P2 O8'
_cell_volume   188.26142526
_cell_formula_units_Z   2
loop_
 _symmetry_equiv_pos_site_id
 _symmetry_equiv_pos_as_xyz
  1  'x, y, z'
loop_
 _atom_site_type_symbol
 _atom_site_label
 _atom_site_symmetry_multiplicity
 _atom_site_fract_x
 _atom_site_fract_y
 _atom_site_fract_z
 _atom_site_occupancy
  Al  Al0  1  0.205039  0.205039  0.500000  1
  Al  Al1  1  0.794961  0.794961  0.000000  1
  P  P2  1  0.703876  0.296124  0.750000  1
  P  P3  1  0.296124  0.703876  0.250000  1
  O  O4  1  0.420246  0.258613  0.685656  1
  O  O5  1  0.579754  0.741387  0.185656  1
  O  O6  1  0.258613  0.420246  0.314344  1
  O  O7  1  0.741387  0.579754  0.814344  1
  O  O8  1  0.886599  0.239190  0.584782  1
  O  O9  1  0.113401  0.760810  0.084782  1
  O  O10  1  0.239190  0.886599  0.415218  1
  O  O11  1  0.760810  0.113401  0.915218  1
