# generated using pymatgen
data_Si2N2O
_symmetry_space_group_name_H-M   'P 1'
_cell_length_a   5.27070889
_cell_length_b   5.27070889
_cell_length_c   4.89529270
_cell_angle_alpha   90.00000000
_cell_angle_beta   90.00000000
_cell_angle_gamma   116.51545192
_symmetry_Int_Tables_number   1
_chemical_formula_structural   Si2N2O
_chemical_formula_sum   'Si4 N4 O2'
_cell_volume   121.68848736
_cell_formula_units_Z   2
loop_
 _symmetry_equiv_pos_site_id
 _symmetry_equiv_pos_as_xyz
  1  'x, y, z'
loop_
 _atom_site_type_symbol
 _atom_site_label
 _atom_site_symmetry_multiplicity
 _atom_site_fract_x
 _atom_site_fract_y
 _atom_site_fract_z
 _atom_site_occupancy
  Si  Si0  1  0.672479  0.026702  0.729183  1
  Si  Si1  1  0.327521  0.973298  0.229183  1
  Si  Si2  1  0.973298  0.327521  0.229183  1
  Si  Si3  1  0.026702  0.672479  0.729183  1
  N  N4  1  0.657080  0.096167  0.385105  1
  N  N5  1  0.342920  0.903833  0.885105  1
  N  N6  1  0.903833  0.342920  0.885105  1
  N  N7  1  0.096167  0.657080  0.385105  1
  O  O8  1  0.790680  0.790680  0.778703  1
  O  O9  1  0.209320  0.209320  0.278703  1
