# generated using pymatgen
data_Na3P11
_symmetry_space_group_name_H-M   'P 1'
_cell_length_a   9.91374086
_cell_length_b   10.63204943
_cell_length_c   12.61677265
_cell_angle_alpha   90.00000000
_cell_angle_beta   90.00000000
_cell_angle_gamma   90.00000000
_symmetry_Int_Tables_number   1
_chemical_formula_structural   Na3P11
_chemical_formula_sum   'Na12 P44'
_cell_volume   1329.85051808
_cell_formula_units_Z   4
loop_
 _symmetry_equiv_pos_site_id
 _symmetry_equiv_pos_as_xyz
  1  'x, y, z'
loop_
 _atom_site_type_symbol
 _atom_site_label
 _atom_site_symmetry_multiplicity
 _atom_site_fract_x
 _atom_site_fract_y
 _atom_site_fract_z
 _atom_site_occupancy
  Na  Na0  1  0.000000  0.750000  0.748800  1
  Na  Na1  1  0.500000  0.250000  0.751200  1
  Na  Na2  1  0.000000  0.250000  0.251200  1
  Na  Na3  1  0.500000  0.750000  0.248800  1
  Na  Na4  1  0.753129  0.077444  0.992428  1
  Na  Na5  1  0.253129  0.922556  0.507572  1
  Na  Na6  1  0.746871  0.577444  0.507572  1
  Na  Na7  1  0.246871  0.422556  0.992428  1
  Na  Na8  1  0.246871  0.922556  0.007572  1
  Na  Na9  1  0.746871  0.077444  0.492428  1
  Na  Na10  1  0.253129  0.422556  0.492428  1
  Na  Na11  1  0.753129  0.577444  0.007572  1
  P  P12  1  0.000000  0.750000  0.502877  1
  P  P13  1  0.500000  0.250000  0.997123  1
  P  P14  1  0.000000  0.250000  0.497123  1
  P  P15  1  0.500000  0.750000  0.002877  1
  P  P16  1  0.691334  0.262638  0.232570  1
  P  P17  1  0.191334  0.737362  0.267430  1
  P  P18  1  0.808666  0.762638  0.267430  1
  P  P19  1  0.308666  0.237362  0.232570  1
  P  P20  1  0.308666  0.737362  0.767430  1
  P  P21  1  0.808666  0.262638  0.732570  1
  P  P22  1  0.191334  0.237362  0.732570  1
  P  P23  1  0.691334  0.762638  0.767430  1
  P  P24  1  0.603456  0.070134  0.200398  1
  P  P25  1  0.103456  0.929866  0.299602  1
  P  P26  1  0.896544  0.570134  0.299602  1
  P  P27  1  0.396544  0.429866  0.200398  1
  P  P28  1  0.396544  0.929866  0.799602  1
  P  P29  1  0.896544  0.070134  0.700398  1
  P  P30  1  0.103456  0.429866  0.700398  1
  P  P31  1  0.603456  0.570134  0.799602  1
  P  P32  1  0.583118  0.381711  0.112398  1
  P  P33  1  0.083118  0.618289  0.387602  1
  P  P34  1  0.916882  0.881711  0.387602  1
  P  P35  1  0.416882  0.118289  0.112398  1
  P  P36  1  0.416882  0.618289  0.887602  1
  P  P37  1  0.916882  0.381711  0.612398  1
  P  P38  1  0.083118  0.118289  0.612398  1
  P  P39  1  0.583118  0.881711  0.887602  1
  P  P40  1  0.586514  0.316451  0.385240  1
  P  P41  1  0.086514  0.683549  0.114760  1
  P  P42  1  0.913486  0.816451  0.114760  1
  P  P43  1  0.413486  0.183549  0.385240  1
  P  P44  1  0.413486  0.683549  0.614760  1
  P  P45  1  0.913486  0.316451  0.885240  1
  P  P46  1  0.086514  0.183549  0.885240  1
  P  P47  1  0.586514  0.816451  0.614760  1
  P  P48  1  0.023146  0.990950  0.147428  1
  P  P49  1  0.523146  0.009050  0.352572  1
  P  P50  1  0.476854  0.490950  0.352572  1
  P  P51  1  0.976854  0.509050  0.147428  1
  P  P52  1  0.976854  0.009050  0.852572  1
  P  P53  1  0.476854  0.990950  0.647428  1
  P  P54  1  0.523146  0.509050  0.647428  1
  P  P55  1  0.023146  0.490950  0.852572  1
