# generated using pymatgen
data_CdCO3
_symmetry_space_group_name_H-M   'P 1'
_cell_length_a   6.24900422
_cell_length_b   6.24900422
_cell_length_c   6.24900422
_cell_angle_alpha   47.33189436
_cell_angle_beta   47.33189436
_cell_angle_gamma   47.33189436
_symmetry_Int_Tables_number   1
_chemical_formula_structural   CdCO3
_chemical_formula_sum   'Cd2 C2 O6'
_cell_volume   120.68863969
_cell_formula_units_Z   2
loop_
 _symmetry_equiv_pos_site_id
 _symmetry_equiv_pos_as_xyz
  1  'x, y, z'
loop_
 _atom_site_type_symbol
 _atom_site_label
 _atom_site_symmetry_multiplicity
 _atom_site_fract_x
 _atom_site_fract_y
 _atom_site_fract_z
 _atom_site_occupancy
  Cd  Cd0  1  0.500000  0.500000  0.500000  1
  Cd  Cd1  1  0.000000  0.000000  0.000000  1
  C  C2  1  0.250000  0.250000  0.250000  1
  C  C3  1  0.750000  0.750000  0.750000  1
  O  O4  1  0.508987  0.991013  0.250000  1
  O  O5  1  0.250000  0.508987  0.991013  1
  O  O6  1  0.008987  0.750000  0.491013  1
  O  O7  1  0.491013  0.008987  0.750000  1
  O  O8  1  0.750000  0.491013  0.008987  1
  O  O9  1  0.991013  0.250000  0.508987  1
