# generated using pymatgen
data_LiNi2P4H3O14
_symmetry_space_group_name_H-M   'P 1'
_cell_length_a   8.51811591
_cell_length_b   8.51811591
_cell_length_c   8.88551661
_cell_angle_alpha   69.21899423
_cell_angle_beta   110.78100577
_cell_angle_gamma   80.75686469
_symmetry_Int_Tables_number   1
_chemical_formula_structural   LiNi2P4H3O14
_chemical_formula_sum   'Li2 Ni4 P8 H6 O28'
_cell_volume   532.42887998
_cell_formula_units_Z   2
loop_
 _symmetry_equiv_pos_site_id
 _symmetry_equiv_pos_as_xyz
  1  'x, y, z'
loop_
 _atom_site_type_symbol
 _atom_site_label
 _atom_site_symmetry_multiplicity
 _atom_site_fract_x
 _atom_site_fract_y
 _atom_site_fract_z
 _atom_site_occupancy
  Li  Li0  1  0.356129  0.364278  0.742730  1
  Li  Li1  1  0.635722  0.643871  0.242730  1
  Ni  Ni2  1  0.998492  0.502963  0.002986  1
  Ni  Ni3  1  0.404626  0.405168  0.251330  1
  Ni  Ni4  1  0.594832  0.595374  0.751330  1
  Ni  Ni5  1  0.497037  0.001508  0.502986  1
  P  P6  1  0.144842  0.285788  0.434934  1
  P  P7  1  0.234230  0.676997  0.816868  1
  P  P8  1  0.279695  0.143830  0.071558  1
  P  P9  1  0.323003  0.765770  0.316868  1
  P  P10  1  0.676305  0.232171  0.685392  1
  P  P11  1  0.714212  0.855158  0.934934  1
  P  P12  1  0.767829  0.323695  0.185392  1
  P  P13  1  0.856170  0.720305  0.571558  1
  H  H14  1  0.473229  0.025320  0.990652  1
  H  H15  1  0.058694  0.731241  0.207302  1
  H  H16  1  0.268759  0.941306  0.707302  1
  H  H17  1  0.730627  0.061817  0.289974  1
  H  H18  1  0.938183  0.269373  0.789974  1
  H  H19  1  0.974680  0.526771  0.490652  1
  O  O20  1  0.094986  0.278417  0.961476  1
  O  O21  1  0.050237  0.734572  0.643276  1
  O  O22  1  0.212643  0.574721  0.983681  1
  O  O23  1  0.139951  0.380037  0.550952  1
  O  O24  1  0.370670  0.142683  0.945736  1
  O  O25  1  0.255791  0.855335  0.812760  1
  O  O26  1  0.276417  0.096411  0.540151  1
  O  O27  1  0.168685  0.396386  0.269835  1
  O  O28  1  0.144665  0.744209  0.312760  1
  O  O29  1  0.374766  0.569061  0.793342  1
  O  O30  1  0.396661  0.167210  0.232152  1
  O  O31  1  0.265428  0.949763  0.143276  1
  O  O32  1  0.425279  0.787357  0.483681  1
  O  O33  1  0.568613  0.375457  0.706476  1
  O  O34  1  0.430939  0.625234  0.293342  1
  O  O35  1  0.574161  0.212881  0.516615  1
  O  O36  1  0.734091  0.049533  0.856875  1
  O  O37  1  0.603614  0.831315  0.769835  1
  O  O38  1  0.624543  0.431387  0.206476  1
  O  O39  1  0.853127  0.257188  0.685048  1
  O  O40  1  0.832790  0.603339  0.732152  1
  O  O41  1  0.721583  0.905014  0.461476  1
  O  O42  1  0.742812  0.146873  0.185048  1
  O  O43  1  0.619963  0.860049  0.050952  1
  O  O44  1  0.857317  0.629330  0.445736  1
  O  O45  1  0.787119  0.425839  0.016615  1
  O  O46  1  0.950467  0.265909  0.356875  1
  O  O47  1  0.903589  0.723583  0.040151  1
