# generated using pymatgen
data_MgSiO3
_symmetry_space_group_name_H-M   'P 1'
_cell_length_a   6.53392182
_cell_length_b   6.53392182
_cell_length_c   5.05995853
_cell_angle_alpha   80.58816884
_cell_angle_beta   99.41183116
_cell_angle_gamma   93.51326988
_symmetry_Int_Tables_number   1
_chemical_formula_structural   MgSiO3
_chemical_formula_sum   'Mg4 Si4 O12'
_cell_volume   210.11119833
_cell_formula_units_Z   4
loop_
 _symmetry_equiv_pos_site_id
 _symmetry_equiv_pos_as_xyz
  1  'x, y, z'
loop_
 _atom_site_type_symbol
 _atom_site_label
 _atom_site_symmetry_multiplicity
 _atom_site_fract_x
 _atom_site_fract_y
 _atom_site_fract_z
 _atom_site_occupancy
  Mg  Mg0  1  0.096968  0.096968  0.750000  1
  Mg  Mg1  1  0.903032  0.903032  0.250000  1
  Mg  Mg2  1  0.729564  0.729564  0.750000  1
  Mg  Mg3  1  0.270436  0.270436  0.250000  1
  Si  Si4  1  0.612306  0.207256  0.782787  1
  Si  Si5  1  0.207256  0.612306  0.717213  1
  Si  Si6  1  0.387694  0.792744  0.217213  1
  Si  Si7  1  0.792744  0.387694  0.282787  1
  O  O8  1  0.705104  0.408273  0.573736  1
  O  O9  1  0.408273  0.705104  0.926264  1
  O  O10  1  0.294896  0.591727  0.426264  1
  O  O11  1  0.591727  0.294896  0.073736  1
  O  O12  1  0.854309  0.612989  0.131929  1
  O  O13  1  0.612989  0.854309  0.368071  1
  O  O14  1  0.145691  0.387011  0.868071  1
  O  O15  1  0.387011  0.145691  0.631929  1
  O  O16  1  0.786980  0.029173  0.858335  1
  O  O17  1  0.029173  0.786980  0.641665  1
  O  O18  1  0.213020  0.970827  0.141665  1
  O  O19  1  0.970827  0.213020  0.358335  1
