# generated using pymatgen
data_Ag2CO3
_symmetry_space_group_name_H-M   'P 1'
_cell_length_a   3.35736498
_cell_length_b   9.78172473
_cell_length_c   5.03154282
_cell_angle_alpha   90.00000000
_cell_angle_beta   97.18544459
_cell_angle_gamma   90.00000000
_symmetry_Int_Tables_number   1
_chemical_formula_structural   Ag2CO3
_chemical_formula_sum   'Ag4 C2 O6'
_cell_volume   163.94228170
_cell_formula_units_Z   2
loop_
 _symmetry_equiv_pos_site_id
 _symmetry_equiv_pos_as_xyz
  1  'x, y, z'
loop_
 _atom_site_type_symbol
 _atom_site_label
 _atom_site_symmetry_multiplicity
 _atom_site_fract_x
 _atom_site_fract_y
 _atom_site_fract_z
 _atom_site_occupancy
  Ag  Ag0  1  0.760744  0.430384  0.798407  1
  Ag  Ag1  1  0.239256  0.930384  0.201593  1
  Ag  Ag2  1  0.239256  0.569616  0.201593  1
  Ag  Ag3  1  0.760744  0.069616  0.798407  1
  C  C4  1  0.190232  0.250000  0.282635  1
  C  C5  1  0.809768  0.750000  0.717365  1
  O  O6  1  0.714683  0.864630  0.596709  1
  O  O7  1  0.285317  0.364630  0.403291  1
  O  O8  1  0.995831  0.250000  0.039815  1
  O  O9  1  0.004169  0.750000  0.960185  1
  O  O10  1  0.714683  0.635370  0.596709  1
  O  O11  1  0.285317  0.135370  0.403291  1
