# generated using pymatgen
data_K3TaO8
_symmetry_space_group_name_H-M   'P 1'
_cell_length_a   6.33497400
_cell_length_b   6.33497400
_cell_length_c   6.33497400
_cell_angle_alpha   113.97404575
_cell_angle_beta   113.97404575
_cell_angle_gamma   100.79843279
_symmetry_Int_Tables_number   1
_chemical_formula_structural   K3TaO8
_chemical_formula_sum   'K3 Ta1 O8'
_cell_volume   192.42011836
_cell_formula_units_Z   1
loop_
 _symmetry_equiv_pos_site_id
 _symmetry_equiv_pos_as_xyz
  1  'x, y, z'
loop_
 _atom_site_type_symbol
 _atom_site_label
 _atom_site_symmetry_multiplicity
 _atom_site_fract_x
 _atom_site_fract_y
 _atom_site_fract_z
 _atom_site_occupancy
  K  K0  1  0.750000  0.250000  0.500000  1
  K  K1  1  0.250000  0.750000  0.500000  1
  K  K2  1  0.500000  0.500000  0.000000  1
  Ta  Ta3  1  0.000000  0.000000  0.000000  1
  O  O4  1  0.325048  0.045492  1.000000  1
  O  O5  1  0.954508  0.954508  0.279556  1
  O  O6  1  0.674952  0.674952  0.720444  1
  O  O7  1  0.045492  0.325048  1.000000  1
  O  O8  1  0.231288  0.807232  0.000000  1
  O  O9  1  0.192768  0.192768  0.424056  1
  O  O10  1  0.768712  0.768712  0.575944  1
  O  O11  1  0.807232  0.231288  0.000000  1
