# generated using pymatgen
data_CaCO3
_symmetry_space_group_name_H-M   'P 1'
_cell_length_a   5.01605496
_cell_length_b   5.81207079
_cell_length_c   8.03479772
_cell_angle_alpha   90.00000000
_cell_angle_beta   90.00000000
_cell_angle_gamma   90.00000000
_symmetry_Int_Tables_number   1
_chemical_formula_structural   CaCO3
_chemical_formula_sum   'Ca4 C4 O12'
_cell_volume   234.24381324
_cell_formula_units_Z   4
loop_
 _symmetry_equiv_pos_site_id
 _symmetry_equiv_pos_as_xyz
  1  'x, y, z'
loop_
 _atom_site_type_symbol
 _atom_site_label
 _atom_site_symmetry_multiplicity
 _atom_site_fract_x
 _atom_site_fract_y
 _atom_site_fract_z
 _atom_site_occupancy
  Ca  Ca0  1  0.250000  0.759356  0.085061  1
  Ca  Ca1  1  0.750000  0.240644  0.914939  1
  Ca  Ca2  1  0.250000  0.259356  0.414939  1
  Ca  Ca3  1  0.750000  0.740644  0.585061  1
  C  C4  1  0.250000  0.916471  0.737792  1
  C  C5  1  0.750000  0.083529  0.262208  1
  C  C6  1  0.250000  0.416471  0.762208  1
  C  C7  1  0.750000  0.583529  0.237792  1
  O  O8  1  0.473913  0.413815  0.680432  1
  O  O9  1  0.973913  0.586185  0.319568  1
  O  O10  1  0.026087  0.913815  0.819568  1
  O  O11  1  0.526087  0.086185  0.180432  1
  O  O12  1  0.750000  0.592744  0.077178  1
  O  O13  1  0.250000  0.407256  0.922822  1
  O  O14  1  0.750000  0.092744  0.422822  1
  O  O15  1  0.250000  0.907256  0.577178  1
  O  O16  1  0.526087  0.586185  0.319568  1
  O  O17  1  0.026087  0.413815  0.680432  1
  O  O18  1  0.973913  0.086185  0.180432  1
  O  O19  1  0.473913  0.913815  0.819568  1
