# generated using pymatgen
data_Ca3Ti2O7
_symmetry_space_group_name_H-M   'P 1'
_cell_length_a   10.11364528
_cell_length_b   10.11364528
_cell_length_c   5.53728684
_cell_angle_alpha   90.00000000
_cell_angle_beta   90.00000000
_cell_angle_gamma   148.66162394
_symmetry_Int_Tables_number   1
_chemical_formula_structural   Ca3Ti2O7
_chemical_formula_sum   'Ca6 Ti4 O14'
_cell_volume   294.57239557
_cell_formula_units_Z   2
loop_
 _symmetry_equiv_pos_site_id
 _symmetry_equiv_pos_as_xyz
  1  'x, y, z'
loop_
 _atom_site_type_symbol
 _atom_site_label
 _atom_site_symmetry_multiplicity
 _atom_site_fract_x
 _atom_site_fract_y
 _atom_site_fract_z
 _atom_site_occupancy
  Ca  Ca0  1  0.253586  0.253586  0.961184  1
  Ca  Ca1  1  0.746414  0.746414  0.461184  1
  Ca  Ca2  1  0.553818  0.929128  0.544023  1
  Ca  Ca3  1  0.446182  0.070872  0.044023  1
  Ca  Ca4  1  0.929128  0.553818  0.544023  1
  Ca  Ca5  1  0.070872  0.446182  0.044023  1
  Ti  Ti6  1  0.151203  0.351233  0.511477  1
  Ti  Ti7  1  0.848797  0.648767  0.011477  1
  Ti  Ti8  1  0.648767  0.848797  0.011477  1
  Ti  Ti9  1  0.351233  0.151203  0.511477  1
  O  O10  1  0.155043  0.928236  0.784897  1
  O  O11  1  0.844957  0.071764  0.284897  1
  O  O12  1  0.071764  0.844957  0.284897  1
  O  O13  1  0.928236  0.155043  0.784897  1
  O  O14  1  0.622666  0.455076  0.702984  1
  O  O15  1  0.377334  0.544924  0.202984  1
  O  O16  1  0.544924  0.377334  0.202984  1
  O  O17  1  0.455076  0.622666  0.702984  1
  O  O18  1  0.879533  0.484031  0.973871  1
  O  O19  1  0.120467  0.515969  0.473871  1
  O  O20  1  0.824350  0.824350  0.012712  1
  O  O21  1  0.175650  0.175650  0.512712  1
  O  O22  1  0.484031  0.879533  0.973871  1
  O  O23  1  0.515969  0.120467  0.473871  1
