# generated using pymatgen
data_NaCO2
_symmetry_space_group_name_H-M   'P 1'
_cell_length_a   3.55141283
_cell_length_b   5.29731544
_cell_length_c   10.60019099
_cell_angle_alpha   90.00000000
_cell_angle_beta   93.73970843
_cell_angle_gamma   90.00000000
_symmetry_Int_Tables_number   1
_chemical_formula_structural   NaCO2
_chemical_formula_sum   'Na4 C4 O8'
_cell_volume   198.99626965
_cell_formula_units_Z   4
loop_
 _symmetry_equiv_pos_site_id
 _symmetry_equiv_pos_as_xyz
  1  'x, y, z'
loop_
 _atom_site_type_symbol
 _atom_site_label
 _atom_site_symmetry_multiplicity
 _atom_site_fract_x
 _atom_site_fract_y
 _atom_site_fract_z
 _atom_site_occupancy
  Na  Na0  1  0.702103  0.556832  0.144071  1
  Na  Na1  1  0.297897  0.056832  0.355929  1
  Na  Na2  1  0.297897  0.443168  0.855929  1
  Na  Na3  1  0.702103  0.943168  0.644071  1
  C  C4  1  0.886728  0.543902  0.436981  1
  C  C5  1  0.113272  0.043902  0.063019  1
  C  C6  1  0.113272  0.456098  0.563019  1
  C  C7  1  0.886728  0.956098  0.936981  1
  O  O8  1  0.838255  0.117531  0.848890  1
  O  O9  1  0.161745  0.617531  0.651110  1
  O  O10  1  0.161745  0.882469  0.151110  1
  O  O11  1  0.838255  0.382469  0.348890  1
  O  O12  1  0.769689  0.729916  0.932896  1
  O  O13  1  0.230311  0.229916  0.567104  1
  O  O14  1  0.230311  0.270084  0.067104  1
  O  O15  1  0.769689  0.770084  0.432896  1
