# generated using pymatgen
data_Sm3S3N
_symmetry_space_group_name_H-M   'P 1'
_cell_length_a   3.95208408
_cell_length_b   12.20386708
_cell_length_c   13.10427800
_cell_angle_alpha   90.00000000
_cell_angle_beta   90.00000000
_cell_angle_gamma   90.00000000
_symmetry_Int_Tables_number   1
_chemical_formula_structural   Sm3S3N
_chemical_formula_sum   'Sm12 S12 N4'
_cell_volume   632.02861627
_cell_formula_units_Z   4
loop_
 _symmetry_equiv_pos_site_id
 _symmetry_equiv_pos_as_xyz
  1  'x, y, z'
loop_
 _atom_site_type_symbol
 _atom_site_label
 _atom_site_symmetry_multiplicity
 _atom_site_fract_x
 _atom_site_fract_y
 _atom_site_fract_z
 _atom_site_occupancy
  Sm  Sm0  1  0.250000  0.046133  0.354508  1
  Sm  Sm1  1  0.750000  0.953867  0.645492  1
  Sm  Sm2  1  0.250000  0.546133  0.145492  1
  Sm  Sm3  1  0.750000  0.453867  0.854508  1
  Sm  Sm4  1  0.250000  0.215109  0.637345  1
  Sm  Sm5  1  0.750000  0.784891  0.362655  1
  Sm  Sm6  1  0.250000  0.715109  0.862655  1
  Sm  Sm7  1  0.750000  0.284891  0.137345  1
  Sm  Sm8  1  0.250000  0.571625  0.630578  1
  Sm  Sm9  1  0.750000  0.428375  0.369422  1
  Sm  Sm10  1  0.250000  0.071625  0.869422  1
  Sm  Sm11  1  0.750000  0.928375  0.130578  1
  S  S12  1  0.750000  0.225357  0.806419  1
  S  S13  1  0.750000  0.410223  0.604142  1
  S  S14  1  0.250000  0.089777  0.104142  1
  S  S15  1  0.250000  0.589777  0.395858  1
  S  S16  1  0.250000  0.365494  0.007802  1
  S  S17  1  0.750000  0.634506  0.992198  1
  S  S18  1  0.250000  0.865494  0.492198  1
  S  S19  1  0.750000  0.134506  0.507802  1
  S  S20  1  0.250000  0.774643  0.193581  1
  S  S21  1  0.750000  0.725357  0.693581  1
  S  S22  1  0.250000  0.274643  0.306419  1
  S  S23  1  0.750000  0.910223  0.895858  1
  N  N24  1  0.750000  0.461267  0.201514  1
  N  N25  1  0.250000  0.038733  0.701514  1
  N  N26  1  0.750000  0.961267  0.298486  1
  N  N27  1  0.250000  0.538733  0.798486  1
