# generated using pymatgen
data_In14Ga3Pt2O8F15
_symmetry_space_group_name_H-M   'P 1'
_cell_length_a   16.05675880
_cell_length_b   16.05675880
_cell_length_c   16.05675880
_cell_angle_alpha   26.01820265
_cell_angle_beta   26.01820265
_cell_angle_gamma   26.01820265
_symmetry_Int_Tables_number   1
_chemical_formula_structural   In14Ga3Pt2O8F15
_chemical_formula_sum   'In14 Ga3 Pt2 O8 F15'
_cell_volume   701.69338611
_cell_formula_units_Z   1
loop_
 _symmetry_equiv_pos_site_id
 _symmetry_equiv_pos_as_xyz
  1  'x, y, z'
loop_
 _atom_site_type_symbol
 _atom_site_label
 _atom_site_symmetry_multiplicity
 _atom_site_fract_x
 _atom_site_fract_y
 _atom_site_fract_z
 _atom_site_occupancy
  In  In0  1  0.850399  0.850399  0.850399  1
  In  In1  1  0.806656  0.297988  0.806113  1
  In  In2  1  0.297988  0.806113  0.806656  1
  In  In3  1  0.806113  0.806656  0.297988  1
  In  In4  1  0.413141  0.390924  0.908660  1
  In  In5  1  0.390924  0.908660  0.413141  1
  In  In6  1  0.908660  0.413141  0.390924  1
  In  In7  1  0.609076  0.091340  0.586859  1
  In  In8  1  0.091340  0.586859  0.609076  1
  In  In9  1  0.586859  0.609076  0.091340  1
  In  In10  1  0.193887  0.193344  0.702012  1
  In  In11  1  0.702012  0.193887  0.193344  1
  In  In12  1  0.193344  0.702012  0.193887  1
  In  In13  1  0.149601  0.149601  0.149601  1
  Ga  Ga14  1  0.699824  0.699824  0.699824  1
  Ga  Ga15  1  0.500000  0.500000  0.500000  1
  Ga  Ga16  1  0.300176  0.300176  0.300176  1
  Pt  Pt17  1  0.603591  0.603591  0.603591  1
  Pt  Pt18  1  0.396409  0.396409  0.396409  1
  O  O19  1  0.740584  0.740584  0.740584  1
  O  O20  1  0.827383  0.403142  0.827320  1
  O  O21  1  0.403142  0.827320  0.827383  1
  O  O22  1  0.827320  0.827383  0.403142  1
  O  O23  1  0.172680  0.172617  0.596858  1
  O  O24  1  0.172617  0.596858  0.172680  1
  O  O25  1  0.596858  0.172680  0.172617  1
  O  O26  1  0.259416  0.259416  0.259416  1
  F  F27  1  0.000000  0.000000  0.000000  1
  F  F28  1  0.945876  0.945876  0.945876  1
  F  F29  1  0.930260  0.456208  0.954029  1
  F  F30  1  0.456208  0.954029  0.930260  1
  F  F31  1  0.954029  0.930260  0.456208  1
  F  F32  1  0.428594  0.367536  0.774388  1
  F  F33  1  0.367536  0.774388  0.428594  1
  F  F34  1  0.774388  0.428594  0.367536  1
  F  F35  1  0.225612  0.571406  0.632464  1
  F  F36  1  0.632464  0.225612  0.571406  1
  F  F37  1  0.571406  0.632464  0.225612  1
  F  F38  1  0.045971  0.069740  0.543792  1
  F  F39  1  0.069740  0.543792  0.045971  1
  F  F40  1  0.543792  0.045971  0.069740  1
  F  F41  1  0.054124  0.054124  0.054124  1
