# generated using pymatgen
data_Ca11(CN5)2
_symmetry_space_group_name_H-M   'P 1'
_cell_length_a   14.57016175
_cell_length_b   14.57016175
_cell_length_c   3.61379865
_cell_angle_alpha   90.00000000
_cell_angle_beta   90.00000000
_cell_angle_gamma   90.00000000
_symmetry_Int_Tables_number   1
_chemical_formula_structural   Ca11(CN5)2
_chemical_formula_sum   'Ca22 C4 N20'
_cell_volume   767.17191839
_cell_formula_units_Z   2
loop_
 _symmetry_equiv_pos_site_id
 _symmetry_equiv_pos_as_xyz
  1  'x, y, z'
loop_
 _atom_site_type_symbol
 _atom_site_label
 _atom_site_symmetry_multiplicity
 _atom_site_fract_x
 _atom_site_fract_y
 _atom_site_fract_z
 _atom_site_occupancy
  Ca  Ca0  1  0.606339  0.881725  0.000000  1
  Ca  Ca1  1  0.393661  0.118275  0.000000  1
  Ca  Ca2  1  0.618275  0.106339  0.500000  1
  Ca  Ca3  1  0.381725  0.893661  0.500000  1
  Ca  Ca4  1  0.881725  0.606339  0.000000  1
  Ca  Ca5  1  0.106339  0.618275  0.500000  1
  Ca  Ca6  1  0.893661  0.381725  0.500000  1
  Ca  Ca7  1  0.118275  0.393661  0.000000  1
  Ca  Ca8  1  0.167252  0.832748  0.000000  1
  Ca  Ca9  1  0.332748  0.332748  0.500000  1
  Ca  Ca10  1  0.667252  0.667252  0.500000  1
  Ca  Ca11  1  0.832748  0.167252  0.000000  1
  Ca  Ca12  1  0.704788  0.480428  0.000000  1
  Ca  Ca13  1  0.295212  0.519572  0.000000  1
  Ca  Ca14  1  0.019572  0.204788  0.500000  1
  Ca  Ca15  1  0.980428  0.795212  0.500000  1
  Ca  Ca16  1  0.480428  0.704788  0.000000  1
  Ca  Ca17  1  0.204788  0.019572  0.500000  1
  Ca  Ca18  1  0.795212  0.980428  0.500000  1
  Ca  Ca19  1  0.519572  0.295212  0.000000  1
  Ca  Ca20  1  0.500000  0.500000  0.500000  1
  Ca  Ca21  1  0.000000  0.000000  0.000000  1
  C  C22  1  0.815798  0.815798  0.000000  1
  C  C23  1  0.315798  0.684202  0.500000  1
  C  C24  1  0.684202  0.315798  0.500000  1
  C  C25  1  0.184202  0.184202  0.000000  1
  N  N26  1  0.876265  0.876265  0.000000  1
  N  N27  1  0.376265  0.623735  0.500000  1
  N  N28  1  0.623735  0.376265  0.500000  1
  N  N29  1  0.123735  0.123735  0.000000  1
  N  N30  1  0.755841  0.755841  0.000000  1
  N  N31  1  0.255841  0.744159  0.500000  1
  N  N32  1  0.744159  0.255841  0.500000  1
  N  N33  1  0.244159  0.244159  0.000000  1
  N  N34  1  0.311230  0.972011  0.000000  1
  N  N35  1  0.688770  0.027989  0.000000  1
  N  N36  1  0.527989  0.811230  0.500000  1
  N  N37  1  0.472011  0.188770  0.500000  1
  N  N38  1  0.972011  0.311230  0.000000  1
  N  N39  1  0.811230  0.527989  0.500000  1
  N  N40  1  0.188770  0.472011  0.500000  1
  N  N41  1  0.027989  0.688770  0.000000  1
  N  N42  1  0.589769  0.589769  0.000000  1
  N  N43  1  0.089769  0.910231  0.500000  1
  N  N44  1  0.410231  0.410231  0.000000  1
  N  N45  1  0.910231  0.089769  0.500000  1
