# generated using pymatgen
data_TbAlO3
_symmetry_space_group_name_H-M   'P 1'
_cell_length_a   5.23635306
_cell_length_b   5.37614173
_cell_length_c   7.46483374
_cell_angle_alpha   90.00000000
_cell_angle_beta   90.00000000
_cell_angle_gamma   90.00000000
_symmetry_Int_Tables_number   1
_chemical_formula_structural   TbAlO3
_chemical_formula_sum   'Tb4 Al4 O12'
_cell_volume   210.14534288
_cell_formula_units_Z   4
loop_
 _symmetry_equiv_pos_site_id
 _symmetry_equiv_pos_as_xyz
  1  'x, y, z'
loop_
 _atom_site_type_symbol
 _atom_site_label
 _atom_site_symmetry_multiplicity
 _atom_site_fract_x
 _atom_site_fract_y
 _atom_site_fract_z
 _atom_site_occupancy
  Tb  Tb0  1  0.012357  0.051479  0.250000  1
  Tb  Tb1  1  0.512357  0.448521  0.750000  1
  Tb  Tb2  1  0.487643  0.551479  0.250000  1
  Tb  Tb3  1  0.987643  0.948521  0.750000  1
  Al  Al4  1  0.500000  0.000000  0.000000  1
  Al  Al5  1  0.000000  0.500000  0.000000  1
  Al  Al6  1  0.000000  0.500000  0.500000  1
  Al  Al7  1  0.500000  0.000000  0.500000  1
  O  O8  1  0.291662  0.291987  0.455786  1
  O  O9  1  0.791662  0.208013  0.544214  1
  O  O10  1  0.208338  0.791987  0.044214  1
  O  O11  1  0.708338  0.708013  0.955786  1
  O  O12  1  0.708338  0.708013  0.544214  1
  O  O13  1  0.208338  0.791987  0.455786  1
  O  O14  1  0.791662  0.208013  0.955786  1
  O  O15  1  0.291662  0.291987  0.044214  1
  O  O16  1  0.916507  0.478882  0.250000  1
  O  O17  1  0.416507  0.021118  0.750000  1
  O  O18  1  0.583493  0.978882  0.250000  1
  O  O19  1  0.083493  0.521118  0.750000  1
