# generated using pymatgen
data_Tl2SO4
_symmetry_space_group_name_H-M   'P 1'
_cell_length_a   5.98118433
_cell_length_b   7.97579446
_cell_length_c   10.93649062
_cell_angle_alpha   90.00000000
_cell_angle_beta   90.00000000
_cell_angle_gamma   90.00000000
_symmetry_Int_Tables_number   1
_chemical_formula_structural   Tl2SO4
_chemical_formula_sum   'Tl8 S4 O16'
_cell_volume   521.72196956
_cell_formula_units_Z   4
loop_
 _symmetry_equiv_pos_site_id
 _symmetry_equiv_pos_as_xyz
  1  'x, y, z'
loop_
 _atom_site_type_symbol
 _atom_site_label
 _atom_site_symmetry_multiplicity
 _atom_site_fract_x
 _atom_site_fract_y
 _atom_site_fract_z
 _atom_site_occupancy
  Tl  Tl0  1  0.250000  0.492558  0.698555  1
  Tl  Tl1  1  0.750000  0.507442  0.301445  1
  Tl  Tl2  1  0.250000  0.992558  0.801445  1
  Tl  Tl3  1  0.750000  0.007442  0.198555  1
  Tl  Tl4  1  0.250000  0.170272  0.417346  1
  Tl  Tl5  1  0.750000  0.829728  0.582654  1
  Tl  Tl6  1  0.250000  0.670272  0.082654  1
  Tl  Tl7  1  0.750000  0.329728  0.917346  1
  S  S8  1  0.250000  0.722010  0.422753  1
  S  S9  1  0.750000  0.277990  0.577247  1
  S  S10  1  0.250000  0.222010  0.077247  1
  S  S11  1  0.750000  0.777990  0.922753  1
  O  O12  1  0.955261  0.211305  0.639368  1
  O  O13  1  0.455261  0.788695  0.360632  1
  O  O14  1  0.544739  0.711305  0.860632  1
  O  O15  1  0.044739  0.288695  0.139368  1
  O  O16  1  0.044739  0.788695  0.360632  1
  O  O17  1  0.544739  0.211305  0.639368  1
  O  O18  1  0.455261  0.288695  0.139368  1
  O  O19  1  0.955261  0.711305  0.860632  1
  O  O20  1  0.250000  0.782591  0.553489  1
  O  O21  1  0.750000  0.217409  0.446511  1
  O  O22  1  0.250000  0.282591  0.946511  1
  O  O23  1  0.750000  0.717409  0.053489  1
  O  O24  1  0.750000  0.964907  0.919353  1
  O  O25  1  0.250000  0.035093  0.080647  1
  O  O26  1  0.750000  0.464907  0.580647  1
  O  O27  1  0.250000  0.535093  0.419353  1
