# generated using pymatgen
data_Li2Si2O5
_symmetry_space_group_name_H-M   'P 1'
_cell_length_a   7.96359414
_cell_length_b   7.96359414
_cell_length_c   4.84283429
_cell_angle_alpha   90.00000000
_cell_angle_beta   90.00000000
_cell_angle_gamma   136.61043204
_symmetry_Int_Tables_number   1
_chemical_formula_structural   Li2Si2O5
_chemical_formula_sum   'Li4 Si4 O10'
_cell_volume   210.98241878
_cell_formula_units_Z   2
loop_
 _symmetry_equiv_pos_site_id
 _symmetry_equiv_pos_as_xyz
  1  'x, y, z'
loop_
 _atom_site_type_symbol
 _atom_site_label
 _atom_site_symmetry_multiplicity
 _atom_site_fract_x
 _atom_site_fract_y
 _atom_site_fract_z
 _atom_site_occupancy
  Li  Li0  1  0.095026  0.210557  0.596548  1
  Li  Li1  1  0.210557  0.095026  0.096548  1
  Li  Li2  1  0.789443  0.904974  0.096548  1
  Li  Li3  1  0.904974  0.789443  0.596548  1
  Si  Si4  1  0.196135  0.492629  0.093281  1
  Si  Si5  1  0.803865  0.507371  0.093281  1
  Si  Si6  1  0.507371  0.803865  0.593281  1
  Si  Si7  1  0.492629  0.196135  0.593281  1
  O  O8  1  0.759284  0.902701  0.501032  1
  O  O9  1  0.902701  0.759284  0.001032  1
  O  O10  1  0.500000  0.000000  0.537193  1
  O  O11  1  0.240716  0.097299  0.501032  1
  O  O12  1  0.000000  0.500000  0.037193  1
  O  O13  1  0.545668  0.270388  0.927087  1
  O  O14  1  0.270388  0.545668  0.427087  1
  O  O15  1  0.729612  0.454332  0.427087  1
  O  O16  1  0.454332  0.729612  0.927087  1
  O  O17  1  0.097299  0.240716  0.001032  1
