# generated using pymatgen
data_Na3Sr3AlP4
_symmetry_space_group_name_H-M   'P 1'
_cell_length_a   9.43700926
_cell_length_b   9.43700926
_cell_length_c   7.39839095
_cell_angle_alpha   90.00000000
_cell_angle_beta   90.00000000
_cell_angle_gamma   120.00000000
_symmetry_Int_Tables_number   1
_chemical_formula_structural   Na3Sr3AlP4
_chemical_formula_sum   'Na6 Sr6 Al2 P8'
_cell_volume   570.60644273
_cell_formula_units_Z   2
loop_
 _symmetry_equiv_pos_site_id
 _symmetry_equiv_pos_as_xyz
  1  'x, y, z'
loop_
 _atom_site_type_symbol
 _atom_site_label
 _atom_site_symmetry_multiplicity
 _atom_site_fract_x
 _atom_site_fract_y
 _atom_site_fract_z
 _atom_site_occupancy
  Na  Na0  1  0.728138  0.864069  0.170512  1
  Na  Na1  1  0.864069  0.135931  0.670512  1
  Na  Na2  1  0.864069  0.728138  0.670512  1
  Na  Na3  1  0.135931  0.271862  0.170512  1
  Na  Na4  1  0.135931  0.864069  0.170512  1
  Na  Na5  1  0.271862  0.135931  0.670512  1
  Sr  Sr6  1  0.048187  0.524094  0.498926  1
  Sr  Sr7  1  0.475906  0.951813  0.498926  1
  Sr  Sr8  1  0.475906  0.524094  0.498926  1
  Sr  Sr9  1  0.524094  0.475906  0.998926  1
  Sr  Sr10  1  0.524094  0.048187  0.998926  1
  Sr  Sr11  1  0.951813  0.475906  0.998926  1
  Al  Al12  1  0.333333  0.666667  0.873982  1
  Al  Al13  1  0.666667  0.333333  0.373982  1
  P  P14  1  0.666667  0.333333  0.709975  1
  P  P15  1  0.616307  0.808154  0.778976  1
  P  P16  1  0.808154  0.191846  0.278976  1
  P  P17  1  0.808154  0.616307  0.278976  1
  P  P18  1  0.333333  0.666667  0.209975  1
  P  P19  1  0.191846  0.383693  0.778976  1
  P  P20  1  0.191846  0.808154  0.778976  1
  P  P21  1  0.383693  0.191846  0.278976  1
