# generated using pymatgen
data_AsSClOF8
_symmetry_space_group_name_H-M   'P 1'
_cell_length_a   8.49197734
_cell_length_b   9.09052752
_cell_length_c   12.34647307
_cell_angle_alpha   90.00000000
_cell_angle_beta   127.31186633
_cell_angle_gamma   90.00000000
_symmetry_Int_Tables_number   1
_chemical_formula_structural   AsSClOF8
_chemical_formula_sum   'As4 S4 Cl4 O4 F32'
_cell_volume   758.05025404
_cell_formula_units_Z   4
loop_
 _symmetry_equiv_pos_site_id
 _symmetry_equiv_pos_as_xyz
  1  'x, y, z'
loop_
 _atom_site_type_symbol
 _atom_site_label
 _atom_site_symmetry_multiplicity
 _atom_site_fract_x
 _atom_site_fract_y
 _atom_site_fract_z
 _atom_site_occupancy
  As  As0  1  0.694790  0.186413  0.440613  1
  As  As1  1  0.305210  0.686413  0.059387  1
  As  As2  1  0.694790  0.313587  0.940613  1
  As  As3  1  0.305210  0.813587  0.559387  1
  S  S4  1  0.129292  0.178420  0.877674  1
  S  S5  1  0.870708  0.678420  0.622326  1
  S  S6  1  0.129292  0.321580  0.377674  1
  S  S7  1  0.870708  0.821580  0.122326  1
  Cl  Cl8  1  0.351934  0.204180  0.063920  1
  Cl  Cl9  1  0.648066  0.704180  0.436080  1
  Cl  Cl10  1  0.351934  0.295820  0.563920  1
  Cl  Cl11  1  0.648066  0.795820  0.936080  1
  O  O12  1  0.980756  0.803088  0.696483  1
  O  O13  1  0.019244  0.303088  0.803517  1
  O  O14  1  0.980756  0.696912  0.196483  1
  O  O15  1  0.019244  0.196912  0.303517  1
  F  F16  1  0.205782  0.091886  0.811554  1
  F  F17  1  0.948490  0.231922  0.527035  1
  F  F18  1  0.995221  0.555787  0.622547  1
  F  F19  1  0.336066  0.851822  0.996713  1
  F  F20  1  0.561096  0.649364  0.148965  1
  F  F21  1  0.246710  0.589214  0.915734  1
  F  F22  1  0.722814  0.025695  0.373766  1
  F  F23  1  0.637483  0.286726  0.295094  1
  F  F24  1  0.753290  0.089214  0.584266  1
  F  F25  1  0.663934  0.351822  0.503287  1
  F  F26  1  0.004779  0.055787  0.877453  1
  F  F27  1  0.362517  0.786726  0.204906  1
  F  F28  1  0.051510  0.731922  0.972965  1
  F  F29  1  0.277186  0.525695  0.126234  1
  F  F30  1  0.794218  0.591886  0.688446  1
  F  F31  1  0.438904  0.149364  0.351035  1
  F  F32  1  0.561096  0.850636  0.648965  1
  F  F33  1  0.205782  0.408114  0.311554  1
  F  F34  1  0.722814  0.474305  0.873766  1
  F  F35  1  0.948490  0.268078  0.027035  1
  F  F36  1  0.637483  0.213274  0.795094  1
  F  F37  1  0.995221  0.944213  0.122547  1
  F  F38  1  0.336066  0.648178  0.496713  1
  F  F39  1  0.246710  0.910786  0.415734  1
  F  F40  1  0.362517  0.713274  0.704906  1
  F  F41  1  0.277186  0.974305  0.626234  1
  F  F42  1  0.753290  0.410786  0.084266  1
  F  F43  1  0.438904  0.350636  0.851035  1
  F  F44  1  0.663934  0.148178  0.003287  1
  F  F45  1  0.004779  0.444213  0.377453  1
  F  F46  1  0.051510  0.768078  0.472965  1
  F  F47  1  0.794218  0.908114  0.188446  1
