# generated using pymatgen
data_Sr2SnO4
_symmetry_space_group_name_H-M   'P 1'
_cell_length_a   6.92674962
_cell_length_b   6.92674962
_cell_length_c   5.91903626
_cell_angle_alpha   90.00000000
_cell_angle_beta   90.00000000
_cell_angle_gamma   130.49971556
_symmetry_Int_Tables_number   1
_chemical_formula_structural   Sr2SnO4
_chemical_formula_sum   'Sr4 Sn2 O8'
_cell_volume   215.95205270
_cell_formula_units_Z   2
loop_
 _symmetry_equiv_pos_site_id
 _symmetry_equiv_pos_as_xyz
  1  'x, y, z'
loop_
 _atom_site_type_symbol
 _atom_site_label
 _atom_site_symmetry_multiplicity
 _atom_site_fract_x
 _atom_site_fract_y
 _atom_site_fract_z
 _atom_site_occupancy
  Sr  Sr0  1  0.852784  0.147216  0.514596  1
  Sr  Sr1  1  0.147216  0.852784  0.485404  1
  Sr  Sr2  1  0.647216  0.352784  0.014596  1
  Sr  Sr3  1  0.352784  0.647216  0.985404  1
  Sn  Sn4  1  0.500000  0.500000  0.500000  1
  Sn  Sn5  1  0.000000  0.000000  0.000000  1
  O  O6  1  0.663179  0.336821  0.442803  1
  O  O7  1  0.336821  0.663179  0.557197  1
  O  O8  1  0.836821  0.163179  0.942803  1
  O  O9  1  0.163179  0.836821  0.057197  1
  O  O10  1  0.271648  0.228352  0.750000  1
  O  O11  1  0.228352  0.271648  0.250000  1
  O  O12  1  0.771648  0.728352  0.750000  1
  O  O13  1  0.728352  0.771648  0.250000  1
