# generated using pymatgen
data_ScAlO3
_symmetry_space_group_name_H-M   'P 1'
_cell_length_a   4.97364037
_cell_length_b   5.26420252
_cell_length_c   7.29769513
_cell_angle_alpha   90.00000000
_cell_angle_beta   90.00000000
_cell_angle_gamma   90.00000000
_symmetry_Int_Tables_number   1
_chemical_formula_structural   ScAlO3
_chemical_formula_sum   'Sc4 Al4 O12'
_cell_volume   191.07007955
_cell_formula_units_Z   4
loop_
 _symmetry_equiv_pos_site_id
 _symmetry_equiv_pos_as_xyz
  1  'x, y, z'
loop_
 _atom_site_type_symbol
 _atom_site_label
 _atom_site_symmetry_multiplicity
 _atom_site_fract_x
 _atom_site_fract_y
 _atom_site_fract_z
 _atom_site_occupancy
  Sc  Sc0  1  0.478041  0.431694  0.750000  1
  Sc  Sc1  1  0.978041  0.068306  0.250000  1
  Sc  Sc2  1  0.021959  0.931694  0.750000  1
  Sc  Sc3  1  0.521959  0.568306  0.250000  1
  Al  Al4  1  0.500000  0.000000  0.000000  1
  Al  Al5  1  0.000000  0.500000  0.000000  1
  Al  Al6  1  0.000000  0.500000  0.500000  1
  Al  Al7  1  0.500000  0.000000  0.500000  1
  O  O8  1  0.192266  0.195096  0.937558  1
  O  O9  1  0.692266  0.304904  0.062442  1
  O  O10  1  0.307734  0.695096  0.562442  1
  O  O11  1  0.807734  0.804904  0.437558  1
  O  O12  1  0.807734  0.804904  0.062442  1
  O  O13  1  0.307734  0.695096  0.937558  1
  O  O14  1  0.692266  0.304904  0.437558  1
  O  O15  1  0.192266  0.195096  0.562442  1
  O  O16  1  0.122058  0.454477  0.250000  1
  O  O17  1  0.622058  0.045523  0.750000  1
  O  O18  1  0.377942  0.954477  0.250000  1
  O  O19  1  0.877942  0.545523  0.750000  1
