# generated using pymatgen
data_Ca3TiAl2Si3O13F2
_symmetry_space_group_name_H-M   'P 1'
_cell_length_a   5.42294840
_cell_length_b   7.07817931
_cell_length_c   14.81945423
_cell_angle_alpha   84.00444167
_cell_angle_beta   87.21267985
_cell_angle_gamma   75.34761483
_symmetry_Int_Tables_number   1
_chemical_formula_structural   Ca3TiAl2Si3O13F2
_chemical_formula_sum   'Ca6 Ti2 Al4 Si6 O26 F4'
_cell_volume   547.18307905
_cell_formula_units_Z   2
loop_
 _symmetry_equiv_pos_site_id
 _symmetry_equiv_pos_as_xyz
  1  'x, y, z'
loop_
 _atom_site_type_symbol
 _atom_site_label
 _atom_site_symmetry_multiplicity
 _atom_site_fract_x
 _atom_site_fract_y
 _atom_site_fract_z
 _atom_site_occupancy
  Ca  Ca0  1  0.613411  0.474160  0.774988  1
  Ca  Ca1  1  0.281414  0.802640  0.446098  1
  Ca  Ca2  1  0.940547  0.140933  0.112319  1
  Ca  Ca3  1  0.718586  0.197360  0.553902  1
  Ca  Ca4  1  0.386589  0.525840  0.225012  1
  Ca  Ca5  1  0.059453  0.859067  0.887681  1
  Ti  Ti6  1  0.500000  0.000000  0.000000  1
  Ti  Ti7  1  0.500000  0.500000  0.000000  1
  Al  Al8  1  0.166477  0.331997  0.664294  1
  Al  Al9  1  0.166704  0.832679  0.665061  1
  Al  Al10  1  0.833523  0.668003  0.335706  1
  Al  Al11  1  0.833296  0.167321  0.334939  1
  Si  Si12  1  0.588216  0.976879  0.766910  1
  Si  Si13  1  0.252057  0.312604  0.438668  1
  Si  Si14  1  0.922099  0.644944  0.110677  1
  Si  Si15  1  0.747943  0.687396  0.561332  1
  Si  Si16  1  0.411784  0.023121  0.233090  1
  Si  Si17  1  0.077901  0.355056  0.889323  1
  O  O18  1  0.456889  0.814870  0.586271  1
  O  O19  1  0.503612  0.184613  0.699864  1
  O  O20  1  0.121094  0.150788  0.256623  1
  O  O21  1  0.283320  0.361394  0.543331  1
  O  O22  1  0.377648  0.842923  0.764393  1
  O  O23  1  0.170809  0.520437  0.371220  1
  O  O24  1  0.957840  0.821207  0.565056  1
  O  O25  1  0.046711  0.301879  0.785803  1
  O  O26  1  0.796198  0.496055  0.914342  1
  O  O27  1  0.953289  0.698121  0.214197  1
  O  O28  1  0.042160  0.178793  0.434944  1
  O  O29  1  0.853098  0.845590  0.039733  1
  O  O30  1  0.829191  0.479563  0.628780  1
  O  O31  1  0.622352  0.157077  0.235607  1
  O  O32  1  0.716680  0.638606  0.456669  1
  O  O33  1  0.596735  0.226928  0.021977  1
  O  O34  1  0.878906  0.849212  0.743377  1
  O  O35  1  0.619071  0.030804  0.871065  1
  O  O36  1  0.712613  0.512393  0.107543  1
  O  O37  1  0.496388  0.815387  0.300136  1
  O  O38  1  0.287387  0.487607  0.892457  1
  O  O39  1  0.380929  0.969196  0.128935  1
  O  O40  1  0.543111  0.185130  0.413729  1
  O  O41  1  0.403265  0.773072  0.978023  1
  O  O42  1  0.146902  0.154410  0.960267  1
  O  O43  1  0.203802  0.503945  0.085658  1
  F  F44  1  0.255328  0.559650  0.687710  1
  F  F45  1  0.921803  0.894954  0.359244  1
  F  F46  1  0.078197  0.105046  0.640756  1
  F  F47  1  0.744672  0.440350  0.312290  1
