# generated using pymatgen
data_Tl2SeO4
_symmetry_space_group_name_H-M   'P 1'
_cell_length_a   5.98999599
_cell_length_b   8.14918705
_cell_length_c   11.68176108
_cell_angle_alpha   90.00000000
_cell_angle_beta   90.00000000
_cell_angle_gamma   90.00000000
_symmetry_Int_Tables_number   1
_chemical_formula_structural   Tl2SeO4
_chemical_formula_sum   'Tl8 Se4 O16'
_cell_volume   570.22878639
_cell_formula_units_Z   4
loop_
 _symmetry_equiv_pos_site_id
 _symmetry_equiv_pos_as_xyz
  1  'x, y, z'
loop_
 _atom_site_type_symbol
 _atom_site_label
 _atom_site_symmetry_multiplicity
 _atom_site_fract_x
 _atom_site_fract_y
 _atom_site_fract_z
 _atom_site_occupancy
  Tl  Tl0  1  0.250000  0.683113  0.082089  1
  Tl  Tl1  1  0.750000  0.316887  0.917911  1
  Tl  Tl2  1  0.250000  0.183113  0.417911  1
  Tl  Tl3  1  0.750000  0.816887  0.582089  1
  Tl  Tl4  1  0.250000  0.475811  0.723324  1
  Tl  Tl5  1  0.750000  0.524189  0.276676  1
  Tl  Tl6  1  0.250000  0.975811  0.776676  1
  Tl  Tl7  1  0.750000  0.024189  0.223324  1
  Se  Se8  1  0.250000  0.712435  0.429088  1
  Se  Se9  1  0.750000  0.287565  0.570912  1
  Se  Se10  1  0.250000  0.212435  0.070912  1
  Se  Se11  1  0.750000  0.787565  0.929088  1
  O  O12  1  0.250000  0.517770  0.383147  1
  O  O13  1  0.750000  0.482230  0.616853  1
  O  O14  1  0.250000  0.017770  0.116853  1
  O  O15  1  0.750000  0.982230  0.883147  1
  O  O16  1  0.250000  0.724952  0.573538  1
  O  O17  1  0.750000  0.275048  0.426462  1
  O  O18  1  0.250000  0.224952  0.926462  1
  O  O19  1  0.750000  0.775048  0.073538  1
  O  O20  1  0.982572  0.192628  0.618059  1
  O  O21  1  0.482572  0.807372  0.381941  1
  O  O22  1  0.517428  0.692628  0.881941  1
  O  O23  1  0.017428  0.307372  0.118059  1
  O  O24  1  0.982572  0.692628  0.881941  1
  O  O25  1  0.482572  0.307372  0.118059  1
  O  O26  1  0.517428  0.192628  0.618059  1
  O  O27  1  0.017428  0.807372  0.381941  1
