# generated using pymatgen
data_Ba(SbSe2)2
_symmetry_space_group_name_H-M   'P 1'
_cell_length_a   8.78131583
_cell_length_b   21.30377419
_cell_length_c   12.68212166
_cell_angle_alpha   90.00000000
_cell_angle_beta   132.84823116
_cell_angle_gamma   90.00000000
_symmetry_Int_Tables_number   1
_chemical_formula_structural   Ba(SbSe2)2
_chemical_formula_sum   'Ba8 Sb16 Se32'
_cell_volume   1739.42391368
_cell_formula_units_Z   8
loop_
 _symmetry_equiv_pos_site_id
 _symmetry_equiv_pos_as_xyz
  1  'x, y, z'
loop_
 _atom_site_type_symbol
 _atom_site_label
 _atom_site_symmetry_multiplicity
 _atom_site_fract_x
 _atom_site_fract_y
 _atom_site_fract_z
 _atom_site_occupancy
  Ba  Ba0  1  0.156027  0.204633  0.101643  1
  Ba  Ba1  1  0.843973  0.704633  0.398357  1
  Ba  Ba2  1  0.843973  0.795367  0.898357  1
  Ba  Ba3  1  0.156027  0.295367  0.601643  1
  Ba  Ba4  1  0.344603  0.805485  0.399506  1
  Ba  Ba5  1  0.655397  0.305485  0.100494  1
  Ba  Ba6  1  0.655397  0.194515  0.600494  1
  Ba  Ba7  1  0.344603  0.694515  0.899506  1
  Sb  Sb8  1  0.895708  0.034011  0.090548  1
  Sb  Sb9  1  0.104292  0.534010  0.409452  1
  Sb  Sb10  1  0.104292  0.965989  0.909452  1
  Sb  Sb11  1  0.895708  0.465989  0.590548  1
  Sb  Sb12  1  0.486536  0.005320  0.645209  1
  Sb  Sb13  1  0.513464  0.505320  0.854791  1
  Sb  Sb14  1  0.513464  0.994680  0.354791  1
  Sb  Sb15  1  0.486536  0.494680  0.145209  1
  Sb  Sb16  1  0.870276  0.387853  0.880109  1
  Sb  Sb17  1  0.129724  0.887853  0.619891  1
  Sb  Sb18  1  0.129724  0.612147  0.119891  1
  Sb  Sb19  1  0.870276  0.112147  0.380109  1
  Sb  Sb20  1  0.337587  0.378532  0.352677  1
  Sb  Sb21  1  0.662413  0.878532  0.147323  1
  Sb  Sb22  1  0.662413  0.621468  0.647323  1
  Sb  Sb23  1  0.337587  0.121468  0.852677  1
  Se  Se24  1  0.304232  0.145790  0.634054  1
  Se  Se25  1  0.695768  0.645790  0.865946  1
  Se  Se26  1  0.695768  0.854210  0.365946  1
  Se  Se27  1  0.304232  0.354210  0.134054  1
  Se  Se28  1  0.893936  0.075142  0.893039  1
  Se  Se29  1  0.106064  0.575142  0.606961  1
  Se  Se30  1  0.106064  0.924858  0.106961  1
  Se  Se31  1  0.893936  0.424858  0.393039  1
  Se  Se32  1  0.267242  0.652988  0.428244  1
  Se  Se33  1  0.732758  0.152988  0.071756  1
  Se  Se34  1  0.732758  0.347012  0.571756  1
  Se  Se35  1  0.267242  0.847012  0.928244  1
  Se  Se36  1  0.519448  0.466687  0.663155  1
  Se  Se37  1  0.480552  0.966687  0.836845  1
  Se  Se38  1  0.480552  0.533313  0.336845  1
  Se  Se39  1  0.519448  0.033313  0.163155  1
  Se  Se40  1  0.268953  0.086641  0.320124  1
  Se  Se41  1  0.731047  0.586641  0.179876  1
  Se  Se42  1  0.731047  0.913359  0.679876  1
  Se  Se43  1  0.268953  0.413359  0.820124  1
  Se  Se44  1  0.139951  0.937774  0.430446  1
  Se  Se45  1  0.860049  0.437774  0.069554  1
  Se  Se46  1  0.860049  0.062226  0.569554  1
  Se  Se47  1  0.139951  0.562226  0.930446  1
  Se  Se48  1  0.815672  0.728202  0.647377  1
  Se  Se49  1  0.184328  0.228202  0.852623  1
  Se  Se50  1  0.184328  0.271798  0.352623  1
  Se  Se51  1  0.815672  0.771798  0.147377  1
  Se  Se52  1  0.695953  0.218319  0.351390  1
  Se  Se53  1  0.304047  0.718319  0.148610  1
  Se  Se54  1  0.304047  0.781681  0.648610  1
  Se  Se55  1  0.695953  0.281681  0.851390  1
