# generated using pymatgen
data_Li2B4O7
_symmetry_space_group_name_H-M   'P 1'
_cell_length_a   8.66788994
_cell_length_b   8.66788994
_cell_length_c   8.66788994
_cell_angle_alpha   112.86462257
_cell_angle_beta   112.86462257
_cell_angle_gamma   102.87882322
_symmetry_Int_Tables_number   1
_chemical_formula_structural   Li2B4O7
_chemical_formula_sum   'Li8 B16 O28'
_cell_volume   496.42517385
_cell_formula_units_Z   4
loop_
 _symmetry_equiv_pos_site_id
 _symmetry_equiv_pos_as_xyz
  1  'x, y, z'
loop_
 _atom_site_type_symbol
 _atom_site_label
 _atom_site_symmetry_multiplicity
 _atom_site_fract_x
 _atom_site_fract_y
 _atom_site_fract_z
 _atom_site_occupancy
  Li  Li0  1  0.172881  0.018298  0.515734  1
  Li  Li1  1  0.768298  0.752564  0.345417  1
  Li  Li2  1  0.407147  0.422881  0.654583  1
  Li  Li3  1  0.502564  0.657147  0.484266  1
  Li  Li4  1  0.672881  0.157147  0.154583  1
  Li  Li5  1  0.002564  0.518298  0.845417  1
  Li  Li6  1  0.907147  0.252564  0.984266  1
  Li  Li7  1  0.268298  0.922881  0.015734  1
  B  B8  1  0.031310  0.121196  0.247833  1
  B  B9  1  0.871196  0.123362  0.589886  1
  B  B10  1  0.533477  0.281310  0.410114  1
  B  B11  1  0.873362  0.783477  0.752167  1
  B  B12  1  0.531310  0.283477  0.910114  1
  B  B13  1  0.373362  0.621196  0.089886  1
  B  B14  1  0.033477  0.623362  0.252167  1
  B  B15  1  0.371196  0.781310  0.747833  1
  B  B16  1  0.132319  0.471537  0.434040  1
  B  B17  1  0.221537  0.287496  0.839218  1
  B  B18  1  0.448278  0.382319  0.160782  1
  B  B19  1  0.037496  0.698278  0.565960  1
  B  B20  1  0.632319  0.198278  0.660782  1
  B  B21  1  0.537496  0.971537  0.339218  1
  B  B22  1  0.948278  0.787496  0.065960  1
  B  B23  1  0.721537  0.882319  0.934040  1
  O  O24  1  0.147578  0.298932  0.406267  1
  O  O25  1  0.048932  0.142665  0.651354  1
  O  O26  1  0.491311  0.397578  0.348646  1
  O  O27  1  0.892665  0.741311  0.593733  1
  O  O28  1  0.647578  0.241311  0.848646  1
  O  O29  1  0.392665  0.798932  0.151354  1
  O  O30  1  0.991311  0.642665  0.093733  1
  O  O31  1  0.548932  0.897578  0.906267  1
  O  O32  1  0.079730  0.979929  0.248396  1
  O  O33  1  0.729929  0.981533  0.400199  1
  O  O34  1  0.581334  0.329730  0.599801  1
  O  O35  1  0.731533  0.831334  0.751604  1
  O  O36  1  0.579730  0.331334  0.099801  1
  O  O37  1  0.231533  0.479929  0.900199  1
  O  O38  1  0.081334  0.481533  0.251604  1
  O  O39  1  0.229929  0.829730  0.748396  1
  O  O40  1  0.868326  0.085282  0.091042  1
  O  O41  1  0.835282  0.244240  0.716956  1
  O  O42  1  0.527284  0.118326  0.283044  1
  O  O43  1  0.994240  0.777284  0.908958  1
  O  O44  1  0.368326  0.277284  0.783044  1
  O  O45  1  0.494240  0.585282  0.216956  1
  O  O46  1  0.027284  0.744240  0.408958  1
  O  O47  1  0.335282  0.618326  0.591042  1
  O  O48  1  0.008058  0.508058  0.500000  1
  O  O49  1  0.258058  0.258058  0.000000  1
  O  O50  1  0.508058  0.008058  0.500000  1
  O  O51  1  0.758058  0.758058  0.000000  1
