# generated using pymatgen
data_ZrSiO4
_symmetry_space_group_name_H-M   'P 1'
_cell_length_a   5.62319399
_cell_length_b   5.62319399
_cell_length_c   5.62319399
_cell_angle_alpha   106.76857643
_cell_angle_beta   106.76857643
_cell_angle_gamma   115.02328604
_symmetry_Int_Tables_number   1
_chemical_formula_structural   ZrSiO4
_chemical_formula_sum   'Zr2 Si2 O8'
_cell_volume   135.90266141
_cell_formula_units_Z   2
loop_
 _symmetry_equiv_pos_site_id
 _symmetry_equiv_pos_as_xyz
  1  'x, y, z'
loop_
 _atom_site_type_symbol
 _atom_site_label
 _atom_site_symmetry_multiplicity
 _atom_site_fract_x
 _atom_site_fract_y
 _atom_site_fract_z
 _atom_site_occupancy
  Zr  Zr0  1  1.000000  0.000000  0.000000  1
  Zr  Zr1  1  0.250000  0.750000  0.500000  1
  Si  Si2  1  0.500000  0.500000  0.000000  1
  Si  Si3  1  0.750000  0.250000  0.500000  1
  O  O4  1  0.496740  0.679925  0.816815  1
  O  O5  1  0.929925  0.613110  0.683185  1
  O  O6  1  0.929925  0.246740  0.316815  1
  O  O7  1  0.863110  0.679925  0.183185  1
  O  O8  1  0.320075  0.136890  0.816815  1
  O  O9  1  0.753260  0.070075  0.683185  1
  O  O10  1  0.386890  0.070075  0.316815  1
  O  O11  1  0.320075  0.503260  0.183185  1
