# generated using pymatgen
data_Ca3Ti2AlSi3O14F
_symmetry_space_group_name_H-M   'P 1'
_cell_length_a   5.46422232
_cell_length_b   7.10454134
_cell_length_c   14.95858796
_cell_angle_alpha   83.73673744
_cell_angle_beta   87.22298063
_cell_angle_gamma   75.57209635
_symmetry_Int_Tables_number   1
_chemical_formula_structural   Ca3Ti2AlSi3O14F
_chemical_formula_sum   'Ca6 Ti4 Al2 Si6 O28 F2'
_cell_volume   558.89669712
_cell_formula_units_Z   2
loop_
 _symmetry_equiv_pos_site_id
 _symmetry_equiv_pos_as_xyz
  1  'x, y, z'
loop_
 _atom_site_type_symbol
 _atom_site_label
 _atom_site_symmetry_multiplicity
 _atom_site_fract_x
 _atom_site_fract_y
 _atom_site_fract_z
 _atom_site_occupancy
  Ca  Ca0  1  0.447295  0.638148  0.609612  1
  Ca  Ca1  1  0.106703  0.973490  0.279811  1
  Ca  Ca2  1  0.772865  0.307828  0.941969  1
  Ca  Ca3  1  0.552705  0.361852  0.390388  1
  Ca  Ca4  1  0.227135  0.692172  0.058031  1
  Ca  Ca5  1  0.893297  0.026510  0.720189  1
  Ti  Ti6  1  0.665938  0.833878  0.169281  1
  Ti  Ti7  1  0.667163  0.333208  0.167686  1
  Ti  Ti8  1  0.334062  0.166122  0.830719  1
  Ti  Ti9  1  0.332837  0.666792  0.832314  1
  Al  Al10  1  0.000000  0.500000  0.500000  1
  Al  Al11  1  0.000000  0.000000  0.500000  1
  Si  Si12  1  0.421734  0.143972  0.600653  1
  Si  Si13  1  0.088177  0.478841  0.277634  1
  Si  Si14  1  0.758403  0.810319  0.939422  1
  Si  Si15  1  0.578266  0.856028  0.399347  1
  Si  Si16  1  0.241597  0.189681  0.060578  1
  Si  Si17  1  0.911823  0.521159  0.722366  1
  O  O18  1  0.289053  0.981889  0.422451  1
  O  O19  1  0.336339  0.352417  0.534643  1
  O  O20  1  0.961452  0.328967  0.084054  1
  O  O21  1  0.119653  0.531341  0.380227  1
  O  O22  1  0.211085  0.011539  0.598165  1
  O  O23  1  0.018549  0.680340  0.207619  1
  O  O24  1  0.788915  0.988461  0.401835  1
  O  O25  1  0.880347  0.468659  0.619773  1
  O  O26  1  0.762029  0.061769  0.191075  1
  O  O27  1  0.630808  0.658632  0.747060  1
  O  O28  1  0.790806  0.868483  0.040990  1
  O  O29  1  0.879348  0.346761  0.274820  1
  O  O30  1  0.685057  0.011220  0.869304  1
  O  O31  1  0.663661  0.647583  0.465357  1
  O  O32  1  0.451036  0.321641  0.062580  1
  O  O33  1  0.547296  0.802029  0.296130  1
  O  O34  1  0.427378  0.391999  0.854268  1
  O  O35  1  0.710947  0.018111  0.577549  1
  O  O36  1  0.572622  0.608001  0.145732  1
  O  O37  1  0.452704  0.197971  0.703870  1
  O  O38  1  0.548964  0.678359  0.937420  1
  O  O39  1  0.314943  0.988780  0.130696  1
  O  O40  1  0.120652  0.653239  0.725180  1
  O  O41  1  0.209194  0.131517  0.959010  1
  O  O42  1  0.369192  0.341368  0.252940  1
  O  O43  1  0.237971  0.938231  0.808925  1
  O  O44  1  0.981451  0.319660  0.792381  1
  O  O45  1  0.038548  0.671033  0.915946  1
  F  F46  1  0.087828  0.727388  0.523878  1
  F  F47  1  0.912172  0.272612  0.476122  1
