# generated using pymatgen
data_NdP5O14
_symmetry_space_group_name_H-M   'P 1'
_cell_length_a   8.91431285
_cell_length_b   9.17748138
_cell_length_c   13.18110952
_cell_angle_alpha   90.00000000
_cell_angle_beta   90.29563512
_cell_angle_gamma   90.00000000
_symmetry_Int_Tables_number   1
_chemical_formula_structural   NdP5O14
_chemical_formula_sum   'Nd4 P20 O56'
_cell_volume   1078.34460816
_cell_formula_units_Z   4
loop_
 _symmetry_equiv_pos_site_id
 _symmetry_equiv_pos_as_xyz
  1  'x, y, z'
loop_
 _atom_site_type_symbol
 _atom_site_label
 _atom_site_symmetry_multiplicity
 _atom_site_fract_x
 _atom_site_fract_y
 _atom_site_fract_z
 _atom_site_occupancy
  Nd  Nd0  1  0.724036  0.311746  0.000760  1
  Nd  Nd1  1  0.275964  0.811746  0.499240  1
  Nd  Nd2  1  0.275964  0.688254  0.999240  1
  Nd  Nd3  1  0.724036  0.188254  0.500760  1
  P  P4  1  0.504960  0.996784  0.702898  1
  P  P5  1  0.495040  0.496784  0.797102  1
  P  P6  1  0.495040  0.003216  0.297102  1
  P  P7  1  0.504960  0.503216  0.202898  1
  P  P8  1  0.768273  0.950785  0.836409  1
  P  P9  1  0.231727  0.450785  0.663591  1
  P  P10  1  0.231727  0.049215  0.163591  1
  P  P11  1  0.768273  0.549215  0.336409  1
  P  P12  1  0.684726  0.746698  0.000033  1
  P  P13  1  0.315274  0.246698  0.499967  1
  P  P14  1  0.315274  0.253302  0.999967  1
  P  P15  1  0.684726  0.753302  0.500033  1
  P  P16  1  0.757309  0.953274  0.164380  1
  P  P17  1  0.242691  0.453274  0.335620  1
  P  P18  1  0.242691  0.046726  0.835620  1
  P  P19  1  0.757309  0.546726  0.664380  1
  P  P20  1  0.996037  0.001670  0.324998  1
  P  P21  1  0.003963  0.501670  0.175002  1
  P  P22  1  0.003963  0.998330  0.675002  1
  P  P23  1  0.996037  0.498330  0.824998  1
  O  O24  1  0.414728  0.884566  0.648765  1
  O  O25  1  0.585272  0.384566  0.851235  1
  O  O26  1  0.585272  0.115434  0.351235  1
  O  O27  1  0.414728  0.615434  0.148765  1
  O  O28  1  0.587515  0.114531  0.649546  1
  O  O29  1  0.412485  0.614531  0.850454  1
  O  O30  1  0.412485  0.885469  0.350454  1
  O  O31  1  0.587515  0.385469  0.149546  1
  O  O32  1  0.620380  0.908047  0.776273  1
  O  O33  1  0.379620  0.408047  0.723727  1
  O  O34  1  0.379620  0.091953  0.223727  1
  O  O35  1  0.620380  0.591953  0.276273  1
  O  O36  1  0.768750  0.095153  0.885724  1
  O  O37  1  0.231250  0.595153  0.614276  1
  O  O38  1  0.231250  0.904847  0.114276  1
  O  O39  1  0.768750  0.404847  0.385724  1
  O  O40  1  0.788058  0.815799  0.909330  1
  O  O41  1  0.211942  0.315799  0.590670  1
  O  O42  1  0.211942  0.184201  0.090670  1
  O  O43  1  0.713583  0.587214  0.999812  1
  O  O44  1  0.788058  0.684201  0.409330  1
  O  O45  1  0.469308  0.310135  0.503206  1
  O  O46  1  0.469308  0.189865  0.003206  1
  O  O47  1  0.530692  0.689865  0.496794  1
  O  O48  1  0.081855  0.615488  0.877264  1
  O  O49  1  0.918145  0.115488  0.622736  1
  O  O50  1  0.918145  0.384512  0.122736  1
  O  O51  1  0.081855  0.884512  0.377264  1
  O  O52  1  0.920367  0.379566  0.882045  1
  O  O53  1  0.079633  0.879566  0.617955  1
  O  O54  1  0.079633  0.620434  0.117955  1
  O  O55  1  0.920367  0.120434  0.382045  1
  O  O56  1  0.874480  0.580424  0.751083  1
  O  O57  1  0.125520  0.080424  0.748917  1
  O  O58  1  0.125520  0.419576  0.248917  1
  O  O59  1  0.874480  0.919576  0.251083  1
  O  O60  1  0.099536  0.418648  0.739271  1
  O  O61  1  0.900464  0.918648  0.760729  1
  O  O62  1  0.900464  0.581352  0.260729  1
  O  O63  1  0.099536  0.081352  0.239271  1
  O  O64  1  0.774767  0.405997  0.611383  1
  O  O65  1  0.225233  0.905997  0.888617  1
  O  O66  1  0.225233  0.594003  0.388617  1
  O  O67  1  0.774767  0.094003  0.111383  1
  O  O68  1  0.778972  0.687167  0.596885  1
  O  O69  1  0.221028  0.187167  0.903115  1
  O  O70  1  0.221028  0.312833  0.403115  1
  O  O71  1  0.778972  0.812833  0.096885  1
  O  O72  1  0.401365  0.423037  0.287251  1
  O  O73  1  0.598635  0.923037  0.212749  1
  O  O74  1  0.598635  0.576963  0.712749  1
  O  O75  1  0.401365  0.076963  0.787251  1
  O  O76  1  0.713583  0.912786  0.499812  1
  O  O77  1  0.286417  0.412786  0.000188  1
  O  O78  1  0.286417  0.087214  0.500188  1
  O  O79  1  0.530692  0.810135  0.996794  1
