# generated using pymatgen
data_Rb2Mn3Se4
_symmetry_space_group_name_H-M   'P 1'
_cell_length_a   9.85437888
_cell_length_b   9.85437888
_cell_length_c   9.85437888
_cell_angle_alpha   142.94918234
_cell_angle_beta   105.19336201
_cell_angle_gamma   86.54992420
_symmetry_Int_Tables_number   1
_chemical_formula_structural   Rb2Mn3Se4
_chemical_formula_sum   'Rb4 Mn6 Se8'
_cell_volume   537.85395216
_cell_formula_units_Z   2
loop_
 _symmetry_equiv_pos_site_id
 _symmetry_equiv_pos_as_xyz
  1  'x, y, z'
loop_
 _atom_site_type_symbol
 _atom_site_label
 _atom_site_symmetry_multiplicity
 _atom_site_fract_x
 _atom_site_fract_y
 _atom_site_fract_z
 _atom_site_occupancy
  Rb  Rb0  1  0.877838  0.763155  0.640993  1
  Rb  Rb1  1  0.622162  0.263155  0.885317  1
  Rb  Rb2  1  0.377838  0.736845  0.114684  1
  Rb  Rb3  1  0.122162  0.236845  0.359007  1
  Mn  Mn4  1  0.978253  0.750000  0.228253  1
  Mn  Mn5  1  0.521747  0.750000  0.771747  1
  Mn  Mn6  1  0.021747  0.250000  0.771747  1
  Mn  Mn7  1  0.750000  0.250000  0.500000  1
  Mn  Mn8  1  0.250000  0.750000  0.500000  1
  Mn  Mn9  1  0.478253  0.250000  0.228253  1
  Se  Se10  1  0.485922  0.631919  0.412068  1
  Se  Se11  1  0.014078  0.426146  0.145997  1
  Se  Se12  1  0.280149  0.868081  0.854003  1
  Se  Se13  1  0.219851  0.073854  0.587932  1
  Se  Se14  1  0.514078  0.368081  0.587932  1
  Se  Se15  1  0.985922  0.573854  0.854003  1
  Se  Se16  1  0.719851  0.131919  0.145997  1
  Se  Se17  1  0.780149  0.926146  0.412068  1
