# generated using pymatgen
data_Nd6Al7Si5N3O25
_symmetry_space_group_name_H-M   'P 1'
_cell_length_a   8.01854003
_cell_length_b   8.02283524
_cell_length_c   9.92885911
_cell_angle_alpha   89.13376255
_cell_angle_beta   89.41244462
_cell_angle_gamma   60.67263660
_symmetry_Int_Tables_number   1
_chemical_formula_structural   Nd6Al7Si5N3O25
_chemical_formula_sum   'Nd6 Al7 Si5 N3 O25'
_cell_volume   556.80751928
_cell_formula_units_Z   1
loop_
 _symmetry_equiv_pos_site_id
 _symmetry_equiv_pos_as_xyz
  1  'x, y, z'
loop_
 _atom_site_type_symbol
 _atom_site_label
 _atom_site_symmetry_multiplicity
 _atom_site_fract_x
 _atom_site_fract_y
 _atom_site_fract_z
 _atom_site_occupancy
  Nd  Nd0  1  0.594371  0.405597  0.999852  1
  Nd  Nd1  1  0.588871  0.411583  0.501816  1
  Nd  Nd2  1  0.415503  0.985569  0.990499  1
  Nd  Nd3  1  0.415163  0.998892  0.499211  1
  Nd  Nd4  1  0.000905  0.587795  0.992206  1
  Nd  Nd5  1  0.009406  0.589450  0.505913  1
  Al  Al6  1  0.247268  0.753263  0.249373  1
  Al  Al7  1  0.998420  0.006793  0.003998  1
  Al  Al8  1  0.992297  0.001440  0.500051  1
  Al  Al9  1  0.764145  0.000822  0.746722  1
  Al  Al10  1  0.767263  0.034423  0.230325  1
  Al  Al11  1  0.997145  0.235925  0.753315  1
  Al  Al12  1  0.988672  0.246495  0.256894  1
  Si  Si13  1  0.331514  0.335817  0.730767  1
  Si  Si14  1  0.329936  0.329399  0.228942  1
  Si  Si15  1  0.672401  0.673034  0.269582  1
  Si  Si16  1  0.662663  0.669004  0.768222  1
  Si  Si17  1  0.261317  0.739650  0.749119  1
  N  N18  1  0.304975  0.538568  0.658166  1
  N  N19  1  0.459153  0.702168  0.840789  1
  N  N20  1  0.848023  0.202933  0.136426  1
  O  O21  1  0.092152  0.785900  0.865961  1
  O  O22  1  0.094735  0.779970  0.383664  1
  O  O23  1  0.316304  0.527099  0.164801  1
  O  O24  1  0.784369  0.133718  0.877386  1
  O  O25  1  0.769847  0.131411  0.392228  1
  O  O26  1  0.331841  0.328899  0.896253  1
  O  O27  1  0.336473  0.325566  0.393186  1
  O  O28  1  0.528466  0.151294  0.667244  1
  O  O29  1  0.519777  0.154443  0.157527  1
  O  O30  1  0.161960  0.298478  0.663796  1
  O  O31  1  0.143669  0.322916  0.167064  1
  O  O32  1  0.898010  0.871855  0.608320  1
  O  O33  1  0.915913  0.852400  0.109493  1
  O  O34  1  0.707829  0.832713  0.836510  1
  O  O35  1  0.684641  0.855413  0.330126  1
  O  O36  1  0.123531  0.107508  0.895759  1
  O  O37  1  0.130067  0.094428  0.391383  1
  O  O38  1  0.213888  0.909942  0.631284  1
  O  O39  1  0.228324  0.903195  0.115259  1
  O  O40  1  0.668502  0.670813  0.602666  1
  O  O41  1  0.677360  0.658423  0.105603  1
  O  O42  1  0.472275  0.690467  0.336410  1
  O  O43  1  0.843835  0.469418  0.831940  1
  O  O44  1  0.842210  0.476903  0.344227  1
  O  O45  1  0.864611  0.218209  0.619726  1
