# generated using pymatgen
data_Li7VN4
_symmetry_space_group_name_H-M   'P 1'
_cell_length_a   9.62718387
_cell_length_b   9.62718387
_cell_length_c   9.62718387
_cell_angle_alpha   90.00000000
_cell_angle_beta   90.00000000
_cell_angle_gamma   90.00000000
_symmetry_Int_Tables_number   1
_chemical_formula_structural   Li7VN4
_chemical_formula_sum   'Li56 V8 N32'
_cell_volume   892.27309859
_cell_formula_units_Z   8
loop_
 _symmetry_equiv_pos_site_id
 _symmetry_equiv_pos_as_xyz
  1  'x, y, z'
loop_
 _atom_site_type_symbol
 _atom_site_label
 _atom_site_symmetry_multiplicity
 _atom_site_fract_x
 _atom_site_fract_y
 _atom_site_fract_z
 _atom_site_occupancy
  Li  Li0  1  0.516091  0.736950  0.750534  1
  Li  Li1  1  0.516091  0.263050  0.249466  1
  Li  Li2  1  0.736950  0.750534  0.516091  1
  Li  Li3  1  0.263050  0.750534  0.483909  1
  Li  Li4  1  0.750534  0.516091  0.736950  1
  Li  Li5  1  0.249466  0.483909  0.736950  1
  Li  Li6  1  0.983909  0.749466  0.236950  1
  Li  Li7  1  0.983909  0.250534  0.763050  1
  Li  Li8  1  0.016091  0.749466  0.763050  1
  Li  Li9  1  0.250534  0.763050  0.983909  1
  Li  Li10  1  0.763050  0.016091  0.749466  1
  Li  Li11  1  0.763050  0.983909  0.250534  1
  Li  Li12  1  0.749466  0.236950  0.983909  1
  Li  Li13  1  0.236950  0.983909  0.749466  1
  Li  Li14  1  0.749466  0.763050  0.016091  1
  Li  Li15  1  0.250534  0.236950  0.016091  1
  Li  Li16  1  0.236950  0.016091  0.250534  1
  Li  Li17  1  0.249466  0.516091  0.263050  1
  Li  Li18  1  0.750534  0.483909  0.263050  1
  Li  Li19  1  0.736950  0.249466  0.483909  1
  Li  Li20  1  0.263050  0.249466  0.516091  1
  Li  Li21  1  0.483909  0.263050  0.750534  1
  Li  Li22  1  0.483909  0.736950  0.249466  1
  Li  Li23  1  0.500000  0.250000  0.000000  1
  Li  Li24  1  0.016091  0.250534  0.236950  1
  Li  Li25  1  0.734346  0.265654  0.734346  1
  Li  Li26  1  0.265654  0.734346  0.734346  1
  Li  Li27  1  0.734346  0.734346  0.265654  1
  Li  Li28  1  0.765654  0.234346  0.234346  1
  Li  Li29  1  0.234346  0.234346  0.765654  1
  Li  Li30  1  0.234346  0.765654  0.234346  1
  Li  Li31  1  0.265654  0.265654  0.265654  1
  Li  Li32  1  0.000000  0.500000  0.000000  1
  Li  Li33  1  0.500000  0.000000  0.000000  1
  Li  Li34  1  0.500000  0.500000  0.000000  1
  Li  Li35  1  0.000000  0.500000  0.500000  1
  Li  Li36  1  0.500000  0.000000  0.500000  1
  Li  Li37  1  0.000000  0.000000  0.500000  1
  Li  Li38  1  0.750000  0.000000  0.500000  1
  Li  Li39  1  0.500000  0.750000  0.000000  1
  Li  Li40  1  0.235319  0.500000  0.500000  1
  Li  Li41  1  0.264681  0.000000  0.000000  1
  Li  Li42  1  0.000000  0.000000  0.735319  1
  Li  Li43  1  0.000000  0.000000  0.264681  1
  Li  Li44  1  0.000000  0.264681  0.000000  1
  Li  Li45  1  0.000000  0.735319  0.000000  1
  Li  Li46  1  0.500000  0.235319  0.500000  1
  Li  Li47  1  0.500000  0.500000  0.235319  1
  Li  Li48  1  0.500000  0.764681  0.500000  1
  Li  Li49  1  0.500000  0.500000  0.764681  1
  Li  Li50  1  0.764681  0.500000  0.500000  1
  Li  Li51  1  0.735319  0.000000  0.000000  1
  Li  Li52  1  0.250000  0.000000  0.500000  1
  Li  Li53  1  0.000000  0.500000  0.750000  1
  Li  Li54  1  0.000000  0.500000  0.250000  1
  Li  Li55  1  0.765654  0.765654  0.765654  1
  V  V56  1  0.750000  0.500000  0.000000  1
  V  V57  1  0.000000  0.750000  0.500000  1
  V  V58  1  0.000000  0.250000  0.500000  1
  V  V59  1  0.500000  0.000000  0.250000  1
  V  V60  1  0.500000  0.000000  0.750000  1
  V  V61  1  0.250000  0.500000  0.000000  1
  V  V62  1  0.500000  0.500000  0.500000  1
  V  V63  1  0.000000  0.000000  0.000000  1
  N  N64  1  0.615981  0.891897  0.642118  1
  N  N65  1  0.615981  0.108103  0.357882  1
  N  N66  1  0.891897  0.642118  0.615981  1
  N  N67  1  0.108103  0.642118  0.384019  1
  N  N68  1  0.642118  0.615981  0.891897  1
  N  N69  1  0.357882  0.384019  0.891897  1
  N  N70  1  0.884019  0.857882  0.391897  1
  N  N71  1  0.884019  0.142118  0.608103  1
  N  N72  1  0.115981  0.857882  0.608103  1
  N  N73  1  0.142118  0.608103  0.884019  1
  N  N74  1  0.608103  0.115981  0.857882  1
  N  N75  1  0.608103  0.884019  0.142118  1
  N  N76  1  0.857882  0.391897  0.884019  1
  N  N77  1  0.391897  0.884019  0.857882  1
  N  N78  1  0.857882  0.608103  0.115981  1
  N  N79  1  0.142118  0.391897  0.115981  1
  N  N80  1  0.391897  0.115981  0.142118  1
  N  N81  1  0.357882  0.615981  0.108103  1
  N  N82  1  0.642118  0.384019  0.108103  1
  N  N83  1  0.891897  0.357882  0.384019  1
  N  N84  1  0.108103  0.357882  0.615981  1
  N  N85  1  0.384019  0.108103  0.642118  1
  N  N86  1  0.384019  0.891897  0.357882  1
  N  N87  1  0.115981  0.142118  0.391897  1
  N  N88  1  0.889679  0.889679  0.889679  1
  N  N89  1  0.610321  0.389679  0.610321  1
  N  N90  1  0.389679  0.610321  0.610321  1
  N  N91  1  0.610321  0.610321  0.389679  1
  N  N92  1  0.889679  0.110321  0.110321  1
  N  N93  1  0.110321  0.110321  0.889679  1
  N  N94  1  0.110321  0.889679  0.110321  1
  N  N95  1  0.389679  0.389679  0.389679  1
