# generated using pymatgen
data_PrNbO4
_symmetry_space_group_name_H-M   'P 1'
_cell_length_a   6.92587882
_cell_length_b   6.92587882
_cell_length_c   5.33987371
_cell_angle_alpha   68.04748355
_cell_angle_beta   111.95251645
_cell_angle_gamma   65.92111003
_symmetry_Int_Tables_number   1
_chemical_formula_structural   PrNbO4
_chemical_formula_sum   'Pr2 Nb2 O8'
_cell_volume   169.90395053
_cell_formula_units_Z   2
loop_
 _symmetry_equiv_pos_site_id
 _symmetry_equiv_pos_as_xyz
  1  'x, y, z'
loop_
 _atom_site_type_symbol
 _atom_site_label
 _atom_site_symmetry_multiplicity
 _atom_site_fract_x
 _atom_site_fract_y
 _atom_site_fract_z
 _atom_site_occupancy
  Pr  Pr0  1  0.626460  0.626460  0.750000  1
  Pr  Pr1  1  0.373540  0.373540  0.250000  1
  Nb  Nb2  1  0.116398  0.116398  0.750000  1
  Nb  Nb3  1  0.883602  0.883602  0.250000  1
  O  O4  1  0.947020  0.635558  0.158874  1
  O  O5  1  0.635558  0.947020  0.341126  1
  O  O6  1  0.052980  0.364442  0.841126  1
  O  O7  1  0.364442  0.052980  0.658874  1
  O  O8  1  0.716450  0.211431  0.827870  1
  O  O9  1  0.211431  0.716450  0.672130  1
  O  O10  1  0.283550  0.788569  0.172130  1
  O  O11  1  0.788569  0.283550  0.327870  1
