# generated using pymatgen
data_AlCuS2
_symmetry_space_group_name_H-M   'P 1'
_cell_length_a   6.47619237
_cell_length_b   6.47619237
_cell_length_c   6.47619237
_cell_angle_alpha   131.43156335
_cell_angle_beta   131.43156335
_cell_angle_gamma   71.12830616
_symmetry_Int_Tables_number   1
_chemical_formula_structural   AlCuS2
_chemical_formula_sum   'Al2 Cu2 S4'
_cell_volume   149.48509867
_cell_formula_units_Z   2
loop_
 _symmetry_equiv_pos_site_id
 _symmetry_equiv_pos_as_xyz
  1  'x, y, z'
loop_
 _atom_site_type_symbol
 _atom_site_label
 _atom_site_symmetry_multiplicity
 _atom_site_fract_x
 _atom_site_fract_y
 _atom_site_fract_z
 _atom_site_occupancy
  Al  Al0  1  0.250000  0.750000  0.500000  1
  Al  Al1  1  0.500000  0.500000  0.000000  1
  Cu  Cu2  1  1.000000  1.000000  0.000000  1
  Cu  Cu3  1  0.750000  0.250000  0.500000  1
  S  S4  1  0.618284  0.625000  0.493284  1
  S  S5  1  0.375000  0.868284  0.993284  1
  S  S6  1  0.131716  0.125000  0.506716  1
  S  S7  1  0.875000  0.381716  0.006716  1
