# generated using pymatgen
data_Ca3AsN
_symmetry_space_group_name_H-M   'P 1'
_cell_length_a   6.74242167
_cell_length_b   6.74443896
_cell_length_c   9.56939229
_cell_angle_alpha   90.00000000
_cell_angle_beta   90.00000000
_cell_angle_gamma   90.00000000
_symmetry_Int_Tables_number   1
_chemical_formula_structural   Ca3AsN
_chemical_formula_sum   'Ca12 As4 N4'
_cell_volume   435.15712294
_cell_formula_units_Z   4
loop_
 _symmetry_equiv_pos_site_id
 _symmetry_equiv_pos_as_xyz
  1  'x, y, z'
loop_
 _atom_site_type_symbol
 _atom_site_label
 _atom_site_symmetry_multiplicity
 _atom_site_fract_x
 _atom_site_fract_y
 _atom_site_fract_z
 _atom_site_occupancy
  Ca  Ca0  1  0.961903  0.506073  0.250000  1
  Ca  Ca1  1  0.538097  0.006073  0.250000  1
  Ca  Ca2  1  0.461903  0.993927  0.750000  1
  Ca  Ca3  1  0.038097  0.493927  0.750000  1
  Ca  Ca4  1  0.282757  0.717233  0.019630  1
  Ca  Ca5  1  0.217243  0.217233  0.480370  1
  Ca  Ca6  1  0.782757  0.782767  0.980370  1
  Ca  Ca7  1  0.717243  0.282767  0.519630  1
  Ca  Ca8  1  0.717243  0.282767  0.980370  1
  Ca  Ca9  1  0.782757  0.782767  0.519630  1
  Ca  Ca10  1  0.217243  0.217233  0.019630  1
  Ca  Ca11  1  0.282757  0.717233  0.480370  1
  As  As12  1  0.997880  0.016536  0.750000  1
  As  As13  1  0.502120  0.516536  0.750000  1
  As  As14  1  0.497880  0.483464  0.250000  1
  As  As15  1  0.002120  0.983464  0.250000  1
  N  N16  1  0.500000  0.000000  0.500000  1
  N  N17  1  0.000000  0.500000  0.000000  1
  N  N18  1  0.000000  0.500000  0.500000  1
  N  N19  1  0.500000  0.000000  0.000000  1
