# generated using pymatgen
data_Ge2N2O
_symmetry_space_group_name_H-M   'P 1'
_cell_length_a   5.54408254
_cell_length_b   5.54408254
_cell_length_c   5.17655847
_cell_angle_alpha   90.00000000
_cell_angle_beta   90.00000000
_cell_angle_gamma   116.49879888
_symmetry_Int_Tables_number   1
_chemical_formula_structural   Ge2N2O
_chemical_formula_sum   'Ge4 N4 O2'
_cell_volume   142.39548549
_cell_formula_units_Z   2
loop_
 _symmetry_equiv_pos_site_id
 _symmetry_equiv_pos_as_xyz
  1  'x, y, z'
loop_
 _atom_site_type_symbol
 _atom_site_label
 _atom_site_symmetry_multiplicity
 _atom_site_fract_x
 _atom_site_fract_y
 _atom_site_fract_z
 _atom_site_occupancy
  Ge  Ge0  1  0.329498  0.979115  0.382445  1
  Ge  Ge1  1  0.670502  0.020885  0.882445  1
  Ge  Ge2  1  0.020885  0.670502  0.882445  1
  Ge  Ge3  1  0.979115  0.329498  0.382445  1
  N  N4  1  0.081354  0.663338  0.231124  1
  N  N5  1  0.918646  0.336662  0.731124  1
  N  N6  1  0.336662  0.918646  0.731124  1
  N  N7  1  0.663338  0.081354  0.231124  1
  O  O8  1  0.241345  0.241345  0.300861  1
  O  O9  1  0.758655  0.758655  0.800861  1
