# generated using pymatgen
data_K2NaTiOF5
_symmetry_space_group_name_H-M   'P 1'
_cell_length_a   5.99689063
_cell_length_b   5.99689063
_cell_length_c   5.99689063
_cell_angle_alpha   120.19656522
_cell_angle_beta   120.19656522
_cell_angle_gamma   89.65987491
_symmetry_Int_Tables_number   1
_chemical_formula_structural   K2NaTiOF5
_chemical_formula_sum   'K2 Na1 Ti1 O1 F5'
_cell_volume   152.04174636
_cell_formula_units_Z   1
loop_
 _symmetry_equiv_pos_site_id
 _symmetry_equiv_pos_as_xyz
  1  'x, y, z'
loop_
 _atom_site_type_symbol
 _atom_site_label
 _atom_site_symmetry_multiplicity
 _atom_site_fract_x
 _atom_site_fract_y
 _atom_site_fract_z
 _atom_site_occupancy
  K  K0  1  0.252737  0.752737  0.500000  1
  K  K1  1  0.752737  0.252737  0.500000  1
  Na  Na2  1  0.499990  0.499990  0.000000  1
  Ti  Ti3  1  0.020197  0.020197  0.000000  1
  O  O4  1  0.221891  0.221891  0.000000  1
  F  F5  1  0.765768  0.225755  0.000000  1
  F  F6  1  0.765768  0.765768  0.540013  1
  F  F7  1  0.225755  0.225755  0.459987  1
  F  F8  1  0.225755  0.765768  0.000000  1
  F  F9  1  0.769402  0.769402  0.000000  1
