# generated using pymatgen
data_Al2ZnS4
_symmetry_space_group_name_H-M   'P 1'
_cell_length_a   7.13346193
_cell_length_b   7.13346193
_cell_length_c   7.13346193
_cell_angle_alpha   60.00000000
_cell_angle_beta   60.00000000
_cell_angle_gamma   60.00000000
_symmetry_Int_Tables_number   1
_chemical_formula_structural   Al2ZnS4
_chemical_formula_sum   'Al4 Zn2 S8'
_cell_volume   256.67646256
_cell_formula_units_Z   2
loop_
 _symmetry_equiv_pos_site_id
 _symmetry_equiv_pos_as_xyz
  1  'x, y, z'
loop_
 _atom_site_type_symbol
 _atom_site_label
 _atom_site_symmetry_multiplicity
 _atom_site_fract_x
 _atom_site_fract_y
 _atom_site_fract_z
 _atom_site_occupancy
  Al  Al0  1  0.625000  0.125000  0.125000  1
  Al  Al1  1  0.125000  0.125000  0.625000  1
  Al  Al2  1  0.125000  0.625000  0.125000  1
  Al  Al3  1  0.125000  0.125000  0.125000  1
  Zn  Zn4  1  0.500000  0.500000  0.500000  1
  Zn  Zn5  1  0.750000  0.750000  0.750000  1
  S  S6  1  0.365245  0.365245  0.365245  1
  S  S7  1  0.884755  0.345734  0.884755  1
  S  S8  1  0.365245  0.904266  0.365245  1
  S  S9  1  0.884755  0.884755  0.884755  1
  S  S10  1  0.884755  0.884755  0.345734  1
  S  S11  1  0.345734  0.884755  0.884755  1
  S  S12  1  0.365245  0.365245  0.904266  1
  S  S13  1  0.904266  0.365245  0.365245  1
