# generated using pymatgen
data_CdSiP2
_symmetry_space_group_name_H-M   'P 1'
_cell_length_a   6.66308747
_cell_length_b   6.66308747
_cell_length_c   6.66308747
_cell_angle_alpha   129.05086944
_cell_angle_beta   129.05086944
_cell_angle_gamma   74.92873646
_symmetry_Int_Tables_number   1
_chemical_formula_structural   CdSiP2
_chemical_formula_sum   'Cd2 Si2 P4'
_cell_volume   173.74813194
_cell_formula_units_Z   2
loop_
 _symmetry_equiv_pos_site_id
 _symmetry_equiv_pos_as_xyz
  1  'x, y, z'
loop_
 _atom_site_type_symbol
 _atom_site_label
 _atom_site_symmetry_multiplicity
 _atom_site_fract_x
 _atom_site_fract_y
 _atom_site_fract_z
 _atom_site_occupancy
  Cd  Cd0  1  0.000000  0.000000  0.000000  1
  Cd  Cd1  1  0.750000  0.250000  0.500000  1
  Si  Si2  1  0.250000  0.750000  0.500000  1
  Si  Si3  1  0.500000  0.500000  0.000000  1
  P  P4  1  0.578403  0.625000  0.453403  1
  P  P5  1  0.375000  0.828403  0.953403  1
  P  P6  1  0.171597  0.125000  0.546597  1
  P  P7  1  0.875000  0.421597  0.046597  1
