# generated using pymatgen
data_NaCaNb2O6F
_symmetry_space_group_name_H-M   'P 1'
_cell_length_a   7.48147881
_cell_length_b   7.48147881
_cell_length_c   7.48147881
_cell_angle_alpha   120.37760569
_cell_angle_beta   119.56328527
_cell_angle_gamma   90.05264296
_symmetry_Int_Tables_number   1
_chemical_formula_structural   NaCaNb2O6F
_chemical_formula_sum   'Na2 Ca2 Nb4 O12 F2'
_cell_volume   296.21956071
_cell_formula_units_Z   2
loop_
 _symmetry_equiv_pos_site_id
 _symmetry_equiv_pos_as_xyz
  1  'x, y, z'
loop_
 _atom_site_type_symbol
 _atom_site_label
 _atom_site_symmetry_multiplicity
 _atom_site_fract_x
 _atom_site_fract_y
 _atom_site_fract_z
 _atom_site_occupancy
  Na  Na0  1  0.500000  0.000000  0.500000  1
  Na  Na1  1  0.500000  0.500000  0.000000  1
  Ca  Ca2  1  0.000000  0.000000  0.500000  1
  Ca  Ca3  1  0.500000  0.000000  1.000000  1
  Nb  Nb4  1  0.000000  0.500000  0.000000  1
  Nb  Nb5  1  0.000000  0.000000  0.000000  1
  Nb  Nb6  1  0.500000  0.500000  0.500000  1
  Nb  Nb7  1  0.000000  0.500000  0.500000  1
  O  O8  1  0.936511  0.180116  0.863170  1
  O  O9  1  0.313394  0.563394  0.250000  1
  O  O10  1  0.936511  0.573341  0.256395  1
  O  O11  1  0.316945  0.180116  0.243605  1
  O  O12  1  0.063489  0.819884  0.136830  1
  O  O13  1  0.686606  0.436606  0.750000  1
  O  O14  1  0.316945  0.573341  0.636830  1
  O  O15  1  0.927416  0.177416  0.250000  1
  O  O16  1  0.063489  0.426659  0.743605  1
  O  O17  1  0.683055  0.819884  0.756395  1
  O  O18  1  0.683055  0.426659  0.363170  1
  O  O19  1  0.072584  0.822584  0.750000  1
  F  F20  1  0.368218  0.118218  0.750000  1
  F  F21  1  0.631782  0.881782  0.250000  1
