# generated using pymatgen
data_Hg3AsO4
_symmetry_space_group_name_H-M   'P 1'
_cell_length_a   9.33114173
_cell_length_b   5.29483786
_cell_length_c   14.70215499
_cell_angle_alpha   90.00000000
_cell_angle_beta   123.09501955
_cell_angle_gamma   90.00000000
_symmetry_Int_Tables_number   1
_chemical_formula_structural   Hg3AsO4
_chemical_formula_sum   'Hg12 As4 O16'
_cell_volume   608.54300427
_cell_formula_units_Z   4
loop_
 _symmetry_equiv_pos_site_id
 _symmetry_equiv_pos_as_xyz
  1  'x, y, z'
loop_
 _atom_site_type_symbol
 _atom_site_label
 _atom_site_symmetry_multiplicity
 _atom_site_fract_x
 _atom_site_fract_y
 _atom_site_fract_z
 _atom_site_occupancy
  Hg  Hg0  1  0.453796  0.153963  0.625752  1
  Hg  Hg1  1  0.729373  0.363922  0.043729  1
  Hg  Hg2  1  0.729373  0.136078  0.543729  1
  Hg  Hg3  1  0.270627  0.636078  0.956271  1
  Hg  Hg4  1  0.270627  0.863922  0.456271  1
  Hg  Hg5  1  0.546204  0.653963  0.874248  1
  Hg  Hg6  1  0.546204  0.846037  0.374248  1
  Hg  Hg7  1  0.453796  0.346037  0.125752  1
  Hg  Hg8  1  0.962951  0.367149  0.415027  1
  Hg  Hg9  1  0.037049  0.867149  0.084973  1
  Hg  Hg10  1  0.037049  0.632851  0.584973  1
  Hg  Hg11  1  0.962951  0.132851  0.915027  1
  As  As12  1  0.228858  0.114810  0.772822  1
  As  As13  1  0.771142  0.885190  0.227178  1
  As  As14  1  0.771142  0.614810  0.727178  1
  As  As15  1  0.228858  0.385190  0.272822  1
  O  O16  1  0.763424  0.559979  0.228884  1
  O  O17  1  0.236576  0.059979  0.271116  1
  O  O18  1  0.236576  0.440021  0.771116  1
  O  O19  1  0.763424  0.940021  0.728884  1
  O  O20  1  0.776522  0.978063  0.116170  1
  O  O21  1  0.223478  0.478063  0.383830  1
  O  O22  1  0.223478  0.021937  0.883830  1
  O  O23  1  0.776522  0.521937  0.616170  1
  O  O24  1  0.953219  0.986677  0.347031  1
  O  O25  1  0.592985  0.494505  0.722668  1
  O  O26  1  0.046781  0.013323  0.652969  1
  O  O27  1  0.953219  0.513323  0.847031  1
  O  O28  1  0.592985  0.005495  0.222668  1
  O  O29  1  0.407015  0.505495  0.277332  1
  O  O30  1  0.407015  0.994505  0.777332  1
  O  O31  1  0.046781  0.486677  0.152969  1
