# generated using pymatgen
data_FeCu2H21(O5F4)2
_symmetry_space_group_name_H-M   'P 1'
_cell_length_a   6.95765214
_cell_length_b   7.36274198
_cell_length_c   8.17879813
_cell_angle_alpha   106.99670243
_cell_angle_beta   107.40038048
_cell_angle_gamma   95.19719026
_symmetry_Int_Tables_number   1
_chemical_formula_structural   FeCu2H21(O5F4)2
_chemical_formula_sum   'Fe1 Cu2 H21 O10 F8'
_cell_volume   374.99851658
_cell_formula_units_Z   1
loop_
 _symmetry_equiv_pos_site_id
 _symmetry_equiv_pos_as_xyz
  1  'x, y, z'
loop_
 _atom_site_type_symbol
 _atom_site_label
 _atom_site_symmetry_multiplicity
 _atom_site_fract_x
 _atom_site_fract_y
 _atom_site_fract_z
 _atom_site_occupancy
  Fe  Fe0  1  0.000061  0.000484  0.001400  1
  Cu  Cu1  1  0.385367  0.441773  0.767150  1
  Cu  Cu2  1  0.616947  0.557884  0.235460  1
  H  H3  1  0.142782  0.381618  0.946487  1
  H  H4  1  0.193452  0.606777  0.987481  1
  H  H5  1  0.033079  0.749337  0.473197  1
  H  H6  1  0.090335  0.307367  0.407192  1
  H  H7  1  0.220200  0.917861  0.344271  1
  H  H8  1  0.354001  0.809948  0.836618  1
  H  H9  1  0.339453  0.123928  0.831867  1
  H  H10  1  0.329245  0.776036  0.436981  1
  H  H11  1  0.358246  0.075709  0.637709  1
  H  H12  1  0.565886  0.777150  0.788697  1
  H  H13  1  0.433231  0.223363  0.214360  1
  H  H14  1  0.518014  0.504942  0.512263  1
  H  H15  1  0.641531  0.922999  0.360840  1
  H  H16  1  0.682796  0.222960  0.568076  1
  H  H17  1  0.657590  0.874902  0.166260  1
  H  H18  1  0.644091  0.188850  0.164869  1
  H  H19  1  0.783775  0.073306  0.653825  1
  H  H20  1  0.915363  0.694630  0.595148  1
  H  H21  1  0.974424  0.248785  0.528445  1
  H  H22  1  0.806052  0.392706  0.014174  1
  H  H23  1  0.855639  0.618167  0.055162  1
  O  O24  1  0.091879  0.337511  0.532139  1
  O  O25  1  0.253508  0.488499  0.959580  1
  O  O26  1  0.251022  0.881871  0.454196  1
  O  O27  1  0.432927  0.713951  0.789796  1
  O  O28  1  0.412062  0.178374  0.763046  1
  O  O29  1  0.585700  0.820498  0.235454  1
  O  O30  1  0.566560  0.285561  0.213009  1
  O  O31  1  0.755456  0.113767  0.546003  1
  O  O32  1  0.745636  0.510905  0.042545  1
  O  O33  1  0.912120  0.665558  0.469735  1
  F  F34  1  0.209016  0.965922  0.883027  1
  F  F35  1  0.036108  0.756870  0.052213  1
  F  F36  1  0.219815  0.136716  0.232301  1
  F  F37  1  0.456424  0.584475  0.408104  1
  F  F38  1  0.573539  0.426265  0.613365  1
  F  F39  1  0.780469  0.865055  0.770544  1
  F  F40  1  0.963314  0.243861  0.950515  1
  F  F41  1  0.790983  0.034960  0.118995  1
