# generated using pymatgen
data_Li4SeO5
_symmetry_space_group_name_H-M   'P 1'
_cell_length_a   5.29568604
_cell_length_b   5.29568604
_cell_length_c   7.95303255
_cell_angle_alpha   83.25207709
_cell_angle_beta   96.74792291
_cell_angle_gamma   113.14259441
_symmetry_Int_Tables_number   1
_chemical_formula_structural   Li4SeO5
_chemical_formula_sum   'Li8 Se2 O10'
_cell_volume   203.04639581
_cell_formula_units_Z   2
loop_
 _symmetry_equiv_pos_site_id
 _symmetry_equiv_pos_as_xyz
  1  'x, y, z'
loop_
 _atom_site_type_symbol
 _atom_site_label
 _atom_site_symmetry_multiplicity
 _atom_site_fract_x
 _atom_site_fract_y
 _atom_site_fract_z
 _atom_site_occupancy
  Li  Li0  1  0.637920  0.034923  0.353855  1
  Li  Li1  1  0.034923  0.637920  0.146145  1
  Li  Li2  1  0.432084  0.223025  0.943349  1
  Li  Li3  1  0.223025  0.432084  0.556651  1
  Li  Li4  1  0.567916  0.776975  0.056651  1
  Li  Li5  1  0.776975  0.567916  0.443349  1
  Li  Li6  1  0.362080  0.965077  0.646145  1
  Li  Li7  1  0.965077  0.362080  0.853855  1
  Se  Se8  1  0.172043  0.172043  0.250000  1
  Se  Se9  1  0.827957  0.827957  0.750000  1
  O  O10  1  0.994503  0.349729  0.339887  1
  O  O11  1  0.349729  0.994503  0.160113  1
  O  O12  1  0.128386  0.128386  0.750000  1
  O  O13  1  0.871614  0.871614  0.250000  1
  O  O14  1  0.589155  0.766988  0.573479  1
  O  O15  1  0.766988  0.589155  0.926521  1
  O  O16  1  0.410845  0.233012  0.426521  1
  O  O17  1  0.233012  0.410845  0.073479  1
  O  O18  1  0.650271  0.005497  0.839887  1
  O  O19  1  0.005497  0.650271  0.660113  1
