# generated using pymatgen
data_NaCuO2
_symmetry_space_group_name_H-M   'P 1'
_cell_length_a   3.58094743
_cell_length_b   3.58094743
_cell_length_c   6.12246454
_cell_angle_alpha   62.10676414
_cell_angle_beta   117.89323586
_cell_angle_gamma   134.38017591
_symmetry_Int_Tables_number   1
_chemical_formula_structural   NaCuO2
_chemical_formula_sum   'Na1 Cu1 O2'
_cell_volume   48.34840795
_cell_formula_units_Z   1
loop_
 _symmetry_equiv_pos_site_id
 _symmetry_equiv_pos_as_xyz
  1  'x, y, z'
loop_
 _atom_site_type_symbol
 _atom_site_label
 _atom_site_symmetry_multiplicity
 _atom_site_fract_x
 _atom_site_fract_y
 _atom_site_fract_z
 _atom_site_occupancy
  Na  Na0  1  1.000000  0.000000  0.500000  1
  Cu  Cu1  1  0.000000  0.000000  0.000000  1
  O  O2  1  0.422441  0.577559  0.770101  1
  O  O3  1  0.577559  0.422441  0.229899  1
