# generated using pymatgen
data_Cd(PO3)2
_symmetry_space_group_name_H-M   'P 1'
_cell_length_a   7.16787272
_cell_length_b   9.82219361
_cell_length_c   13.86604777
_cell_angle_alpha   90.00000000
_cell_angle_beta   90.00000000
_cell_angle_gamma   90.00000000
_symmetry_Int_Tables_number   1
_chemical_formula_structural   Cd(PO3)2
_chemical_formula_sum   'Cd8 P16 O48'
_cell_volume   976.22846669
_cell_formula_units_Z   8
loop_
 _symmetry_equiv_pos_site_id
 _symmetry_equiv_pos_as_xyz
  1  'x, y, z'
loop_
 _atom_site_type_symbol
 _atom_site_label
 _atom_site_symmetry_multiplicity
 _atom_site_fract_x
 _atom_site_fract_y
 _atom_site_fract_z
 _atom_site_occupancy
  Cd  Cd0  1  0.550900  0.992393  0.293670  1
  Cd  Cd1  1  0.050900  0.507607  0.706330  1
  Cd  Cd2  1  0.449100  0.492393  0.206330  1
  Cd  Cd3  1  0.949100  0.007607  0.793670  1
  Cd  Cd4  1  0.449100  0.007607  0.706330  1
  Cd  Cd5  1  0.949100  0.492393  0.293670  1
  Cd  Cd6  1  0.550900  0.507607  0.793670  1
  Cd  Cd7  1  0.050900  0.992393  0.206330  1
  P  P8  1  0.082423  0.300316  0.097492  1
  P  P9  1  0.582423  0.199684  0.902508  1
  P  P10  1  0.917577  0.800316  0.402508  1
  P  P11  1  0.417577  0.699684  0.597492  1
  P  P12  1  0.917577  0.699684  0.902508  1
  P  P13  1  0.417577  0.800316  0.097492  1
  P  P14  1  0.082423  0.199684  0.597492  1
  P  P15  1  0.582423  0.300316  0.402508  1
  P  P16  1  0.685390  0.212107  0.106079  1
  P  P17  1  0.185390  0.287893  0.893921  1
  P  P18  1  0.314610  0.712107  0.393921  1
  P  P19  1  0.814610  0.787893  0.606079  1
  P  P20  1  0.314610  0.787893  0.893921  1
  P  P21  1  0.814610  0.712107  0.106079  1
  P  P22  1  0.685390  0.287893  0.606079  1
  P  P23  1  0.185390  0.212107  0.393921  1
  O  O24  1  0.656357  0.137607  0.002959  1
  O  O25  1  0.156357  0.362393  0.997041  1
  O  O26  1  0.343643  0.637607  0.497041  1
  O  O27  1  0.843643  0.862393  0.502959  1
  O  O28  1  0.343643  0.862393  0.997041  1
  O  O29  1  0.843643  0.637607  0.002959  1
  O  O30  1  0.656357  0.362393  0.502959  1
  O  O31  1  0.156357  0.137607  0.497041  1
  O  O32  1  0.858467  0.313879  0.087967  1
  O  O33  1  0.358467  0.186121  0.912033  1
  O  O34  1  0.141533  0.813879  0.412033  1
  O  O35  1  0.641533  0.686121  0.587967  1
  O  O36  1  0.141533  0.686121  0.912033  1
  O  O37  1  0.641533  0.813879  0.087967  1
  O  O38  1  0.858467  0.186121  0.587967  1
  O  O39  1  0.358467  0.313879  0.412033  1
  O  O40  1  0.137678  0.154044  0.105462  1
  O  O41  1  0.138399  0.402658  0.174296  1
  O  O42  1  0.637678  0.345956  0.894538  1
  O  O43  1  0.362322  0.845956  0.605462  1
  O  O44  1  0.862322  0.845956  0.894538  1
  O  O45  1  0.362322  0.654044  0.105462  1
  O  O46  1  0.137678  0.345956  0.605462  1
  O  O47  1  0.637678  0.154044  0.394538  1
  O  O48  1  0.019367  0.298660  0.372067  1
  O  O49  1  0.519367  0.201340  0.627933  1
  O  O50  1  0.980633  0.798660  0.127933  1
  O  O51  1  0.480633  0.701340  0.872067  1
  O  O52  1  0.980633  0.701340  0.627933  1
  O  O53  1  0.480633  0.798660  0.372067  1
  O  O54  1  0.019367  0.201340  0.872067  1
  O  O55  1  0.519367  0.298660  0.127933  1
  O  O56  1  0.241018  0.100975  0.323734  1
  O  O57  1  0.741018  0.399025  0.676266  1
  O  O58  1  0.758982  0.600975  0.176266  1
  O  O59  1  0.258982  0.899025  0.823734  1
  O  O60  1  0.758982  0.899025  0.676266  1
  O  O61  1  0.258982  0.600975  0.323734  1
  O  O62  1  0.241018  0.399025  0.823734  1
  O  O63  1  0.741018  0.100975  0.176266  1
  O  O64  1  0.638399  0.402658  0.325704  1
  O  O65  1  0.138399  0.097342  0.674296  1
  O  O66  1  0.361601  0.902658  0.174296  1
  O  O67  1  0.861601  0.597342  0.825704  1
  O  O68  1  0.361601  0.597342  0.674296  1
  O  O69  1  0.861601  0.902658  0.325704  1
  O  O70  1  0.638399  0.097342  0.825704  1
  O  O71  1  0.862322  0.654044  0.394538  1
