# generated using pymatgen
data_Ba3Sn2S7
_symmetry_space_group_name_H-M   'P 1'
_cell_length_a   11.25710730
_cell_length_b   6.89121569
_cell_length_c   19.00972107
_cell_angle_alpha   90.00000000
_cell_angle_beta   100.65513643
_cell_angle_gamma   90.00000000
_symmetry_Int_Tables_number   1
_chemical_formula_structural   Ba3Sn2S7
_chemical_formula_sum   'Ba12 Sn8 S28'
_cell_volume   1449.25539705
_cell_formula_units_Z   4
loop_
 _symmetry_equiv_pos_site_id
 _symmetry_equiv_pos_as_xyz
  1  'x, y, z'
loop_
 _atom_site_type_symbol
 _atom_site_label
 _atom_site_symmetry_multiplicity
 _atom_site_fract_x
 _atom_site_fract_y
 _atom_site_fract_z
 _atom_site_occupancy
  Ba  Ba0  1  0.256515  0.775559  0.665190  1
  Ba  Ba1  1  0.487457  0.780872  0.390960  1
  Ba  Ba2  1  0.512543  0.219128  0.609040  1
  Ba  Ba3  1  0.942693  0.266782  0.611370  1
  Ba  Ba4  1  0.057307  0.733218  0.388630  1
  Ba  Ba5  1  0.942693  0.233218  0.111370  1
  Ba  Ba6  1  0.743485  0.275559  0.834810  1
  Ba  Ba7  1  0.512543  0.280872  0.109040  1
  Ba  Ba8  1  0.743485  0.224441  0.334810  1
  Ba  Ba9  1  0.057307  0.766782  0.888630  1
  Ba  Ba10  1  0.256515  0.724441  0.165190  1
  Ba  Ba11  1  0.487457  0.719128  0.890960  1
  Sn  Sn12  1  0.275386  0.299526  0.304247  1
  Sn  Sn13  1  0.793818  0.797330  0.503628  1
  Sn  Sn14  1  0.724614  0.799526  0.195753  1
  Sn  Sn15  1  0.724614  0.700474  0.695753  1
  Sn  Sn16  1  0.793818  0.702670  0.003628  1
  Sn  Sn17  1  0.206182  0.202670  0.496372  1
  Sn  Sn18  1  0.275386  0.200474  0.804247  1
  Sn  Sn19  1  0.206182  0.297330  0.996372  1
  S  S20  1  0.674855  0.580133  0.567860  1
  S  S21  1  0.233408  0.180959  0.117318  1
  S  S22  1  0.998375  0.724812  0.060236  1
  S  S23  1  0.547955  0.558430  0.730794  1
  S  S24  1  0.317764  0.597857  0.010847  1
  S  S25  1  0.096540  0.472404  0.253412  1
  S  S26  1  0.750940  0.043991  0.693240  1
  S  S27  1  0.001625  0.224812  0.439764  1
  S  S28  1  0.325145  0.419867  0.432140  1
  S  S29  1  0.001625  0.275188  0.939764  1
  S  S30  1  0.674855  0.919867  0.067860  1
  S  S31  1  0.452045  0.058430  0.769206  1
  S  S32  1  0.452045  0.441570  0.269206  1
  S  S33  1  0.249060  0.543991  0.806760  1
  S  S34  1  0.682236  0.097857  0.489153  1
  S  S35  1  0.233408  0.319041  0.617318  1
  S  S36  1  0.903460  0.527596  0.746588  1
  S  S37  1  0.317764  0.902143  0.510847  1
  S  S38  1  0.682236  0.402143  0.989153  1
  S  S39  1  0.998375  0.775188  0.560236  1
  S  S40  1  0.249060  0.956009  0.306760  1
  S  S41  1  0.766592  0.819041  0.882682  1
  S  S42  1  0.547955  0.941570  0.230794  1
  S  S43  1  0.903460  0.972404  0.246588  1
  S  S44  1  0.750940  0.456009  0.193240  1
  S  S45  1  0.766592  0.680959  0.382682  1
  S  S46  1  0.096540  0.027596  0.753412  1
  S  S47  1  0.325145  0.080133  0.932140  1
