# generated using pymatgen
data_SrV2CuO7
_symmetry_space_group_name_H-M   'P 1'
_cell_length_a   5.53899361
_cell_length_b   7.51576420
_cell_length_c   14.70548121
_cell_angle_alpha   90.00000000
_cell_angle_beta   90.00000000
_cell_angle_gamma   90.00000000
_symmetry_Int_Tables_number   1
_chemical_formula_structural   SrV2CuO7
_chemical_formula_sum   'Sr4 V8 Cu4 O28'
_cell_volume   612.18579872
_cell_formula_units_Z   4
loop_
 _symmetry_equiv_pos_site_id
 _symmetry_equiv_pos_as_xyz
  1  'x, y, z'
loop_
 _atom_site_type_symbol
 _atom_site_label
 _atom_site_symmetry_multiplicity
 _atom_site_fract_x
 _atom_site_fract_y
 _atom_site_fract_z
 _atom_site_occupancy
  Sr  Sr0  1  0.250000  0.116239  0.698951  1
  Sr  Sr1  1  0.750000  0.883761  0.301049  1
  Sr  Sr2  1  0.750000  0.616239  0.801049  1
  Sr  Sr3  1  0.250000  0.383761  0.198951  1
  V  V4  1  0.250000  0.857494  0.888476  1
  V  V5  1  0.750000  0.142506  0.111524  1
  V  V6  1  0.750000  0.357494  0.611524  1
  V  V7  1  0.250000  0.642506  0.388476  1
  V  V8  1  0.250000  0.385738  0.911423  1
  V  V9  1  0.750000  0.614262  0.088577  1
  V  V10  1  0.750000  0.885738  0.588577  1
  V  V11  1  0.250000  0.114262  0.411423  1
  Cu  Cu12  1  0.250000  0.611219  0.636353  1
  Cu  Cu13  1  0.750000  0.388781  0.363647  1
  Cu  Cu14  1  0.750000  0.111219  0.863647  1
  Cu  Cu15  1  0.250000  0.888781  0.136353  1
  O  O16  1  0.250000  0.927099  0.994738  1
  O  O17  1  0.750000  0.072901  0.005262  1
  O  O18  1  0.750000  0.427099  0.505262  1
  O  O19  1  0.250000  0.572901  0.494738  1
  O  O20  1  0.250000  0.617241  0.869954  1
  O  O21  1  0.750000  0.382759  0.130046  1
  O  O22  1  0.750000  0.117241  0.630046  1
  O  O23  1  0.250000  0.882759  0.369954  1
  O  O24  1  0.002674  0.063706  0.172010  1
  O  O25  1  0.502674  0.936294  0.827990  1
  O  O26  1  0.997326  0.563706  0.327990  1
  O  O27  1  0.497326  0.436294  0.672010  1
  O  O28  1  0.997326  0.936294  0.827990  1
  O  O29  1  0.497326  0.063706  0.172010  1
  O  O30  1  0.002674  0.436294  0.672010  1
  O  O31  1  0.502674  0.563706  0.327990  1
  O  O32  1  0.502305  0.204443  0.358099  1
  O  O33  1  0.002305  0.795557  0.641901  1
  O  O34  1  0.497695  0.704443  0.141901  1
  O  O35  1  0.997695  0.295557  0.858099  1
  O  O36  1  0.497695  0.795557  0.641901  1
  O  O37  1  0.997695  0.204443  0.358099  1
  O  O38  1  0.502305  0.295557  0.858099  1
  O  O39  1  0.002305  0.704443  0.141901  1
  O  O40  1  0.250000  0.134750  0.525325  1
  O  O41  1  0.750000  0.865250  0.474675  1
  O  O42  1  0.750000  0.634750  0.974675  1
  O  O43  1  0.250000  0.365250  0.025325  1
