# generated using pymatgen
data_NaLiMo(H2O3)2
_symmetry_space_group_name_H-M   'P 1'
_cell_length_a   8.42654692
_cell_length_b   10.39663844
_cell_length_c   13.41434871
_cell_angle_alpha   90.00000000
_cell_angle_beta   90.00000000
_cell_angle_gamma   90.00000000
_symmetry_Int_Tables_number   1
_chemical_formula_structural   NaLiMo(H2O3)2
_chemical_formula_sum   'Na8 Li8 Mo8 H32 O48'
_cell_volume   1175.20106414
_cell_formula_units_Z   8
loop_
 _symmetry_equiv_pos_site_id
 _symmetry_equiv_pos_as_xyz
  1  'x, y, z'
loop_
 _atom_site_type_symbol
 _atom_site_label
 _atom_site_symmetry_multiplicity
 _atom_site_fract_x
 _atom_site_fract_y
 _atom_site_fract_z
 _atom_site_occupancy
  Na  Na0  1  0.853850  0.006300  0.410210  1
  Na  Na1  1  0.353850  0.493700  0.589790  1
  Na  Na2  1  0.146150  0.506300  0.089790  1
  Na  Na3  1  0.646150  0.993700  0.910210  1
  Na  Na4  1  0.146150  0.993700  0.589790  1
  Na  Na5  1  0.646150  0.506300  0.410210  1
  Na  Na6  1  0.853850  0.493700  0.910210  1
  Na  Na7  1  0.353850  0.006300  0.089790  1
  Li  Li8  1  0.766962  0.443684  0.135125  1
  Li  Li9  1  0.266962  0.056316  0.864875  1
  Li  Li10  1  0.233038  0.943684  0.364875  1
  Li  Li11  1  0.733038  0.556316  0.635125  1
  Li  Li12  1  0.233038  0.556316  0.864875  1
  Li  Li13  1  0.733038  0.943684  0.135125  1
  Li  Li14  1  0.766962  0.056316  0.635125  1
  Li  Li15  1  0.266962  0.443684  0.364875  1
  Mo  Mo16  1  0.489877  0.189633  0.472444  1
  Mo  Mo17  1  0.989877  0.310367  0.527556  1
  Mo  Mo18  1  0.510123  0.689633  0.027556  1
  Mo  Mo19  1  0.010123  0.810367  0.972444  1
  Mo  Mo20  1  0.510123  0.810367  0.527556  1
  Mo  Mo21  1  0.010123  0.689633  0.472444  1
  Mo  Mo22  1  0.489877  0.310367  0.972444  1
  Mo  Mo23  1  0.989877  0.189633  0.027556  1
  H  H24  1  0.921833  0.605141  0.258832  1
  H  H25  1  0.421833  0.894859  0.741168  1
  H  H26  1  0.078167  0.105141  0.241168  1
  H  H27  1  0.578167  0.394859  0.758832  1
  H  H28  1  0.078167  0.394859  0.741168  1
  H  H29  1  0.578167  0.105141  0.258832  1
  H  H30  1  0.921833  0.894859  0.758832  1
  H  H31  1  0.421833  0.605141  0.241168  1
  H  H32  1  0.919090  0.672162  0.154065  1
  H  H33  1  0.419090  0.827838  0.845935  1
  H  H34  1  0.080910  0.172162  0.345935  1
  H  H35  1  0.580910  0.327838  0.654065  1
  H  H36  1  0.080910  0.327838  0.845935  1
  H  H37  1  0.580910  0.172162  0.154065  1
  H  H38  1  0.919090  0.827838  0.654065  1
  H  H39  1  0.419090  0.672162  0.345935  1
  H  H40  1  0.728954  0.287452  0.305926  1
  H  H41  1  0.228954  0.212548  0.694074  1
  H  H42  1  0.271046  0.787452  0.194074  1
  H  H43  1  0.771046  0.712548  0.805926  1
  H  H44  1  0.271046  0.712548  0.694074  1
  H  H45  1  0.771046  0.787452  0.305926  1
  H  H46  1  0.728954  0.212548  0.805926  1
  H  H47  1  0.228954  0.287452  0.194074  1
  H  H48  1  0.877543  0.375237  0.313601  1
  H  H49  1  0.377543  0.124763  0.686399  1
  H  H50  1  0.122457  0.875237  0.186399  1
  H  H51  1  0.622457  0.624763  0.813601  1
  H  H52  1  0.122457  0.624763  0.686399  1
  H  H53  1  0.622457  0.875237  0.313601  1
  H  H54  1  0.877543  0.124763  0.813601  1
  H  H55  1  0.377543  0.375237  0.186399  1
  O  O56  1  0.634119  0.149718  0.377387  1
  O  O57  1  0.134119  0.350282  0.622613  1
  O  O58  1  0.365881  0.649718  0.122613  1
  O  O59  1  0.865881  0.850282  0.877387  1
  O  O60  1  0.365881  0.850282  0.622613  1
  O  O61  1  0.865881  0.649718  0.377387  1
  O  O62  1  0.634119  0.350282  0.877387  1
  O  O63  1  0.134119  0.149718  0.122613  1
  O  O64  1  0.432514  0.354939  0.453718  1
  O  O65  1  0.932514  0.145061  0.546282  1
  O  O66  1  0.567486  0.854939  0.046282  1
  O  O67  1  0.067486  0.645061  0.953718  1
  O  O68  1  0.567486  0.645061  0.546282  1
  O  O69  1  0.067486  0.854939  0.453718  1
  O  O70  1  0.432514  0.145061  0.953718  1
  O  O71  1  0.932514  0.354939  0.046282  1
  O  O72  1  0.569021  0.174069  0.597072  1
  O  O73  1  0.069021  0.325931  0.402928  1
  O  O74  1  0.430979  0.674069  0.902928  1
  O  O75  1  0.930979  0.825931  0.097072  1
  O  O76  1  0.430979  0.825931  0.402928  1
  O  O77  1  0.930979  0.674069  0.597072  1
  O  O78  1  0.569021  0.325931  0.097072  1
  O  O79  1  0.069021  0.174069  0.902928  1
  O  O80  1  0.321626  0.086215  0.462018  1
  O  O81  1  0.821626  0.413785  0.537982  1
  O  O82  1  0.678374  0.586215  0.037982  1
  O  O83  1  0.178374  0.913785  0.962018  1
  O  O84  1  0.678374  0.913785  0.537982  1
  O  O85  1  0.178374  0.586215  0.462018  1
  O  O86  1  0.321626  0.413785  0.962018  1
  O  O87  1  0.821626  0.086215  0.037982  1
  O  O88  1  0.566412  0.413171  0.686402  1
  O  O89  1  0.066412  0.086829  0.313598  1
  O  O90  1  0.433588  0.913171  0.813598  1
  O  O91  1  0.933588  0.586829  0.186402  1
  O  O92  1  0.433588  0.586829  0.313598  1
  O  O93  1  0.933588  0.913171  0.686402  1
  O  O94  1  0.566412  0.086829  0.186402  1
  O  O95  1  0.066412  0.413171  0.813598  1
  O  O96  1  0.770377  0.372574  0.284858  1
  O  O97  1  0.270377  0.127426  0.715142  1
  O  O98  1  0.229623  0.872574  0.215142  1
  O  O99  1  0.729623  0.627426  0.784858  1
  O  O100  1  0.229623  0.627426  0.715142  1
  O  O101  1  0.729623  0.872574  0.284858  1
  O  O102  1  0.770377  0.127426  0.784858  1
  O  O103  1  0.270377  0.372574  0.215142  1
