# generated using pymatgen
data_CdI2
_symmetry_space_group_name_H-M   'P 1'
_cell_length_a   4.33289133
_cell_length_b   4.33289133
_cell_length_c   29.63997593
_cell_angle_alpha   90.00000000
_cell_angle_beta   90.00000000
_cell_angle_gamma   120.00000000
_symmetry_Int_Tables_number   1
_chemical_formula_structural   CdI2
_chemical_formula_sum   'Cd4 I8'
_cell_volume   481.90792918
_cell_formula_units_Z   4
loop_
 _symmetry_equiv_pos_site_id
 _symmetry_equiv_pos_as_xyz
  1  'x, y, z'
loop_
 _atom_site_type_symbol
 _atom_site_label
 _atom_site_symmetry_multiplicity
 _atom_site_fract_x
 _atom_site_fract_y
 _atom_site_fract_z
 _atom_site_occupancy
  Cd  Cd0  1  0.000000  0.000000  0.000000  1
  Cd  Cd1  1  0.666667  0.333333  0.749982  1
  Cd  Cd2  1  0.333333  0.666667  0.250018  1
  Cd  Cd3  1  0.000000  0.000000  0.500000  1
  I  I4  1  0.000000  0.000000  0.308319  1
  I  I5  1  0.666667  0.333333  0.441729  1
  I  I6  1  0.000000  0.000000  0.691681  1
  I  I7  1  0.333333  0.666667  0.558271  1
  I  I8  1  0.333333  0.666667  0.808262  1
  I  I9  1  0.666667  0.333333  0.941720  1
  I  I10  1  0.666667  0.333333  0.191738  1
  I  I11  1  0.333333  0.666667  0.058280  1
