# generated using pymatgen
data_Dy2O3
_symmetry_space_group_name_H-M   'P 1'
_cell_length_a   7.25298621
_cell_length_b   7.25298621
_cell_length_c   8.66399377
_cell_angle_alpha   79.95925098
_cell_angle_beta   100.04074902
_cell_angle_gamma   152.02011786
_symmetry_Int_Tables_number   1
_chemical_formula_structural   Dy2O3
_chemical_formula_sum   'Dy6 O9'
_cell_volume   210.35271498
_cell_formula_units_Z   3
loop_
 _symmetry_equiv_pos_site_id
 _symmetry_equiv_pos_as_xyz
  1  'x, y, z'
loop_
 _atom_site_type_symbol
 _atom_site_label
 _atom_site_symmetry_multiplicity
 _atom_site_fract_x
 _atom_site_fract_y
 _atom_site_fract_z
 _atom_site_occupancy
  Dy  Dy0  1  0.365218  0.634782  0.511838  1
  Dy  Dy1  1  0.308393  0.691607  0.862404  1
  Dy  Dy2  1  0.967867  0.032133  0.186124  1
  Dy  Dy3  1  0.634782  0.365218  0.488162  1
  Dy  Dy4  1  0.691607  0.308393  0.137596  1
  Dy  Dy5  1  0.032133  0.967867  0.813876  1
  O  O6  1  0.127968  0.872032  0.282152  1
  O  O7  1  0.205880  0.794120  0.623111  1
  O  O8  1  0.872032  0.127968  0.717848  1
  O  O9  1  0.794120  0.205880  0.376889  1
  O  O10  1  0.500000  0.500000  0.000000  1
  O  O11  1  0.528813  0.471187  0.656941  1
  O  O12  1  0.471187  0.528813  0.343059  1
  O  O13  1  0.825305  0.174695  0.030142  1
  O  O14  1  0.174695  0.825305  0.969858  1
