# generated using pymatgen
data_Ba(FeBr4)2
_symmetry_space_group_name_H-M   'P 1'
_cell_length_a   11.51282820
_cell_length_b   13.48696014
_cell_length_c   22.27164073
_cell_angle_alpha   90.00000000
_cell_angle_beta   90.00000000
_cell_angle_gamma   90.00000000
_symmetry_Int_Tables_number   1
_chemical_formula_structural   Ba(FeBr4)2
_chemical_formula_sum   'Ba8 Fe16 Br64'
_cell_volume   3458.18569672
_cell_formula_units_Z   8
loop_
 _symmetry_equiv_pos_site_id
 _symmetry_equiv_pos_as_xyz
  1  'x, y, z'
loop_
 _atom_site_type_symbol
 _atom_site_label
 _atom_site_symmetry_multiplicity
 _atom_site_fract_x
 _atom_site_fract_y
 _atom_site_fract_z
 _atom_site_occupancy
  Ba  Ba0  1  0.152149  0.470620  0.612391  1
  Ba  Ba1  1  0.652149  0.529380  0.887609  1
  Ba  Ba2  1  0.347851  0.470620  0.112391  1
  Ba  Ba3  1  0.152149  0.970620  0.887609  1
  Ba  Ba4  1  0.847851  0.029380  0.112391  1
  Ba  Ba5  1  0.847851  0.529380  0.387609  1
  Ba  Ba6  1  0.652149  0.029380  0.612391  1
  Ba  Ba7  1  0.347851  0.970620  0.387609  1
  Fe  Fe8  1  0.110989  0.029993  0.246591  1
  Fe  Fe9  1  0.389011  0.529993  0.753409  1
  Fe  Fe10  1  0.776187  0.270988  0.504347  1
  Fe  Fe11  1  0.723813  0.770988  0.495653  1
  Fe  Fe12  1  0.276187  0.729012  0.995653  1
  Fe  Fe13  1  0.776187  0.770988  0.995653  1
  Fe  Fe14  1  0.389011  0.029993  0.746591  1
  Fe  Fe15  1  0.723813  0.270988  0.004347  1
  Fe  Fe16  1  0.276187  0.229012  0.504347  1
  Fe  Fe17  1  0.223813  0.729012  0.495653  1
  Fe  Fe18  1  0.889011  0.970007  0.753409  1
  Fe  Fe19  1  0.610989  0.970007  0.253409  1
  Fe  Fe20  1  0.610989  0.470007  0.246591  1
  Fe  Fe21  1  0.223813  0.229012  0.004347  1
  Fe  Fe22  1  0.110989  0.529993  0.253409  1
  Fe  Fe23  1  0.889011  0.470007  0.746591  1
  Br  Br24  1  0.285654  0.115373  0.266420  1
  Br  Br25  1  0.613812  0.056917  0.345641  1
  Br  Br26  1  0.816556  0.783419  0.401973  1
  Br  Br27  1  0.683444  0.283419  0.598027  1
  Br  Br28  1  0.183444  0.716581  0.901973  1
  Br  Br29  1  0.113812  0.443083  0.345641  1
  Br  Br30  1  0.683731  0.601248  0.509178  1
  Br  Br31  1  0.045763  0.357912  0.738469  1
  Br  Br32  1  0.449312  0.630274  0.999175  1
  Br  Br33  1  0.454237  0.357912  0.238469  1
  Br  Br34  1  0.954237  0.142088  0.238469  1
  Br  Br35  1  0.316556  0.716581  0.401973  1
  Br  Br36  1  0.162309  0.663013  0.073561  1
  Br  Br37  1  0.113812  0.943083  0.154359  1
  Br  Br38  1  0.214346  0.615373  0.733580  1
  Br  Br39  1  0.089510  0.916590  0.326938  1
  Br  Br40  1  0.545763  0.142088  0.738469  1
  Br  Br41  1  0.886188  0.556917  0.654359  1
  Br  Br42  1  0.662309  0.336987  0.426439  1
  Br  Br43  1  0.386188  0.943083  0.654359  1
  Br  Br44  1  0.816269  0.101248  0.490822  1
  Br  Br45  1  0.683444  0.783419  0.901973  1
  Br  Br46  1  0.816269  0.601248  0.009178  1
  Br  Br47  1  0.589510  0.583410  0.326938  1
  Br  Br48  1  0.316269  0.398752  0.490822  1
  Br  Br49  1  0.785654  0.884627  0.233580  1
  Br  Br50  1  0.089510  0.416590  0.173062  1
  Br  Br51  1  0.949312  0.869726  0.999175  1
  Br  Br52  1  0.050688  0.130274  0.000825  1
  Br  Br53  1  0.410490  0.916590  0.826938  1
  Br  Br54  1  0.886188  0.056917  0.845641  1
  Br  Br55  1  0.183731  0.898752  0.509178  1
  Br  Br56  1  0.662309  0.836987  0.073561  1
  Br  Br57  1  0.545763  0.642088  0.761531  1
  Br  Br58  1  0.183731  0.398752  0.990822  1
  Br  Br59  1  0.589510  0.083410  0.173062  1
  Br  Br60  1  0.410490  0.416590  0.673062  1
  Br  Br61  1  0.316556  0.216581  0.098027  1
  Br  Br62  1  0.337691  0.663013  0.573561  1
  Br  Br63  1  0.337691  0.163013  0.926439  1
  Br  Br64  1  0.285654  0.615373  0.233580  1
  Br  Br65  1  0.954237  0.642088  0.261531  1
  Br  Br66  1  0.449312  0.130274  0.500825  1
  Br  Br67  1  0.050688  0.630274  0.499175  1
  Br  Br68  1  0.162309  0.163013  0.426439  1
  Br  Br69  1  0.910490  0.083410  0.673062  1
  Br  Br70  1  0.683731  0.101248  0.990822  1
  Br  Br71  1  0.910490  0.583410  0.826938  1
  Br  Br72  1  0.183444  0.216581  0.598027  1
  Br  Br73  1  0.454237  0.857912  0.261531  1
  Br  Br74  1  0.045763  0.857912  0.761531  1
  Br  Br75  1  0.949312  0.369726  0.500825  1
  Br  Br76  1  0.550688  0.369726  0.000825  1
  Br  Br77  1  0.785654  0.384627  0.266420  1
  Br  Br78  1  0.714346  0.884627  0.733580  1
  Br  Br79  1  0.550688  0.869726  0.499175  1
  Br  Br80  1  0.214346  0.115373  0.766420  1
  Br  Br81  1  0.837691  0.836987  0.573561  1
  Br  Br82  1  0.613812  0.556917  0.154359  1
  Br  Br83  1  0.837691  0.336987  0.926439  1
  Br  Br84  1  0.386188  0.443083  0.845641  1
  Br  Br85  1  0.316269  0.898752  0.009178  1
  Br  Br86  1  0.816556  0.283419  0.098027  1
  Br  Br87  1  0.714346  0.384627  0.766420  1
