# generated using pymatgen
data_SrLi2Ta2O7
_symmetry_space_group_name_H-M   'P 1'
_cell_length_a   9.62729249
_cell_length_b   9.62729249
_cell_length_c   5.63089294
_cell_angle_alpha   90.00000000
_cell_angle_beta   90.00000000
_cell_angle_gamma   145.95226044
_symmetry_Int_Tables_number   1
_chemical_formula_structural   SrLi2Ta2O7
_chemical_formula_sum   'Sr2 Li4 Ta4 O14'
_cell_volume   292.20204559
_cell_formula_units_Z   2
loop_
 _symmetry_equiv_pos_site_id
 _symmetry_equiv_pos_as_xyz
  1  'x, y, z'
loop_
 _atom_site_type_symbol
 _atom_site_label
 _atom_site_symmetry_multiplicity
 _atom_site_fract_x
 _atom_site_fract_y
 _atom_site_fract_z
 _atom_site_occupancy
  Sr  Sr0  1  0.254801  0.254801  0.250000  1
  Sr  Sr1  1  0.745199  0.745199  0.750000  1
  Li  Li2  1  0.741702  0.258298  0.500000  1
  Li  Li3  1  0.258298  0.741702  0.500000  1
  Li  Li4  1  0.258298  0.741702  1.000000  1
  Li  Li5  1  0.741702  0.258298  1.000000  1
  Ta  Ta6  1  0.132726  0.362002  0.750000  1
  Ta  Ta7  1  0.362002  0.132726  0.750000  1
  Ta  Ta8  1  0.637998  0.867274  0.250000  1
  Ta  Ta9  1  0.867274  0.637998  0.250000  1
  O  O10  1  0.903085  0.096915  1.000000  1
  O  O11  1  0.989795  0.555824  0.250000  1
  O  O12  1  0.612380  0.387620  1.000000  1
  O  O13  1  0.903085  0.096915  0.500000  1
  O  O14  1  0.555824  0.989795  0.250000  1
  O  O15  1  0.096915  0.903085  1.000000  1
  O  O16  1  0.612380  0.387620  0.500000  1
  O  O17  1  0.387620  0.612380  0.500000  1
  O  O18  1  0.096915  0.903085  0.500000  1
  O  O19  1  0.444176  0.010205  0.750000  1
  O  O20  1  0.284791  0.284791  0.750000  1
  O  O21  1  0.010205  0.444176  0.750000  1
  O  O22  1  0.387620  0.612380  1.000000  1
  O  O23  1  0.715209  0.715209  0.250000  1
