# generated using pymatgen
data_CsTmSeCl2O3
_symmetry_space_group_name_H-M   'P 1'
_cell_length_a   6.64026417
_cell_length_b   6.97331982
_cell_length_c   18.10876331
_cell_angle_alpha   90.00000000
_cell_angle_beta   102.78178290
_cell_angle_gamma   90.00000000
_symmetry_Int_Tables_number   1
_chemical_formula_structural   CsTmSeCl2O3
_chemical_formula_sum   'Cs4 Tm4 Se4 Cl8 O12'
_cell_volume   817.74184129
_cell_formula_units_Z   4
loop_
 _symmetry_equiv_pos_site_id
 _symmetry_equiv_pos_as_xyz
  1  'x, y, z'
loop_
 _atom_site_type_symbol
 _atom_site_label
 _atom_site_symmetry_multiplicity
 _atom_site_fract_x
 _atom_site_fract_y
 _atom_site_fract_z
 _atom_site_occupancy
  Cs  Cs0  1  0.753460  0.210439  0.946055  1
  Cs  Cs1  1  0.246540  0.710439  0.553945  1
  Cs  Cs2  1  0.246540  0.789561  0.053945  1
  Cs  Cs3  1  0.753460  0.289561  0.446055  1
  Tm  Tm4  1  0.862465  0.821381  0.242335  1
  Tm  Tm5  1  0.862465  0.678619  0.742335  1
  Tm  Tm6  1  0.137535  0.178619  0.757665  1
  Tm  Tm7  1  0.137535  0.321381  0.257665  1
  Se  Se8  1  0.637249  0.183040  0.707705  1
  Se  Se9  1  0.362751  0.683040  0.792295  1
  Se  Se10  1  0.637249  0.316960  0.207705  1
  Se  Se11  1  0.362751  0.816960  0.292295  1
  Cl  Cl12  1  0.873438  0.688383  0.888074  1
  Cl  Cl13  1  0.126562  0.188383  0.611926  1
  Cl  Cl14  1  0.873438  0.811617  0.388074  1
  Cl  Cl15  1  0.126562  0.311617  0.111926  1
  Cl  Cl16  1  0.227653  0.160975  0.906646  1
  Cl  Cl17  1  0.772347  0.660975  0.593354  1
  Cl  Cl18  1  0.772347  0.839025  0.093354  1
  Cl  Cl19  1  0.227653  0.339025  0.406646  1
  O  O20  1  0.511632  0.825000  0.227105  1
  O  O21  1  0.819379  0.001612  0.735979  1
  O  O22  1  0.488368  0.175000  0.772895  1
  O  O23  1  0.180621  0.998388  0.264021  1
  O  O24  1  0.176016  0.644614  0.255758  1
  O  O25  1  0.180621  0.501612  0.764021  1
  O  O26  1  0.823984  0.355386  0.744242  1
  O  O27  1  0.176016  0.855386  0.755758  1
  O  O28  1  0.823984  0.144614  0.244242  1
  O  O29  1  0.819379  0.498388  0.235979  1
  O  O30  1  0.488368  0.325000  0.272895  1
  O  O31  1  0.511632  0.675000  0.727105  1
