# generated using pymatgen
data_KFeP2O7
_symmetry_space_group_name_H-M   'P 1'
_cell_length_a   7.48921675
_cell_length_b   10.15359090
_cell_length_c   8.32816451
_cell_angle_alpha   90.00000000
_cell_angle_beta   106.67337047
_cell_angle_gamma   90.00000000
_symmetry_Int_Tables_number   1
_chemical_formula_structural   KFeP2O7
_chemical_formula_sum   'K4 Fe4 P8 O28'
_cell_volume   606.66773151
_cell_formula_units_Z   4
loop_
 _symmetry_equiv_pos_site_id
 _symmetry_equiv_pos_as_xyz
  1  'x, y, z'
loop_
 _atom_site_type_symbol
 _atom_site_label
 _atom_site_symmetry_multiplicity
 _atom_site_fract_x
 _atom_site_fract_y
 _atom_site_fract_z
 _atom_site_occupancy
  K  K0  1  0.177973  0.679171  0.053762  1
  K  K1  1  0.822027  0.179171  0.446238  1
  K  K2  1  0.822027  0.320829  0.946238  1
  K  K3  1  0.177973  0.820829  0.553762  1
  Fe  Fe4  1  0.236295  0.400723  0.761045  1
  Fe  Fe5  1  0.763705  0.900723  0.738955  1
  Fe  Fe6  1  0.763705  0.599277  0.238955  1
  Fe  Fe7  1  0.236295  0.099277  0.261045  1
  P  P8  1  0.439589  0.363695  0.191596  1
  P  P9  1  0.560411  0.863695  0.308404  1
  P  P10  1  0.560411  0.636305  0.808404  1
  P  P11  1  0.439589  0.136305  0.691596  1
  P  P12  1  0.132846  0.096543  0.830748  1
  P  P13  1  0.867154  0.596543  0.669252  1
  P  P14  1  0.867154  0.903457  0.169252  1
  P  P15  1  0.132846  0.403457  0.330748  1
  O  O16  1  0.338196  0.440766  0.314114  1
  O  O17  1  0.661804  0.940766  0.185886  1
  O  O18  1  0.661804  0.559234  0.685886  1
  O  O19  1  0.338196  0.059234  0.814114  1
  O  O20  1  0.081128  0.265527  0.255273  1
  O  O21  1  0.918872  0.765527  0.244727  1
  O  O22  1  0.918872  0.734473  0.744727  1
  O  O23  1  0.081128  0.234473  0.755273  1
  O  O24  1  0.636633  0.420850  0.233462  1
  O  O25  1  0.363367  0.920850  0.266538  1
  O  O26  1  0.363367  0.579150  0.766538  1
  O  O27  1  0.636633  0.079150  0.733462  1
  O  O28  1  0.145287  0.409986  0.514517  1
  O  O29  1  0.854713  0.909986  0.985483  1
  O  O30  1  0.854713  0.590014  0.485483  1
  O  O31  1  0.145287  0.090014  0.014517  1
  O  O32  1  0.320480  0.394068  0.013866  1
  O  O33  1  0.679520  0.894068  0.486134  1
  O  O34  1  0.679520  0.605932  0.986134  1
  O  O35  1  0.320480  0.105932  0.513866  1
  O  O36  1  0.999591  0.505092  0.222684  1
  O  O37  1  0.000409  0.005092  0.277316  1
  O  O38  1  0.000409  0.494908  0.777316  1
  O  O39  1  0.999591  0.994908  0.722684  1
  O  O40  1  0.450707  0.217560  0.242734  1
  O  O41  1  0.549293  0.717560  0.257266  1
  O  O42  1  0.549293  0.782440  0.757266  1
  O  O43  1  0.450707  0.282440  0.742734  1
