# generated using pymatgen
data_GeBr4
_symmetry_space_group_name_H-M   'P 1'
_cell_length_a   11.02939086
_cell_length_b   7.22359052
_cell_length_c   11.39707667
_cell_angle_alpha   90.00000000
_cell_angle_beta   102.16609163
_cell_angle_gamma   90.00000000
_symmetry_Int_Tables_number   1
_chemical_formula_structural   GeBr4
_chemical_formula_sum   'Ge4 Br16'
_cell_volume   887.63210938
_cell_formula_units_Z   4
loop_
 _symmetry_equiv_pos_site_id
 _symmetry_equiv_pos_as_xyz
  1  'x, y, z'
loop_
 _atom_site_type_symbol
 _atom_site_label
 _atom_site_symmetry_multiplicity
 _atom_site_fract_x
 _atom_site_fract_y
 _atom_site_fract_z
 _atom_site_occupancy
  Ge  Ge0  1  0.749316  0.929121  0.858080  1
  Ge  Ge1  1  0.749316  0.570879  0.358080  1
  Ge  Ge2  1  0.250684  0.429121  0.641920  1
  Ge  Ge3  1  0.250684  0.070879  0.141920  1
  Br  Br4  1  0.579487  0.930348  0.700377  1
  Br  Br5  1  0.579487  0.569652  0.200377  1
  Br  Br6  1  0.299412  0.917893  0.980381  1
  Br  Br7  1  0.420513  0.430348  0.799623  1
  Br  Br8  1  0.194414  0.372463  0.090291  1
  Br  Br9  1  0.420513  0.069652  0.299623  1
  Br  Br10  1  0.912496  0.421366  0.300722  1
  Br  Br11  1  0.805586  0.872463  0.409709  1
  Br  Br12  1  0.299412  0.582107  0.480381  1
  Br  Br13  1  0.805586  0.627537  0.909709  1
  Br  Br14  1  0.194414  0.127537  0.590291  1
  Br  Br15  1  0.087504  0.578634  0.699278  1
  Br  Br16  1  0.912496  0.078634  0.800722  1
  Br  Br17  1  0.087504  0.921366  0.199278  1
  Br  Br18  1  0.700588  0.082107  0.019619  1
  Br  Br19  1  0.700588  0.417893  0.519619  1
