# generated using pymatgen
data_LiMn(PO3)3
_symmetry_space_group_name_H-M   'P 1'
_cell_length_a   6.85103620
_cell_length_b   7.32423317
_cell_length_c   7.46856165
_cell_angle_alpha   84.89531276
_cell_angle_beta   83.68720480
_cell_angle_gamma   79.85883460
_symmetry_Int_Tables_number   1
_chemical_formula_structural   LiMn(PO3)3
_chemical_formula_sum   'Li2 Mn2 P6 O18'
_cell_volume   365.74071988
_cell_formula_units_Z   2
loop_
 _symmetry_equiv_pos_site_id
 _symmetry_equiv_pos_as_xyz
  1  'x, y, z'
loop_
 _atom_site_type_symbol
 _atom_site_label
 _atom_site_symmetry_multiplicity
 _atom_site_fract_x
 _atom_site_fract_y
 _atom_site_fract_z
 _atom_site_occupancy
  Li  Li0  1  0.121031  0.134635  0.289846  1
  Li  Li1  1  0.878969  0.865365  0.710154  1
  Mn  Mn2  1  0.569048  0.156340  0.168640  1
  Mn  Mn3  1  0.430952  0.843660  0.831360  1
  P  P4  1  0.229267  0.542687  0.158124  1
  P  P5  1  0.853554  0.777156  0.292442  1
  P  P6  1  0.424853  0.772582  0.373507  1
  P  P7  1  0.575147  0.227418  0.626493  1
  P  P8  1  0.146446  0.222844  0.707558  1
  P  P9  1  0.770733  0.457313  0.841876  1
  O  O10  1  0.707733  0.352281  0.012768  1
  O  O11  1  0.272565  0.332673  0.166644  1
  O  O12  1  0.818741  0.934055  0.147854  1
  O  O13  1  0.373575  0.940911  0.241150  1
  O  O14  1  0.993756  0.597420  0.206848  1
  O  O15  1  0.322842  0.603840  0.328078  1
  O  O16  1  0.654934  0.682618  0.332644  1
  O  O17  1  0.623071  0.201249  0.430007  1
  O  O18  1  0.069954  0.184734  0.537996  1
  O  O19  1  0.930046  0.815266  0.462004  1
  O  O20  1  0.376929  0.798751  0.569993  1
  O  O21  1  0.345066  0.317382  0.667356  1
  O  O22  1  0.677158  0.396160  0.671922  1
  O  O23  1  0.006244  0.402580  0.793152  1
  O  O24  1  0.626425  0.059089  0.758850  1
  O  O25  1  0.181259  0.065945  0.852146  1
  O  O26  1  0.727435  0.667327  0.833356  1
  O  O27  1  0.292267  0.647719  0.987232  1
