# generated using pymatgen
data_Zr6NCl15
_symmetry_space_group_name_H-M   'P 1'
_cell_length_a   18.71649408
_cell_length_b   18.71649408
_cell_length_c   18.71649408
_cell_angle_alpha   109.47122063
_cell_angle_beta   109.47122063
_cell_angle_gamma   109.47122063
_symmetry_Int_Tables_number   1
_chemical_formula_structural   Zr6NCl15
_chemical_formula_sum   'Zr48 N8 Cl120'
_cell_volume   5047.21277030
_cell_formula_units_Z   8
loop_
 _symmetry_equiv_pos_site_id
 _symmetry_equiv_pos_as_xyz
  1  'x, y, z'
loop_
 _atom_site_type_symbol
 _atom_site_label
 _atom_site_symmetry_multiplicity
 _atom_site_fract_x
 _atom_site_fract_y
 _atom_site_fract_z
 _atom_site_occupancy
  Zr  Zr0  1  0.595299  0.980972  0.954635  1
  Zr  Zr1  1  0.595299  0.114327  0.640664  1
  Zr  Zr2  1  0.519028  0.904701  0.545365  1
  Zr  Zr3  1  0.095299  0.454635  0.480972  1
  Zr  Zr4  1  0.095299  0.140664  0.614327  1
  Zr  Zr5  1  0.019028  0.045365  0.404701  1
  Zr  Zr6  1  0.640664  0.545365  0.526337  1
  Zr  Zr7  1  0.954635  0.859336  0.973663  1
  Zr  Zr8  1  0.973663  0.954635  0.859336  1
  Zr  Zr9  1  0.859336  0.385673  0.904701  1
  Zr  Zr10  1  0.954635  0.595299  0.980972  1
  Zr  Zr11  1  0.973663  0.519028  0.114327  1
  Zr  Zr12  1  0.140664  0.026337  0.045365  1
  Zr  Zr13  1  0.454635  0.473663  0.359336  1
  Zr  Zr14  1  0.473663  0.359336  0.454635  1
  Zr  Zr15  1  0.359336  0.404701  0.885673  1
  Zr  Zr16  1  0.454635  0.480972  0.095299  1
  Zr  Zr17  1  0.473663  0.614327  0.019028  1
  Zr  Zr18  1  0.114327  0.973663  0.519028  1
  Zr  Zr19  1  0.980972  0.526337  0.385673  1
  Zr  Zr20  1  0.114327  0.640664  0.595299  1
  Zr  Zr21  1  0.614327  0.019028  0.473663  1
  Zr  Zr22  1  0.480972  0.885673  0.026337  1
  Zr  Zr23  1  0.614327  0.095299  0.140664  1
  Zr  Zr24  1  0.385673  0.904701  0.859336  1
  Zr  Zr25  1  0.519028  0.114327  0.973663  1
  Zr  Zr26  1  0.385673  0.980972  0.526337  1
  Zr  Zr27  1  0.885673  0.359336  0.404701  1
  Zr  Zr28  1  0.019028  0.473663  0.614327  1
  Zr  Zr29  1  0.885673  0.026337  0.480972  1
  Zr  Zr30  1  0.526337  0.385673  0.980972  1
  Zr  Zr31  1  0.545365  0.519028  0.904701  1
  Zr  Zr32  1  0.640664  0.595299  0.114327  1
  Zr  Zr33  1  0.526337  0.640664  0.545365  1
  Zr  Zr34  1  0.545365  0.526337  0.640664  1
  Zr  Zr35  1  0.859336  0.973663  0.954635  1
  Zr  Zr36  1  0.026337  0.480972  0.885673  1
  Zr  Zr37  1  0.045365  0.404701  0.019028  1
  Zr  Zr38  1  0.140664  0.614327  0.095299  1
  Zr  Zr39  1  0.026337  0.045365  0.140664  1
  Zr  Zr40  1  0.045365  0.140664  0.026337  1
  Zr  Zr41  1  0.359336  0.454635  0.473663  1
  Zr  Zr42  1  0.980972  0.954635  0.595299  1
  Zr  Zr43  1  0.904701  0.859336  0.385673  1
  Zr  Zr44  1  0.904701  0.545365  0.519028  1
  Zr  Zr45  1  0.480972  0.095299  0.454635  1
  Zr  Zr46  1  0.404701  0.885673  0.359336  1
  Zr  Zr47  1  0.404701  0.019028  0.045365  1
  N  N48  1  0.000000  0.500000  0.500000  1
  N  N49  1  0.000000  0.000000  0.500000  1
  N  N50  1  0.000000  0.500000  0.000000  1
  N  N51  1  0.000000  0.000000  0.000000  1
  N  N52  1  0.500000  0.500000  0.500000  1
  N  N53  1  0.500000  0.000000  0.500000  1
  N  N54  1  0.500000  0.500000  0.000000  1
  N  N55  1  0.500000  0.000000  1.000000  1
  Cl  Cl56  1  0.052106  0.447894  0.750000  1
  Cl  Cl57  1  0.731111  0.088776  0.103595  1
  Cl  Cl58  1  0.411224  0.768889  0.396405  1
  Cl  Cl59  1  0.731111  0.142334  0.627516  1
  Cl  Cl60  1  0.552106  0.250000  0.947894  1
  Cl  Cl61  1  0.231111  0.603595  0.588776  1
  Cl  Cl62  1  0.911224  0.896405  0.268889  1
  Cl  Cl63  1  0.231111  0.127516  0.642334  1
  Cl  Cl64  1  0.302106  0.750000  0.197894  1
  Cl  Cl65  1  0.627516  0.396405  0.485181  1
  Cl  Cl66  1  0.014819  0.103595  0.872484  1
  Cl  Cl67  1  0.394864  0.021236  0.816159  1
  Cl  Cl68  1  0.103595  0.872484  0.014819  1
  Cl  Cl69  1  0.802106  0.697894  0.250000  1
  Cl  Cl70  1  0.872484  0.357666  0.768889  1
  Cl  Cl71  1  0.103595  0.731111  0.088776  1
  Cl  Cl72  1  0.014819  0.411224  0.142334  1
  Cl  Cl73  1  0.127516  0.985181  0.896405  1
  Cl  Cl74  1  0.514819  0.372484  0.603595  1
  Cl  Cl75  1  0.478764  0.105136  0.683841  1
  Cl  Cl76  1  0.394864  0.873628  0.578705  1
  Cl  Cl77  1  0.052106  0.104213  0.302106  1
  Cl  Cl78  1  0.478764  0.873628  0.794923  1
  Cl  Cl79  1  0.894864  0.316159  0.521236  1
  Cl  Cl80  1  0.626372  0.105136  0.921295  1
  Cl  Cl81  1  0.603595  0.514819  0.372484  1
  Cl  Cl82  1  0.104213  0.302106  0.052106  1
  Cl  Cl83  1  0.372484  0.268889  0.857666  1
  Cl  Cl84  1  0.514819  0.642334  0.911224  1
  Cl  Cl85  1  0.603595  0.588776  0.231111  1
  Cl  Cl86  1  0.142334  0.014819  0.411224  1
  Cl  Cl87  1  0.142334  0.627516  0.731111  1
  Cl  Cl88  1  0.978764  0.183841  0.605136  1
  Cl  Cl89  1  0.626372  0.021236  0.705077  1
  Cl  Cl90  1  0.894864  0.078705  0.373628  1
  Cl  Cl91  1  0.552106  0.802106  0.604213  1
  Cl  Cl92  1  0.978764  0.294923  0.373628  1
  Cl  Cl93  1  0.578705  0.683841  0.705077  1
  Cl  Cl94  1  0.126372  0.421295  0.605136  1
  Cl  Cl95  1  0.088776  0.485181  0.357666  1
  Cl  Cl96  1  0.604213  0.552106  0.802106  1
  Cl  Cl97  1  0.578705  0.394864  0.873628  1
  Cl  Cl98  1  0.705077  0.626372  0.021236  1
  Cl  Cl99  1  0.683841  0.478764  0.105136  1
  Cl  Cl100  1  0.642334  0.911224  0.514819  1
  Cl  Cl101  1  0.642334  0.231111  0.127516  1
  Cl  Cl102  1  0.794923  0.816159  0.921295  1
  Cl  Cl103  1  0.126372  0.205077  0.521236  1
  Cl  Cl104  1  0.816159  0.921295  0.794923  1
  Cl  Cl105  1  0.197894  0.395787  0.447894  1
  Cl  Cl106  1  0.750000  0.052106  0.447894  1
  Cl  Cl107  1  0.750000  0.197894  0.302106  1
  Cl  Cl108  1  0.302106  0.052106  0.104213  1
  Cl  Cl109  1  0.683841  0.705077  0.578705  1
  Cl  Cl110  1  0.078705  0.205077  0.183841  1
  Cl  Cl111  1  0.705077  0.578705  0.683841  1
  Cl  Cl112  1  0.588776  0.857666  0.985181  1
  Cl  Cl113  1  0.078705  0.373628  0.894864  1
  Cl  Cl114  1  0.183841  0.605136  0.978764  1
  Cl  Cl115  1  0.205077  0.521236  0.126372  1
  Cl  Cl116  1  0.794923  0.478764  0.873628  1
  Cl  Cl117  1  0.816159  0.394864  0.021236  1
  Cl  Cl118  1  0.921295  0.626372  0.105136  1
  Cl  Cl119  1  0.411224  0.142334  0.014819  1
  Cl  Cl120  1  0.294923  0.421295  0.316159  1
  Cl  Cl121  1  0.921295  0.794923  0.816159  1
  Cl  Cl122  1  0.316159  0.294923  0.421295  1
  Cl  Cl123  1  0.697894  0.947894  0.895787  1
  Cl  Cl124  1  0.250000  0.802106  0.697894  1
  Cl  Cl125  1  0.250000  0.947894  0.552106  1
  Cl  Cl126  1  0.802106  0.604213  0.552106  1
  Cl  Cl127  1  0.183841  0.078705  0.205077  1
  Cl  Cl128  1  0.873628  0.794923  0.478764  1
  Cl  Cl129  1  0.205077  0.183841  0.078705  1
  Cl  Cl130  1  0.357666  0.768889  0.872484  1
  Cl  Cl131  1  0.357666  0.088776  0.485181  1
  Cl  Cl132  1  0.316159  0.521236  0.894864  1
  Cl  Cl133  1  0.294923  0.373628  0.978764  1
  Cl  Cl134  1  0.421295  0.605136  0.126372  1
  Cl  Cl135  1  0.395787  0.447894  0.197894  1
  Cl  Cl136  1  0.911224  0.514819  0.642334  1
  Cl  Cl137  1  0.873628  0.578705  0.394864  1
  Cl  Cl138  1  0.421295  0.316159  0.294923  1
  Cl  Cl139  1  0.021236  0.705077  0.626372  1
  Cl  Cl140  1  0.447894  0.197894  0.395787  1
  Cl  Cl141  1  0.105136  0.921295  0.626372  1
  Cl  Cl142  1  0.373628  0.978764  0.294923  1
  Cl  Cl143  1  0.021236  0.816159  0.394864  1
  Cl  Cl144  1  0.857666  0.372484  0.268889  1
  Cl  Cl145  1  0.857666  0.985181  0.588776  1
  Cl  Cl146  1  0.396405  0.411224  0.768889  1
  Cl  Cl147  1  0.485181  0.357666  0.088776  1
  Cl  Cl148  1  0.627516  0.731111  0.142334  1
  Cl  Cl149  1  0.895787  0.697894  0.947894  1
  Cl  Cl150  1  0.396405  0.485181  0.627516  1
  Cl  Cl151  1  0.373628  0.894864  0.078705  1
  Cl  Cl152  1  0.105136  0.683841  0.478764  1
  Cl  Cl153  1  0.521236  0.126372  0.205077  1
  Cl  Cl154  1  0.947894  0.895787  0.697894  1
  Cl  Cl155  1  0.605136  0.126372  0.421295  1
  Cl  Cl156  1  0.521236  0.894864  0.316159  1
  Cl  Cl157  1  0.485181  0.627516  0.396405  1
  Cl  Cl158  1  0.872484  0.014819  0.103595  1
  Cl  Cl159  1  0.985181  0.588776  0.857666  1
  Cl  Cl160  1  0.896405  0.268889  0.911224  1
  Cl  Cl161  1  0.127516  0.642334  0.231111  1
  Cl  Cl162  1  0.197894  0.302106  0.750000  1
  Cl  Cl163  1  0.896405  0.127516  0.985181  1
  Cl  Cl164  1  0.605136  0.978764  0.183841  1
  Cl  Cl165  1  0.985181  0.896405  0.127516  1
  Cl  Cl166  1  0.372484  0.603595  0.514819  1
  Cl  Cl167  1  0.697894  0.250000  0.802106  1
  Cl  Cl168  1  0.768889  0.872484  0.357666  1
  Cl  Cl169  1  0.088776  0.103595  0.731111  1
  Cl  Cl170  1  0.768889  0.396405  0.411224  1
  Cl  Cl171  1  0.447894  0.750000  0.052106  1
  Cl  Cl172  1  0.268889  0.857666  0.372484  1
  Cl  Cl173  1  0.588776  0.231111  0.603595  1
  Cl  Cl174  1  0.268889  0.911224  0.896405  1
  Cl  Cl175  1  0.947894  0.552106  0.250000  1
