# generated using pymatgen
data_LiMnP2O7
_symmetry_space_group_name_H-M   'P 1'
_cell_length_a   6.95283000
_cell_length_b   8.07030330
_cell_length_c   9.68128322
_cell_angle_alpha   90.00000000
_cell_angle_beta   112.37249999
_cell_angle_gamma   90.00000000
_symmetry_Int_Tables_number   1
_chemical_formula_structural   LiMnP2O7
_chemical_formula_sum   'Li4 Mn4 P8 O28'
_cell_volume   502.34118955
_cell_formula_units_Z   4
loop_
 _symmetry_equiv_pos_site_id
 _symmetry_equiv_pos_as_xyz
  1  'x, y, z'
loop_
 _atom_site_type_symbol
 _atom_site_label
 _atom_site_symmetry_multiplicity
 _atom_site_fract_x
 _atom_site_fract_y
 _atom_site_fract_z
 _atom_site_occupancy
  Li  Li0  1  0.707324  0.129507  0.523783  1
  Li  Li1  1  0.707324  0.370493  0.023783  1
  Li  Li2  1  0.292676  0.629507  0.976217  1
  Li  Li3  1  0.292676  0.870493  0.476217  1
  Mn  Mn4  1  0.775975  0.764520  0.995762  1
  Mn  Mn5  1  0.775975  0.735480  0.495762  1
  Mn  Mn6  1  0.224025  0.264520  0.504238  1
  Mn  Mn7  1  0.224025  0.235480  0.004238  1
  P  P8  1  0.452819  0.461339  0.297056  1
  P  P9  1  0.452819  0.038661  0.797056  1
  P  P10  1  0.046327  0.581779  0.300057  1
  P  P11  1  0.953673  0.081779  0.199943  1
  P  P12  1  0.547181  0.538661  0.702944  1
  P  P13  1  0.547181  0.961339  0.202944  1
  P  P14  1  0.046327  0.918221  0.800057  1
  P  P15  1  0.953673  0.418221  0.699943  1
  O  O16  1  0.887072  0.918750  0.635730  1
  O  O17  1  0.348680  0.064862  0.150794  1
  O  O18  1  0.454776  0.317240  0.398089  1
  O  O19  1  0.273192  0.594827  0.288072  1
  O  O20  1  0.594645  0.586259  0.869254  1
  O  O21  1  0.651320  0.935138  0.849206  1
  O  O22  1  0.545224  0.682760  0.601911  1
  O  O23  1  0.726808  0.405173  0.711928  1
  O  O24  1  0.594645  0.913741  0.369254  1
  O  O25  1  0.651320  0.564862  0.349206  1
  O  O26  1  0.545224  0.817240  0.101911  1
  O  O27  1  0.405355  0.413741  0.130746  1
  O  O28  1  0.035966  0.771745  0.894929  1
  O  O29  1  0.032128  0.088462  0.864279  1
  O  O30  1  0.726808  0.094827  0.211928  1
  O  O31  1  0.967872  0.588462  0.635721  1
  O  O32  1  0.964034  0.271745  0.605071  1
  O  O33  1  0.112928  0.418750  0.864270  1
  O  O34  1  0.405355  0.086259  0.630746  1
  O  O35  1  0.035966  0.728255  0.394929  1
  O  O36  1  0.032128  0.411538  0.364279  1
  O  O37  1  0.273192  0.905173  0.788072  1
  O  O38  1  0.967872  0.911538  0.135721  1
  O  O39  1  0.964034  0.228255  0.105071  1
  O  O40  1  0.112928  0.081250  0.364270  1
  O  O41  1  0.454776  0.182760  0.898089  1
  O  O42  1  0.348680  0.435138  0.650794  1
  O  O43  1  0.887072  0.581250  0.135730  1
