# generated using pymatgen
data_Cu3P4(SI)3
_symmetry_space_group_name_H-M   'P 1'
_cell_length_a   7.14029853
_cell_length_b   10.13782347
_cell_length_c   19.47175323
_cell_angle_alpha   90.00000000
_cell_angle_beta   90.00000000
_cell_angle_gamma   90.00000000
_symmetry_Int_Tables_number   1
_chemical_formula_structural   Cu3P4(SI)3
_chemical_formula_sum   'Cu12 P16 S12 I12'
_cell_volume   1409.50347602
_cell_formula_units_Z   4
loop_
 _symmetry_equiv_pos_site_id
 _symmetry_equiv_pos_as_xyz
  1  'x, y, z'
loop_
 _atom_site_type_symbol
 _atom_site_label
 _atom_site_symmetry_multiplicity
 _atom_site_fract_x
 _atom_site_fract_y
 _atom_site_fract_z
 _atom_site_occupancy
  Cu  Cu0  1  0.457569  0.517191  0.317188  1
  Cu  Cu1  1  0.542431  0.482809  0.682812  1
  Cu  Cu2  1  0.461131  0.250000  0.131517  1
  Cu  Cu3  1  0.542431  0.017191  0.682812  1
  Cu  Cu4  1  0.042431  0.517191  0.817188  1
  Cu  Cu5  1  0.457569  0.982809  0.317188  1
  Cu  Cu6  1  0.538869  0.750000  0.868483  1
  Cu  Cu7  1  0.961131  0.750000  0.368483  1
  Cu  Cu8  1  0.957569  0.482809  0.182812  1
  Cu  Cu9  1  0.042431  0.982809  0.817188  1
  Cu  Cu10  1  0.038869  0.250000  0.631517  1
  Cu  Cu11  1  0.957569  0.017191  0.182812  1
  P  P12  1  0.419878  0.250000  0.854522  1
  P  P13  1  0.161638  0.363093  0.886556  1
  P  P14  1  0.661638  0.863093  0.613444  1
  P  P15  1  0.161638  0.136907  0.886556  1
  P  P16  1  0.080122  0.250000  0.354522  1
  P  P17  1  0.338362  0.136907  0.386556  1
  P  P18  1  0.373839  0.250000  0.022317  1
  P  P19  1  0.126161  0.250000  0.522317  1
  P  P20  1  0.919878  0.750000  0.645478  1
  P  P21  1  0.873839  0.750000  0.477683  1
  P  P22  1  0.580122  0.750000  0.145478  1
  P  P23  1  0.838362  0.863093  0.113444  1
  P  P24  1  0.838362  0.636907  0.113444  1
  P  P25  1  0.661638  0.636907  0.613444  1
  P  P26  1  0.338362  0.363093  0.386556  1
  P  P27  1  0.626161  0.750000  0.977683  1
  S  S28  1  0.706020  0.910813  0.509813  1
  S  S29  1  0.793980  0.910813  0.009813  1
  S  S30  1  0.293980  0.089187  0.490187  1
  S  S31  1  0.918468  0.250000  0.444381  1
  S  S32  1  0.706020  0.589187  0.509813  1
  S  S33  1  0.206020  0.089187  0.990187  1
  S  S34  1  0.206020  0.410813  0.990187  1
  S  S35  1  0.581532  0.250000  0.944381  1
  S  S36  1  0.793980  0.589187  0.009813  1
  S  S37  1  0.293980  0.410813  0.490187  1
  S  S38  1  0.418468  0.750000  0.055619  1
  S  S39  1  0.081532  0.750000  0.555619  1
  I  I40  1  0.827851  0.250000  0.141453  1
  I  I41  1  0.672149  0.250000  0.641453  1
  I  I42  1  0.823865  0.962119  0.307089  1
  I  I43  1  0.172149  0.750000  0.858547  1
  I  I44  1  0.176135  0.037881  0.692911  1
  I  I45  1  0.323865  0.037881  0.192911  1
  I  I46  1  0.176135  0.462119  0.692911  1
  I  I47  1  0.327851  0.750000  0.358547  1
  I  I48  1  0.823865  0.537881  0.307089  1
  I  I49  1  0.676135  0.962119  0.807089  1
  I  I50  1  0.676135  0.537881  0.807089  1
  I  I51  1  0.323865  0.462119  0.192911  1
