# generated using pymatgen
data_NaAl3NiCl12
_symmetry_space_group_name_H-M   'P 1'
_cell_length_a   12.69074902
_cell_length_b   12.21289496
_cell_length_c   13.82127634
_cell_angle_alpha   90.00000000
_cell_angle_beta   106.83734797
_cell_angle_gamma   90.00000000
_symmetry_Int_Tables_number   1
_chemical_formula_structural   NaAl3NiCl12
_chemical_formula_sum   'Na4 Al12 Ni4 Cl48'
_cell_volume   2050.33752452
_cell_formula_units_Z   4
loop_
 _symmetry_equiv_pos_site_id
 _symmetry_equiv_pos_as_xyz
  1  'x, y, z'
loop_
 _atom_site_type_symbol
 _atom_site_label
 _atom_site_symmetry_multiplicity
 _atom_site_fract_x
 _atom_site_fract_y
 _atom_site_fract_z
 _atom_site_occupancy
  Na  Na0  1  0.016971  0.207704  0.290713  1
  Na  Na1  1  0.983029  0.792296  0.709287  1
  Na  Na2  1  0.516971  0.292296  0.290713  1
  Na  Na3  1  0.483029  0.707704  0.709287  1
  Al  Al4  1  0.676211  0.986901  0.722029  1
  Al  Al5  1  0.113059  0.753107  0.980814  1
  Al  Al6  1  0.175121  0.080307  0.610882  1
  Al  Al7  1  0.823789  0.486901  0.277971  1
  Al  Al8  1  0.613059  0.746893  0.980814  1
  Al  Al9  1  0.675121  0.419693  0.610882  1
  Al  Al10  1  0.324879  0.580307  0.389118  1
  Al  Al11  1  0.824879  0.919693  0.389118  1
  Al  Al12  1  0.176211  0.513099  0.722029  1
  Al  Al13  1  0.386941  0.253107  0.019186  1
  Al  Al14  1  0.323789  0.013099  0.277971  1
  Al  Al15  1  0.886941  0.246893  0.019186  1
  Ni  Ni16  1  0.758723  0.737766  0.214301  1
  Ni  Ni17  1  0.741277  0.237766  0.785699  1
  Ni  Ni18  1  0.241277  0.262234  0.785699  1
  Ni  Ni19  1  0.258723  0.762234  0.214301  1
  Cl  Cl20  1  0.746395  0.114477  0.647665  1
  Cl  Cl21  1  0.167424  0.614713  0.275938  1
  Cl  Cl22  1  0.739349  0.337904  0.936353  1
  Cl  Cl23  1  0.080796  0.831071  0.112344  1
  Cl  Cl24  1  0.253605  0.885523  0.352335  1
  Cl  Cl25  1  0.133137  0.910895  0.599306  1
  Cl  Cl26  1  0.753605  0.614477  0.352335  1
  Cl  Cl27  1  0.639702  0.092413  0.836797  1
  Cl  Cl28  1  0.514230  0.147538  0.102705  1
  Cl  Cl29  1  0.366863  0.410895  0.400694  1
  Cl  Cl30  1  0.832576  0.385287  0.724062  1
  Cl  Cl31  1  0.667424  0.885287  0.275938  1
  Cl  Cl32  1  0.246395  0.385523  0.647665  1
  Cl  Cl33  1  0.360298  0.907587  0.163203  1
  Cl  Cl34  1  0.816831  0.852226  0.530001  1
  Cl  Cl35  1  0.014230  0.352462  0.102705  1
  Cl  Cl36  1  0.203958  0.133707  0.208790  1
  Cl  Cl37  1  0.571669  0.323103  0.681380  1
  Cl  Cl38  1  0.683169  0.352226  0.469999  1
  Cl  Cl39  1  0.428331  0.676897  0.318620  1
  Cl  Cl40  1  0.071669  0.176897  0.681380  1
  Cl  Cl41  1  0.580796  0.668929  0.112344  1
  Cl  Cl42  1  0.857386  0.125553  0.119997  1
  Cl  Cl43  1  0.470028  0.086890  0.373523  1
  Cl  Cl44  1  0.919204  0.168929  0.887656  1
  Cl  Cl45  1  0.183169  0.147774  0.469999  1
  Cl  Cl46  1  0.239349  0.162096  0.936353  1
  Cl  Cl47  1  0.529972  0.913110  0.626477  1
  Cl  Cl48  1  0.703958  0.366293  0.208790  1
  Cl  Cl49  1  0.642614  0.625553  0.880003  1
  Cl  Cl50  1  0.029972  0.586890  0.626477  1
  Cl  Cl51  1  0.796042  0.866293  0.791210  1
  Cl  Cl52  1  0.485770  0.852462  0.897295  1
  Cl  Cl53  1  0.142614  0.874447  0.880003  1
  Cl  Cl54  1  0.139702  0.407587  0.836797  1
  Cl  Cl55  1  0.357386  0.374447  0.119997  1
  Cl  Cl56  1  0.419204  0.331071  0.887656  1
  Cl  Cl57  1  0.985770  0.647538  0.897295  1
  Cl  Cl58  1  0.928331  0.823103  0.318620  1
  Cl  Cl59  1  0.760651  0.837904  0.063647  1
  Cl  Cl60  1  0.316831  0.647774  0.530001  1
  Cl  Cl61  1  0.633137  0.589105  0.599306  1
  Cl  Cl62  1  0.860298  0.592413  0.163203  1
  Cl  Cl63  1  0.970028  0.413110  0.373523  1
  Cl  Cl64  1  0.260651  0.662096  0.063647  1
  Cl  Cl65  1  0.296042  0.633707  0.791210  1
  Cl  Cl66  1  0.332576  0.114713  0.724062  1
  Cl  Cl67  1  0.866863  0.089105  0.400694  1
