# generated using pymatgen
data_Ba2Ni7F18
_symmetry_space_group_name_H-M   'P 1'
_cell_length_a   7.00401909
_cell_length_b   7.31191708
_cell_length_c   7.55517216
_cell_angle_alpha   94.43935846
_cell_angle_beta   93.10269289
_cell_angle_gamma   115.76651249
_symmetry_Int_Tables_number   1
_chemical_formula_structural   Ba2Ni7F18
_chemical_formula_sum   'Ba2 Ni7 F18'
_cell_volume   345.74172220
_cell_formula_units_Z   1
loop_
 _symmetry_equiv_pos_site_id
 _symmetry_equiv_pos_as_xyz
  1  'x, y, z'
loop_
 _atom_site_type_symbol
 _atom_site_label
 _atom_site_symmetry_multiplicity
 _atom_site_fract_x
 _atom_site_fract_y
 _atom_site_fract_z
 _atom_site_occupancy
  Ba  Ba0  1  0.686133  0.306418  0.366462  1
  Ba  Ba1  1  0.313867  0.693582  0.633538  1
  Ni  Ni2  1  0.394380  0.278035  0.882035  1
  Ni  Ni3  1  0.605620  0.721965  0.117965  1
  Ni  Ni4  1  0.181104  0.384143  0.195200  1
  Ni  Ni5  1  0.818896  0.615857  0.804800  1
  Ni  Ni6  1  0.810459  0.124689  0.818120  1
  Ni  Ni7  1  0.189541  0.875311  0.181880  1
  Ni  Ni8  1  0.000000  0.000000  0.500000  1
  F  F9  1  0.319015  0.512344  0.973737  1
  F  F10  1  0.680985  0.487656  0.026263  1
  F  F11  1  0.504430  0.078031  0.817464  1
  F  F12  1  0.495570  0.921969  0.182536  1
  F  F13  1  0.900279  0.394936  0.719384  1
  F  F14  1  0.099721  0.605064  0.280616  1
  F  F15  1  0.293917  0.174144  0.119374  1
  F  F16  1  0.706083  0.825856  0.880626  1
  F  F17  1  0.097556  0.127850  0.758002  1
  F  F18  1  0.479256  0.559132  0.321374  1
  F  F19  1  0.520744  0.440868  0.678626  1
  F  F20  1  0.107609  0.770129  0.927305  1
  F  F21  1  0.892391  0.229871  0.072695  1
  F  F22  1  0.718329  0.992659  0.558553  1
  F  F23  1  0.281671  0.007341  0.441447  1
  F  F24  1  0.922303  0.719384  0.574524  1
  F  F25  1  0.077697  0.280616  0.425476  1
  F  F26  1  0.902444  0.872150  0.241998  1
