# generated using pymatgen
data_Ba3Lu4O9
_symmetry_space_group_name_H-M   'P 1'
_cell_length_a   9.05077674
_cell_length_b   9.05077674
_cell_length_c   9.05077674
_cell_angle_alpha   38.90131074
_cell_angle_beta   38.90131074
_cell_angle_gamma   38.90131074
_symmetry_Int_Tables_number   1
_chemical_formula_structural   Ba3Lu4O9
_chemical_formula_sum   'Ba3 Lu4 O9'
_cell_volume   262.89482125
_cell_formula_units_Z   1
loop_
 _symmetry_equiv_pos_site_id
 _symmetry_equiv_pos_as_xyz
  1  'x, y, z'
loop_
 _atom_site_type_symbol
 _atom_site_label
 _atom_site_symmetry_multiplicity
 _atom_site_fract_x
 _atom_site_fract_y
 _atom_site_fract_z
 _atom_site_occupancy
  Ba  Ba0  1  0.002678  0.002678  0.002678  1
  Ba  Ba1  1  0.838663  0.838663  0.838663  1
  Ba  Ba2  1  0.418519  0.418519  0.418519  1
  Lu  Lu3  1  0.577843  0.577843  0.577843  1
  Lu  Lu4  1  0.139305  0.139305  0.139305  1
  Lu  Lu5  1  0.263481  0.263481  0.263481  1
  Lu  Lu6  1  0.702155  0.702155  0.702155  1
  O  O7  1  0.915669  0.421099  0.925652  1
  O  O8  1  0.925652  0.915669  0.421099  1
  O  O9  1  0.421099  0.925652  0.915669  1
  O  O10  1  0.381406  0.335797  0.877207  1
  O  O11  1  0.877207  0.381406  0.335797  1
  O  O12  1  0.335797  0.877207  0.381406  1
  O  O13  1  0.517381  0.448463  0.965981  1
  O  O14  1  0.965981  0.517381  0.448463  1
  O  O15  1  0.448463  0.965981  0.517381  1
