# generated using pymatgen
data_Cs2Li2SiO4
_symmetry_space_group_name_H-M   'P 1'
_cell_length_a   5.62463020
_cell_length_b   5.81745686
_cell_length_c   9.38815234
_cell_angle_alpha   83.81619491
_cell_angle_beta   76.64038936
_cell_angle_gamma   87.20768216
_symmetry_Int_Tables_number   1
_chemical_formula_structural   Cs2Li2SiO4
_chemical_formula_sum   'Cs4 Li4 Si2 O8'
_cell_volume   297.04808008
_cell_formula_units_Z   2
loop_
 _symmetry_equiv_pos_site_id
 _symmetry_equiv_pos_as_xyz
  1  'x, y, z'
loop_
 _atom_site_type_symbol
 _atom_site_label
 _atom_site_symmetry_multiplicity
 _atom_site_fract_x
 _atom_site_fract_y
 _atom_site_fract_z
 _atom_site_occupancy
  Cs  Cs0  1  0.520949  0.151752  0.283932  1
  Cs  Cs1  1  0.479051  0.848248  0.716068  1
  Cs  Cs2  1  0.789285  0.733273  0.015822  1
  Cs  Cs3  1  0.210715  0.266727  0.984178  1
  Li  Li4  1  0.299102  0.409905  0.579585  1
  Li  Li5  1  0.700898  0.590095  0.420415  1
  Li  Li6  1  0.061178  0.812598  0.561299  1
  Li  Li7  1  0.938822  0.187402  0.438701  1
  Si  Si8  1  0.144985  0.684773  0.295329  1
  Si  Si9  1  0.855015  0.315227  0.704671  1
  O  O10  1  0.353514  0.641195  0.399230  1
  O  O11  1  0.646486  0.358805  0.600770  1
  O  O12  1  0.997888  0.444001  0.293187  1
  O  O13  1  0.002112  0.555999  0.706813  1
  O  O14  1  0.929082  0.861979  0.386319  1
  O  O15  1  0.070918  0.138021  0.613681  1
  O  O16  1  0.267657  0.793512  0.127425  1
  O  O17  1  0.732343  0.206488  0.872575  1
