# generated using pymatgen
data_LiMnFeF6
_symmetry_space_group_name_H-M   'P 1'
_cell_length_a   8.84190727
_cell_length_b   8.84190727
_cell_length_c   4.72755038
_cell_angle_alpha   90.00000000
_cell_angle_beta   90.00000000
_cell_angle_gamma   120.00000000
_symmetry_Int_Tables_number   1
_chemical_formula_structural   LiMnFeF6
_chemical_formula_sum   'Li3 Mn3 Fe3 F18'
_cell_volume   320.08012570
_cell_formula_units_Z   3
loop_
 _symmetry_equiv_pos_site_id
 _symmetry_equiv_pos_as_xyz
  1  'x, y, z'
loop_
 _atom_site_type_symbol
 _atom_site_label
 _atom_site_symmetry_multiplicity
 _atom_site_fract_x
 _atom_site_fract_y
 _atom_site_fract_z
 _atom_site_occupancy
  Li  Li0  1  0.666667  0.333333  0.495450  1
  Li  Li1  1  0.000000  0.000000  0.000000  1
  Li  Li2  1  0.333333  0.666667  0.504550  1
  Mn  Mn3  1  0.000000  0.354118  0.000000  1
  Mn  Mn4  1  0.354118  0.000000  0.000000  1
  Mn  Mn5  1  0.645882  0.645882  0.000000  1
  Fe  Fe6  1  0.313112  0.313112  0.500000  1
  Fe  Fe7  1  0.686888  0.000000  0.500000  1
  Fe  Fe8  1  0.000000  0.686888  0.500000  1
  F  F9  1  0.891710  0.468463  0.271514  1
  F  F10  1  0.784091  0.562524  0.721652  1
  F  F11  1  0.437476  0.221566  0.721652  1
  F  F12  1  0.886211  0.108145  0.243060  1
  F  F13  1  0.215909  0.778434  0.278348  1
  F  F14  1  0.468463  0.891710  0.728486  1
  F  F15  1  0.576753  0.108290  0.271514  1
  F  F16  1  0.891855  0.778066  0.243060  1
  F  F17  1  0.531537  0.423247  0.271514  1
  F  F18  1  0.778434  0.215909  0.721652  1
  F  F19  1  0.113789  0.221934  0.756940  1
  F  F20  1  0.108290  0.576753  0.728486  1
  F  F21  1  0.108145  0.886211  0.756940  1
  F  F22  1  0.221566  0.437476  0.278348  1
  F  F23  1  0.221934  0.113789  0.243060  1
  F  F24  1  0.423247  0.531537  0.728486  1
  F  F25  1  0.562524  0.784091  0.278348  1
  F  F26  1  0.778066  0.891855  0.756940  1
