# generated using pymatgen
data_SeO2
_symmetry_space_group_name_H-M   'P 1'
_cell_length_a   4.66273285
_cell_length_b   5.21633521
_cell_length_c   7.93591830
_cell_angle_alpha   90.00000000
_cell_angle_beta   90.00000000
_cell_angle_gamma   90.00000000
_symmetry_Int_Tables_number   1
_chemical_formula_structural   SeO2
_chemical_formula_sum   'Se4 O8'
_cell_volume   193.02040102
_cell_formula_units_Z   4
loop_
 _symmetry_equiv_pos_site_id
 _symmetry_equiv_pos_as_xyz
  1  'x, y, z'
loop_
 _atom_site_type_symbol
 _atom_site_label
 _atom_site_symmetry_multiplicity
 _atom_site_fract_x
 _atom_site_fract_y
 _atom_site_fract_z
 _atom_site_occupancy
  Se  Se0  1  0.747298  0.500000  0.995665  1
  Se  Se1  1  0.884617  0.000000  0.371798  1
  Se  Se2  1  0.252702  0.500000  0.495665  1
  Se  Se3  1  0.115383  0.000000  0.871798  1
  O  O4  1  0.240976  0.000000  0.677429  1
  O  O5  1  0.155406  0.251072  0.341097  1
  O  O6  1  0.844594  0.251072  0.841097  1
  O  O7  1  0.600898  0.500000  0.462713  1
  O  O8  1  0.399102  0.500000  0.962713  1
  O  O9  1  0.155406  0.748928  0.341097  1
  O  O10  1  0.759024  0.000000  0.177429  1
  O  O11  1  0.844594  0.748928  0.841097  1
