# generated using pymatgen
data_NaVF4
_symmetry_space_group_name_H-M   'P 1'
_cell_length_a   7.73098006
_cell_length_b   5.44053083
_cell_length_c   8.15796385
_cell_angle_alpha   90.00000000
_cell_angle_beta   102.82238698
_cell_angle_gamma   90.00000000
_symmetry_Int_Tables_number   1
_chemical_formula_structural   NaVF4
_chemical_formula_sum   'Na4 V4 F16'
_cell_volume   334.57243376
_cell_formula_units_Z   4
loop_
 _symmetry_equiv_pos_site_id
 _symmetry_equiv_pos_as_xyz
  1  'x, y, z'
loop_
 _atom_site_type_symbol
 _atom_site_label
 _atom_site_symmetry_multiplicity
 _atom_site_fract_x
 _atom_site_fract_y
 _atom_site_fract_z
 _atom_site_occupancy
  Na  Na0  1  0.394116  0.217879  0.624148  1
  Na  Na1  1  0.105884  0.717879  0.375852  1
  Na  Na2  1  0.605884  0.782121  0.375852  1
  Na  Na3  1  0.894116  0.282121  0.624148  1
  V  V4  1  0.202280  0.747329  0.825123  1
  V  V5  1  0.297720  0.247329  0.174877  1
  V  V6  1  0.797720  0.252671  0.174877  1
  V  V7  1  0.702280  0.752671  0.825123  1
  F  F8  1  0.451323  0.857163  0.821995  1
  F  F9  1  0.048677  0.357163  0.178005  1
  F  F10  1  0.548677  0.142837  0.178005  1
  F  F11  1  0.951323  0.642837  0.821995  1
  F  F12  1  0.293815  0.466145  0.977843  1
  F  F13  1  0.206185  0.966146  0.022157  1
  F  F14  1  0.706185  0.533855  0.022157  1
  F  F15  1  0.793815  0.033855  0.977843  1
  F  F16  1  0.188136  0.527436  0.635505  1
  F  F17  1  0.311864  0.027436  0.364495  1
  F  F18  1  0.811864  0.472564  0.364495  1
  F  F19  1  0.688136  0.972564  0.635505  1
  F  F20  1  0.126739  0.012609  0.672520  1
  F  F21  1  0.373261  0.512609  0.327480  1
  F  F22  1  0.873261  0.987391  0.327480  1
  F  F23  1  0.626739  0.487391  0.672520  1
