# generated using pymatgen
data_Cr2Ag2O7
_symmetry_space_group_name_H-M   'P 1'
_cell_length_a   6.86508462
_cell_length_b   7.33593591
_cell_length_c   7.39610061
_cell_angle_alpha   117.51399434
_cell_angle_beta   90.23165278
_cell_angle_gamma   95.87308151
_symmetry_Int_Tables_number   1
_chemical_formula_structural   Cr2Ag2O7
_chemical_formula_sum   'Cr4 Ag4 O14'
_cell_volume   328.06240923
_cell_formula_units_Z   2
loop_
 _symmetry_equiv_pos_site_id
 _symmetry_equiv_pos_as_xyz
  1  'x, y, z'
loop_
 _atom_site_type_symbol
 _atom_site_label
 _atom_site_symmetry_multiplicity
 _atom_site_fract_x
 _atom_site_fract_y
 _atom_site_fract_z
 _atom_site_occupancy
  Cr  Cr0  1  0.146974  0.676901  0.802988  1
  Cr  Cr1  1  0.853026  0.323099  0.197012  1
  Cr  Cr2  1  0.662076  0.998400  0.755994  1
  Cr  Cr3  1  0.337924  0.001600  0.244006  1
  Ag  Ag4  1  0.375743  0.546911  0.311664  1
  Ag  Ag5  1  0.624257  0.453089  0.688336  1
  Ag  Ag6  1  0.828784  0.839912  0.245300  1
  Ag  Ag7  1  0.171216  0.160088  0.754700  1
  O  O8  1  0.140337  0.681737  0.585033  1
  O  O9  1  0.859663  0.318263  0.414967  1
  O  O10  1  0.924450  0.648483  0.880743  1
  O  O11  1  0.075550  0.351517  0.119257  1
  O  O12  1  0.278396  0.497240  0.795983  1
  O  O13  1  0.721604  0.502760  0.204017  1
  O  O14  1  0.860434  0.027817  0.643042  1
  O  O15  1  0.139566  0.972183  0.356958  1
  O  O16  1  0.736129  0.074517  0.013498  1
  O  O17  1  0.263871  0.925483  0.986502  1
  O  O18  1  0.429563  0.246452  0.352468  1
  O  O19  1  0.570437  0.753548  0.647532  1
  O  O20  1  0.495156  0.848006  0.254661  1
  O  O21  1  0.504844  0.151994  0.745339  1
