# generated using pymatgen
data_Na5TiP2O9F
_symmetry_space_group_name_H-M   'P 1'
_cell_length_a   11.13887007
_cell_length_b   11.87026806
_cell_length_c   13.83084842
_cell_angle_alpha   90.00000000
_cell_angle_beta   90.00000000
_cell_angle_gamma   90.00000000
_symmetry_Int_Tables_number   1
_chemical_formula_structural   Na5TiP2O9F
_chemical_formula_sum   'Na40 Ti8 P16 O72 F8'
_cell_volume   1828.73377637
_cell_formula_units_Z   8
loop_
 _symmetry_equiv_pos_site_id
 _symmetry_equiv_pos_as_xyz
  1  'x, y, z'
loop_
 _atom_site_type_symbol
 _atom_site_label
 _atom_site_symmetry_multiplicity
 _atom_site_fract_x
 _atom_site_fract_y
 _atom_site_fract_z
 _atom_site_occupancy
  Na  Na0  1  0.747583  0.338245  0.755917  1
  Na  Na1  1  0.252417  0.161755  0.255917  1
  Na  Na2  1  0.241707  0.667544  0.002164  1
  Na  Na3  1  0.247583  0.661755  0.744083  1
  Na  Na4  1  0.512468  0.249764  0.874830  1
  Na  Na5  1  0.758293  0.332456  0.997836  1
  Na  Na6  1  0.500000  0.000000  0.000000  1
  Na  Na7  1  0.247191  0.422630  0.124574  1
  Na  Na8  1  0.241707  0.167544  0.497836  1
  Na  Na9  1  0.987532  0.249764  0.374830  1
  Na  Na10  1  0.487532  0.250236  0.374830  1
  Na  Na11  1  0.752417  0.338245  0.255917  1
  Na  Na12  1  0.500000  0.500000  0.000000  1
  Na  Na13  1  0.258293  0.667544  0.502164  1
  Na  Na14  1  0.487532  0.750236  0.125170  1
  Na  Na15  1  0.752809  0.077370  0.624574  1
  Na  Na16  1  0.747191  0.577370  0.375426  1
  Na  Na17  1  0.012468  0.750236  0.625170  1
  Na  Na18  1  0.747583  0.838245  0.744083  1
  Na  Na19  1  0.741707  0.332456  0.497836  1
  Na  Na20  1  0.000000  0.000000  0.500000  1
  Na  Na21  1  0.741707  0.832456  0.002164  1
  Na  Na22  1  0.247583  0.161755  0.755917  1
  Na  Na23  1  0.747191  0.077370  0.124574  1
  Na  Na24  1  0.252809  0.422630  0.624574  1
  Na  Na25  1  0.752809  0.577370  0.875426  1
  Na  Na26  1  0.012468  0.250236  0.874830  1
  Na  Na27  1  0.512468  0.749764  0.625170  1
  Na  Na28  1  0.000000  0.500000  0.000000  1
  Na  Na29  1  0.000000  0.500000  0.500000  1
  Na  Na30  1  0.500000  0.000000  0.500000  1
  Na  Na31  1  0.500000  0.500000  0.500000  1
  Na  Na32  1  0.252417  0.661755  0.244083  1
  Na  Na33  1  0.752417  0.838245  0.244083  1
  Na  Na34  1  0.252809  0.922630  0.875426  1
  Na  Na35  1  0.258293  0.167544  0.997836  1
  Na  Na36  1  0.000000  0.000000  0.000000  1
  Na  Na37  1  0.247191  0.922630  0.375426  1
  Na  Na38  1  0.987532  0.749764  0.125170  1
  Na  Na39  1  0.758293  0.832456  0.502164  1
  Ti  Ti40  1  0.486812  0.002548  0.264261  1
  Ti  Ti41  1  0.513188  0.497452  0.764261  1
  Ti  Ti42  1  0.486812  0.502548  0.235739  1
  Ti  Ti43  1  0.986812  0.997452  0.235739  1
  Ti  Ti44  1  0.013188  0.502548  0.735739  1
  Ti  Ti45  1  0.986812  0.497452  0.264261  1
  Ti  Ti46  1  0.013188  0.002548  0.764261  1
  Ti  Ti47  1  0.513188  0.997452  0.735739  1
  P  P48  1  0.514475  0.744591  0.370690  1
  P  P49  1  0.985525  0.744591  0.870690  1
  P  P50  1  0.014475  0.755409  0.370690  1
  P  P51  1  0.248938  0.422654  0.873115  1
  P  P52  1  0.485525  0.255409  0.629310  1
  P  P53  1  0.748938  0.077346  0.873115  1
  P  P54  1  0.748938  0.577346  0.626885  1
  P  P55  1  0.251062  0.422654  0.373115  1
  P  P56  1  0.985525  0.244591  0.629310  1
  P  P57  1  0.514475  0.244591  0.129310  1
  P  P58  1  0.751062  0.077346  0.373115  1
  P  P59  1  0.014475  0.255409  0.129310  1
  P  P60  1  0.248938  0.922654  0.626885  1
  P  P61  1  0.251062  0.922654  0.126885  1
  P  P62  1  0.751062  0.577346  0.126885  1
  P  P63  1  0.485525  0.755409  0.870690  1
  O  O64  1  0.958722  0.635292  0.350028  1
  O  O65  1  0.963199  0.798720  0.466732  1
  O  O66  1  0.770010  0.204840  0.372508  1
  O  O67  1  0.386637  0.948177  0.642794  1
  O  O68  1  0.847621  0.252589  0.628935  1
  O  O69  1  0.886637  0.051823  0.857206  1
  O  O70  1  0.036801  0.701280  0.966732  1
  O  O71  1  0.152379  0.247411  0.128935  1
  O  O72  1  0.770010  0.704840  0.127492  1
  O  O73  1  0.317944  0.977803  0.215665  1
  O  O74  1  0.963199  0.298720  0.033268  1
  O  O75  1  0.791761  0.021723  0.467242  1
  O  O76  1  0.613363  0.051823  0.357206  1
  O  O77  1  0.682056  0.522197  0.715665  1
  O  O78  1  0.729990  0.704840  0.627492  1
  O  O79  1  0.541278  0.635292  0.850028  1
  O  O80  1  0.958722  0.135292  0.149972  1
  O  O81  1  0.527192  0.334328  0.715430  1
  O  O82  1  0.317944  0.477803  0.284335  1
  O  O83  1  0.182056  0.477803  0.784335  1
  O  O84  1  0.972808  0.834328  0.284570  1
  O  O85  1  0.208239  0.478277  0.967242  1
  O  O86  1  0.527192  0.834328  0.784570  1
  O  O87  1  0.536801  0.298720  0.533268  1
  O  O88  1  0.113363  0.448177  0.357206  1
  O  O89  1  0.208239  0.978277  0.532758  1
  O  O90  1  0.570464  0.442983  0.326475  1
  O  O91  1  0.570464  0.942983  0.173525  1
  O  O92  1  0.429536  0.057017  0.826475  1
  O  O93  1  0.386637  0.448177  0.857206  1
  O  O94  1  0.708239  0.021723  0.967242  1
  O  O95  1  0.458722  0.364708  0.149972  1
  O  O96  1  0.041278  0.364708  0.649972  1
  O  O97  1  0.027192  0.665672  0.784570  1
  O  O98  1  0.613363  0.551823  0.142794  1
  O  O99  1  0.458722  0.864708  0.350028  1
  O  O100  1  0.472808  0.665672  0.284570  1
  O  O101  1  0.027192  0.165672  0.715430  1
  O  O102  1  0.182056  0.977803  0.715665  1
  O  O103  1  0.041278  0.864708  0.850028  1
  O  O104  1  0.472808  0.165672  0.215430  1
  O  O105  1  0.291761  0.978277  0.032758  1
  O  O106  1  0.270010  0.295160  0.372508  1
  O  O107  1  0.729990  0.204840  0.872508  1
  O  O108  1  0.541278  0.135292  0.649972  1
  O  O109  1  0.152379  0.747411  0.371065  1
  O  O110  1  0.652379  0.252589  0.128935  1
  O  O111  1  0.817944  0.022197  0.284335  1
  O  O112  1  0.682056  0.022197  0.784335  1
  O  O113  1  0.347621  0.247411  0.628935  1
  O  O114  1  0.036801  0.201280  0.533268  1
  O  O115  1  0.463199  0.201280  0.033268  1
  O  O116  1  0.652379  0.752589  0.371065  1
  O  O117  1  0.847621  0.752589  0.871065  1
  O  O118  1  0.347621  0.747411  0.871065  1
  O  O119  1  0.229990  0.795160  0.627492  1
  O  O120  1  0.463199  0.701280  0.466732  1
  O  O121  1  0.291761  0.478277  0.467242  1
  O  O122  1  0.972808  0.334328  0.215430  1
  O  O123  1  0.886637  0.551823  0.642794  1
  O  O124  1  0.536801  0.798720  0.966732  1
  O  O125  1  0.229990  0.295160  0.872508  1
  O  O126  1  0.929536  0.942983  0.673525  1
  O  O127  1  0.817944  0.522197  0.215665  1
  O  O128  1  0.113363  0.948177  0.142794  1
  O  O129  1  0.070464  0.057017  0.326475  1
  O  O130  1  0.429536  0.557017  0.673525  1
  O  O131  1  0.708239  0.521723  0.532758  1
  O  O132  1  0.070464  0.557017  0.173525  1
  O  O133  1  0.929536  0.442983  0.826475  1
  O  O134  1  0.791761  0.521723  0.032758  1
  O  O135  1  0.270010  0.795160  0.127492  1
  F  F136  1  0.877441  0.421179  0.385154  1
  F  F137  1  0.622559  0.921179  0.614846  1
  F  F138  1  0.622559  0.421179  0.885154  1
  F  F139  1  0.377441  0.578821  0.114846  1
  F  F140  1  0.122559  0.578821  0.614846  1
  F  F141  1  0.877441  0.921179  0.114846  1
  F  F142  1  0.122559  0.078821  0.885154  1
  F  F143  1  0.377441  0.078821  0.385154  1
