# generated using pymatgen
data_Na2GeO3
_symmetry_space_group_name_H-M   'P 1'
_cell_length_a   6.32424871
_cell_length_b   6.32424871
_cell_length_c   4.99944771
_cell_angle_alpha   90.00000000
_cell_angle_beta   90.00000000
_cell_angle_gamma   120.10781571
_symmetry_Int_Tables_number   1
_chemical_formula_structural   Na2GeO3
_chemical_formula_sum   'Na4 Ge2 O6'
_cell_volume   172.98071602
_cell_formula_units_Z   2
loop_
 _symmetry_equiv_pos_site_id
 _symmetry_equiv_pos_as_xyz
  1  'x, y, z'
loop_
 _atom_site_type_symbol
 _atom_site_label
 _atom_site_symmetry_multiplicity
 _atom_site_fract_x
 _atom_site_fract_y
 _atom_site_fract_z
 _atom_site_occupancy
  Na  Na0  1  0.172340  0.506455  0.498168  1
  Na  Na1  1  0.506455  0.172340  0.498168  1
  Na  Na2  1  0.827660  0.493545  0.998168  1
  Na  Na3  1  0.493545  0.827660  0.998168  1
  Ge  Ge4  1  0.836153  0.836153  0.465656  1
  Ge  Ge5  1  0.163847  0.163847  0.965656  1
  O  O6  1  0.104550  0.104550  0.603074  1
  O  O7  1  0.895450  0.895450  0.103074  1
  O  O8  1  0.840823  0.567587  0.525167  1
  O  O9  1  0.159177  0.432413  0.025167  1
  O  O10  1  0.567587  0.840823  0.525167  1
  O  O11  1  0.432413  0.159177  0.025167  1
