# generated using pymatgen
data_Cs2Si2O5
_symmetry_space_group_name_H-M   'P 1'
_cell_length_a   10.21839541
_cell_length_b   8.78692100
_cell_length_c   18.75051284
_cell_angle_alpha   90.00000000
_cell_angle_beta   122.73207167
_cell_angle_gamma   90.00000000
_symmetry_Int_Tables_number   1
_chemical_formula_structural   Cs2Si2O5
_chemical_formula_sum   'Cs16 Si16 O40'
_cell_volume   1416.23752752
_cell_formula_units_Z   8
loop_
 _symmetry_equiv_pos_site_id
 _symmetry_equiv_pos_as_xyz
  1  'x, y, z'
loop_
 _atom_site_type_symbol
 _atom_site_label
 _atom_site_symmetry_multiplicity
 _atom_site_fract_x
 _atom_site_fract_y
 _atom_site_fract_z
 _atom_site_occupancy
  Cs  Cs0  1  0.180403  0.132865  0.590300  1
  Cs  Cs1  1  0.735346  0.098509  0.581941  1
  Cs  Cs2  1  0.242355  0.874498  0.083968  1
  Cs  Cs3  1  0.264654  0.598509  0.918059  1
  Cs  Cs4  1  0.264654  0.901491  0.418059  1
  Cs  Cs5  1  0.681617  0.879489  0.091542  1
  Cs  Cs6  1  0.735346  0.401491  0.081941  1
  Cs  Cs7  1  0.318383  0.120511  0.908458  1
  Cs  Cs8  1  0.757645  0.374498  0.416032  1
  Cs  Cs9  1  0.180403  0.367135  0.090300  1
  Cs  Cs10  1  0.819597  0.867135  0.409700  1
  Cs  Cs11  1  0.819597  0.632865  0.909700  1
  Cs  Cs12  1  0.681617  0.620511  0.591542  1
  Cs  Cs13  1  0.318383  0.379489  0.408458  1
  Cs  Cs14  1  0.242355  0.625502  0.583968  1
  Cs  Cs15  1  0.757645  0.125502  0.916032  1
  Si  Si16  1  0.438790  0.440457  0.801647  1
  Si  Si17  1  0.561210  0.940457  0.698353  1
  Si  Si18  1  0.926149  0.577033  0.303093  1
  Si  Si19  1  0.424681  0.685668  0.307107  1
  Si  Si20  1  0.073851  0.077033  0.196907  1
  Si  Si21  1  0.062148  0.701460  0.195546  1
  Si  Si22  1  0.073851  0.422967  0.696907  1
  Si  Si23  1  0.062148  0.798540  0.695546  1
  Si  Si24  1  0.438790  0.059543  0.301647  1
  Si  Si25  1  0.561210  0.559543  0.198353  1
  Si  Si26  1  0.937852  0.298540  0.804454  1
  Si  Si27  1  0.575319  0.314332  0.692893  1
  Si  Si28  1  0.937852  0.201460  0.304454  1
  Si  Si29  1  0.575319  0.185668  0.192893  1
  Si  Si30  1  0.424681  0.814332  0.807107  1
  Si  Si31  1  0.926149  0.922967  0.803093  1
  O  O32  1  0.506971  0.123898  0.394658  1
  O  O33  1  0.944605  0.856048  0.726039  1
  O  O34  1  0.944605  0.643952  0.226039  1
  O  O35  1  0.055395  0.143952  0.273961  1
  O  O36  1  0.538400  0.874189  0.901358  1
  O  O37  1  0.506971  0.376102  0.894658  1
  O  O38  1  0.566100  0.128569  0.703727  1
  O  O39  1  0.239763  0.646326  0.272249  1
  O  O40  1  0.062060  0.889855  0.201769  1
  O  O41  1  0.433900  0.628569  0.796273  1
  O  O42  1  0.239763  0.853674  0.772249  1
  O  O43  1  0.043520  0.853858  0.894632  1
  O  O44  1  0.760237  0.353674  0.727751  1
  O  O45  1  0.741817  0.616305  0.270608  1
  O  O46  1  0.493029  0.623898  0.105342  1
  O  O47  1  0.956480  0.146142  0.105368  1
  O  O48  1  0.433900  0.871431  0.296273  1
  O  O49  1  0.062060  0.610145  0.701769  1
  O  O50  1  0.566100  0.371431  0.203727  1
  O  O51  1  0.461600  0.125811  0.098642  1
  O  O52  1  0.937940  0.389855  0.298231  1
  O  O53  1  0.452842  0.609376  0.235572  1
  O  O54  1  0.956480  0.353858  0.605368  1
  O  O55  1  0.258183  0.383695  0.729392  1
  O  O56  1  0.461600  0.374189  0.598642  1
  O  O57  1  0.055395  0.356048  0.773961  1
  O  O58  1  0.547158  0.390624  0.764428  1
  O  O59  1  0.995301  0.360055  0.896753  1
  O  O60  1  0.452842  0.890624  0.735572  1
  O  O61  1  0.937940  0.110145  0.798231  1
  O  O62  1  0.493029  0.876102  0.605342  1
  O  O63  1  0.760237  0.146326  0.227751  1
  O  O64  1  0.004699  0.639945  0.103247  1
  O  O65  1  0.547158  0.109376  0.264428  1
  O  O66  1  0.538400  0.625811  0.401358  1
  O  O67  1  0.043520  0.646142  0.394632  1
  O  O68  1  0.741817  0.883695  0.770608  1
  O  O69  1  0.258183  0.116305  0.229392  1
  O  O70  1  0.995301  0.139945  0.396753  1
  O  O71  1  0.004699  0.860055  0.603247  1
