# generated using pymatgen
data_Ca2AsClO4
_symmetry_space_group_name_H-M   'P 1'
_cell_length_a   6.41068831
_cell_length_b   7.18524573
_cell_length_c   11.17560367
_cell_angle_alpha   90.00000000
_cell_angle_beta   90.00000000
_cell_angle_gamma   90.00000000
_symmetry_Int_Tables_number   1
_chemical_formula_structural   Ca2AsClO4
_chemical_formula_sum   'Ca8 As4 Cl4 O16'
_cell_volume   514.77480023
_cell_formula_units_Z   4
loop_
 _symmetry_equiv_pos_site_id
 _symmetry_equiv_pos_as_xyz
  1  'x, y, z'
loop_
 _atom_site_type_symbol
 _atom_site_label
 _atom_site_symmetry_multiplicity
 _atom_site_fract_x
 _atom_site_fract_y
 _atom_site_fract_z
 _atom_site_occupancy
  Ca  Ca0  1  0.859933  0.976379  0.250000  1
  Ca  Ca1  1  0.140067  0.023621  0.750000  1
  Ca  Ca2  1  0.140067  0.476379  0.250000  1
  Ca  Ca3  1  0.859933  0.523621  0.750000  1
  Ca  Ca4  1  0.624435  0.250000  0.500000  1
  Ca  Ca5  1  0.624435  0.250000  0.000000  1
  Ca  Ca6  1  0.375565  0.750000  0.500000  1
  Ca  Ca7  1  0.375565  0.750000  0.000000  1
  As  As8  1  0.128982  0.250000  0.000000  1
  As  As9  1  0.871018  0.750000  0.500000  1
  As  As10  1  0.128982  0.250000  0.500000  1
  As  As11  1  0.871018  0.750000  0.000000  1
  Cl  Cl12  1  0.502412  0.700837  0.250000  1
  Cl  Cl13  1  0.497588  0.200837  0.250000  1
  Cl  Cl14  1  0.502412  0.799163  0.750000  1
  Cl  Cl15  1  0.497588  0.299163  0.750000  1
  O  O16  1  0.968691  0.263405  0.623830  1
  O  O17  1  0.292607  0.066097  0.528558  1
  O  O18  1  0.292607  0.433903  0.028558  1
  O  O19  1  0.292607  0.433903  0.471442  1
  O  O20  1  0.707393  0.566097  0.528558  1
  O  O21  1  0.031309  0.736595  0.376170  1
  O  O22  1  0.968691  0.236595  0.123830  1
  O  O23  1  0.031309  0.763405  0.623830  1
  O  O24  1  0.031309  0.736595  0.123830  1
  O  O25  1  0.031309  0.763405  0.876170  1
  O  O26  1  0.968691  0.236595  0.376170  1
  O  O27  1  0.292607  0.066097  0.971442  1
  O  O28  1  0.707393  0.933903  0.471442  1
  O  O29  1  0.707393  0.566097  0.971442  1
  O  O30  1  0.707393  0.933903  0.028558  1
  O  O31  1  0.968691  0.263405  0.876170  1
