# generated using pymatgen
data_SrV4(Bi3O10)2
_symmetry_space_group_name_H-M   'P 1'
_cell_length_a   7.24236810
_cell_length_b   8.10277784
_cell_length_c   9.44310607
_cell_angle_alpha   106.41981815
_cell_angle_beta   93.87832122
_cell_angle_gamma   112.54415270
_symmetry_Int_Tables_number   1
_chemical_formula_structural   SrV4(Bi3O10)2
_chemical_formula_sum   'Sr1 V4 Bi6 O20'
_cell_volume   481.14633144
_cell_formula_units_Z   1
loop_
 _symmetry_equiv_pos_site_id
 _symmetry_equiv_pos_as_xyz
  1  'x, y, z'
loop_
 _atom_site_type_symbol
 _atom_site_label
 _atom_site_symmetry_multiplicity
 _atom_site_fract_x
 _atom_site_fract_y
 _atom_site_fract_z
 _atom_site_occupancy
  Sr  Sr0  1  0.000000  0.500000  0.000000  1
  V  V1  1  0.052349  0.775837  0.757371  1
  V  V2  1  0.654910  0.105481  0.740429  1
  V  V3  1  0.947651  0.224163  0.242629  1
  V  V4  1  0.345090  0.894519  0.259571  1
  Bi  Bi5  1  0.655525  0.373990  0.481248  1
  Bi  Bi6  1  0.428393  0.298354  0.078739  1
  Bi  Bi7  1  0.344475  0.626010  0.518752  1
  Bi  Bi8  1  0.200473  0.212085  0.673451  1
  Bi  Bi9  1  0.799527  0.787915  0.326549  1
  Bi  Bi10  1  0.571607  0.701646  0.921261  1
  O  O11  1  0.834922  0.974732  0.165898  1
  O  O12  1  0.529656  0.870987  0.370640  1
  O  O13  1  0.765313  0.316470  0.244158  1
  O  O14  1  0.376795  0.131735  0.311156  1
  O  O15  1  0.943242  0.705057  0.568995  1
  O  O16  1  0.056758  0.294943  0.431005  1
  O  O17  1  0.354231  0.802493  0.072525  1
  O  O18  1  0.645769  0.197507  0.927475  1
  O  O19  1  0.896287  0.254571  0.726587  1
  O  O20  1  0.550129  0.531230  0.366292  1
  O  O21  1  0.103713  0.745429  0.273413  1
  O  O22  1  0.449871  0.468770  0.633708  1
  O  O23  1  0.234687  0.683530  0.755842  1
  O  O24  1  0.668754  0.588125  0.101018  1
  O  O25  1  0.470344  0.129013  0.629360  1
  O  O26  1  0.331246  0.411875  0.898982  1
  O  O27  1  0.869945  0.667331  0.854055  1
  O  O28  1  0.623205  0.868265  0.688844  1
  O  O29  1  0.165078  0.025268  0.834102  1
  O  O30  1  0.130055  0.332669  0.145945  1
