# generated using pymatgen
data_Cr8O21
_symmetry_space_group_name_H-M   'P 1'
_cell_length_a   5.45830143
_cell_length_b   6.74839454
_cell_length_c   12.88939796
_cell_angle_alpha   105.03452813
_cell_angle_beta   87.48164844
_cell_angle_gamma   102.91755212
_symmetry_Int_Tables_number   1
_chemical_formula_structural   Cr8O21
_chemical_formula_sum   'Cr8 O21'
_cell_volume   446.87241052
_cell_formula_units_Z   1
loop_
 _symmetry_equiv_pos_site_id
 _symmetry_equiv_pos_as_xyz
  1  'x, y, z'
loop_
 _atom_site_type_symbol
 _atom_site_label
 _atom_site_symmetry_multiplicity
 _atom_site_fract_x
 _atom_site_fract_y
 _atom_site_fract_z
 _atom_site_occupancy
  Cr  Cr0  1  0.734701  0.205592  0.527899  1
  Cr  Cr1  1  0.858849  0.786005  0.073814  1
  Cr  Cr2  1  0.653390  0.362212  0.748896  1
  Cr  Cr3  1  0.300235  0.765723  0.903571  1
  Cr  Cr4  1  0.699765  0.234277  0.096429  1
  Cr  Cr5  1  0.141151  0.213995  0.926186  1
  Cr  Cr6  1  0.346610  0.637788  0.251104  1
  Cr  Cr7  1  0.265299  0.794408  0.472101  1
  O  O8  1  0.908662  0.102492  0.055289  1
  O  O9  1  0.634034  0.131405  0.219767  1
  O  O10  1  0.374680  0.678910  0.381970  1
  O  O11  1  0.831553  0.488778  0.076535  1
  O  O12  1  0.022909  0.880722  0.421592  1
  O  O13  1  0.368874  0.289743  0.803327  1
  O  O14  1  0.846686  0.223747  0.825850  1
  O  O15  1  0.189050  0.617777  0.580951  1
  O  O16  1  0.153314  0.776253  0.174150  1
  O  O17  1  0.760832  0.604864  0.741126  1
  O  O18  1  0.625320  0.321090  0.618030  1
  O  O19  1  0.500000  0.000000  0.500000  1
  O  O20  1  0.436982  0.203896  0.023348  1
  O  O21  1  0.631126  0.710257  0.196673  1
  O  O22  1  0.810950  0.382223  0.419049  1
  O  O23  1  0.239168  0.395136  0.258874  1
  O  O24  1  0.168447  0.511222  0.923465  1
  O  O25  1  0.977091  0.119278  0.578408  1
  O  O26  1  0.365966  0.868595  0.780233  1
  O  O27  1  0.563018  0.796104  0.976652  1
  O  O28  1  0.091338  0.897508  0.944711  1
