# generated using pymatgen
data_AlSCl7
_symmetry_space_group_name_H-M   'P 1'
_cell_length_a   6.55440828
_cell_length_b   6.45250590
_cell_length_c   13.60725853
_cell_angle_alpha   90.00000000
_cell_angle_beta   102.86860516
_cell_angle_gamma   90.00000000
_symmetry_Int_Tables_number   1
_chemical_formula_structural   AlSCl7
_chemical_formula_sum   'Al2 S2 Cl14'
_cell_volume   561.02885941
_cell_formula_units_Z   2
loop_
 _symmetry_equiv_pos_site_id
 _symmetry_equiv_pos_as_xyz
  1  'x, y, z'
loop_
 _atom_site_type_symbol
 _atom_site_label
 _atom_site_symmetry_multiplicity
 _atom_site_fract_x
 _atom_site_fract_y
 _atom_site_fract_z
 _atom_site_occupancy
  Al  Al0  1  0.554571  0.490444  0.142841  1
  Al  Al1  1  0.554571  0.509556  0.642841  1
  S  S2  1  0.876616  0.074513  0.311507  1
  S  S3  1  0.876616  0.925487  0.811507  1
  Cl  Cl4  1  0.048672  0.720149  0.907521  1
  Cl  Cl5  1  0.778610  0.119753  0.907727  1
  Cl  Cl6  1  0.340421  0.360523  0.014528  1
  Cl  Cl7  1  0.048672  0.279851  0.407521  1
  Cl  Cl8  1  0.101296  0.909566  0.266813  1
  Cl  Cl9  1  0.340421  0.639477  0.514528  1
  Cl  Cl10  1  0.524490  0.176131  0.638876  1
  Cl  Cl11  1  0.870917  0.398913  0.138880  1
  Cl  Cl12  1  0.524490  0.823869  0.138876  1
  Cl  Cl13  1  0.870917  0.601087  0.638880  1
  Cl  Cl14  1  0.496108  0.625539  0.783408  1
  Cl  Cl15  1  0.778610  0.880247  0.407727  1
  Cl  Cl16  1  0.496108  0.374461  0.283408  1
  Cl  Cl17  1  0.101296  0.090434  0.766813  1
