# generated using pymatgen
data_HfI4
_symmetry_space_group_name_H-M   'P 1'
_cell_length_a   13.74357110
_cell_length_b   13.74357110
_cell_length_c   13.74357110
_cell_angle_alpha   90.00000000
_cell_angle_beta   90.00000000
_cell_angle_gamma   90.00000000
_symmetry_Int_Tables_number   1
_chemical_formula_structural   HfI4
_chemical_formula_sum   'Hf8 I32'
_cell_volume   2595.96468791
_cell_formula_units_Z   8
loop_
 _symmetry_equiv_pos_site_id
 _symmetry_equiv_pos_as_xyz
  1  'x, y, z'
loop_
 _atom_site_type_symbol
 _atom_site_label
 _atom_site_symmetry_multiplicity
 _atom_site_fract_x
 _atom_site_fract_y
 _atom_site_fract_z
 _atom_site_occupancy
  Hf  Hf0  1  0.374184  0.625816  0.125816  1
  Hf  Hf1  1  0.125816  0.125816  0.125816  1
  Hf  Hf2  1  0.874184  0.625816  0.374184  1
  Hf  Hf3  1  0.125816  0.374184  0.625816  1
  Hf  Hf4  1  0.625816  0.125816  0.374184  1
  Hf  Hf5  1  0.374184  0.874184  0.625816  1
  Hf  Hf6  1  0.874184  0.874184  0.874184  1
  Hf  Hf7  1  0.625816  0.374184  0.874184  1
  I  I8  1  0.738972  0.485364  0.987252  1
  I  I9  1  0.485364  0.987252  0.738972  1
  I  I10  1  0.238972  0.014636  0.012748  1
  I  I11  1  0.014636  0.012748  0.238972  1
  I  I12  1  0.514636  0.012748  0.261028  1
  I  I13  1  0.514636  0.487252  0.761028  1
  I  I14  1  0.014636  0.487252  0.738972  1
  I  I15  1  0.987252  0.761028  0.985364  1
  I  I16  1  0.012748  0.261028  0.514636  1
  I  I17  1  0.512748  0.261028  0.985364  1
  I  I18  1  0.985364  0.987252  0.761028  1
  I  I19  1  0.012748  0.238972  0.014636  1
  I  I20  1  0.987252  0.738972  0.485364  1
  I  I21  1  0.261842  0.738158  0.238158  1
  I  I22  1  0.761842  0.738158  0.261842  1
  I  I23  1  0.738158  0.238158  0.261842  1
  I  I24  1  0.985364  0.512748  0.261028  1
  I  I25  1  0.738158  0.261842  0.761842  1
  I  I26  1  0.487252  0.761028  0.514636  1
  I  I27  1  0.512748  0.238972  0.485364  1
  I  I28  1  0.761028  0.985364  0.987252  1
  I  I29  1  0.238158  0.261842  0.738158  1
  I  I30  1  0.761842  0.761842  0.761842  1
  I  I31  1  0.238972  0.485364  0.512748  1
  I  I32  1  0.261842  0.761842  0.738158  1
  I  I33  1  0.761028  0.514636  0.487252  1
  I  I34  1  0.238158  0.238158  0.238158  1
  I  I35  1  0.261028  0.514636  0.012748  1
  I  I36  1  0.738972  0.014636  0.487252  1
  I  I37  1  0.261028  0.985364  0.512748  1
  I  I38  1  0.487252  0.738972  0.014636  1
  I  I39  1  0.485364  0.512748  0.238972  1
