# generated using pymatgen
data_Ba2MnSi2ClO7
_symmetry_space_group_name_H-M   'P 1'
_cell_length_a   8.61722903
_cell_length_b   8.61722903
_cell_length_c   5.51630139
_cell_angle_alpha   90.00000000
_cell_angle_beta   90.00000000
_cell_angle_gamma   90.00000000
_symmetry_Int_Tables_number   1
_chemical_formula_structural   Ba2MnSi2ClO7
_chemical_formula_sum   'Ba4 Mn2 Si4 Cl2 O14'
_cell_volume   409.62198524
_cell_formula_units_Z   2
loop_
 _symmetry_equiv_pos_site_id
 _symmetry_equiv_pos_as_xyz
  1  'x, y, z'
loop_
 _atom_site_type_symbol
 _atom_site_label
 _atom_site_symmetry_multiplicity
 _atom_site_fract_x
 _atom_site_fract_y
 _atom_site_fract_z
 _atom_site_occupancy
  Ba  Ba0  1  0.329475  0.829475  0.180116  1
  Ba  Ba1  1  0.670525  0.170525  0.180116  1
  Ba  Ba2  1  0.170525  0.329475  0.180116  1
  Ba  Ba3  1  0.829475  0.670525  0.180116  1
  Mn  Mn4  1  0.500000  0.500000  0.794962  1
  Mn  Mn5  1  0.000000  0.000000  0.794962  1
  Si  Si6  1  0.129429  0.629429  0.702005  1
  Si  Si7  1  0.370571  0.129429  0.702005  1
  Si  Si8  1  0.629429  0.870571  0.702005  1
  Si  Si9  1  0.870571  0.370571  0.702005  1
  Cl  Cl10  1  0.000000  0.000000  0.329340  1
  Cl  Cl11  1  0.500000  0.500000  0.329340  1
  O  O12  1  0.000000  0.500000  0.811447  1
  O  O13  1  0.079576  0.791929  0.838807  1
  O  O14  1  0.291929  0.579576  0.838807  1
  O  O15  1  0.208071  0.079576  0.838807  1
  O  O16  1  0.370530  0.129470  0.410660  1
  O  O17  1  0.579576  0.708071  0.838807  1
  O  O18  1  0.420424  0.291929  0.838807  1
  O  O19  1  0.708071  0.420424  0.838807  1
  O  O20  1  0.920424  0.208071  0.838807  1
  O  O21  1  0.129470  0.629470  0.410660  1
  O  O22  1  0.791929  0.920424  0.838807  1
  O  O23  1  0.500000  0.000000  0.811447  1
  O  O24  1  0.870530  0.370530  0.410660  1
  O  O25  1  0.629470  0.870530  0.410660  1
