# generated using pymatgen
data_Li3Ga(BO3)2
_symmetry_space_group_name_H-M   'P 1'
_cell_length_a   4.97542400
_cell_length_b   6.52837448
_cell_length_c   8.08953915
_cell_angle_alpha   72.89582015
_cell_angle_beta   89.19270357
_cell_angle_gamma   89.67765668
_symmetry_Int_Tables_number   1
_chemical_formula_structural   Li3Ga(BO3)2
_chemical_formula_sum   'Li6 Ga2 B4 O12'
_cell_volume   251.11312163
_cell_formula_units_Z   2
loop_
 _symmetry_equiv_pos_site_id
 _symmetry_equiv_pos_as_xyz
  1  'x, y, z'
loop_
 _atom_site_type_symbol
 _atom_site_label
 _atom_site_symmetry_multiplicity
 _atom_site_fract_x
 _atom_site_fract_y
 _atom_site_fract_z
 _atom_site_occupancy
  Li  Li0  1  0.337226  0.397297  0.423741  1
  Li  Li1  1  0.159168  0.252058  0.113634  1
  Li  Li2  1  0.840832  0.747942  0.886366  1
  Li  Li3  1  0.851884  0.530571  0.269243  1
  Li  Li4  1  0.662774  0.602703  0.576259  1
  Li  Li5  1  0.148116  0.469429  0.730757  1
  Ga  Ga6  1  0.360472  0.047431  0.778502  1
  Ga  Ga7  1  0.639528  0.952569  0.221498  1
  B  B8  1  0.343782  0.677960  0.072498  1
  B  B9  1  0.157140  0.818317  0.403185  1
  B  B10  1  0.656218  0.322040  0.927502  1
  B  B11  1  0.842860  0.181683  0.596815  1
  O  O12  1  0.712044  0.339901  0.479954  1
  O  O13  1  0.124781  0.191752  0.609072  1
  O  O14  1  0.875219  0.808248  0.390928  1
  O  O15  1  0.710901  0.008717  0.714572  1
  O  O16  1  0.783539  0.489251  0.815772  1
  O  O17  1  0.607738  0.740970  0.101669  1
  O  O18  1  0.216461  0.510749  0.184228  1
  O  O19  1  0.220232  0.793413  0.918520  1
  O  O20  1  0.289099  0.991283  0.285428  1
  O  O21  1  0.779768  0.206587  0.081480  1
  O  O22  1  0.392262  0.259030  0.898331  1
  O  O23  1  0.287956  0.660099  0.520046  1
