# generated using pymatgen
data_Ba2NdBiO6
_symmetry_space_group_name_H-M   'P 1'
_cell_length_a   6.22746868
_cell_length_b   6.22746868
_cell_length_c   6.28380856
_cell_angle_alpha   60.10863657
_cell_angle_beta   119.89136343
_cell_angle_gamma   119.84234253
_symmetry_Int_Tables_number   1
_chemical_formula_structural   Ba2NdBiO6
_chemical_formula_sum   'Ba2 Nd1 Bi1 O6'
_cell_volume   172.80596128
_cell_formula_units_Z   1
loop_
 _symmetry_equiv_pos_site_id
 _symmetry_equiv_pos_as_xyz
  1  'x, y, z'
loop_
 _atom_site_type_symbol
 _atom_site_label
 _atom_site_symmetry_multiplicity
 _atom_site_fract_x
 _atom_site_fract_y
 _atom_site_fract_z
 _atom_site_occupancy
  Ba  Ba0  1  0.248297  0.751703  0.239764  1
  Ba  Ba1  1  0.751703  0.248297  0.760236  1
  Nd  Nd2  1  0.000000  0.000000  0.500000  1
  Bi  Bi3  1  0.500000  0.500000  0.000000  1
  O  O4  1  0.738215  0.261785  0.310552  1
  O  O5  1  0.261785  0.738215  0.689448  1
  O  O6  1  0.218561  0.299278  0.197510  1
  O  O7  1  0.781439  0.700722  0.802490  1
  O  O8  1  0.299278  0.218561  0.802490  1
  O  O9  1  0.700722  0.781439  0.197510  1
