# generated using pymatgen
data_K2CoSiO4
_symmetry_space_group_name_H-M   'P 1'
_cell_length_a   5.50223209
_cell_length_b   11.03760361
_cell_length_c   15.86507527
_cell_angle_alpha   90.00000000
_cell_angle_beta   90.00000000
_cell_angle_gamma   90.00000000
_symmetry_Int_Tables_number   1
_chemical_formula_structural   K2CoSiO4
_chemical_formula_sum   'K16 Co8 Si8 O32'
_cell_volume   963.50913307
_cell_formula_units_Z   8
loop_
 _symmetry_equiv_pos_site_id
 _symmetry_equiv_pos_as_xyz
  1  'x, y, z'
loop_
 _atom_site_type_symbol
 _atom_site_label
 _atom_site_symmetry_multiplicity
 _atom_site_fract_x
 _atom_site_fract_y
 _atom_site_fract_z
 _atom_site_occupancy
  K  K0  1  0.057410  0.734323  0.686393  1
  K  K1  1  0.496610  0.486479  0.938162  1
  K  K2  1  0.503390  0.513521  0.438162  1
  K  K3  1  0.503390  0.986479  0.938162  1
  K  K4  1  0.496610  0.013521  0.438162  1
  K  K5  1  0.448532  0.238224  0.817542  1
  K  K6  1  0.551468  0.761776  0.317542  1
  K  K7  1  0.551468  0.738224  0.817542  1
  K  K8  1  0.448532  0.261776  0.317542  1
  K  K9  1  0.942590  0.265677  0.186393  1
  K  K10  1  0.942590  0.234323  0.686393  1
  K  K11  1  0.057410  0.765677  0.186393  1
  K  K12  1  0.006591  0.512566  0.061417  1
  K  K13  1  0.993409  0.012566  0.061417  1
  K  K14  1  0.993409  0.487434  0.561417  1
  K  K15  1  0.006591  0.987434  0.561417  1
  Co  Co16  1  0.538097  0.740687  0.564229  1
  Co  Co17  1  0.991982  0.490081  0.811121  1
  Co  Co18  1  0.008018  0.509919  0.311121  1
  Co  Co19  1  0.008018  0.990081  0.811121  1
  Co  Co20  1  0.991982  0.009919  0.311121  1
  Co  Co21  1  0.538097  0.759313  0.064229  1
  Co  Co22  1  0.461903  0.240687  0.564229  1
  Co  Co23  1  0.461903  0.259313  0.064229  1
  Si  Si24  1  0.967296  0.264819  0.435152  1
  Si  Si25  1  0.032704  0.735181  0.935152  1
  Si  Si26  1  0.032704  0.764819  0.435152  1
  Si  Si27  1  0.967296  0.235181  0.935152  1
  Si  Si28  1  0.509090  0.991894  0.688966  1
  Si  Si29  1  0.490910  0.008106  0.188966  1
  Si  Si30  1  0.490910  0.491894  0.688966  1
  Si  Si31  1  0.509090  0.508106  0.188966  1
  O  O32  1  0.217472  0.011821  0.710838  1
  O  O33  1  0.782528  0.988179  0.210838  1
  O  O34  1  0.782528  0.511821  0.710838  1
  O  O35  1  0.217472  0.488179  0.210838  1
  O  O36  1  0.568873  0.849388  0.662359  1
  O  O37  1  0.431127  0.150612  0.162359  1
  O  O38  1  0.431127  0.349388  0.662359  1
  O  O39  1  0.568873  0.650612  0.162359  1
  O  O40  1  0.418156  0.581672  0.609107  1
  O  O41  1  0.581844  0.418328  0.109107  1
  O  O42  1  0.581844  0.081672  0.609107  1
  O  O43  1  0.418156  0.918328  0.109107  1
  O  O44  1  0.844885  0.702298  0.504240  1
  O  O45  1  0.155115  0.297702  0.004240  1
  O  O46  1  0.155115  0.202298  0.504240  1
  O  O47  1  0.702564  0.204634  0.979667  1
  O  O48  1  0.329950  0.974824  0.274300  1
  O  O49  1  0.670050  0.025176  0.774300  1
  O  O50  1  0.670050  0.474824  0.274300  1
  O  O51  1  0.329950  0.525176  0.774300  1
  O  O52  1  0.926005  0.175542  0.352681  1
  O  O53  1  0.073995  0.824458  0.852681  1
  O  O54  1  0.073995  0.675542  0.352681  1
  O  O55  1  0.926005  0.324458  0.852681  1
  O  O56  1  0.088440  0.394464  0.403025  1
  O  O57  1  0.911560  0.605536  0.903025  1
  O  O58  1  0.911560  0.894464  0.403025  1
  O  O59  1  0.088440  0.105536  0.903025  1
  O  O60  1  0.702564  0.295366  0.479667  1
  O  O61  1  0.297436  0.704634  0.979667  1
  O  O62  1  0.297436  0.795366  0.479667  1
  O  O63  1  0.844885  0.797702  0.004240  1
