# generated using pymatgen
data_Li2Si3O7
_symmetry_space_group_name_H-M   'P 1'
_cell_length_a   4.92328206
_cell_length_b   6.05532174
_cell_length_c   19.96361505
_cell_angle_alpha   90.00000000
_cell_angle_beta   90.00000000
_cell_angle_gamma   90.00000000
_symmetry_Int_Tables_number   1
_chemical_formula_structural   Li2Si3O7
_chemical_formula_sum   'Li8 Si12 O28'
_cell_volume   595.15642760
_cell_formula_units_Z   4
loop_
 _symmetry_equiv_pos_site_id
 _symmetry_equiv_pos_as_xyz
  1  'x, y, z'
loop_
 _atom_site_type_symbol
 _atom_site_label
 _atom_site_symmetry_multiplicity
 _atom_site_fract_x
 _atom_site_fract_y
 _atom_site_fract_z
 _atom_site_occupancy
  Li  Li0  1  0.057719  0.353814  0.955867  1
  Li  Li1  1  0.942281  0.646186  0.044133  1
  Li  Li2  1  0.442281  0.353814  0.044133  1
  Li  Li3  1  0.442281  0.353814  0.455867  1
  Li  Li4  1  0.557719  0.646186  0.955867  1
  Li  Li5  1  0.057719  0.353814  0.544133  1
  Li  Li6  1  0.557719  0.646186  0.544133  1
  Li  Li7  1  0.942281  0.646186  0.455867  1
  Si  Si8  1  0.946808  0.146827  0.395008  1
  Si  Si9  1  0.920974  0.350230  0.250000  1
  Si  Si10  1  0.446808  0.853173  0.395008  1
  Si  Si11  1  0.579026  0.350230  0.750000  1
  Si  Si12  1  0.079026  0.649770  0.750000  1
  Si  Si13  1  0.053192  0.853173  0.895008  1
  Si  Si14  1  0.446808  0.853173  0.104992  1
  Si  Si15  1  0.553192  0.146827  0.604992  1
  Si  Si16  1  0.553192  0.146827  0.895008  1
  Si  Si17  1  0.946808  0.146827  0.104992  1
  Si  Si18  1  0.420974  0.649770  0.250000  1
  Si  Si19  1  0.053192  0.853173  0.604992  1
  O  O20  1  0.044048  0.337646  0.055286  1
  O  O21  1  0.619554  0.087646  0.091894  1
  O  O22  1  0.011938  0.796707  0.684285  1
  O  O23  1  0.955952  0.662354  0.944714  1
  O  O24  1  0.897370  0.424089  0.750000  1
  O  O25  1  0.880446  0.087646  0.591894  1
  O  O26  1  0.102630  0.575911  0.250000  1
  O  O27  1  0.988062  0.203293  0.184285  1
  O  O28  1  0.455952  0.337646  0.555286  1
  O  O29  1  0.602630  0.424089  0.250000  1
  O  O30  1  0.544048  0.662354  0.055286  1
  O  O31  1  0.488062  0.796707  0.184285  1
  O  O32  1  0.380446  0.912354  0.591894  1
  O  O33  1  0.488062  0.796707  0.315715  1
  O  O34  1  0.544048  0.662354  0.444714  1
  O  O35  1  0.955952  0.662354  0.555286  1
  O  O36  1  0.988062  0.203293  0.315715  1
  O  O37  1  0.380446  0.912354  0.908106  1
  O  O38  1  0.880446  0.087646  0.908106  1
  O  O39  1  0.397370  0.575911  0.750000  1
  O  O40  1  0.511938  0.203293  0.684285  1
  O  O41  1  0.619554  0.087646  0.408106  1
  O  O42  1  0.511938  0.203293  0.815715  1
  O  O43  1  0.044048  0.337646  0.444714  1
  O  O44  1  0.011938  0.796707  0.815715  1
  O  O45  1  0.455952  0.337646  0.944714  1
  O  O46  1  0.119554  0.912354  0.091894  1
  O  O47  1  0.119554  0.912354  0.408106  1
