# generated using pymatgen
data_Fe2(SO4)3
_symmetry_space_group_name_H-M   'P 1'
_cell_length_a   8.95828198
_cell_length_b   8.95828198
_cell_length_c   8.95828198
_cell_angle_alpha   55.47859968
_cell_angle_beta   55.47859968
_cell_angle_gamma   55.47859968
_symmetry_Int_Tables_number   1
_chemical_formula_structural   Fe2(SO4)3
_chemical_formula_sum   'Fe4 S6 O24'
_cell_volume   454.97530804
_cell_formula_units_Z   2
loop_
 _symmetry_equiv_pos_site_id
 _symmetry_equiv_pos_as_xyz
  1  'x, y, z'
loop_
 _atom_site_type_symbol
 _atom_site_label
 _atom_site_symmetry_multiplicity
 _atom_site_fract_x
 _atom_site_fract_y
 _atom_site_fract_z
 _atom_site_occupancy
  Fe  Fe0  1  0.855122  0.855122  0.855122  1
  Fe  Fe1  1  0.144878  0.144878  0.144878  1
  Fe  Fe2  1  0.650750  0.650750  0.650750  1
  Fe  Fe3  1  0.349250  0.349250  0.349250  1
  S  S4  1  0.751102  0.037923  0.459352  1
  S  S5  1  0.459352  0.751102  0.037923  1
  S  S6  1  0.037923  0.459352  0.751102  1
  S  S7  1  0.248898  0.962077  0.540648  1
  S  S8  1  0.540648  0.248898  0.962077  1
  S  S9  1  0.962077  0.540648  0.248898  1
  O  O10  1  0.790746  0.013332  0.613181  1
  O  O11  1  0.613181  0.790746  0.013332  1
  O  O12  1  0.013332  0.613181  0.790746  1
  O  O13  1  0.209254  0.986668  0.386819  1
  O  O14  1  0.386819  0.209254  0.986668  1
  O  O15  1  0.986668  0.386819  0.209254  1
  O  O16  1  0.782926  0.847302  0.477178  1
  O  O17  1  0.477178  0.782926  0.847302  1
  O  O18  1  0.847302  0.477178  0.782926  1
  O  O19  1  0.217074  0.152698  0.522822  1
  O  O20  1  0.522822  0.217074  0.152698  1
  O  O21  1  0.152698  0.522822  0.217074  1
  O  O22  1  0.884767  0.121129  0.266025  1
  O  O23  1  0.266025  0.884767  0.121129  1
  O  O24  1  0.121129  0.266025  0.884767  1
  O  O25  1  0.115233  0.878871  0.733975  1
  O  O26  1  0.733975  0.115233  0.878871  1
  O  O27  1  0.878871  0.733975  0.115233  1
  O  O28  1  0.547435  0.172593  0.479116  1
  O  O29  1  0.479116  0.547435  0.172593  1
  O  O30  1  0.172593  0.479116  0.547435  1
  O  O31  1  0.452565  0.827407  0.520884  1
  O  O32  1  0.520884  0.452565  0.827407  1
  O  O33  1  0.827407  0.520884  0.452565  1
