# generated using pymatgen
data_Hg3As8(S4Br3)2
_symmetry_space_group_name_H-M   'P 1'
_cell_length_a   10.20096803
_cell_length_b   11.95606646
_cell_length_c   14.65615442
_cell_angle_alpha   90.00000000
_cell_angle_beta   107.97051768
_cell_angle_gamma   90.00000000
_symmetry_Int_Tables_number   1
_chemical_formula_structural   Hg3As8(S4Br3)2
_chemical_formula_sum   'Hg6 As16 S16 Br12'
_cell_volume   1700.31196836
_cell_formula_units_Z   2
loop_
 _symmetry_equiv_pos_site_id
 _symmetry_equiv_pos_as_xyz
  1  'x, y, z'
loop_
 _atom_site_type_symbol
 _atom_site_label
 _atom_site_symmetry_multiplicity
 _atom_site_fract_x
 _atom_site_fract_y
 _atom_site_fract_z
 _atom_site_occupancy
  Hg  Hg0  1  0.241365  0.778702  0.306392  1
  Hg  Hg1  1  0.758635  0.278702  0.193608  1
  Hg  Hg2  1  0.241365  0.721298  0.806392  1
  Hg  Hg3  1  0.758635  0.221298  0.693608  1
  Hg  Hg4  1  0.000000  0.500000  0.500000  1
  Hg  Hg5  1  0.000000  0.000000  0.000000  1
  As  As6  1  0.621776  0.914802  0.418403  1
  As  As7  1  0.131864  0.174391  0.524230  1
  As  As8  1  0.387160  0.365492  0.506790  1
  As  As9  1  0.131864  0.325609  0.024230  1
  As  As10  1  0.627984  0.854158  0.817413  1
  As  As11  1  0.868136  0.674391  0.975770  1
  As  As12  1  0.372016  0.145842  0.182587  1
  As  As13  1  0.372016  0.354158  0.682587  1
  As  As14  1  0.868136  0.825609  0.475770  1
  As  As15  1  0.378224  0.085198  0.581597  1
  As  As16  1  0.612840  0.634508  0.493210  1
  As  As17  1  0.387160  0.134508  0.006790  1
  As  As18  1  0.612840  0.865492  0.993210  1
  As  As19  1  0.378224  0.414802  0.081597  1
  As  As20  1  0.621776  0.585198  0.918403  1
  As  As21  1  0.627984  0.645842  0.317413  1
  S  S22  1  0.461974  0.180079  0.721578  1
  S  S23  1  0.538026  0.680079  0.778422  1
  S  S24  1  0.461974  0.319921  0.221578  1
  S  S25  1  0.484339  0.303437  0.000351  1
  S  S26  1  0.538026  0.819921  0.278422  1
  S  S27  1  0.172266  0.306233  0.425219  1
  S  S28  1  0.152237  0.292739  0.648381  1
  S  S29  1  0.827734  0.693767  0.574781  1
  S  S30  1  0.827734  0.806233  0.074781  1
  S  S31  1  0.847763  0.792739  0.851619  1
  S  S32  1  0.152237  0.207261  0.148381  1
  S  S33  1  0.484339  0.196563  0.500351  1
  S  S34  1  0.515661  0.696563  0.999649  1
  S  S35  1  0.172266  0.193767  0.925219  1
  S  S36  1  0.515661  0.803437  0.499649  1
  S  S37  1  0.847763  0.707261  0.351619  1
  Br  Br38  1  0.158929  0.534667  0.835879  1
  Br  Br39  1  0.787207  0.383341  0.443776  1
  Br  Br40  1  0.841071  0.034667  0.664121  1
  Br  Br41  1  0.787207  0.116659  0.943776  1
  Br  Br42  1  0.737461  0.421264  0.730853  1
  Br  Br43  1  0.158929  0.965333  0.335879  1
  Br  Br44  1  0.212793  0.883341  0.056224  1
  Br  Br45  1  0.212793  0.616659  0.556224  1
  Br  Br46  1  0.737461  0.078736  0.230853  1
  Br  Br47  1  0.262539  0.921264  0.769147  1
  Br  Br48  1  0.841071  0.465333  0.164121  1
  Br  Br49  1  0.262539  0.578736  0.269147  1
