# generated using pymatgen
data_NaSiBO4
_symmetry_space_group_name_H-M   'P 1'
_cell_length_a   8.08283258
_cell_length_b   7.79146900
_cell_length_c   16.26530534
_cell_angle_alpha   90.00000000
_cell_angle_beta   119.72167872
_cell_angle_gamma   90.00000000
_symmetry_Int_Tables_number   1
_chemical_formula_structural   NaSiBO4
_chemical_formula_sum   'Na12 Si12 B12 O48'
_cell_volume   889.58400167
_cell_formula_units_Z   12
loop_
 _symmetry_equiv_pos_site_id
 _symmetry_equiv_pos_as_xyz
  1  'x, y, z'
loop_
 _atom_site_type_symbol
 _atom_site_label
 _atom_site_symmetry_multiplicity
 _atom_site_fract_x
 _atom_site_fract_y
 _atom_site_fract_z
 _atom_site_occupancy
  Na  Na0  1  0.996862  0.010917  0.750363  1
  Na  Na1  1  0.003138  0.510917  0.749637  1
  Na  Na2  1  0.640823  0.470676  0.912027  1
  Na  Na3  1  0.359177  0.970676  0.587973  1
  Na  Na4  1  0.294383  0.533766  0.567650  1
  Na  Na5  1  0.705617  0.466234  0.432350  1
  Na  Na6  1  0.996862  0.489083  0.250363  1
  Na  Na7  1  0.705617  0.033766  0.932350  1
  Na  Na8  1  0.294383  0.966234  0.067650  1
  Na  Na9  1  0.359177  0.529324  0.087973  1
  Na  Na10  1  0.003138  0.989083  0.249637  1
  Na  Na11  1  0.640823  0.029324  0.412027  1
  Si  Si12  1  0.681289  0.789385  0.761342  1
  Si  Si13  1  0.661051  0.296273  0.592565  1
  Si  Si14  1  0.318711  0.289385  0.738658  1
  Si  Si15  1  0.318711  0.210615  0.238658  1
  Si  Si16  1  0.975063  0.702876  0.080915  1
  Si  Si17  1  0.681289  0.710615  0.261342  1
  Si  Si18  1  0.661051  0.203727  0.092565  1
  Si  Si19  1  0.024937  0.297124  0.919085  1
  Si  Si20  1  0.975063  0.797124  0.580915  1
  Si  Si21  1  0.338949  0.703727  0.407435  1
  Si  Si22  1  0.024937  0.202876  0.419085  1
  Si  Si23  1  0.338949  0.796273  0.907435  1
  B  B24  1  0.981531  0.327585  0.081661  1
  B  B25  1  0.318436  0.829935  0.239608  1
  B  B26  1  0.018469  0.827585  0.418339  1
  B  B27  1  0.658334  0.673051  0.590354  1
  B  B28  1  0.981531  0.172415  0.581661  1
  B  B29  1  0.318436  0.670065  0.739608  1
  B  B30  1  0.018469  0.672415  0.918339  1
  B  B31  1  0.681564  0.170065  0.760392  1
  B  B32  1  0.658334  0.826949  0.090354  1
  B  B33  1  0.341666  0.173051  0.909646  1
  B  B34  1  0.681564  0.329935  0.260392  1
  B  B35  1  0.341666  0.326949  0.409646  1
  O  O36  1  0.393752  0.671300  0.843201  1
  O  O37  1  0.886994  0.276346  0.622724  1
  O  O38  1  0.454899  0.743682  0.713441  1
  O  O39  1  0.528470  0.251541  0.979588  1
  O  O40  1  0.276141  0.489709  0.703347  1
  O  O41  1  0.606248  0.328700  0.156799  1
  O  O42  1  0.624432  0.005109  0.111702  1
  O  O43  1  0.528470  0.248459  0.479588  1
  O  O44  1  0.375568  0.505109  0.388298  1
  O  O45  1  0.809963  0.832776  0.353700  1
  O  O46  1  0.098960  0.495943  0.933077  1
  O  O47  1  0.901040  0.504057  0.066923  1
  O  O48  1  0.723859  0.510291  0.296653  1
  O  O49  1  0.624432  0.494891  0.611702  1
  O  O50  1  0.064724  0.747117  0.012081  1
  O  O51  1  0.113006  0.776346  0.877276  1
  O  O52  1  0.901040  0.995943  0.566923  1
  O  O53  1  0.209647  0.172045  0.948348  1
  O  O54  1  0.886994  0.223654  0.122724  1
  O  O55  1  0.935276  0.247117  0.487919  1
  O  O56  1  0.375568  0.994891  0.888298  1
  O  O57  1  0.256881  0.228664  0.320566  1
  O  O58  1  0.790353  0.672045  0.551652  1
  O  O59  1  0.606248  0.171300  0.656799  1
  O  O60  1  0.545101  0.243682  0.786559  1
  O  O61  1  0.098960  0.004057  0.433077  1
  O  O62  1  0.454899  0.756318  0.213441  1
  O  O63  1  0.863032  0.233079  0.307987  1
  O  O64  1  0.136968  0.733079  0.192013  1
  O  O65  1  0.743119  0.771336  0.679434  1
  O  O66  1  0.723859  0.989709  0.796653  1
  O  O67  1  0.276141  0.010291  0.203347  1
  O  O68  1  0.113006  0.723654  0.377276  1
  O  O69  1  0.190037  0.332776  0.146300  1
  O  O70  1  0.743119  0.728664  0.179434  1
  O  O71  1  0.209647  0.327955  0.448348  1
  O  O72  1  0.064724  0.752883  0.512081  1
  O  O73  1  0.471530  0.748459  0.020412  1
  O  O74  1  0.190037  0.167224  0.646300  1
  O  O75  1  0.256881  0.271336  0.820566  1
  O  O76  1  0.935276  0.252883  0.987919  1
  O  O77  1  0.545101  0.256318  0.286559  1
  O  O78  1  0.393752  0.828700  0.343201  1
  O  O79  1  0.471530  0.751541  0.520412  1
  O  O80  1  0.809963  0.667224  0.853700  1
  O  O81  1  0.136968  0.766921  0.692013  1
  O  O82  1  0.863032  0.266921  0.807987  1
  O  O83  1  0.790353  0.827955  0.051652  1
