# generated using pymatgen
data_LiCa10MgSb9
_symmetry_space_group_name_H-M   'P 1'
_cell_length_a   11.96409933
_cell_length_b   11.96409933
_cell_length_c   17.18480849
_cell_angle_alpha   90.00000000
_cell_angle_beta   90.00000000
_cell_angle_gamma   90.00000000
_symmetry_Int_Tables_number   1
_chemical_formula_structural   LiCa10MgSb9
_chemical_formula_sum   'Li4 Ca40 Mg4 Sb36'
_cell_volume   2459.82786401
_cell_formula_units_Z   4
loop_
 _symmetry_equiv_pos_site_id
 _symmetry_equiv_pos_as_xyz
  1  'x, y, z'
loop_
 _atom_site_type_symbol
 _atom_site_label
 _atom_site_symmetry_multiplicity
 _atom_site_fract_x
 _atom_site_fract_y
 _atom_site_fract_z
 _atom_site_occupancy
  Li  Li0  1  0.777772  0.222228  0.500000  1
  Li  Li1  1  0.222228  0.777772  0.500000  1
  Li  Li2  1  0.722228  0.722228  0.000000  1
  Li  Li3  1  0.277772  0.277772  0.000000  1
  Ca  Ca4  1  0.485103  0.838168  0.102995  1
  Ca  Ca5  1  0.514897  0.161832  0.897005  1
  Ca  Ca6  1  0.248420  0.511735  0.689898  1
  Ca  Ca7  1  0.000000  0.000000  0.643645  1
  Ca  Ca8  1  0.751580  0.488265  0.310102  1
  Ca  Ca9  1  0.488265  0.751580  0.689898  1
  Ca  Ca10  1  0.014897  0.338168  0.397005  1
  Ca  Ca11  1  0.161832  0.514897  0.897005  1
  Ca  Ca12  1  0.011735  0.251580  0.189898  1
  Ca  Ca13  1  0.338168  0.014897  0.602995  1
  Ca  Ca14  1  0.511735  0.248420  0.689898  1
  Ca  Ca15  1  0.748420  0.988265  0.810102  1
  Ca  Ca16  1  0.838168  0.485103  0.102995  1
  Ca  Ca17  1  0.988265  0.748420  0.810102  1
  Ca  Ca18  1  0.661832  0.985103  0.397005  1
  Ca  Ca19  1  0.338168  0.014897  0.397005  1
  Ca  Ca20  1  0.500000  0.500000  0.856355  1
  Ca  Ca21  1  0.751580  0.488265  0.689898  1
  Ca  Ca22  1  0.985103  0.661832  0.397005  1
  Ca  Ca23  1  0.014897  0.338168  0.602995  1
  Ca  Ca24  1  0.248420  0.511735  0.310102  1
  Ca  Ca25  1  0.818334  0.181666  0.000000  1
  Ca  Ca26  1  0.511735  0.248420  0.310102  1
  Ca  Ca27  1  0.838168  0.485103  0.897005  1
  Ca  Ca28  1  0.500000  0.500000  0.143645  1
  Ca  Ca29  1  0.985103  0.661832  0.602995  1
  Ca  Ca30  1  0.748420  0.988265  0.189898  1
  Ca  Ca31  1  0.488265  0.751580  0.310102  1
  Ca  Ca32  1  0.988265  0.748420  0.189898  1
  Ca  Ca33  1  0.681666  0.681666  0.500000  1
  Ca  Ca34  1  0.251580  0.011735  0.189898  1
  Ca  Ca35  1  0.661832  0.985103  0.602995  1
  Ca  Ca36  1  0.011735  0.251580  0.810102  1
  Ca  Ca37  1  0.318334  0.318334  0.500000  1
  Ca  Ca38  1  0.514897  0.161832  0.102995  1
  Ca  Ca39  1  0.000000  0.000000  0.356355  1
  Ca  Ca40  1  0.251580  0.011735  0.810102  1
  Ca  Ca41  1  0.485103  0.838168  0.897005  1
  Ca  Ca42  1  0.161832  0.514897  0.102995  1
  Ca  Ca43  1  0.181666  0.818334  0.000000  1
  Mg  Mg44  1  0.102412  0.102412  0.000000  1
  Mg  Mg45  1  0.397588  0.602412  0.500000  1
  Mg  Mg46  1  0.602412  0.397588  0.500000  1
  Mg  Mg47  1  0.897588  0.897588  0.000000  1
  Sb  Sb48  1  0.223539  0.223539  0.319373  1
  Sb  Sb49  1  0.370837  0.629163  0.000000  1
  Sb  Sb50  1  0.186125  0.813875  0.670987  1
  Sb  Sb51  1  0.629163  0.370837  0.000000  1
  Sb  Sb52  1  0.313875  0.313875  0.829013  1
  Sb  Sb53  1  0.333720  0.031406  0.000000  1
  Sb  Sb54  1  0.500000  0.000000  0.750000  1
  Sb  Sb55  1  0.833720  0.468594  0.500000  1
  Sb  Sb56  1  0.313875  0.313875  0.170987  1
  Sb  Sb57  1  0.686125  0.686125  0.170987  1
  Sb  Sb58  1  0.500000  0.000000  0.250000  1
  Sb  Sb59  1  0.723539  0.276461  0.819373  1
  Sb  Sb60  1  0.813875  0.186125  0.329013  1
  Sb  Sb61  1  0.186125  0.813875  0.329013  1
  Sb  Sb62  1  0.870837  0.870837  0.500000  1
  Sb  Sb63  1  0.166280  0.531406  0.500000  1
  Sb  Sb64  1  0.776461  0.776461  0.680627  1
  Sb  Sb65  1  0.813875  0.186125  0.670987  1
  Sb  Sb66  1  0.000000  0.000000  0.865468  1
  Sb  Sb67  1  0.776461  0.776461  0.319373  1
  Sb  Sb68  1  0.500000  0.500000  0.365468  1
  Sb  Sb69  1  0.968594  0.666280  0.000000  1
  Sb  Sb70  1  0.686125  0.686125  0.829013  1
  Sb  Sb71  1  0.500000  0.500000  0.634532  1
  Sb  Sb72  1  0.276461  0.723539  0.180627  1
  Sb  Sb73  1  0.031406  0.333720  0.000000  1
  Sb  Sb74  1  0.531406  0.166280  0.500000  1
  Sb  Sb75  1  0.276461  0.723539  0.819373  1
  Sb  Sb76  1  0.666280  0.968594  0.000000  1
  Sb  Sb77  1  0.468594  0.833720  0.500000  1
  Sb  Sb78  1  0.223539  0.223539  0.680627  1
  Sb  Sb79  1  0.129163  0.129163  0.500000  1
  Sb  Sb80  1  0.723539  0.276461  0.180627  1
  Sb  Sb81  1  0.000000  0.000000  0.134532  1
  Sb  Sb82  1  0.000000  0.500000  0.750000  1
  Sb  Sb83  1  0.000000  0.500000  0.250000  1
