# generated using pymatgen
data_Tm2Te4O11
_symmetry_space_group_name_H-M   'P 1'
_cell_length_a   6.70575325
_cell_length_b   6.70575325
_cell_length_c   16.19567891
_cell_angle_alpha   75.69647844
_cell_angle_beta   104.30352156
_cell_angle_gamma   135.05661254
_symmetry_Int_Tables_number   1
_chemical_formula_structural   Tm2Te4O11
_chemical_formula_sum   'Tm4 Te8 O22'
_cell_volume   495.72990650
_cell_formula_units_Z   2
loop_
 _symmetry_equiv_pos_site_id
 _symmetry_equiv_pos_as_xyz
  1  'x, y, z'
loop_
 _atom_site_type_symbol
 _atom_site_label
 _atom_site_symmetry_multiplicity
 _atom_site_fract_x
 _atom_site_fract_y
 _atom_site_fract_z
 _atom_site_occupancy
  Tm  Tm0  1  0.870130  0.630998  0.036785  1
  Tm  Tm1  1  0.630998  0.870130  0.463215  1
  Tm  Tm2  1  0.369002  0.129870  0.536785  1
  Tm  Tm3  1  0.129870  0.369002  0.963215  1
  Te  Te4  1  0.590353  0.844631  0.124919  1
  Te  Te5  1  0.598335  0.842890  0.802336  1
  Te  Te6  1  0.401665  0.157110  0.197664  1
  Te  Te7  1  0.842890  0.598335  0.697664  1
  Te  Te8  1  0.409647  0.155369  0.875081  1
  Te  Te9  1  0.844631  0.590353  0.375081  1
  Te  Te10  1  0.157110  0.401665  0.302336  1
  Te  Te11  1  0.155369  0.409647  0.624919  1
  O  O12  1  0.088951  0.790503  0.166011  1
  O  O13  1  0.550700  0.598573  0.905666  1
  O  O14  1  0.598573  0.550700  0.594334  1
  O  O15  1  0.660217  0.244325  0.448679  1
  O  O16  1  0.790503  0.088951  0.333989  1
  O  O17  1  0.144253  0.144253  0.250000  1
  O  O18  1  0.172124  0.034608  0.955994  1
  O  O19  1  0.827876  0.965392  0.044006  1
  O  O20  1  0.855747  0.855747  0.750000  1
  O  O21  1  0.034608  0.172124  0.544006  1
  O  O22  1  0.339783  0.755675  0.551321  1
  O  O23  1  0.192239  0.686142  0.372811  1
  O  O24  1  0.755675  0.339783  0.948679  1
  O  O25  1  0.401427  0.449300  0.405666  1
  O  O26  1  0.209497  0.911049  0.666011  1
  O  O27  1  0.965392  0.827876  0.455994  1
  O  O28  1  0.807761  0.313858  0.627189  1
  O  O29  1  0.911049  0.209497  0.833989  1
  O  O30  1  0.686142  0.192239  0.127189  1
  O  O31  1  0.449300  0.401427  0.094334  1
  O  O32  1  0.313858  0.807761  0.872811  1
  O  O33  1  0.244325  0.660217  0.051321  1
