# generated using pymatgen
data_CsCu5S3
_symmetry_space_group_name_H-M   'P 1'
_cell_length_a   3.91495279
_cell_length_b   9.01488925
_cell_length_c   9.60712721
_cell_angle_alpha   90.00000000
_cell_angle_beta   90.00000000
_cell_angle_gamma   90.00000000
_symmetry_Int_Tables_number   1
_chemical_formula_structural   CsCu5S3
_chemical_formula_sum   'Cs2 Cu10 S6'
_cell_volume   339.06305155
_cell_formula_units_Z   2
loop_
 _symmetry_equiv_pos_site_id
 _symmetry_equiv_pos_as_xyz
  1  'x, y, z'
loop_
 _atom_site_type_symbol
 _atom_site_label
 _atom_site_symmetry_multiplicity
 _atom_site_fract_x
 _atom_site_fract_y
 _atom_site_fract_z
 _atom_site_occupancy
  Cs  Cs0  1  0.000000  0.058988  0.250000  1
  Cs  Cs1  1  0.000000  0.941012  0.750000  1
  Cu  Cu2  1  0.500000  0.714444  0.250000  1
  Cu  Cu3  1  0.500000  0.576755  0.886729  1
  Cu  Cu4  1  0.000000  0.639981  0.078093  1
  Cu  Cu5  1  0.500000  0.423245  0.386729  1
  Cu  Cu6  1  0.500000  0.423245  0.113271  1
  Cu  Cu7  1  0.000000  0.360019  0.921907  1
  Cu  Cu8  1  0.000000  0.360019  0.578093  1
  Cu  Cu9  1  0.500000  0.576755  0.613271  1
  Cu  Cu10  1  0.000000  0.639981  0.421907  1
  Cu  Cu11  1  0.500000  0.285556  0.750000  1
  S  S12  1  0.500000  0.220322  0.527999  1
  S  S13  1  0.000000  0.457502  0.250000  1
  S  S14  1  0.500000  0.779678  0.027999  1
  S  S15  1  0.000000  0.542498  0.750000  1
  S  S16  1  0.500000  0.220322  0.972001  1
  S  S17  1  0.500000  0.779678  0.472001  1
