# generated using pymatgen
data_AlPO4
_symmetry_space_group_name_H-M   'P 1'
_cell_length_a   12.60414325
_cell_length_b   12.60414325
_cell_length_c   12.60414325
_cell_angle_alpha   139.57883432
_cell_angle_beta   113.22319461
_cell_angle_gamma   81.04766181
_symmetry_Int_Tables_number   1
_chemical_formula_structural   AlPO4
_chemical_formula_sum   'Al10 P10 O40'
_cell_volume   1157.47657851
_cell_formula_units_Z   10
loop_
 _symmetry_equiv_pos_site_id
 _symmetry_equiv_pos_as_xyz
  1  'x, y, z'
loop_
 _atom_site_type_symbol
 _atom_site_label
 _atom_site_symmetry_multiplicity
 _atom_site_fract_x
 _atom_site_fract_y
 _atom_site_fract_z
 _atom_site_occupancy
  Al  Al0  1  0.847448  0.588076  0.642853  1
  Al  Al1  1  0.554777  0.295405  0.642853  1
  Al  Al2  1  0.106494  0.155601  0.334288  1
  Al  Al3  1  0.445223  0.088076  0.740628  1
  Al  Al4  1  0.392185  0.440586  0.332771  1
  Al  Al5  1  0.893506  0.227794  0.049107  1
  Al  Al6  1  0.678687  0.727794  0.334288  1
  Al  Al7  1  0.607815  0.940586  0.048401  1
  Al  Al8  1  0.321313  0.655601  0.049107  1
  Al  Al9  1  0.152552  0.795405  0.740628  1
  P  P10  1  0.681396  0.352669  0.962107  1
  P  P11  1  0.444437  0.711349  0.366407  1
  P  P12  1  0.385965  0.066040  0.952005  1
  P  P13  1  0.109438  0.780711  0.962107  1
  P  P14  1  0.155058  0.421970  0.366407  1
  P  P15  1  0.555563  0.921970  0.266912  1
  P  P16  1  0.844942  0.211349  0.266912  1
  P  P17  1  0.318604  0.280711  0.671273  1
  P  P18  1  0.890562  0.852669  0.671273  1
  P  P19  1  0.614035  0.566040  0.680075  1
  O  O20  1  0.167394  0.801460  0.889825  1
  O  O21  1  0.733123  0.575763  0.679100  1
  O  O22  1  0.609866  0.741315  0.851181  1
  O  O23  1  0.568895  0.703780  0.370872  1
  O  O24  1  0.588365  0.222431  0.889825  1
  O  O25  1  0.816448  0.822369  0.516773  1
  O  O26  1  0.488296  0.000575  0.988871  1
  O  O27  1  0.103400  0.953741  0.133995  1
  O  O28  1  0.183552  0.700325  0.005921  1
  O  O29  1  0.647090  0.854108  0.315245  1
  O  O30  1  0.844009  0.388980  0.439538  1
  O  O31  1  0.511704  0.500575  0.512279  1
  O  O32  1  0.603337  0.445977  0.679100  1
  O  O33  1  0.390134  0.241315  0.131448  1
  O  O34  1  0.411635  0.301460  0.634066  1
  O  O35  1  0.194404  0.200325  0.516773  1
  O  O36  1  0.396663  0.075763  0.842640  1
  O  O37  1  0.155991  0.595528  0.544970  1
  O  O38  1  0.896600  0.030595  0.850341  1
  O  O39  1  0.406133  0.583680  0.343322  1
  O  O40  1  0.550558  0.095528  0.439538  1
  O  O41  1  0.740358  0.083680  0.177547  1
  O  O42  1  0.319746  0.453741  0.850341  1
  O  O43  1  0.431105  0.801977  0.134885  1
  O  O44  1  0.983398  0.665475  0.819774  1
  O  O45  1  0.654299  0.336376  0.819774  1
  O  O46  1  0.259642  0.437189  0.343322  1
  O  O47  1  0.345701  0.165475  0.682077  1
  O  O48  1  0.038863  0.354108  0.207018  1
  O  O49  1  0.805596  0.322369  0.005921  1
  O  O50  1  0.266877  0.945977  0.842640  1
  O  O51  1  0.167092  0.301977  0.370872  1
  O  O52  1  0.593867  0.937189  0.177547  1
  O  O53  1  0.449442  0.888980  0.544970  1
  O  O54  1  0.352910  0.668155  0.207018  1
  O  O55  1  0.680254  0.530595  0.133995  1
  O  O56  1  0.832908  0.203780  0.134885  1
  O  O57  1  0.961137  0.168155  0.315245  1
  O  O58  1  0.016602  0.836376  0.682077  1
  O  O59  1  0.832606  0.722431  0.634066  1
