# generated using pymatgen
data_SbCSCl2F9
_symmetry_space_group_name_H-M   'P 1'
_cell_length_a   8.02771648
_cell_length_b   9.80778211
_cell_length_c   12.74986765
_cell_angle_alpha   90.00000000
_cell_angle_beta   100.38230570
_cell_angle_gamma   90.00000000
_symmetry_Int_Tables_number   1
_chemical_formula_structural   SbCSCl2F9
_chemical_formula_sum   'Sb4 C4 S4 Cl8 F36'
_cell_volume   987.41342774
_cell_formula_units_Z   4
loop_
 _symmetry_equiv_pos_site_id
 _symmetry_equiv_pos_as_xyz
  1  'x, y, z'
loop_
 _atom_site_type_symbol
 _atom_site_label
 _atom_site_symmetry_multiplicity
 _atom_site_fract_x
 _atom_site_fract_y
 _atom_site_fract_z
 _atom_site_occupancy
  Sb  Sb0  1  0.196978  0.250706  0.066540  1
  Sb  Sb1  1  0.196978  0.249294  0.566540  1
  Sb  Sb2  1  0.803022  0.749294  0.933460  1
  Sb  Sb3  1  0.803022  0.750706  0.433460  1
  C  C4  1  0.619814  0.174074  0.373005  1
  C  C5  1  0.619814  0.325926  0.873005  1
  C  C6  1  0.380186  0.674074  0.126995  1
  C  C7  1  0.380186  0.825926  0.626995  1
  S  S8  1  0.175253  0.822787  0.700057  1
  S  S9  1  0.824747  0.177213  0.299943  1
  S  S10  1  0.175253  0.677213  0.200057  1
  S  S11  1  0.824747  0.322787  0.799943  1
  Cl  Cl12  1  0.737614  0.070170  0.169774  1
  Cl  Cl13  1  0.814945  0.130708  0.752300  1
  Cl  Cl14  1  0.262386  0.929830  0.830226  1
  Cl  Cl15  1  0.185055  0.869292  0.247700  1
  Cl  Cl16  1  0.262386  0.570170  0.330226  1
  Cl  Cl17  1  0.185055  0.630708  0.747700  1
  Cl  Cl18  1  0.737614  0.429830  0.669774  1
  Cl  Cl19  1  0.814945  0.369292  0.252300  1
  F  F20  1  0.972518  0.294901  0.491378  1
  F  F21  1  0.860065  0.671296  0.306549  1
  F  F22  1  0.432887  0.698882  0.618861  1
  F  F23  1  0.860065  0.828704  0.806549  1
  F  F24  1  0.716613  0.578361  0.470787  1
  F  F25  1  0.244002  0.169685  0.438097  1
  F  F26  1  0.972518  0.205099  0.991378  1
  F  F27  1  0.755998  0.669685  0.061903  1
  F  F28  1  0.498188  0.903037  0.684005  1
  F  F29  1  0.582417  0.699503  0.858677  1
  F  F30  1  0.755998  0.830315  0.561903  1
  F  F31  1  0.432887  0.801118  0.118861  1
  F  F32  1  0.501812  0.096963  0.315995  1
  F  F33  1  0.244002  0.330315  0.938097  1
  F  F34  1  0.675332  0.379657  0.968603  1
  F  F35  1  0.283387  0.078361  0.029213  1
  F  F36  1  0.139935  0.171296  0.193451  1
  F  F37  1  0.498188  0.596963  0.184005  1
  F  F38  1  0.582417  0.800497  0.358677  1
  F  F39  1  0.027482  0.705099  0.508622  1
  F  F40  1  0.567113  0.301118  0.381139  1
  F  F41  1  0.888662  0.923471  0.392851  1
  F  F42  1  0.324668  0.620343  0.031397  1
  F  F43  1  0.675332  0.120343  0.468603  1
  F  F44  1  0.716613  0.921639  0.970787  1
  F  F45  1  0.111338  0.423471  0.107149  1
  F  F46  1  0.888662  0.576529  0.892851  1
  F  F47  1  0.324668  0.879657  0.531397  1
  F  F48  1  0.501812  0.403037  0.815995  1
  F  F49  1  0.139935  0.328704  0.693451  1
  F  F50  1  0.111338  0.076529  0.607149  1
  F  F51  1  0.417583  0.300497  0.141323  1
  F  F52  1  0.027482  0.794901  0.008622  1
  F  F53  1  0.417583  0.199503  0.641323  1
  F  F54  1  0.283387  0.421639  0.529213  1
  F  F55  1  0.567113  0.198882  0.881139  1
