# generated using pymatgen
data_KBi(PS3)2
_symmetry_space_group_name_H-M   'P 1'
_cell_length_a   6.75892593
_cell_length_b   7.57116312
_cell_length_c   10.05756157
_cell_angle_alpha   90.00000000
_cell_angle_beta   92.21903742
_cell_angle_gamma   90.00000000
_symmetry_Int_Tables_number   1
_chemical_formula_structural   KBi(PS3)2
_chemical_formula_sum   'K2 Bi2 P4 S12'
_cell_volume   514.28895033
_cell_formula_units_Z   2
loop_
 _symmetry_equiv_pos_site_id
 _symmetry_equiv_pos_as_xyz
  1  'x, y, z'
loop_
 _atom_site_type_symbol
 _atom_site_label
 _atom_site_symmetry_multiplicity
 _atom_site_fract_x
 _atom_site_fract_y
 _atom_site_fract_z
 _atom_site_occupancy
  K  K0  1  0.201646  0.475195  0.501944  1
  K  K1  1  0.798354  0.975195  0.498056  1
  Bi  Bi2  1  0.710589  0.227995  0.017581  1
  Bi  Bi3  1  0.289411  0.727995  0.982419  1
  P  P4  1  0.812333  0.684471  0.171633  1
  P  P5  1  0.296080  0.959220  0.702290  1
  P  P6  1  0.187667  0.184471  0.828367  1
  P  P7  1  0.703920  0.459220  0.297710  1
  S  S8  1  0.072238  0.771907  0.249989  1
  S  S9  1  0.677281  0.539790  0.483146  1
  S  S10  1  0.088566  0.768529  0.730896  1
  S  S11  1  0.844690  0.570137  0.986039  1
  S  S12  1  0.452444  0.379799  0.190438  1
  S  S13  1  0.911434  0.268529  0.269104  1
  S  S14  1  0.155310  0.070137  0.013961  1
  S  S15  1  0.547556  0.879799  0.809562  1
  S  S16  1  0.322719  0.039790  0.516854  1
  S  S17  1  0.408757  0.371848  0.830055  1
  S  S18  1  0.591243  0.871848  0.169945  1
  S  S19  1  0.927762  0.271907  0.750011  1
