# generated using pymatgen
data_CdI2
_symmetry_space_group_name_H-M   'P 1'
_cell_length_a   4.33034681
_cell_length_b   4.33034681
_cell_length_c   37.05303169
_cell_angle_alpha   90.00000000
_cell_angle_beta   90.00000000
_cell_angle_gamma   120.00000000
_symmetry_Int_Tables_number   1
_chemical_formula_structural   CdI2
_chemical_formula_sum   'Cd5 I10'
_cell_volume   601.72733312
_cell_formula_units_Z   5
loop_
 _symmetry_equiv_pos_site_id
 _symmetry_equiv_pos_as_xyz
  1  'x, y, z'
loop_
 _atom_site_type_symbol
 _atom_site_label
 _atom_site_symmetry_multiplicity
 _atom_site_fract_x
 _atom_site_fract_y
 _atom_site_fract_z
 _atom_site_occupancy
  Cd  Cd0  1  0.666667  0.333333  0.800024  1
  Cd  Cd1  1  0.000000  0.000000  0.400014  1
  Cd  Cd2  1  0.333333  0.666667  0.199976  1
  Cd  Cd3  1  0.000000  0.000000  0.599986  1
  Cd  Cd4  1  0.000000  0.000000  0.000000  1
  I  I5  1  0.666667  0.333333  0.953314  1
  I  I6  1  0.333333  0.666667  0.046686  1
  I  I7  1  0.666667  0.333333  0.153306  1
  I  I8  1  0.333333  0.666667  0.446684  1
  I  I9  1  0.333333  0.666667  0.846694  1
  I  I10  1  0.666667  0.333333  0.353365  1
  I  I11  1  0.000000  0.000000  0.753398  1
  I  I12  1  0.333333  0.666667  0.646635  1
  I  I13  1  0.666667  0.333333  0.553316  1
  I  I14  1  0.000000  0.000000  0.246602  1
