# generated using pymatgen
data_CsFeF4
_symmetry_space_group_name_H-M   'P 1'
_cell_length_a   7.93917394
_cell_length_b   7.93917394
_cell_length_c   6.65624738
_cell_angle_alpha   90.00000000
_cell_angle_beta   90.00000000
_cell_angle_gamma   90.00000000
_symmetry_Int_Tables_number   1
_chemical_formula_structural   CsFeF4
_chemical_formula_sum   'Cs4 Fe4 F16'
_cell_volume   419.54648633
_cell_formula_units_Z   4
loop_
 _symmetry_equiv_pos_site_id
 _symmetry_equiv_pos_as_xyz
  1  'x, y, z'
loop_
 _atom_site_type_symbol
 _atom_site_label
 _atom_site_symmetry_multiplicity
 _atom_site_fract_x
 _atom_site_fract_y
 _atom_site_fract_z
 _atom_site_occupancy
  Cs  Cs0  1  0.500000  0.500000  0.500000  1
  Cs  Cs1  1  0.000000  0.000000  0.500000  1
  Cs  Cs2  1  0.500000  0.000000  0.451100  1
  Cs  Cs3  1  0.000000  0.500000  0.548900  1
  Fe  Fe4  1  0.250000  0.750000  0.000000  1
  Fe  Fe5  1  0.250000  0.250000  0.000000  1
  Fe  Fe6  1  0.750000  0.750000  0.000000  1
  Fe  Fe7  1  0.750000  0.250000  0.000000  1
  F  F8  1  0.721006  0.221006  0.718712  1
  F  F9  1  0.278994  0.778994  0.718712  1
  F  F10  1  0.278994  0.221006  0.718712  1
  F  F11  1  0.721006  0.778994  0.718712  1
  F  F12  1  0.221006  0.721006  0.281288  1
  F  F13  1  0.221006  0.278994  0.281288  1
  F  F14  1  0.778994  0.721006  0.281288  1
  F  F15  1  0.778994  0.278994  0.281288  1
  F  F16  1  0.747323  0.500000  0.953166  1
  F  F17  1  0.000000  0.752677  0.953166  1
  F  F18  1  0.000000  0.247323  0.953166  1
  F  F19  1  0.252677  0.500000  0.953166  1
  F  F20  1  0.752677  0.000000  0.046834  1
  F  F21  1  0.247323  0.000000  0.046834  1
  F  F22  1  0.500000  0.747323  0.046834  1
  F  F23  1  0.500000  0.252677  0.046834  1
