# generated using pymatgen
data_Ca2GeS4
_symmetry_space_group_name_H-M   'P 1'
_cell_length_a   6.36448475
_cell_length_b   8.24701271
_cell_length_c   13.82406462
_cell_angle_alpha   90.00000000
_cell_angle_beta   90.00000000
_cell_angle_gamma   90.00000000
_symmetry_Int_Tables_number   1
_chemical_formula_structural   Ca2GeS4
_chemical_formula_sum   'Ca8 Ge4 S16'
_cell_volume   725.59731889
_cell_formula_units_Z   4
loop_
 _symmetry_equiv_pos_site_id
 _symmetry_equiv_pos_as_xyz
  1  'x, y, z'
loop_
 _atom_site_type_symbol
 _atom_site_label
 _atom_site_symmetry_multiplicity
 _atom_site_fract_x
 _atom_site_fract_y
 _atom_site_fract_z
 _atom_site_occupancy
  Ca  Ca0  1  0.000000  0.000000  0.000000  1
  Ca  Ca1  1  0.500000  0.000000  0.500000  1
  Ca  Ca2  1  0.000000  0.500000  0.000000  1
  Ca  Ca3  1  0.500000  0.500000  0.500000  1
  Ca  Ca4  1  0.484746  0.750000  0.225945  1
  Ca  Ca5  1  0.984746  0.250000  0.274055  1
  Ca  Ca6  1  0.515254  0.250000  0.774055  1
  Ca  Ca7  1  0.015254  0.750000  0.725945  1
  Ge  Ge8  1  0.906375  0.750000  0.405497  1
  Ge  Ge9  1  0.406375  0.250000  0.094503  1
  Ge  Ge10  1  0.093625  0.250000  0.594503  1
  Ge  Ge11  1  0.593625  0.750000  0.905497  1
  S  S12  1  0.770181  0.750000  0.556140  1
  S  S13  1  0.270181  0.250000  0.943860  1
  S  S14  1  0.229819  0.250000  0.443860  1
  S  S15  1  0.729819  0.750000  0.056140  1
  S  S16  1  0.255183  0.750000  0.405577  1
  S  S17  1  0.755183  0.250000  0.094423  1
  S  S18  1  0.744817  0.250000  0.594423  1
  S  S19  1  0.244817  0.750000  0.905577  1
  S  S20  1  0.756793  0.963073  0.330980  1
  S  S21  1  0.256793  0.036927  0.169020  1
  S  S22  1  0.243207  0.463073  0.669020  1
  S  S23  1  0.743207  0.536927  0.830980  1
  S  S24  1  0.243207  0.036927  0.669020  1
  S  S25  1  0.743207  0.963073  0.830980  1
  S  S26  1  0.756793  0.536927  0.330980  1
  S  S27  1  0.256793  0.463073  0.169020  1
