# generated using pymatgen
data_LiMnPO4
_symmetry_space_group_name_H-M   'P 1'
_cell_length_a   5.69657323
_cell_length_b   6.33341719
_cell_length_c   9.32069962
_cell_angle_alpha   76.75482925
_cell_angle_beta   84.48018422
_cell_angle_gamma   75.06026612
_symmetry_Int_Tables_number   1
_chemical_formula_structural   LiMnPO4
_chemical_formula_sum   'Li4 Mn4 P4 O16'
_cell_volume   316.02274693
_cell_formula_units_Z   4
loop_
 _symmetry_equiv_pos_site_id
 _symmetry_equiv_pos_as_xyz
  1  'x, y, z'
loop_
 _atom_site_type_symbol
 _atom_site_label
 _atom_site_symmetry_multiplicity
 _atom_site_fract_x
 _atom_site_fract_y
 _atom_site_fract_z
 _atom_site_occupancy
  Li  Li0  1  0.370459  0.018123  0.757832  1
  Li  Li1  1  0.768041  0.144509  0.615826  1
  Li  Li2  1  0.231959  0.855491  0.384174  1
  Li  Li3  1  0.629541  0.981877  0.242168  1
  Mn  Mn4  1  0.736532  0.334135  0.911315  1
  Mn  Mn5  1  0.155128  0.567622  0.696566  1
  Mn  Mn6  1  0.844872  0.432378  0.303434  1
  Mn  Mn7  1  0.263468  0.665865  0.088685  1
  P  P8  1  0.203771  0.189449  0.054744  1
  P  P9  1  0.324619  0.313071  0.428212  1
  P  P10  1  0.675381  0.686929  0.571788  1
  P  P11  1  0.796229  0.810551  0.945256  1
  O  O12  1  0.051988  0.699420  0.884402  1
  O  O13  1  0.948012  0.300580  0.115598  1
  O  O14  1  0.844815  0.817022  0.105167  1
  O  O15  1  0.305944  0.954487  0.152525  1
  O  O16  1  0.607315  0.671731  0.943176  1
  O  O17  1  0.392685  0.328269  0.056824  1
  O  O18  1  0.155185  0.182978  0.894833  1
  O  O19  1  0.694056  0.045513  0.847475  1
  O  O20  1  0.856273  0.828414  0.583471  1
  O  O21  1  0.792344  0.444676  0.660260  1
  O  O22  1  0.143727  0.171586  0.416529  1
  O  O23  1  0.354632  0.310305  0.593544  1
  O  O24  1  0.645368  0.689695  0.406456  1
  O  O25  1  0.583154  0.222815  0.363229  1
  O  O26  1  0.207656  0.555324  0.339740  1
  O  O27  1  0.416846  0.777185  0.636771  1
