# generated using pymatgen
data_SiC
_symmetry_space_group_name_H-M   'P 1'
_cell_length_a   3.09446022
_cell_length_b   3.09446022
_cell_length_c   12.66203519
_cell_angle_alpha   90.00000000
_cell_angle_beta   90.00000000
_cell_angle_gamma   120.00000000
_symmetry_Int_Tables_number   1
_chemical_formula_structural   SiC
_chemical_formula_sum   'Si5 C5'
_cell_volume   105.00354400
_cell_formula_units_Z   5
loop_
 _symmetry_equiv_pos_site_id
 _symmetry_equiv_pos_as_xyz
  1  'x, y, z'
loop_
 _atom_site_type_symbol
 _atom_site_label
 _atom_site_symmetry_multiplicity
 _atom_site_fract_x
 _atom_site_fract_y
 _atom_site_fract_z
 _atom_site_occupancy
  Si  Si0  1  0.000000  0.000000  0.399759  1
  Si  Si1  1  0.000000  0.000000  0.800033  1
  Si  Si2  1  0.333333  0.666667  0.000051  1
  Si  Si3  1  0.666667  0.333333  0.199909  1
  Si  Si4  1  0.333333  0.666667  0.599818  1
  C  C5  1  0.000000  0.000000  0.950380  1
  C  C6  1  0.666667  0.333333  0.349998  1
  C  C7  1  0.333333  0.666667  0.150124  1
  C  C8  1  0.000000  0.000000  0.549805  1
  C  C9  1  0.333333  0.666667  0.750123  1
