# generated using pymatgen
data_TlInSiS4
_symmetry_space_group_name_H-M   'P 1'
_cell_length_a   7.72303866
_cell_length_b   12.68734843
_cell_length_c   16.85347964
_cell_angle_alpha   90.00000000
_cell_angle_beta   90.00000000
_cell_angle_gamma   90.00000000
_symmetry_Int_Tables_number   1
_chemical_formula_structural   TlInSiS4
_chemical_formula_sum   'Tl8 In8 Si8 S32'
_cell_volume   1651.38622086
_cell_formula_units_Z   8
loop_
 _symmetry_equiv_pos_site_id
 _symmetry_equiv_pos_as_xyz
  1  'x, y, z'
loop_
 _atom_site_type_symbol
 _atom_site_label
 _atom_site_symmetry_multiplicity
 _atom_site_fract_x
 _atom_site_fract_y
 _atom_site_fract_z
 _atom_site_occupancy
  Tl  Tl0  1  0.250000  0.384755  0.070735  1
  Tl  Tl1  1  0.250000  0.020436  0.167713  1
  Tl  Tl2  1  0.250000  0.479564  0.667713  1
  Tl  Tl3  1  0.250000  0.115245  0.570735  1
  Tl  Tl4  1  0.750000  0.979564  0.832287  1
  Tl  Tl5  1  0.750000  0.615245  0.929265  1
  Tl  Tl6  1  0.750000  0.884755  0.429265  1
  Tl  Tl7  1  0.750000  0.520436  0.332287  1
  In  In8  1  0.992415  0.274419  0.846628  1
  In  In9  1  0.007585  0.774419  0.653372  1
  In  In10  1  0.492415  0.725581  0.153372  1
  In  In11  1  0.992415  0.225581  0.346628  1
  In  In12  1  0.507585  0.225581  0.346628  1
  In  In13  1  0.492415  0.774419  0.653372  1
  In  In14  1  0.507585  0.274419  0.846628  1
  In  In15  1  0.007585  0.725581  0.153372  1
  Si  Si16  1  0.750000  0.197151  0.018412  1
  Si  Si17  1  0.750000  0.200739  0.669421  1
  Si  Si18  1  0.250000  0.799261  0.330579  1
  Si  Si19  1  0.750000  0.302849  0.518412  1
  Si  Si20  1  0.250000  0.697151  0.481588  1
  Si  Si21  1  0.250000  0.700739  0.830579  1
  Si  Si22  1  0.250000  0.802849  0.981588  1
  Si  Si23  1  0.750000  0.299261  0.169421  1
  S  S24  1  0.750000  0.100964  0.340636  1
  S  S25  1  0.250000  0.866260  0.862217  1
  S  S26  1  0.250000  0.600964  0.159364  1
  S  S27  1  0.521311  0.148635  0.728753  1
  S  S28  1  0.750000  0.364233  0.050553  1
  S  S29  1  0.982110  0.148597  0.961548  1
  S  S30  1  0.017890  0.648597  0.538452  1
  S  S31  1  0.478689  0.648635  0.771247  1
  S  S32  1  0.250000  0.899036  0.659364  1
  S  S33  1  0.017890  0.851403  0.038452  1
  S  S34  1  0.750000  0.886735  0.651795  1
  S  S35  1  0.517890  0.351403  0.461548  1
  S  S36  1  0.250000  0.386735  0.848205  1
  S  S37  1  0.482110  0.648597  0.538452  1
  S  S38  1  0.517890  0.148597  0.961548  1
  S  S39  1  0.250000  0.113265  0.348205  1
  S  S40  1  0.982110  0.351403  0.461548  1
  S  S41  1  0.021311  0.851365  0.271247  1
  S  S42  1  0.978689  0.351365  0.228753  1
  S  S43  1  0.750000  0.399036  0.840636  1
  S  S44  1  0.750000  0.613265  0.151795  1
  S  S45  1  0.478689  0.851365  0.271247  1
  S  S46  1  0.021311  0.648635  0.771247  1
  S  S47  1  0.750000  0.135767  0.550553  1
  S  S48  1  0.250000  0.864233  0.449447  1
  S  S49  1  0.250000  0.635767  0.949447  1
  S  S50  1  0.978689  0.148635  0.728753  1
  S  S51  1  0.750000  0.366260  0.637783  1
  S  S52  1  0.750000  0.133740  0.137783  1
  S  S53  1  0.521311  0.351365  0.228753  1
  S  S54  1  0.482110  0.851403  0.038452  1
  S  S55  1  0.250000  0.633740  0.362217  1
