# generated using pymatgen
data_AlS2NCl4
_symmetry_space_group_name_H-M   'P 1'
_cell_length_a   7.58803031
_cell_length_b   10.93618228
_cell_length_c   11.47805652
_cell_angle_alpha   90.00000000
_cell_angle_beta   90.00000000
_cell_angle_gamma   90.00000000
_symmetry_Int_Tables_number   1
_chemical_formula_structural   AlS2NCl4
_chemical_formula_sum   'Al4 S8 N4 Cl16'
_cell_volume   952.49599053
_cell_formula_units_Z   4
loop_
 _symmetry_equiv_pos_site_id
 _symmetry_equiv_pos_as_xyz
  1  'x, y, z'
loop_
 _atom_site_type_symbol
 _atom_site_label
 _atom_site_symmetry_multiplicity
 _atom_site_fract_x
 _atom_site_fract_y
 _atom_site_fract_z
 _atom_site_occupancy
  Al  Al0  1  0.750000  0.799271  0.392809  1
  Al  Al1  1  0.250000  0.299271  0.107191  1
  Al  Al2  1  0.250000  0.200729  0.607191  1
  Al  Al3  1  0.750000  0.700729  0.892809  1
  S  S4  1  0.250000  0.838957  0.627168  1
  S  S5  1  0.250000  0.567263  0.662989  1
  S  S6  1  0.750000  0.432737  0.337011  1
  S  S7  1  0.750000  0.067263  0.837011  1
  S  S8  1  0.250000  0.661043  0.127168  1
  S  S9  1  0.750000  0.338957  0.872832  1
  S  S10  1  0.250000  0.932737  0.162989  1
  S  S11  1  0.750000  0.161043  0.372832  1
  N  N12  1  0.750000  0.203414  0.854003  1
  N  N13  1  0.250000  0.703414  0.645997  1
  N  N14  1  0.250000  0.796586  0.145997  1
  N  N15  1  0.750000  0.296586  0.354003  1
  Cl  Cl16  1  0.020163  0.317032  0.607388  1
  Cl  Cl17  1  0.250000  0.419319  0.957687  1
  Cl  Cl18  1  0.250000  0.088243  0.762160  1
  Cl  Cl19  1  0.520163  0.817032  0.892612  1
  Cl  Cl20  1  0.750000  0.911757  0.237840  1
  Cl  Cl21  1  0.520163  0.682968  0.392612  1
  Cl  Cl22  1  0.250000  0.411757  0.262160  1
  Cl  Cl23  1  0.250000  0.080681  0.457687  1
  Cl  Cl24  1  0.750000  0.580681  0.042313  1
  Cl  Cl25  1  0.020163  0.182968  0.107388  1
  Cl  Cl26  1  0.479837  0.182968  0.107388  1
  Cl  Cl27  1  0.750000  0.919319  0.542313  1
  Cl  Cl28  1  0.979837  0.682968  0.392612  1
  Cl  Cl29  1  0.750000  0.588243  0.737840  1
  Cl  Cl30  1  0.479837  0.317032  0.607388  1
  Cl  Cl31  1  0.979837  0.817032  0.892612  1
