# generated using pymatgen
data_K2Mo3O10
_symmetry_space_group_name_H-M   'P 1'
_cell_length_a   8.25132094
_cell_length_b   8.25132094
_cell_length_c   9.11506485
_cell_angle_alpha   82.37640360
_cell_angle_beta   97.62359640
_cell_angle_gamma   121.10677809
_symmetry_Int_Tables_number   1
_chemical_formula_structural   K2Mo3O10
_chemical_formula_sum   'K4 Mo6 O20'
_cell_volume   525.15290013
_cell_formula_units_Z   2
loop_
 _symmetry_equiv_pos_site_id
 _symmetry_equiv_pos_as_xyz
  1  'x, y, z'
loop_
 _atom_site_type_symbol
 _atom_site_label
 _atom_site_symmetry_multiplicity
 _atom_site_fract_x
 _atom_site_fract_y
 _atom_site_fract_z
 _atom_site_occupancy
  K  K0  1  0.590334  0.221464  0.156236  1
  K  K1  1  0.221464  0.590334  0.343764  1
  K  K2  1  0.409666  0.778536  0.843764  1
  K  K3  1  0.778536  0.409666  0.656236  1
  Mo  Mo4  1  0.815453  0.030384  0.481052  1
  Mo  Mo5  1  0.030384  0.815453  0.018948  1
  Mo  Mo6  1  0.184547  0.969616  0.518948  1
  Mo  Mo7  1  0.969616  0.184547  0.981052  1
  Mo  Mo8  1  0.299578  0.299578  0.750000  1
  Mo  Mo9  1  0.700422  0.700422  0.250000  1
  O  O10  1  0.744076  0.151807  0.919603  1
  O  O11  1  0.151807  0.744076  0.580397  1
  O  O12  1  0.255924  0.848193  0.080397  1
  O  O13  1  0.848193  0.255924  0.419603  1
  O  O14  1  0.886377  0.936338  0.090459  1
  O  O15  1  0.936338  0.886377  0.409541  1
  O  O16  1  0.113623  0.063662  0.909541  1
  O  O17  1  0.063662  0.113623  0.590459  1
  O  O18  1  0.671080  0.944883  0.628468  1
  O  O19  1  0.944883  0.671080  0.871532  1
  O  O20  1  0.328920  0.055117  0.371532  1
  O  O21  1  0.055117  0.328920  0.128468  1
  O  O22  1  0.359716  0.120128  0.676952  1
  O  O23  1  0.120128  0.359716  0.823048  1
  O  O24  1  0.640284  0.879872  0.323048  1
  O  O25  1  0.879872  0.640284  0.176952  1
  O  O26  1  0.488624  0.377969  0.885756  1
  O  O27  1  0.377969  0.488624  0.614244  1
  O  O28  1  0.511376  0.622031  0.114244  1
  O  O29  1  0.622031  0.511376  0.385756  1
