# generated using pymatgen
data_LiCaBi
_symmetry_space_group_name_H-M   'P 1'
_cell_length_a   4.72900726
_cell_length_b   7.84102308
_cell_length_c   8.60674496
_cell_angle_alpha   90.00000000
_cell_angle_beta   90.00000000
_cell_angle_gamma   90.00000000
_symmetry_Int_Tables_number   1
_chemical_formula_structural   LiCaBi
_chemical_formula_sum   'Li4 Ca4 Bi4'
_cell_volume   319.14029845
_cell_formula_units_Z   4
loop_
 _symmetry_equiv_pos_site_id
 _symmetry_equiv_pos_as_xyz
  1  'x, y, z'
loop_
 _atom_site_type_symbol
 _atom_site_label
 _atom_site_symmetry_multiplicity
 _atom_site_fract_x
 _atom_site_fract_y
 _atom_site_fract_z
 _atom_site_occupancy
  Li  Li0  1  0.750000  0.351629  0.069237  1
  Li  Li1  1  0.750000  0.851629  0.430763  1
  Li  Li2  1  0.250000  0.148371  0.569237  1
  Li  Li3  1  0.250000  0.648371  0.930763  1
  Ca  Ca4  1  0.250000  0.014041  0.198681  1
  Ca  Ca5  1  0.750000  0.485959  0.698681  1
  Ca  Ca6  1  0.750000  0.985959  0.801319  1
  Ca  Ca7  1  0.250000  0.514041  0.301319  1
  Bi  Bi8  1  0.750000  0.732887  0.103881  1
  Bi  Bi9  1  0.250000  0.267113  0.896119  1
  Bi  Bi10  1  0.250000  0.767113  0.603881  1
  Bi  Bi11  1  0.750000  0.232887  0.396119  1
