# generated using pymatgen
data_K2Ga2B2O7
_symmetry_space_group_name_H-M   'P 1'
_cell_length_a   8.67961710
_cell_length_b   8.67961710
_cell_length_c   8.86565555
_cell_angle_alpha   90.00000000
_cell_angle_beta   90.00000000
_cell_angle_gamma   120.00000000
_symmetry_Int_Tables_number   1
_chemical_formula_structural   K2Ga2B2O7
_chemical_formula_sum   'K6 Ga6 B6 O21'
_cell_volume   578.41909233
_cell_formula_units_Z   3
loop_
 _symmetry_equiv_pos_site_id
 _symmetry_equiv_pos_as_xyz
  1  'x, y, z'
loop_
 _atom_site_type_symbol
 _atom_site_label
 _atom_site_symmetry_multiplicity
 _atom_site_fract_x
 _atom_site_fract_y
 _atom_site_fract_z
 _atom_site_occupancy
  K  K0  1  0.684208  0.000000  0.000000  1
  K  K1  1  0.000000  0.643873  0.500000  1
  K  K2  1  0.000000  0.684208  0.000000  1
  K  K3  1  0.356127  0.356127  0.500000  1
  K  K4  1  0.643873  0.000000  0.500000  1
  K  K5  1  0.315792  0.315792  0.000000  1
  Ga  Ga6  1  0.333333  0.666667  0.816900  1
  Ga  Ga7  1  0.666667  0.333333  0.772880  1
  Ga  Ga8  1  0.333333  0.666667  0.227120  1
  Ga  Ga9  1  0.000000  0.000000  0.703638  1
  Ga  Ga10  1  0.666667  0.333333  0.183100  1
  Ga  Ga11  1  0.000000  0.000000  0.296362  1
  B  B12  1  0.664590  0.665018  0.257001  1
  B  B13  1  0.665018  0.664590  0.742999  1
  B  B14  1  0.335410  0.000428  0.742999  1
  B  B15  1  0.334982  0.999572  0.257001  1
  B  B16  1  0.000428  0.335410  0.257001  1
  B  B17  1  0.999572  0.334982  0.742999  1
  O  O18  1  0.740041  0.561992  0.701938  1
  O  O19  1  0.438008  0.178049  0.701938  1
  O  O20  1  0.584569  0.481529  0.252031  1
  O  O21  1  0.178049  0.438008  0.298062  1
  O  O22  1  0.227984  0.071391  0.223198  1
  O  O23  1  0.103040  0.518471  0.747969  1
  O  O24  1  0.518471  0.103040  0.252031  1
  O  O25  1  0.843407  0.772016  0.223198  1
  O  O26  1  0.156593  0.928609  0.776802  1
  O  O27  1  0.259959  0.821951  0.298062  1
  O  O28  1  0.896960  0.415431  0.252031  1
  O  O29  1  0.928609  0.156593  0.223198  1
  O  O30  1  0.000000  0.000000  0.500000  1
  O  O31  1  0.821951  0.259959  0.701938  1
  O  O32  1  0.071391  0.227984  0.776802  1
  O  O33  1  0.666667  0.333333  0.977862  1
  O  O34  1  0.415431  0.896960  0.747969  1
  O  O35  1  0.772016  0.843407  0.776802  1
  O  O36  1  0.333333  0.666667  0.022138  1
  O  O37  1  0.561992  0.740041  0.298062  1
  O  O38  1  0.481529  0.584569  0.747969  1
