# generated using pymatgen
data_SiO2
_symmetry_space_group_name_H-M   'P 1'
_cell_length_a   7.43531863
_cell_length_b   7.43531863
_cell_length_c   7.43531863
_cell_angle_alpha   109.47122063
_cell_angle_beta   109.47122063
_cell_angle_gamma   109.47122063
_symmetry_Int_Tables_number   1
_chemical_formula_structural   SiO2
_chemical_formula_sum   'Si8 O16'
_cell_volume   316.42942551
_cell_formula_units_Z   8
loop_
 _symmetry_equiv_pos_site_id
 _symmetry_equiv_pos_as_xyz
  1  'x, y, z'
loop_
 _atom_site_type_symbol
 _atom_site_label
 _atom_site_symmetry_multiplicity
 _atom_site_fract_x
 _atom_site_fract_y
 _atom_site_fract_z
 _atom_site_occupancy
  Si  Si0  1  0.784692  0.500000  1.000000  1
  Si  Si1  1  0.284692  0.284692  0.284692  1
  Si  Si2  1  0.215308  0.500000  1.000000  1
  Si  Si3  1  0.715308  0.715308  0.715308  1
  Si  Si4  1  1.000000  0.784692  0.500000  1
  Si  Si5  1  0.500000  1.000000  0.215308  1
  Si  Si6  1  1.000000  0.215308  0.500000  1
  Si  Si7  1  0.500000  0.000000  0.784692  1
  O  O8  1  0.750000  0.675325  0.925325  1
  O  O9  1  0.925325  0.750000  0.675325  1
  O  O10  1  0.250000  0.824675  0.574675  1
  O  O11  1  0.425325  0.750000  0.175325  1
  O  O12  1  0.324675  0.074675  0.250000  1
  O  O13  1  1.000000  0.500000  0.000000  1
  O  O14  1  0.574675  0.250000  0.824675  1
  O  O15  1  0.175325  0.425325  0.750000  1
  O  O16  1  0.250000  0.324675  0.074675  1
  O  O17  1  0.750000  0.175325  0.425325  1
  O  O18  1  0.675325  0.925325  0.750000  1
  O  O19  1  0.500000  0.500000  0.500000  1
  O  O20  1  0.074675  0.250000  0.324675  1
  O  O21  1  1.000000  1.000000  0.500000  1
  O  O22  1  0.500000  1.000000  0.000000  1
  O  O23  1  0.824675  0.574675  0.250000  1
