# generated using pymatgen
data_FeTeBr7
_symmetry_space_group_name_H-M   'P 1'
_cell_length_a   7.05362037
_cell_length_b   9.15016137
_cell_length_c   10.92580526
_cell_angle_alpha   85.03211171
_cell_angle_beta   76.79528030
_cell_angle_gamma   83.50943591
_symmetry_Int_Tables_number   1
_chemical_formula_structural   FeTeBr7
_chemical_formula_sum   'Fe2 Te2 Br14'
_cell_volume   680.77813361
_cell_formula_units_Z   2
loop_
 _symmetry_equiv_pos_site_id
 _symmetry_equiv_pos_as_xyz
  1  'x, y, z'
loop_
 _atom_site_type_symbol
 _atom_site_label
 _atom_site_symmetry_multiplicity
 _atom_site_fract_x
 _atom_site_fract_y
 _atom_site_fract_z
 _atom_site_occupancy
  Fe  Fe0  1  0.497420  0.124632  0.123006  1
  Fe  Fe1  1  0.758931  0.557310  0.553886  1
  Te  Te2  1  0.954979  0.498899  0.086807  1
  Te  Te3  1  0.196843  0.933285  0.538900  1
  Br  Br4  1  0.829221  0.183638  0.070604  1
  Br  Br5  1  0.289532  0.329853  0.208956  1
  Br  Br6  1  0.483622  0.921054  0.277067  1
  Br  Br7  1  0.417241  0.048055  0.947271  1
  Br  Br8  1  0.075830  0.737206  0.126131  1
  Br  Br9  1  0.184039  0.465933  0.875184  1
  Br  Br10  1  0.667237  0.620030  0.001997  1
  Br  Br11  1  0.090594  0.613137  0.511665  1
  Br  Br12  1  0.547700  0.758568  0.646347  1
  Br  Br13  1  0.680116  0.498652  0.364409  1
  Br  Br14  1  0.718345  0.355788  0.696142  1
  Br  Br15  1  0.332552  0.170564  0.563901  1
  Br  Br16  1  0.986847  0.923378  0.759974  1
  Br  Br17  1  0.929353  0.043319  0.430252  1
