# generated using pymatgen
data_Sr9TmV7O28
_symmetry_space_group_name_H-M   'P 1'
_cell_length_a   14.91568984
_cell_length_b   14.91568984
_cell_length_c   14.91568984
_cell_angle_alpha   44.81317230
_cell_angle_beta   44.81317230
_cell_angle_gamma   44.81317230
_symmetry_Int_Tables_number   1
_chemical_formula_structural   Sr9TmV7O28
_chemical_formula_sum   'Sr18 Tm2 V14 O56'
_cell_volume   1499.73370498
_cell_formula_units_Z   2
loop_
 _symmetry_equiv_pos_site_id
 _symmetry_equiv_pos_as_xyz
  1  'x, y, z'
loop_
 _atom_site_type_symbol
 _atom_site_label
 _atom_site_symmetry_multiplicity
 _atom_site_fract_x
 _atom_site_fract_y
 _atom_site_fract_z
 _atom_site_occupancy
  Sr  Sr0  1  0.432925  0.422549  0.846530  1
  Sr  Sr1  1  0.530335  0.947464  0.546570  1
  Sr  Sr2  1  0.564302  0.592139  0.146874  1
  Sr  Sr3  1  0.546570  0.530335  0.947464  1
  Sr  Sr4  1  0.030335  0.046570  0.447464  1
  Sr  Sr5  1  0.447464  0.030335  0.046570  1
  Sr  Sr6  1  0.422549  0.846530  0.432925  1
  Sr  Sr7  1  0.146874  0.564302  0.592139  1
  Sr  Sr8  1  0.846530  0.432925  0.422549  1
  Sr  Sr9  1  0.932925  0.346530  0.922549  1
  Sr  Sr10  1  0.092139  0.064302  0.646874  1
  Sr  Sr11  1  0.592139  0.146874  0.564302  1
  Sr  Sr12  1  0.346530  0.922549  0.932925  1
  Sr  Sr13  1  0.922549  0.932925  0.346530  1
  Sr  Sr14  1  0.947464  0.546570  0.530335  1
  Sr  Sr15  1  0.646874  0.092139  0.064302  1
  Sr  Sr16  1  0.046570  0.447464  0.030335  1
  Sr  Sr17  1  0.064302  0.646874  0.092139  1
  Tm  Tm18  1  0.500070  0.500070  0.500070  1
  Tm  Tm19  1  0.000070  0.000070  0.000070  1
  V  V20  1  0.223231  0.191669  0.679592  1
  V  V21  1  0.280136  0.813004  0.311420  1
  V  V22  1  0.679592  0.223231  0.191669  1
  V  V23  1  0.229518  0.229518  0.229518  1
  V  V24  1  0.691669  0.723231  0.179592  1
  V  V25  1  0.723231  0.179592  0.691669  1
  V  V26  1  0.179592  0.691669  0.723231  1
  V  V27  1  0.729518  0.729518  0.729518  1
  V  V28  1  0.813004  0.311420  0.280136  1
  V  V29  1  0.780136  0.811420  0.313004  1
  V  V30  1  0.313004  0.780136  0.811420  1
  V  V31  1  0.311420  0.280136  0.813004  1
  V  V32  1  0.191669  0.679592  0.223231  1
  V  V33  1  0.811420  0.313004  0.780136  1
  O  O34  1  0.600865  0.726382  0.896397  1
  O  O35  1  0.597959  0.232951  0.142458  1
  O  O36  1  0.864366  0.122933  0.119861  1
  O  O37  1  0.663204  0.392722  0.106320  1
  O  O38  1  0.323618  0.313051  0.893078  1
  O  O39  1  0.101571  0.857619  0.404837  1
  O  O40  1  0.622933  0.364366  0.619861  1
  O  O41  1  0.106320  0.663204  0.392722  1
  O  O42  1  0.601571  0.904837  0.357619  1
  O  O43  1  0.888280  0.129120  0.869050  1
  O  O44  1  0.686283  0.686283  0.686283  1
  O  O45  1  0.893078  0.323618  0.313051  1
  O  O46  1  0.845513  0.635718  0.365042  1
  O  O47  1  0.869050  0.888280  0.129120  1
  O  O48  1  0.404837  0.101571  0.857619  1
  O  O49  1  0.642458  0.732951  0.097959  1
  O  O50  1  0.625209  0.141489  0.371465  1
  O  O51  1  0.141489  0.371465  0.625209  1
  O  O52  1  0.857619  0.404837  0.101571  1
  O  O53  1  0.726382  0.896397  0.600865  1
  O  O54  1  0.813051  0.823618  0.393078  1
  O  O55  1  0.641489  0.125209  0.871465  1
  O  O56  1  0.871465  0.641489  0.125209  1
  O  O57  1  0.313051  0.893078  0.323618  1
  O  O58  1  0.226382  0.100865  0.396397  1
  O  O59  1  0.163204  0.606320  0.892722  1
  O  O60  1  0.100865  0.396397  0.226382  1
  O  O61  1  0.635718  0.365042  0.845513  1
  O  O62  1  0.371465  0.625209  0.141489  1
  O  O63  1  0.823618  0.393078  0.813051  1
  O  O64  1  0.364366  0.619861  0.622933  1
  O  O65  1  0.393078  0.813051  0.823618  1
  O  O66  1  0.122933  0.119861  0.864366  1
  O  O67  1  0.097959  0.642458  0.732951  1
  O  O68  1  0.186283  0.186283  0.186283  1
  O  O69  1  0.396397  0.226382  0.100865  1
  O  O70  1  0.606320  0.892722  0.163204  1
  O  O71  1  0.345513  0.865042  0.135718  1
  O  O72  1  0.732951  0.097959  0.642458  1
  O  O73  1  0.125209  0.871465  0.641489  1
  O  O74  1  0.388280  0.369050  0.629120  1
  O  O75  1  0.119861  0.864366  0.122933  1
  O  O76  1  0.369050  0.629120  0.388280  1
  O  O77  1  0.142458  0.597959  0.232951  1
  O  O78  1  0.232951  0.142458  0.597959  1
  O  O79  1  0.865042  0.135718  0.345513  1
  O  O80  1  0.619861  0.622933  0.364366  1
  O  O81  1  0.629120  0.388280  0.369050  1
  O  O82  1  0.392722  0.106320  0.663204  1
  O  O83  1  0.129120  0.869050  0.888280  1
  O  O84  1  0.357619  0.601571  0.904837  1
  O  O85  1  0.365042  0.845513  0.635718  1
  O  O86  1  0.904837  0.357619  0.601571  1
  O  O87  1  0.896397  0.600865  0.726382  1
  O  O88  1  0.892722  0.163204  0.606320  1
  O  O89  1  0.135718  0.345513  0.865042  1
