# generated using pymatgen
data_Cs2GaP3O10
_symmetry_space_group_name_H-M   'P 1'
_cell_length_a   9.68903934
_cell_length_b   9.16220348
_cell_length_c   12.50495628
_cell_angle_alpha   90.00000000
_cell_angle_beta   95.18234691
_cell_angle_gamma   90.00000000
_symmetry_Int_Tables_number   1
_chemical_formula_structural   Cs2GaP3O10
_chemical_formula_sum   'Cs8 Ga4 P12 O40'
_cell_volume   1105.56406781
_cell_formula_units_Z   4
loop_
 _symmetry_equiv_pos_site_id
 _symmetry_equiv_pos_as_xyz
  1  'x, y, z'
loop_
 _atom_site_type_symbol
 _atom_site_label
 _atom_site_symmetry_multiplicity
 _atom_site_fract_x
 _atom_site_fract_y
 _atom_site_fract_z
 _atom_site_occupancy
  Cs  Cs0  1  0.764723  0.396413  0.960629  1
  Cs  Cs1  1  0.264723  0.103587  0.960629  1
  Cs  Cs2  1  0.235277  0.603587  0.039371  1
  Cs  Cs3  1  0.494506  0.879664  0.352430  1
  Cs  Cs4  1  0.505494  0.120336  0.647570  1
  Cs  Cs5  1  0.005494  0.379664  0.647570  1
  Cs  Cs6  1  0.994506  0.620336  0.352430  1
  Cs  Cs7  1  0.735277  0.896413  0.039371  1
  Ga  Ga8  1  0.144119  0.851472  0.652725  1
  Ga  Ga9  1  0.644119  0.648528  0.652725  1
  Ga  Ga10  1  0.355881  0.351472  0.347275  1
  Ga  Ga11  1  0.855881  0.148528  0.347275  1
  P  P12  1  0.821015  0.917270  0.548054  1
  P  P13  1  0.069200  0.285350  0.189055  1
  P  P14  1  0.418454  0.466502  0.758954  1
  P  P15  1  0.918454  0.033498  0.758954  1
  P  P16  1  0.569200  0.214650  0.189055  1
  P  P17  1  0.081546  0.966502  0.241046  1
  P  P18  1  0.178985  0.082730  0.451946  1
  P  P19  1  0.678985  0.417270  0.451946  1
  P  P20  1  0.930800  0.714650  0.810945  1
  P  P21  1  0.581546  0.533498  0.241046  1
  P  P22  1  0.430800  0.785350  0.810945  1
  P  P23  1  0.321015  0.582730  0.548054  1
  O  O24  1  0.781048  0.003337  0.445507  1
  O  O25  1  0.931548  0.280937  0.241676  1
  O  O26  1  0.679445  0.128060  0.259260  1
  O  O27  1  0.179445  0.371940  0.259260  1
  O  O28  1  0.128275  0.114626  0.187375  1
  O  O29  1  0.430059  0.522504  0.264804  1
  O  O30  1  0.699332  0.816339  0.566349  1
  O  O31  1  0.281048  0.496663  0.445507  1
  O  O32  1  0.800668  0.316339  0.433651  1
  O  O33  1  0.324765  0.459404  0.644404  1
  O  O34  1  0.320555  0.871940  0.740740  1
  O  O35  1  0.055082  0.332811  0.073599  1
  O  O36  1  0.068452  0.719063  0.758324  1
  O  O37  1  0.820555  0.628060  0.740740  1
  O  O38  1  0.944918  0.667189  0.926401  1
  O  O39  1  0.069941  0.022504  0.735196  1
  O  O40  1  0.537850  0.342708  0.444402  1
  O  O41  1  0.462150  0.657292  0.555598  1
  O  O42  1  0.962150  0.842708  0.555598  1
  O  O43  1  0.824765  0.040596  0.644404  1
  O  O44  1  0.628275  0.385374  0.187375  1
  O  O45  1  0.568452  0.780937  0.758324  1
  O  O46  1  0.675235  0.540596  0.355596  1
  O  O47  1  0.930059  0.977496  0.264804  1
  O  O48  1  0.431548  0.219063  0.241676  1
  O  O49  1  0.621227  0.661073  0.176812  1
  O  O50  1  0.871725  0.885374  0.812625  1
  O  O51  1  0.444918  0.832811  0.926401  1
  O  O52  1  0.718952  0.503337  0.554493  1
  O  O53  1  0.878773  0.161073  0.823188  1
  O  O54  1  0.218952  0.996663  0.554493  1
  O  O55  1  0.371725  0.614626  0.812625  1
  O  O56  1  0.121227  0.838927  0.176812  1
  O  O57  1  0.175235  0.959404  0.355596  1
  O  O58  1  0.555082  0.167189  0.073599  1
  O  O59  1  0.300668  0.183661  0.433651  1
  O  O60  1  0.569941  0.477496  0.735196  1
  O  O61  1  0.378773  0.338927  0.823188  1
  O  O62  1  0.199332  0.683661  0.566349  1
  O  O63  1  0.037850  0.157292  0.444402  1
