# generated using pymatgen
data_Cr2(Bi2O5)3
_symmetry_space_group_name_H-M   'P 1'
_cell_length_a   11.94956109
_cell_length_b   11.94956109
_cell_length_c   5.99156798
_cell_angle_alpha   90.00000000
_cell_angle_beta   90.00000000
_cell_angle_gamma   115.42900946
_symmetry_Int_Tables_number   1
_chemical_formula_structural   Cr2(Bi2O5)3
_chemical_formula_sum   'Cr4 Bi12 O30'
_cell_volume   772.66083358
_cell_formula_units_Z   2
loop_
 _symmetry_equiv_pos_site_id
 _symmetry_equiv_pos_as_xyz
  1  'x, y, z'
loop_
 _atom_site_type_symbol
 _atom_site_label
 _atom_site_symmetry_multiplicity
 _atom_site_fract_x
 _atom_site_fract_y
 _atom_site_fract_z
 _atom_site_occupancy
  Cr  Cr0  1  0.534592  0.209106  0.853999  1
  Cr  Cr1  1  0.465408  0.790894  0.853999  1
  Cr  Cr2  1  0.790894  0.465408  0.353999  1
  Cr  Cr3  1  0.209106  0.534592  0.353999  1
  Bi  Bi4  1  0.385249  0.247972  0.324590  1
  Bi  Bi5  1  0.614751  0.752028  0.324590  1
  Bi  Bi6  1  0.752028  0.614751  0.824590  1
  Bi  Bi7  1  0.247972  0.385249  0.824590  1
  Bi  Bi8  1  0.297857  0.894254  0.330158  1
  Bi  Bi9  1  0.702143  0.105746  0.330158  1
  Bi  Bi10  1  0.105746  0.702143  0.830158  1
  Bi  Bi11  1  0.894254  0.297857  0.830158  1
  Bi  Bi12  1  0.171195  0.046069  0.723966  1
  Bi  Bi13  1  0.828805  0.953931  0.723966  1
  Bi  Bi14  1  0.953931  0.828805  0.223966  1
  Bi  Bi15  1  0.046069  0.171195  0.223966  1
  O  O16  1  0.676034  0.221917  0.922702  1
  O  O17  1  0.323966  0.778083  0.922702  1
  O  O18  1  0.778083  0.323966  0.422702  1
  O  O19  1  0.221917  0.676034  0.422702  1
  O  O20  1  0.531452  0.344972  0.859968  1
  O  O21  1  0.468548  0.655028  0.859968  1
  O  O22  1  0.655028  0.468548  0.359968  1
  O  O23  1  0.344972  0.531452  0.359968  1
  O  O24  1  0.433468  0.119949  0.050783  1
  O  O25  1  0.566532  0.880051  0.050783  1
  O  O26  1  0.880051  0.566532  0.550783  1
  O  O27  1  0.119949  0.433468  0.550783  1
  O  O28  1  0.492735  0.146692  0.600870  1
  O  O29  1  0.507265  0.853308  0.600870  1
  O  O30  1  0.853308  0.507265  0.100870  1
  O  O31  1  0.146692  0.492735  0.100870  1
  O  O32  1  0.249837  0.254154  0.090027  1
  O  O33  1  0.750163  0.745846  0.090027  1
  O  O34  1  0.745846  0.750163  0.590027  1
  O  O35  1  0.254154  0.249837  0.590027  1
  O  O36  1  0.856978  0.168713  0.110198  1
  O  O37  1  0.143022  0.831287  0.110198  1
  O  O38  1  0.831287  0.143022  0.610198  1
  O  O39  1  0.168713  0.856978  0.610198  1
  O  O40  1  0.745801  0.942139  0.380136  1
  O  O41  1  0.254199  0.057861  0.380136  1
  O  O42  1  0.057861  0.254199  0.880136  1
  O  O43  1  0.942139  0.745801  0.880136  1
  O  O44  1  0.000000  0.000000  0.040308  1
  O  O45  1  0.000000  0.000000  0.540308  1
