# generated using pymatgen
data_Ge(PbS2)2
_symmetry_space_group_name_H-M   'P 1'
_cell_length_a   8.18382378
_cell_length_b   9.40717960
_cell_length_c   10.93046375
_cell_angle_alpha   90.00000000
_cell_angle_beta   114.17448314
_cell_angle_gamma   90.00000000
_symmetry_Int_Tables_number   1
_chemical_formula_structural   Ge(PbS2)2
_chemical_formula_sum   'Ge4 Pb8 S16'
_cell_volume   767.70293110
_cell_formula_units_Z   4
loop_
 _symmetry_equiv_pos_site_id
 _symmetry_equiv_pos_as_xyz
  1  'x, y, z'
loop_
 _atom_site_type_symbol
 _atom_site_label
 _atom_site_symmetry_multiplicity
 _atom_site_fract_x
 _atom_site_fract_y
 _atom_site_fract_z
 _atom_site_occupancy
  Ge  Ge0  1  0.783668  0.808543  0.993246  1
  Ge  Ge1  1  0.216332  0.308543  0.506754  1
  Ge  Ge2  1  0.216332  0.191457  0.006754  1
  Ge  Ge3  1  0.783668  0.691457  0.493246  1
  Pb  Pb4  1  0.092567  0.545971  0.848065  1
  Pb  Pb5  1  0.533429  0.324450  0.337493  1
  Pb  Pb6  1  0.466571  0.824450  0.162507  1
  Pb  Pb7  1  0.466571  0.675550  0.662507  1
  Pb  Pb8  1  0.907433  0.454029  0.151935  1
  Pb  Pb9  1  0.092567  0.954029  0.348065  1
  Pb  Pb10  1  0.907433  0.045971  0.651935  1
  Pb  Pb11  1  0.533429  0.175550  0.837493  1
  S  S12  1  0.947666  0.204330  0.406051  1
  S  S13  1  0.282180  0.087324  0.204674  1
  S  S14  1  0.251807  0.025337  0.871340  1
  S  S15  1  0.584015  0.866438  0.444255  1
  S  S16  1  0.052334  0.704330  0.093949  1
  S  S17  1  0.052334  0.795670  0.593949  1
  S  S18  1  0.717820  0.587324  0.295326  1
  S  S19  1  0.947666  0.295670  0.906051  1
  S  S20  1  0.748193  0.525337  0.628660  1
  S  S21  1  0.748193  0.974663  0.128660  1
  S  S22  1  0.282180  0.412676  0.704674  1
  S  S23  1  0.415985  0.366438  0.055745  1
  S  S24  1  0.584015  0.633562  0.944255  1
  S  S25  1  0.717820  0.912676  0.795326  1
  S  S26  1  0.251807  0.474663  0.371340  1
  S  S27  1  0.415985  0.133562  0.555745  1
