# generated using pymatgen
data_Os2O3F7
_symmetry_space_group_name_H-M   'P 1'
_cell_length_a   5.73411252
_cell_length_b   10.39178424
_cell_length_c   12.66129289
_cell_angle_alpha   90.00000000
_cell_angle_beta   100.21636737
_cell_angle_gamma   90.00000000
_symmetry_Int_Tables_number   1
_chemical_formula_structural   Os2O3F7
_chemical_formula_sum   'Os8 O12 F28'
_cell_volume   742.49488962
_cell_formula_units_Z   4
loop_
 _symmetry_equiv_pos_site_id
 _symmetry_equiv_pos_as_xyz
  1  'x, y, z'
loop_
 _atom_site_type_symbol
 _atom_site_label
 _atom_site_symmetry_multiplicity
 _atom_site_fract_x
 _atom_site_fract_y
 _atom_site_fract_z
 _atom_site_occupancy
  Os  Os0  1  0.008824  0.249404  0.001228  1
  Os  Os1  1  0.991176  0.749404  0.498772  1
  Os  Os2  1  0.991176  0.750596  0.998772  1
  Os  Os3  1  0.343786  0.511679  0.716468  1
  Os  Os4  1  0.008824  0.250596  0.501228  1
  Os  Os5  1  0.343786  0.988321  0.216468  1
  Os  Os6  1  0.656214  0.011679  0.783532  1
  Os  Os7  1  0.656214  0.488321  0.283532  1
  O  O8  1  0.478617  0.558549  0.362114  1
  O  O9  1  0.402503  0.074545  0.332753  1
  O  O10  1  0.476047  0.656633  0.749624  1
  O  O11  1  0.478617  0.941451  0.862114  1
  O  O12  1  0.521383  0.058549  0.137886  1
  O  O13  1  0.523953  0.343367  0.250376  1
  O  O14  1  0.597497  0.925455  0.667247  1
  O  O15  1  0.521383  0.441451  0.637886  1
  O  O16  1  0.597497  0.574545  0.167247  1
  O  O17  1  0.476047  0.843367  0.249624  1
  O  O18  1  0.523953  0.156633  0.750376  1
  O  O19  1  0.402503  0.425455  0.832753  1
  F  F20  1  0.192401  0.391141  0.057222  1
  F  F21  1  0.090815  0.831240  0.631575  1
  F  F22  1  0.270123  0.176116  0.950281  1
  F  F23  1  0.897719  0.843592  0.860792  1
  F  F24  1  0.027546  0.944873  0.224016  1
  F  F25  1  0.807599  0.608859  0.942778  1
  F  F26  1  0.909185  0.331240  0.868425  1
  F  F27  1  0.745436  0.316213  0.055105  1
  F  F28  1  0.102281  0.156408  0.139208  1
  F  F29  1  0.729877  0.676116  0.549719  1
  F  F30  1  0.729877  0.823884  0.049719  1
  F  F31  1  0.745436  0.183787  0.555105  1
  F  F32  1  0.254564  0.683787  0.944895  1
  F  F33  1  0.897719  0.656408  0.360792  1
  F  F34  1  0.189605  0.902157  0.053327  1
  F  F35  1  0.189605  0.597843  0.553327  1
  F  F36  1  0.807599  0.891141  0.442778  1
  F  F37  1  0.270123  0.323884  0.450281  1
  F  F38  1  0.909185  0.168760  0.368425  1
  F  F39  1  0.810395  0.402157  0.446673  1
  F  F40  1  0.102281  0.343592  0.639208  1
  F  F41  1  0.254564  0.816213  0.444895  1
  F  F42  1  0.090815  0.668760  0.131575  1
  F  F43  1  0.972454  0.444873  0.275984  1
  F  F44  1  0.972454  0.055127  0.775984  1
  F  F45  1  0.810395  0.097843  0.946673  1
  F  F46  1  0.192401  0.108859  0.557222  1
  F  F47  1  0.027546  0.555127  0.724016  1
