# generated using pymatgen
data_AlPO4
_symmetry_space_group_name_H-M   'P 1'
_cell_length_a   8.68817828
_cell_length_b   9.95573644
_cell_length_c   19.64401501
_cell_angle_alpha   90.00000000
_cell_angle_beta   90.00000000
_cell_angle_gamma   90.00000000
_symmetry_Int_Tables_number   1
_chemical_formula_structural   AlPO4
_chemical_formula_sum   'Al16 P16 O64'
_cell_volume   1699.15255245
_cell_formula_units_Z   16
loop_
 _symmetry_equiv_pos_site_id
 _symmetry_equiv_pos_as_xyz
  1  'x, y, z'
loop_
 _atom_site_type_symbol
 _atom_site_label
 _atom_site_symmetry_multiplicity
 _atom_site_fract_x
 _atom_site_fract_y
 _atom_site_fract_z
 _atom_site_occupancy
  Al  Al0  1  0.921480  0.129313  0.033174  1
  Al  Al1  1  0.078520  0.629313  0.966826  1
  Al  Al2  1  0.417788  0.878754  0.423888  1
  Al  Al3  1  0.078868  0.330014  0.722133  1
  Al  Al4  1  0.417788  0.378754  0.076112  1
  Al  Al5  1  0.921132  0.830014  0.277867  1
  Al  Al6  1  0.426468  0.526815  0.320815  1
  Al  Al7  1  0.582212  0.378754  0.576112  1
  Al  Al8  1  0.078868  0.830014  0.777867  1
  Al  Al9  1  0.078520  0.129313  0.533174  1
  Al  Al10  1  0.573532  0.526815  0.820815  1
  Al  Al11  1  0.921132  0.330014  0.222133  1
  Al  Al12  1  0.582212  0.878754  0.923888  1
  Al  Al13  1  0.921480  0.629313  0.466826  1
  Al  Al14  1  0.426468  0.026815  0.179185  1
  Al  Al15  1  0.573532  0.026815  0.679185  1
  P  P16  1  0.055922  0.047048  0.178133  1
  P  P17  1  0.055922  0.547048  0.321867  1
  P  P18  1  0.553618  0.307717  0.223666  1
  P  P19  1  0.952529  0.409218  0.576410  1
  P  P20  1  0.446382  0.807717  0.776334  1
  P  P21  1  0.047471  0.909218  0.423590  1
  P  P22  1  0.451614  0.100923  0.533330  1
  P  P23  1  0.553618  0.807717  0.276334  1
  P  P24  1  0.952529  0.909218  0.923590  1
  P  P25  1  0.451614  0.600923  0.966670  1
  P  P26  1  0.944078  0.547048  0.821867  1
  P  P27  1  0.047471  0.409218  0.076410  1
  P  P28  1  0.548386  0.600923  0.466670  1
  P  P29  1  0.548386  0.100923  0.033330  1
  P  P30  1  0.944078  0.047048  0.678133  1
  P  P31  1  0.446382  0.307717  0.723666  1
  O  O32  1  0.017358  0.162408  0.719113  1
  O  O33  1  0.983857  0.412213  0.788431  1
  O  O34  1  0.720972  0.632779  0.460657  1
  O  O35  1  0.989560  0.294855  0.030030  1
  O  O36  1  0.989560  0.794855  0.469970  1
  O  O37  1  0.724070  0.833384  0.261326  1
  O  O38  1  0.456393  0.232640  0.028916  1
  O  O39  1  0.279028  0.132779  0.539343  1
  O  O40  1  0.497368  0.018264  0.095692  1
  O  O41  1  0.231028  0.065722  0.177053  1
  O  O42  1  0.982642  0.662408  0.280887  1
  O  O43  1  0.483224  0.019884  0.468291  1
  O  O44  1  0.279028  0.632779  0.960657  1
  O  O45  1  0.017358  0.662408  0.780887  1
  O  O46  1  0.958702  0.409684  0.144013  1
  O  O47  1  0.543814  0.873139  0.720013  1
  O  O48  1  0.219997  0.389884  0.090942  1
  O  O49  1  0.004843  0.046476  0.604704  1
  O  O50  1  0.497368  0.518264  0.404308  1
  O  O51  1  0.016143  0.412213  0.288431  1
  O  O52  1  0.982642  0.162408  0.219113  1
  O  O53  1  0.516776  0.019884  0.968291  1
  O  O54  1  0.768972  0.565722  0.822947  1
  O  O55  1  0.543814  0.373139  0.779987  1
  O  O56  1  0.995157  0.546476  0.395296  1
  O  O57  1  0.543607  0.732640  0.971084  1
  O  O58  1  0.979684  0.544436  0.540602  1
  O  O59  1  0.512378  0.869782  0.345746  1
  O  O60  1  0.275930  0.833384  0.761326  1
  O  O61  1  0.483224  0.519884  0.031709  1
  O  O62  1  0.512378  0.369782  0.154254  1
  O  O63  1  0.780003  0.889884  0.909058  1
  O  O64  1  0.502632  0.518264  0.904308  1
  O  O65  1  0.456393  0.732640  0.471084  1
  O  O66  1  0.041298  0.909684  0.855987  1
  O  O67  1  0.780003  0.389884  0.590942  1
  O  O68  1  0.478045  0.655647  0.776401  1
  O  O69  1  0.521955  0.655647  0.276401  1
  O  O70  1  0.231028  0.565722  0.322947  1
  O  O71  1  0.487622  0.869782  0.845746  1
  O  O72  1  0.041298  0.409684  0.644013  1
  O  O73  1  0.768972  0.065722  0.677053  1
  O  O74  1  0.958702  0.909684  0.355987  1
  O  O75  1  0.016143  0.912213  0.211569  1
  O  O76  1  0.219997  0.889884  0.409058  1
  O  O77  1  0.979684  0.044436  0.959398  1
  O  O78  1  0.020316  0.544436  0.040602  1
  O  O79  1  0.487622  0.369782  0.654254  1
  O  O80  1  0.720972  0.132779  0.039343  1
  O  O81  1  0.521955  0.155647  0.223599  1
  O  O82  1  0.010440  0.294855  0.530030  1
  O  O83  1  0.456186  0.373139  0.279987  1
  O  O84  1  0.020316  0.044436  0.459398  1
  O  O85  1  0.010440  0.794855  0.969970  1
  O  O86  1  0.724070  0.333384  0.238674  1
  O  O87  1  0.004843  0.546476  0.895296  1
  O  O88  1  0.502632  0.018264  0.595692  1
  O  O89  1  0.478045  0.155647  0.723599  1
  O  O90  1  0.983857  0.912213  0.711569  1
  O  O91  1  0.275930  0.333384  0.738674  1
  O  O92  1  0.543607  0.232640  0.528916  1
  O  O93  1  0.995157  0.046476  0.104704  1
  O  O94  1  0.516776  0.519884  0.531709  1
  O  O95  1  0.456186  0.873139  0.220013  1
