# generated using pymatgen
data_BaBi2(B2O5)2
_symmetry_space_group_name_H-M   'P 1'
_cell_length_a   10.27732177
_cell_length_b   6.48026717
_cell_length_c   12.60511151
_cell_angle_alpha   90.00000000
_cell_angle_beta   103.10218820
_cell_angle_gamma   90.00000000
_symmetry_Int_Tables_number   1
_chemical_formula_structural   BaBi2(B2O5)2
_chemical_formula_sum   'Ba4 Bi8 B16 O40'
_cell_volume   817.64340516
_cell_formula_units_Z   4
loop_
 _symmetry_equiv_pos_site_id
 _symmetry_equiv_pos_as_xyz
  1  'x, y, z'
loop_
 _atom_site_type_symbol
 _atom_site_label
 _atom_site_symmetry_multiplicity
 _atom_site_fract_x
 _atom_site_fract_y
 _atom_site_fract_z
 _atom_site_occupancy
  Ba  Ba0  1  0.872077  0.406145  0.622918  1
  Ba  Ba1  1  0.872077  0.093855  0.122918  1
  Ba  Ba2  1  0.127923  0.593855  0.377082  1
  Ba  Ba3  1  0.127923  0.906145  0.877082  1
  Bi  Bi4  1  0.727784  0.850101  0.371417  1
  Bi  Bi5  1  0.517454  0.325905  0.382063  1
  Bi  Bi6  1  0.272216  0.149899  0.628583  1
  Bi  Bi7  1  0.517454  0.174095  0.882063  1
  Bi  Bi8  1  0.727784  0.649899  0.871417  1
  Bi  Bi9  1  0.482546  0.674095  0.617937  1
  Bi  Bi10  1  0.482546  0.825905  0.117937  1
  Bi  Bi11  1  0.272216  0.350101  0.128583  1
  B  B12  1  0.216380  0.085061  0.328073  1
  B  B13  1  0.388116  0.798244  0.331068  1
  B  B14  1  0.197179  0.872200  0.159380  1
  B  B15  1  0.197179  0.627800  0.659380  1
  B  B16  1  0.993824  0.110464  0.395598  1
  B  B17  1  0.216380  0.414939  0.828073  1
  B  B18  1  0.783620  0.585061  0.171927  1
  B  B19  1  0.388116  0.701756  0.831068  1
  B  B20  1  0.783620  0.914939  0.671927  1
  B  B21  1  0.611884  0.201756  0.668932  1
  B  B22  1  0.611884  0.298244  0.168932  1
  B  B23  1  0.802821  0.127800  0.840620  1
  B  B24  1  0.993824  0.389536  0.895598  1
  B  B25  1  0.006176  0.889536  0.604402  1
  B  B26  1  0.006176  0.610464  0.104402  1
  B  B27  1  0.802821  0.372200  0.340620  1
  O  O28  1  0.503123  0.092714  0.706766  1
  O  O29  1  0.126308  0.335108  0.899788  1
  O  O30  1  0.290445  0.783884  0.725747  1
  O  O31  1  0.911068  0.234031  0.922168  1
  O  O32  1  0.054202  0.419384  0.135446  1
  O  O33  1  0.054202  0.080616  0.635446  1
  O  O34  1  0.496877  0.592714  0.793234  1
  O  O35  1  0.088932  0.734031  0.577832  1
  O  O36  1  0.709555  0.283884  0.774253  1
  O  O37  1  0.562390  0.371667  0.593056  1
  O  O38  1  0.437610  0.871667  0.906944  1
  O  O39  1  0.712984  0.773622  0.200292  1
  O  O40  1  0.873692  0.835108  0.600212  1
  O  O41  1  0.687869  0.063924  0.610961  1
  O  O42  1  0.945798  0.919384  0.364554  1
  O  O43  1  0.712984  0.726378  0.700292  1
  O  O44  1  0.496877  0.907286  0.293234  1
  O  O45  1  0.727871  0.502760  0.404349  1
  O  O46  1  0.126308  0.164892  0.399788  1
  O  O47  1  0.287016  0.273622  0.299708  1
  O  O48  1  0.290445  0.716116  0.225747  1
  O  O49  1  0.132811  0.993471  0.230062  1
  O  O50  1  0.709555  0.216116  0.274253  1
  O  O51  1  0.727871  0.997240  0.904349  1
  O  O52  1  0.437610  0.628333  0.406944  1
  O  O53  1  0.873692  0.664892  0.100212  1
  O  O54  1  0.562390  0.128333  0.093056  1
  O  O55  1  0.911068  0.265969  0.422168  1
  O  O56  1  0.867189  0.493471  0.269938  1
  O  O57  1  0.287016  0.226378  0.799708  1
  O  O58  1  0.088932  0.765969  0.077832  1
  O  O59  1  0.272129  0.497240  0.595651  1
  O  O60  1  0.867189  0.006529  0.769938  1
  O  O61  1  0.945798  0.580616  0.864554  1
  O  O62  1  0.687869  0.436076  0.110961  1
  O  O63  1  0.503123  0.407286  0.206766  1
  O  O64  1  0.312131  0.563924  0.889039  1
  O  O65  1  0.312131  0.936076  0.389039  1
  O  O66  1  0.132811  0.506529  0.730062  1
  O  O67  1  0.272129  0.002760  0.095651  1
