# generated using pymatgen
data_Ba2FeCoF9
_symmetry_space_group_name_H-M   'P 1'
_cell_length_a   5.79558646
_cell_length_b   18.01439978
_cell_length_c   9.47184872
_cell_angle_alpha   90.00000000
_cell_angle_beta   126.61308367
_cell_angle_gamma   90.00000000
_symmetry_Int_Tables_number   1
_chemical_formula_structural   Ba2FeCoF9
_chemical_formula_sum   'Ba8 Fe4 Co4 F36'
_cell_volume   793.77074163
_cell_formula_units_Z   4
loop_
 _symmetry_equiv_pos_site_id
 _symmetry_equiv_pos_as_xyz
  1  'x, y, z'
loop_
 _atom_site_type_symbol
 _atom_site_label
 _atom_site_symmetry_multiplicity
 _atom_site_fract_x
 _atom_site_fract_y
 _atom_site_fract_z
 _atom_site_occupancy
  Ba  Ba0  1  0.952862  0.963924  0.197702  1
  Ba  Ba1  1  0.047138  0.463924  0.302298  1
  Ba  Ba2  1  0.047138  0.036076  0.802298  1
  Ba  Ba3  1  0.952862  0.536076  0.697702  1
  Ba  Ba4  1  0.211278  0.717314  0.428494  1
  Ba  Ba5  1  0.788722  0.217314  0.071506  1
  Ba  Ba6  1  0.788722  0.282686  0.571506  1
  Ba  Ba7  1  0.211278  0.782686  0.928494  1
  Fe  Fe8  1  0.647153  0.625702  0.912317  1
  Fe  Fe9  1  0.352847  0.125702  0.587683  1
  Fe  Fe10  1  0.352847  0.374298  0.087683  1
  Fe  Fe11  1  0.647153  0.874298  0.412317  1
  Co  Co12  1  0.459752  0.912859  0.728524  1
  Co  Co13  1  0.540248  0.412859  0.771476  1
  Co  Co14  1  0.540248  0.087141  0.271476  1
  Co  Co15  1  0.459752  0.587141  0.228524  1
  F  F16  1  0.895862  0.585262  0.398761  1
  F  F17  1  0.104138  0.085262  0.101239  1
  F  F18  1  0.104138  0.414738  0.601239  1
  F  F19  1  0.895862  0.914738  0.898761  1
  F  F20  1  0.391963  0.805493  0.704121  1
  F  F21  1  0.608037  0.305493  0.795879  1
  F  F22  1  0.608037  0.194507  0.295879  1
  F  F23  1  0.391963  0.694507  0.204121  1
  F  F24  1  0.754716  0.709277  0.064738  1
  F  F25  1  0.245284  0.209277  0.435262  1
  F  F26  1  0.245284  0.290723  0.935262  1
  F  F27  1  0.754716  0.790723  0.564738  1
  F  F28  1  0.515585  0.532930  0.759388  1
  F  F29  1  0.484415  0.032930  0.740612  1
  F  F30  1  0.484415  0.467070  0.240612  1
  F  F31  1  0.515585  0.967070  0.259388  1
  F  F32  1  0.431618  0.917923  0.931569  1
  F  F33  1  0.568382  0.417923  0.568431  1
  F  F34  1  0.568382  0.082077  0.068431  1
  F  F35  1  0.431618  0.582077  0.431569  1
  F  F36  1  0.788692  0.834631  0.287147  1
  F  F37  1  0.211308  0.334631  0.212853  1
  F  F38  1  0.211308  0.165369  0.712853  1
  F  F39  1  0.788692  0.665369  0.787147  1
  F  F40  1  0.260434  0.663780  0.740389  1
  F  F41  1  0.739566  0.163780  0.759611  1
  F  F42  1  0.739566  0.336220  0.259611  1
  F  F43  1  0.260434  0.836220  0.240389  1
  F  F44  1  0.475583  0.923470  0.518084  1
  F  F45  1  0.524417  0.423470  0.981916  1
  F  F46  1  0.524417  0.076530  0.481916  1
  F  F47  1  0.475583  0.576530  0.018084  1
  F  F48  1  0.008003  0.571035  0.072299  1
  F  F49  1  0.991997  0.071035  0.427701  1
  F  F50  1  0.991997  0.428965  0.927701  1
  F  F51  1  0.008003  0.928965  0.572299  1
