# generated using pymatgen
data_AsPbClO2
_symmetry_space_group_name_H-M   'P 1'
_cell_length_a   7.14967723
_cell_length_b   10.08999378
_cell_length_c   11.67317515
_cell_angle_alpha   90.00000000
_cell_angle_beta   90.00000000
_cell_angle_gamma   90.00000000
_symmetry_Int_Tables_number   1
_chemical_formula_structural   AsPbClO2
_chemical_formula_sum   'As8 Pb8 Cl8 O16'
_cell_volume   842.10517571
_cell_formula_units_Z   8
loop_
 _symmetry_equiv_pos_site_id
 _symmetry_equiv_pos_as_xyz
  1  'x, y, z'
loop_
 _atom_site_type_symbol
 _atom_site_label
 _atom_site_symmetry_multiplicity
 _atom_site_fract_x
 _atom_site_fract_y
 _atom_site_fract_z
 _atom_site_occupancy
  As  As0  1  0.918860  0.881704  0.465440  1
  As  As1  1  0.581140  0.118296  0.965440  1
  As  As2  1  0.699501  0.807832  0.697568  1
  As  As3  1  0.081140  0.381704  0.034560  1
  As  As4  1  0.300499  0.307832  0.802432  1
  As  As5  1  0.199501  0.692168  0.302432  1
  As  As6  1  0.800499  0.192168  0.197568  1
  As  As7  1  0.418860  0.618296  0.534560  1
  Pb  Pb8  1  0.930643  0.496569  0.493413  1
  Pb  Pb9  1  0.069357  0.996569  0.006587  1
  Pb  Pb10  1  0.430643  0.003431  0.506587  1
  Pb  Pb11  1  0.165434  0.664886  0.784671  1
  Pb  Pb12  1  0.834566  0.164886  0.715329  1
  Pb  Pb13  1  0.569357  0.503431  0.993413  1
  Pb  Pb14  1  0.334566  0.335114  0.284671  1
  Pb  Pb15  1  0.665434  0.835114  0.215329  1
  Cl  Cl16  1  0.061863  0.233690  0.467686  1
  Cl  Cl17  1  0.561863  0.266310  0.532314  1
  Cl  Cl18  1  0.349767  0.016351  0.239489  1
  Cl  Cl19  1  0.438137  0.766310  0.967686  1
  Cl  Cl20  1  0.650233  0.516351  0.260511  1
  Cl  Cl21  1  0.938137  0.733690  0.032314  1
  Cl  Cl22  1  0.150233  0.983649  0.739489  1
  Cl  Cl23  1  0.849767  0.483649  0.760511  1
  O  O24  1  0.032982  0.254708  0.147446  1
  O  O25  1  0.532982  0.245292  0.852554  1
  O  O26  1  0.164925  0.254054  0.930198  1
  O  O27  1  0.335075  0.745946  0.430198  1
  O  O28  1  0.161151  0.524641  0.344769  1
  O  O29  1  0.967018  0.754708  0.352554  1
  O  O30  1  0.796749  0.071813  0.903065  1
  O  O31  1  0.838849  0.024641  0.155231  1
  O  O32  1  0.338849  0.475359  0.844769  1
  O  O33  1  0.664925  0.245946  0.069802  1
  O  O34  1  0.661151  0.975359  0.655231  1
  O  O35  1  0.703251  0.928187  0.403065  1
  O  O36  1  0.835075  0.754054  0.569802  1
  O  O37  1  0.296749  0.428187  0.096935  1
  O  O38  1  0.467018  0.745292  0.647446  1
  O  O39  1  0.203251  0.571813  0.596935  1
