# generated using pymatgen
data_K2(TcS2)3
_symmetry_space_group_name_H-M   'P 1'
_cell_length_a   9.68896380
_cell_length_b   9.68896380
_cell_length_c   12.02862877
_cell_angle_alpha   88.71927105
_cell_angle_beta   91.28072895
_cell_angle_gamma   118.88871001
_symmetry_Int_Tables_number   1
_chemical_formula_structural   K2(TcS2)3
_chemical_formula_sum   'K8 Tc12 S24'
_cell_volume   988.34878879
_cell_formula_units_Z   4
loop_
 _symmetry_equiv_pos_site_id
 _symmetry_equiv_pos_as_xyz
  1  'x, y, z'
loop_
 _atom_site_type_symbol
 _atom_site_label
 _atom_site_symmetry_multiplicity
 _atom_site_fract_x
 _atom_site_fract_y
 _atom_site_fract_z
 _atom_site_occupancy
  K  K0  1  0.598547  0.598547  0.750000  1
  K  K1  1  0.401453  0.401453  0.250000  1
  K  K2  1  0.209426  0.209426  0.750000  1
  K  K3  1  0.790574  0.790574  0.250000  1
  K  K4  1  0.357076  0.120667  0.020940  1
  K  K5  1  0.120667  0.357076  0.479060  1
  K  K6  1  0.642924  0.879333  0.979060  1
  K  K7  1  0.879333  0.642924  0.520940  1
  Tc  Tc8  1  0.689990  0.003291  0.525606  1
  Tc  Tc9  1  0.003291  0.689990  0.974394  1
  Tc  Tc10  1  0.310010  0.996709  0.474394  1
  Tc  Tc11  1  0.996709  0.310010  0.025606  1
  Tc  Tc12  1  0.530116  0.114473  0.629782  1
  Tc  Tc13  1  0.114473  0.530116  0.870218  1
  Tc  Tc14  1  0.469884  0.885527  0.370218  1
  Tc  Tc15  1  0.885527  0.469884  0.129782  1
  Tc  Tc16  1  0.397205  0.812589  0.582644  1
  Tc  Tc17  1  0.812589  0.397205  0.917356  1
  Tc  Tc18  1  0.602795  0.187411  0.417356  1
  Tc  Tc19  1  0.187411  0.602795  0.082644  1
  S  S20  1  0.742172  0.072365  0.333173  1
  S  S21  1  0.072365  0.742172  0.166827  1
  S  S22  1  0.257828  0.927635  0.666827  1
  S  S23  1  0.927635  0.257828  0.833173  1
  S  S24  1  0.278515  0.793334  0.931090  1
  S  S25  1  0.793334  0.278515  0.568910  1
  S  S26  1  0.721485  0.206666  0.068910  1
  S  S27  1  0.206666  0.721485  0.431090  1
  S  S28  1  0.389723  0.061409  0.284307  1
  S  S29  1  0.061409  0.389723  0.215693  1
  S  S30  1  0.610277  0.938591  0.715693  1
  S  S31  1  0.938591  0.610277  0.784307  1
  S  S32  1  0.445753  0.274970  0.520143  1
  S  S33  1  0.274970  0.445753  0.979857  1
  S  S34  1  0.554247  0.725030  0.479857  1
  S  S35  1  0.725030  0.554247  0.020143  1
  S  S36  1  0.000311  0.059687  0.072979  1
  S  S37  1  0.059687  0.000311  0.427021  1
  S  S38  1  0.999689  0.940313  0.927021  1
  S  S39  1  0.940313  0.999689  0.572979  1
  S  S40  1  0.561677  0.263728  0.804732  1
  S  S41  1  0.263728  0.561677  0.695268  1
  S  S42  1  0.438323  0.736272  0.195268  1
  S  S43  1  0.736272  0.438323  0.304732  1
