# generated using pymatgen
data_Rb3TaO8
_symmetry_space_group_name_H-M   'P 1'
_cell_length_a   6.55509566
_cell_length_b   6.55509566
_cell_length_c   6.55509566
_cell_angle_alpha   113.52597069
_cell_angle_beta   113.52597069
_cell_angle_gamma   101.63466732
_symmetry_Int_Tables_number   1
_chemical_formula_structural   Rb3TaO8
_chemical_formula_sum   'Rb3 Ta1 O8'
_cell_volume   213.84475390
_cell_formula_units_Z   1
loop_
 _symmetry_equiv_pos_site_id
 _symmetry_equiv_pos_as_xyz
  1  'x, y, z'
loop_
 _atom_site_type_symbol
 _atom_site_label
 _atom_site_symmetry_multiplicity
 _atom_site_fract_x
 _atom_site_fract_y
 _atom_site_fract_z
 _atom_site_occupancy
  Rb  Rb0  1  0.500000  0.500000  0.000000  1
  Rb  Rb1  1  0.750000  0.250000  0.500000  1
  Rb  Rb2  1  0.250000  0.750000  0.500000  1
  Ta  Ta3  1  0.000000  0.000000  0.000000  1
  O  O4  1  0.814834  0.222946  1.000000  1
  O  O5  1  0.777054  0.777054  0.591888  1
  O  O6  1  0.185166  0.185166  0.408112  1
  O  O7  1  0.222946  0.814834  0.000000  1
  O  O8  1  0.314918  0.046101  1.000000  1
  O  O9  1  0.953899  0.953899  0.268817  1
  O  O10  1  0.685082  0.685082  0.731183  1
  O  O11  1  0.046101  0.314918  0.000000  1
