# generated using pymatgen
data_CdI2
_symmetry_space_group_name_H-M   'P 1'
_cell_length_a   14.98179400
_cell_length_b   14.98179400
_cell_length_c   14.98179400
_cell_angle_alpha   16.63333013
_cell_angle_beta   16.63333013
_cell_angle_gamma   16.63333013
_symmetry_Int_Tables_number   1
_chemical_formula_structural   CdI2
_chemical_formula_sum   'Cd2 I4'
_cell_volume   240.29203924
_cell_formula_units_Z   2
loop_
 _symmetry_equiv_pos_site_id
 _symmetry_equiv_pos_as_xyz
  1  'x, y, z'
loop_
 _atom_site_type_symbol
 _atom_site_label
 _atom_site_symmetry_multiplicity
 _atom_site_fract_x
 _atom_site_fract_y
 _atom_site_fract_z
 _atom_site_occupancy
  Cd  Cd0  1  0.000000  0.000000  0.000000  1
  Cd  Cd1  1  0.500000  0.500000  0.500000  1
  I  I2  1  0.794372  0.794372  0.794372  1
  I  I3  1  0.372289  0.372289  0.372289  1
  I  I4  1  0.205628  0.205628  0.205628  1
  I  I5  1  0.627711  0.627711  0.627711  1
