# generated using pymatgen
data_AlSCl3O2
_symmetry_space_group_name_H-M   'P 1'
_cell_length_a   6.48670743
_cell_length_b   7.78823034
_cell_length_c   8.08295160
_cell_angle_alpha   93.40808665
_cell_angle_beta   106.13207786
_cell_angle_gamma   109.94212948
_symmetry_Int_Tables_number   1
_chemical_formula_structural   AlSCl3O2
_chemical_formula_sum   'Al2 S2 Cl6 O4'
_cell_volume   363.33266434
_cell_formula_units_Z   2
loop_
 _symmetry_equiv_pos_site_id
 _symmetry_equiv_pos_as_xyz
  1  'x, y, z'
loop_
 _atom_site_type_symbol
 _atom_site_label
 _atom_site_symmetry_multiplicity
 _atom_site_fract_x
 _atom_site_fract_y
 _atom_site_fract_z
 _atom_site_occupancy
  Al  Al0  1  0.702902  0.195533  0.845186  1
  Al  Al1  1  0.297098  0.804467  0.154814  1
  S  S2  1  0.389557  0.764269  0.778022  1
  S  S3  1  0.610443  0.235731  0.221978  1
  Cl  Cl4  1  0.935710  0.722992  0.091349  1
  Cl  Cl5  1  0.084017  0.797969  0.641246  1
  Cl  Cl6  1  0.064290  0.277008  0.908651  1
  Cl  Cl7  1  0.458195  0.678571  0.346914  1
  Cl  Cl8  1  0.915983  0.202031  0.358754  1
  Cl  Cl9  1  0.541805  0.321429  0.653086  1
  O  O10  1  0.577474  0.944399  0.775709  1
  O  O11  1  0.619621  0.231034  0.036560  1
  O  O12  1  0.380379  0.768966  0.963440  1
  O  O13  1  0.422526  0.055601  0.224291  1
