# generated using pymatgen
data_Ca2SiO4
_symmetry_space_group_name_H-M   'P 1'
_cell_length_a   8.34972846
_cell_length_b   9.85017615
_cell_length_c   9.87734382
_cell_angle_alpha   90.00000000
_cell_angle_beta   94.82898263
_cell_angle_gamma   90.00000000
_symmetry_Int_Tables_number   1
_chemical_formula_structural   Ca2SiO4
_chemical_formula_sum   'Ca16 Si8 O32'
_cell_volume   809.49134209
_cell_formula_units_Z   8
loop_
 _symmetry_equiv_pos_site_id
 _symmetry_equiv_pos_as_xyz
  1  'x, y, z'
loop_
 _atom_site_type_symbol
 _atom_site_label
 _atom_site_symmetry_multiplicity
 _atom_site_fract_x
 _atom_site_fract_y
 _atom_site_fract_z
 _atom_site_occupancy
  Ca  Ca0  1  0.096589  0.933476  0.789346  1
  Ca  Ca1  1  0.340046  0.918049  0.086469  1
  Ca  Ca2  1  0.822803  0.078826  0.572499  1
  Ca  Ca3  1  0.379255  0.287459  0.074970  1
  Ca  Ca4  1  0.822803  0.421174  0.072499  1
  Ca  Ca5  1  0.659954  0.418049  0.413531  1
  Ca  Ca6  1  0.177197  0.921174  0.427501  1
  Ca  Ca7  1  0.177197  0.578826  0.927501  1
  Ca  Ca8  1  0.379255  0.212541  0.574970  1
  Ca  Ca9  1  0.096589  0.566524  0.289346  1
  Ca  Ca10  1  0.340046  0.581951  0.586469  1
  Ca  Ca11  1  0.903411  0.433476  0.710654  1
  Ca  Ca12  1  0.620745  0.787459  0.425030  1
  Ca  Ca13  1  0.659954  0.081951  0.913531  1
  Ca  Ca14  1  0.620745  0.712541  0.925030  1
  Ca  Ca15  1  0.903411  0.066524  0.210654  1
  Si  Si16  1  0.541362  0.072939  0.300809  1
  Si  Si17  1  0.458638  0.572939  0.199191  1
  Si  Si18  1  0.976845  0.702860  0.570198  1
  Si  Si19  1  0.976845  0.797140  0.070198  1
  Si  Si20  1  0.541362  0.427061  0.800809  1
  Si  Si21  1  0.023155  0.202860  0.929802  1
  Si  Si22  1  0.023155  0.297140  0.429802  1
  Si  Si23  1  0.458638  0.927061  0.699191  1
  O  O24  1  0.461266  0.597036  0.366083  1
  O  O25  1  0.821097  0.620059  0.498253  1
  O  O26  1  0.130095  0.698690  0.473361  1
  O  O27  1  0.061660  0.365530  0.907826  1
  O  O28  1  0.408690  0.547434  0.824623  1
  O  O29  1  0.938340  0.865530  0.592174  1
  O  O30  1  0.461266  0.902964  0.866083  1
  O  O31  1  0.591310  0.452566  0.175377  1
  O  O32  1  0.938340  0.634470  0.092174  1
  O  O33  1  0.178903  0.379941  0.501747  1
  O  O34  1  0.494380  0.715088  0.121551  1
  O  O35  1  0.408690  0.952566  0.324623  1
  O  O36  1  0.952814  0.368998  0.285768  1
  O  O37  1  0.061660  0.134470  0.407826  1
  O  O38  1  0.869905  0.198690  0.026639  1
  O  O39  1  0.821097  0.879941  0.998253  1
  O  O40  1  0.505620  0.284912  0.878449  1
  O  O41  1  0.283246  0.506908  0.142309  1
  O  O42  1  0.538734  0.402964  0.633917  1
  O  O43  1  0.505620  0.215088  0.378449  1
  O  O44  1  0.591310  0.047434  0.675377  1
  O  O45  1  0.283246  0.993092  0.642309  1
  O  O46  1  0.494380  0.784912  0.621551  1
  O  O47  1  0.952814  0.131002  0.785769  1
  O  O48  1  0.047186  0.868998  0.214232  1
  O  O49  1  0.716754  0.493092  0.857691  1
  O  O50  1  0.047186  0.631002  0.714232  1
  O  O51  1  0.130095  0.801310  0.973361  1
  O  O52  1  0.869905  0.301310  0.526639  1
  O  O53  1  0.716754  0.006908  0.357691  1
  O  O54  1  0.178903  0.120059  0.001747  1
  O  O55  1  0.538734  0.097036  0.133917  1
