# generated using pymatgen
data_NO2
_symmetry_space_group_name_H-M   'P 1'
_cell_length_a   7.49678378
_cell_length_b   7.49678378
_cell_length_c   7.49678378
_cell_angle_alpha   109.47122063
_cell_angle_beta   109.47122063
_cell_angle_gamma   109.47122063
_symmetry_Int_Tables_number   1
_chemical_formula_structural   NO2
_chemical_formula_sum   'N6 O12'
_cell_volume   324.34190697
_cell_formula_units_Z   6
loop_
 _symmetry_equiv_pos_site_id
 _symmetry_equiv_pos_as_xyz
  1  'x, y, z'
loop_
 _atom_site_type_symbol
 _atom_site_label
 _atom_site_symmetry_multiplicity
 _atom_site_fract_x
 _atom_site_fract_y
 _atom_site_fract_z
 _atom_site_occupancy
  N  N0  1  0.500000  0.894142  0.394142  1
  N  N1  1  0.394142  0.500000  0.894142  1
  N  N2  1  0.500000  0.105858  0.605858  1
  N  N3  1  0.894142  0.394142  0.500000  1
  N  N4  1  0.605858  0.500000  0.105858  1
  N  N5  1  0.105858  0.605858  0.500000  1
  O  O6  1  0.531210  0.371591  0.159619  1
  O  O7  1  0.788029  0.628409  0.159619  1
  O  O8  1  0.371591  0.840381  0.211971  1
  O  O9  1  0.468790  0.628409  0.840381  1
  O  O10  1  0.628409  0.159619  0.788029  1
  O  O11  1  0.371591  0.159619  0.531210  1
  O  O12  1  0.628409  0.840381  0.468790  1
  O  O13  1  0.159619  0.788029  0.628409  1
  O  O14  1  0.159619  0.531210  0.371591  1
  O  O15  1  0.211971  0.371591  0.840381  1
  O  O16  1  0.840381  0.468790  0.628409  1
  O  O17  1  0.840381  0.211971  0.371591  1
