# generated using pymatgen
data_Cs3MnF7
_symmetry_space_group_name_H-M   'P 1'
_cell_length_a   8.57084457
_cell_length_b   8.57084457
_cell_length_c   6.32839940
_cell_angle_alpha   90.00000000
_cell_angle_beta   90.00000000
_cell_angle_gamma   90.00000000
_symmetry_Int_Tables_number   1
_chemical_formula_structural   Cs3MnF7
_chemical_formula_sum   'Cs6 Mn2 F14'
_cell_volume   464.88027507
_cell_formula_units_Z   2
loop_
 _symmetry_equiv_pos_site_id
 _symmetry_equiv_pos_as_xyz
  1  'x, y, z'
loop_
 _atom_site_type_symbol
 _atom_site_label
 _atom_site_symmetry_multiplicity
 _atom_site_fract_x
 _atom_site_fract_y
 _atom_site_fract_z
 _atom_site_occupancy
  Cs  Cs0  1  0.192960  0.692960  0.500000  1
  Cs  Cs1  1  0.692960  0.807040  0.500000  1
  Cs  Cs2  1  0.307040  0.192960  0.500000  1
  Cs  Cs3  1  0.807040  0.307040  0.500000  1
  Cs  Cs4  1  0.500000  0.500000  0.000000  1
  Cs  Cs5  1  0.000000  0.000000  0.000000  1
  Mn  Mn6  1  0.000000  0.500000  0.000000  1
  Mn  Mn7  1  0.500000  0.000000  0.000000  1
  F  F8  1  0.392856  0.892856  0.791292  1
  F  F9  1  0.607144  0.107144  0.791292  1
  F  F10  1  0.107144  0.392856  0.791292  1
  F  F11  1  0.892856  0.607144  0.791292  1
  F  F12  1  0.392856  0.892856  0.208708  1
  F  F13  1  0.892856  0.607144  0.208708  1
  F  F14  1  0.107144  0.392856  0.208708  1
  F  F15  1  0.607144  0.107144  0.208708  1
  F  F16  1  0.000000  0.000000  0.500000  1
  F  F17  1  0.500000  0.500000  0.500000  1
  F  F18  1  0.847421  0.347421  0.000000  1
  F  F19  1  0.347421  0.152579  0.000000  1
  F  F20  1  0.652579  0.847421  0.000000  1
  F  F21  1  0.152579  0.652579  0.000000  1
