# generated using pymatgen
data_LiBi(PdO2)2
_symmetry_space_group_name_H-M   'P 1'
_cell_length_a   7.01741837
_cell_length_b   7.01741837
_cell_length_c   4.42655100
_cell_angle_alpha   90.00000000
_cell_angle_beta   90.00000000
_cell_angle_gamma   90.00000000
_symmetry_Int_Tables_number   1
_chemical_formula_structural   LiBi(PdO2)2
_chemical_formula_sum   'Li2 Bi2 Pd4 O8'
_cell_volume   217.98178826
_cell_formula_units_Z   2
loop_
 _symmetry_equiv_pos_site_id
 _symmetry_equiv_pos_as_xyz
  1  'x, y, z'
loop_
 _atom_site_type_symbol
 _atom_site_label
 _atom_site_symmetry_multiplicity
 _atom_site_fract_x
 _atom_site_fract_y
 _atom_site_fract_z
 _atom_site_occupancy
  Li  Li0  1  0.000000  0.000000  0.500000  1
  Li  Li1  1  0.500000  0.500000  0.500000  1
  Bi  Bi2  1  0.000000  0.500000  0.507077  1
  Bi  Bi3  1  0.500000  0.000000  0.492923  1
  Pd  Pd4  1  0.250000  0.250000  0.000000  1
  Pd  Pd5  1  0.250000  0.750000  0.000000  1
  Pd  Pd6  1  0.750000  0.750000  0.000000  1
  Pd  Pd7  1  0.750000  0.250000  0.000000  1
  O  O8  1  0.226302  0.000000  0.764724  1
  O  O9  1  0.000000  0.773698  0.235276  1
  O  O10  1  0.773698  0.000000  0.764724  1
  O  O11  1  0.273698  0.500000  0.235276  1
  O  O12  1  0.000000  0.226302  0.235276  1
  O  O13  1  0.500000  0.273698  0.764724  1
  O  O14  1  0.726302  0.500000  0.235276  1
  O  O15  1  0.500000  0.726302  0.764724  1
