# generated using pymatgen
data_NaY(SiO3)2
_symmetry_space_group_name_H-M   'P 1'
_cell_length_a   5.48071033
_cell_length_b   13.85888400
_cell_length_c   7.69404623
_cell_angle_alpha   90.00000000
_cell_angle_beta   109.97240288
_cell_angle_gamma   90.00000000
_symmetry_Int_Tables_number   1
_chemical_formula_structural   NaY(SiO3)2
_chemical_formula_sum   'Na4 Y4 Si8 O24'
_cell_volume   549.26483586
_cell_formula_units_Z   4
loop_
 _symmetry_equiv_pos_site_id
 _symmetry_equiv_pos_as_xyz
  1  'x, y, z'
loop_
 _atom_site_type_symbol
 _atom_site_label
 _atom_site_symmetry_multiplicity
 _atom_site_fract_x
 _atom_site_fract_y
 _atom_site_fract_z
 _atom_site_occupancy
  Na  Na0  1  0.863081  0.230987  0.453738  1
  Na  Na1  1  0.136919  0.730987  0.046262  1
  Na  Na2  1  0.136919  0.769013  0.546262  1
  Na  Na3  1  0.863081  0.269013  0.953738  1
  Y  Y4  1  0.983140  0.994327  0.247854  1
  Y  Y5  1  0.016860  0.005673  0.752146  1
  Y  Y6  1  0.016860  0.494327  0.252146  1
  Y  Y7  1  0.983140  0.505673  0.747854  1
  Si  Si8  1  0.571482  0.639613  0.855784  1
  Si  Si9  1  0.418278  0.137780  0.067011  1
  Si  Si10  1  0.418278  0.362220  0.567011  1
  Si  Si11  1  0.581722  0.862220  0.932989  1
  Si  Si12  1  0.581722  0.637780  0.432989  1
  Si  Si13  1  0.571482  0.860387  0.355784  1
  Si  Si14  1  0.428518  0.360387  0.144216  1
  Si  Si15  1  0.428518  0.139613  0.644216  1
  O  O16  1  0.683703  0.749481  0.420065  1
  O  O17  1  0.618819  0.878275  0.155377  1
  O  O18  1  0.732556  0.133956  0.670870  1
  O  O19  1  0.683703  0.750519  0.920065  1
  O  O20  1  0.715693  0.375259  0.696123  1
  O  O21  1  0.267444  0.866044  0.329130  1
  O  O22  1  0.200057  0.437128  0.581996  1
  O  O23  1  0.788125  0.565612  0.983541  1
  O  O24  1  0.284307  0.624741  0.303877  1
  O  O25  1  0.732556  0.366044  0.170870  1
  O  O26  1  0.381181  0.121725  0.844623  1
  O  O27  1  0.211875  0.434388  0.016459  1
  O  O28  1  0.799943  0.937128  0.918004  1
  O  O29  1  0.316297  0.249481  0.079935  1
  O  O30  1  0.715693  0.124741  0.196123  1
  O  O31  1  0.788125  0.934388  0.483541  1
  O  O32  1  0.799943  0.562872  0.418004  1
  O  O33  1  0.381181  0.378275  0.344623  1
  O  O34  1  0.316297  0.250519  0.579935  1
  O  O35  1  0.284307  0.875259  0.803877  1
  O  O36  1  0.618819  0.621725  0.655377  1
  O  O37  1  0.267444  0.633956  0.829130  1
  O  O38  1  0.211875  0.065612  0.516459  1
  O  O39  1  0.200057  0.062872  0.081996  1
