# generated using pymatgen
data_CdI2
_symmetry_space_group_name_H-M   'P 1'
_cell_length_a   4.33085451
_cell_length_b   4.33085451
_cell_length_c   59.39884755
_cell_angle_alpha   90.00000000
_cell_angle_beta   90.00000000
_cell_angle_gamma   120.00000000
_symmetry_Int_Tables_number   1
_chemical_formula_structural   CdI2
_chemical_formula_sum   'Cd8 I16'
_cell_volume   964.84119950
_cell_formula_units_Z   8
loop_
 _symmetry_equiv_pos_site_id
 _symmetry_equiv_pos_as_xyz
  1  'x, y, z'
loop_
 _atom_site_type_symbol
 _atom_site_label
 _atom_site_symmetry_multiplicity
 _atom_site_fract_x
 _atom_site_fract_y
 _atom_site_fract_z
 _atom_site_occupancy
  Cd  Cd0  1  0.000000  0.000000  0.781254  1
  Cd  Cd1  1  0.000000  0.000000  0.406227  1
  Cd  Cd2  1  0.000000  0.000000  0.906224  1
  Cd  Cd3  1  0.666667  0.333333  0.031287  1
  Cd  Cd4  1  0.666667  0.333333  0.281283  1
  Cd  Cd5  1  0.000000  0.000000  0.156225  1
  Cd  Cd6  1  0.666667  0.333333  0.656230  1
  Cd  Cd7  1  0.000000  0.000000  0.531249  1
  I  I8  1  0.333333  0.666667  0.810335  1
  I  I9  1  0.333333  0.666667  0.560327  1
  I  I10  1  0.666667  0.333333  0.127142  1
  I  I11  1  0.000000  0.000000  0.252228  1
  I  I12  1  0.333333  0.666667  0.060353  1
  I  I13  1  0.333333  0.666667  0.435314  1
  I  I14  1  0.666667  0.333333  0.502175  1
  I  I15  1  0.333333  0.666667  0.185311  1
  I  I16  1  0.666667  0.333333  0.877145  1
  I  I17  1  0.666667  0.333333  0.752175  1
  I  I18  1  0.333333  0.666667  0.310351  1
  I  I19  1  0.333333  0.666667  0.935309  1
  I  I20  1  0.000000  0.000000  0.627165  1
  I  I21  1  0.666667  0.333333  0.377144  1
  I  I22  1  0.000000  0.000000  0.002232  1
  I  I23  1  0.333333  0.666667  0.685313  1
