# generated using pymatgen
data_Rb2Ag2GeS4
_symmetry_space_group_name_H-M   'P 1'
_cell_length_a   11.91783725
_cell_length_b   11.91783725
_cell_length_c   6.40020644
_cell_angle_alpha   82.00011963
_cell_angle_beta   97.99988037
_cell_angle_gamma   37.45789151
_symmetry_Int_Tables_number   1
_chemical_formula_structural   Rb2Ag2GeS4
_chemical_formula_sum   'Rb4 Ag4 Ge2 S8'
_cell_volume   498.23532122
_cell_formula_units_Z   2
loop_
 _symmetry_equiv_pos_site_id
 _symmetry_equiv_pos_as_xyz
  1  'x, y, z'
loop_
 _atom_site_type_symbol
 _atom_site_label
 _atom_site_symmetry_multiplicity
 _atom_site_fract_x
 _atom_site_fract_y
 _atom_site_fract_z
 _atom_site_occupancy
  Rb  Rb0  1  0.808195  0.808195  0.250000  1
  Rb  Rb1  1  0.061731  0.061731  0.250000  1
  Rb  Rb2  1  0.191805  0.191805  0.750000  1
  Rb  Rb3  1  0.938269  0.938269  0.750000  1
  Ag  Ag4  1  0.684536  0.684536  0.750000  1
  Ag  Ag5  1  0.532440  0.532440  0.750000  1
  Ag  Ag6  1  0.467560  0.467560  0.250000  1
  Ag  Ag7  1  0.315464  0.315464  0.250000  1
  Ge  Ge8  1  0.376812  0.376812  0.750000  1
  Ge  Ge9  1  0.623188  0.623188  0.250000  1
  S  S10  1  0.121978  0.516394  0.841374  1
  S  S11  1  0.365723  0.766644  0.952360  1
  S  S12  1  0.634277  0.233356  0.047640  1
  S  S13  1  0.878022  0.483606  0.158626  1
  S  S14  1  0.766644  0.365723  0.547640  1
  S  S15  1  0.516394  0.121978  0.658626  1
  S  S16  1  0.483606  0.878022  0.341374  1
  S  S17  1  0.233356  0.634277  0.452360  1
