# generated using pymatgen
data_Rb2YGa(SiO3)4
_symmetry_space_group_name_H-M   'P 1'
_cell_length_a   14.12240630
_cell_length_b   14.12240630
_cell_length_c   15.04578247
_cell_angle_alpha   58.03765553
_cell_angle_beta   121.96234447
_cell_angle_gamma   149.77691775
_symmetry_Int_Tables_number   1
_chemical_formula_structural   Rb2YGa(SiO3)4
_chemical_formula_sum   'Rb8 Y4 Ga4 Si16 O48'
_cell_volume   1263.17268607
_cell_formula_units_Z   4
loop_
 _symmetry_equiv_pos_site_id
 _symmetry_equiv_pos_as_xyz
  1  'x, y, z'
loop_
 _atom_site_type_symbol
 _atom_site_label
 _atom_site_symmetry_multiplicity
 _atom_site_fract_x
 _atom_site_fract_y
 _atom_site_fract_z
 _atom_site_occupancy
  Rb  Rb0  1  0.298062  0.229213  0.951462  1
  Rb  Rb1  1  0.313175  0.695798  0.534226  1
  Rb  Rb2  1  0.304202  0.686825  0.034226  1
  Rb  Rb3  1  0.229213  0.298062  0.548538  1
  Rb  Rb4  1  0.701938  0.770787  0.048538  1
  Rb  Rb5  1  0.770787  0.701938  0.451462  1
  Rb  Rb6  1  0.695798  0.313175  0.965774  1
  Rb  Rb7  1  0.686825  0.304202  0.465774  1
  Y  Y8  1  0.486172  0.949051  0.750092  1
  Y  Y9  1  0.513828  0.050949  0.249908  1
  Y  Y10  1  0.949051  0.486172  0.749908  1
  Y  Y11  1  0.050949  0.513828  0.250092  1
  Ga  Ga12  1  0.771152  0.631691  0.725694  1
  Ga  Ga13  1  0.368309  0.228848  0.225694  1
  Ga  Ga14  1  0.228848  0.368309  0.274306  1
  Ga  Ga15  1  0.631691  0.771152  0.774306  1
  Si  Si16  1  0.139438  0.813128  0.296702  1
  Si  Si17  1  0.186872  0.860562  0.796702  1
  Si  Si18  1  0.859124  0.196435  0.489334  1
  Si  Si19  1  0.759226  0.519713  0.161236  1
  Si  Si20  1  0.240774  0.480287  0.838764  1
  Si  Si21  1  0.196435  0.859124  0.010666  1
  Si  Si22  1  0.289843  0.165049  0.422554  1
  Si  Si23  1  0.519713  0.759226  0.338764  1
  Si  Si24  1  0.480287  0.240774  0.661236  1
  Si  Si25  1  0.165049  0.289843  0.077446  1
  Si  Si26  1  0.834951  0.710157  0.922554  1
  Si  Si27  1  0.803565  0.140876  0.989334  1
  Si  Si28  1  0.140876  0.803565  0.510666  1
  Si  Si29  1  0.813128  0.139438  0.203298  1
  Si  Si30  1  0.710157  0.834951  0.577446  1
  Si  Si31  1  0.860562  0.186872  0.703298  1
  O  O32  1  0.176212  0.165579  0.121079  1
  O  O33  1  0.758488  0.203920  0.203136  1
  O  O34  1  0.253210  0.436423  0.967428  1
  O  O35  1  0.329998  0.047597  0.271280  1
  O  O36  1  0.350690  0.925278  0.576939  1
  O  O37  1  0.706728  0.571265  0.841898  1
  O  O38  1  0.293272  0.428735  0.158102  1
  O  O39  1  0.437145  0.582368  0.334836  1
  O  O40  1  0.571265  0.706728  0.658102  1
  O  O41  1  0.915093  0.270645  0.586900  1
  O  O42  1  0.582368  0.437145  0.165164  1
  O  O43  1  0.428735  0.293272  0.341898  1
  O  O44  1  0.044873  0.271898  0.796684  1
  O  O45  1  0.241512  0.796080  0.796864  1
  O  O46  1  0.938533  0.134846  0.056461  1
  O  O47  1  0.203920  0.758488  0.296864  1
  O  O48  1  0.417632  0.562855  0.834836  1
  O  O49  1  0.955127  0.728102  0.203316  1
  O  O50  1  0.619491  0.967727  0.922133  1
  O  O51  1  0.952403  0.670002  0.771280  1
  O  O52  1  0.796080  0.241512  0.703136  1
  O  O53  1  0.238816  0.613822  0.774193  1
  O  O54  1  0.649310  0.074722  0.423061  1
  O  O55  1  0.563577  0.746790  0.467428  1
  O  O56  1  0.061467  0.865154  0.943539  1
  O  O57  1  0.270645  0.915093  0.913100  1
  O  O58  1  0.728102  0.955127  0.296684  1
  O  O59  1  0.134846  0.938533  0.443539  1
  O  O60  1  0.925278  0.350690  0.923061  1
  O  O61  1  0.380509  0.032273  0.077867  1
  O  O62  1  0.761184  0.386178  0.225807  1
  O  O63  1  0.436423  0.253210  0.532572  1
  O  O64  1  0.047597  0.329998  0.228720  1
  O  O65  1  0.271898  0.044873  0.703316  1
  O  O66  1  0.746790  0.563577  0.032572  1
  O  O67  1  0.032273  0.380509  0.422133  1
  O  O68  1  0.562855  0.417632  0.665164  1
  O  O69  1  0.613822  0.238816  0.725807  1
  O  O70  1  0.670002  0.952403  0.728720  1
  O  O71  1  0.074722  0.649310  0.076939  1
  O  O72  1  0.865154  0.061467  0.556461  1
  O  O73  1  0.165579  0.176212  0.378921  1
  O  O74  1  0.729355  0.084907  0.086900  1
  O  O75  1  0.084907  0.729355  0.413100  1
  O  O76  1  0.967727  0.619491  0.577867  1
  O  O77  1  0.386178  0.761184  0.274193  1
  O  O78  1  0.823788  0.834421  0.878921  1
  O  O79  1  0.834421  0.823788  0.621079  1
