# generated using pymatgen
data_SrTaF7
_symmetry_space_group_name_H-M   'P 1'
_cell_length_a   4.96983483
_cell_length_b   7.33269028
_cell_length_c   6.82811866
_cell_angle_alpha   90.00000000
_cell_angle_beta   94.53240121
_cell_angle_gamma   90.00000000
_symmetry_Int_Tables_number   1
_chemical_formula_structural   SrTaF7
_chemical_formula_sum   'Sr2 Ta2 F14'
_cell_volume   248.05392586
_cell_formula_units_Z   2
loop_
 _symmetry_equiv_pos_site_id
 _symmetry_equiv_pos_as_xyz
  1  'x, y, z'
loop_
 _atom_site_type_symbol
 _atom_site_label
 _atom_site_symmetry_multiplicity
 _atom_site_fract_x
 _atom_site_fract_y
 _atom_site_fract_z
 _atom_site_occupancy
  Sr  Sr0  1  0.028054  0.250000  0.314784  1
  Sr  Sr1  1  0.971946  0.750000  0.685216  1
  Ta  Ta2  1  0.464379  0.250000  0.779421  1
  Ta  Ta3  1  0.535621  0.750000  0.220579  1
  F  F4  1  0.652335  0.250000  0.047455  1
  F  F5  1  0.325666  0.527300  0.217551  1
  F  F6  1  0.347665  0.750000  0.952545  1
  F  F7  1  0.674334  0.027300  0.782449  1
  F  F8  1  0.172930  0.250000  0.953717  1
  F  F9  1  0.192248  0.076779  0.640716  1
  F  F10  1  0.192248  0.423221  0.640716  1
  F  F11  1  0.807752  0.576779  0.359284  1
  F  F12  1  0.325666  0.972700  0.217551  1
  F  F13  1  0.827070  0.750000  0.046283  1
  F  F14  1  0.674334  0.472700  0.782449  1
  F  F15  1  0.418954  0.750000  0.494915  1
  F  F16  1  0.807752  0.923221  0.359284  1
  F  F17  1  0.581046  0.250000  0.505085  1
