# generated using pymatgen
data_Cr3CuO8
_symmetry_space_group_name_H-M   'P 1'
_cell_length_a   5.03006104
_cell_length_b   5.03006104
_cell_length_c   6.60719915
_cell_angle_alpha   86.44600424
_cell_angle_beta   93.55399576
_cell_angle_gamma   112.87065268
_symmetry_Int_Tables_number   1
_chemical_formula_structural   Cr3CuO8
_chemical_formula_sum   'Cr3 Cu1 O8'
_cell_volume   153.60301689
_cell_formula_units_Z   1
loop_
 _symmetry_equiv_pos_site_id
 _symmetry_equiv_pos_as_xyz
  1  'x, y, z'
loop_
 _atom_site_type_symbol
 _atom_site_label
 _atom_site_symmetry_multiplicity
 _atom_site_fract_x
 _atom_site_fract_y
 _atom_site_fract_z
 _atom_site_occupancy
  Cr  Cr0  1  0.653235  0.346765  0.231836  1
  Cr  Cr1  1  0.346765  0.653235  0.768164  1
  Cr  Cr2  1  0.000000  0.000000  0.000000  1
  Cu  Cu3  1  0.000000  0.000000  0.500000  1
  O  O4  1  0.208231  0.282732  0.775010  1
  O  O5  1  0.772073  0.227927  0.441271  1
  O  O6  1  0.717268  0.791769  0.775010  1
  O  O7  1  0.232780  0.767220  0.963155  1
  O  O8  1  0.282732  0.208231  0.224990  1
  O  O9  1  0.767220  0.232780  0.036845  1
  O  O10  1  0.791769  0.717268  0.224990  1
  O  O11  1  0.227927  0.772073  0.558729  1
