# generated using pymatgen
data_Ga2Mo(SeO5)2
_symmetry_space_group_name_H-M   'P 1'
_cell_length_a   6.14544859
_cell_length_b   8.94747357
_cell_length_c   15.31776498
_cell_angle_alpha   90.00000000
_cell_angle_beta   90.00000000
_cell_angle_gamma   90.00000000
_symmetry_Int_Tables_number   1
_chemical_formula_structural   Ga2Mo(SeO5)2
_chemical_formula_sum   'Ga8 Mo4 Se8 O40'
_cell_volume   842.26628361
_cell_formula_units_Z   4
loop_
 _symmetry_equiv_pos_site_id
 _symmetry_equiv_pos_as_xyz
  1  'x, y, z'
loop_
 _atom_site_type_symbol
 _atom_site_label
 _atom_site_symmetry_multiplicity
 _atom_site_fract_x
 _atom_site_fract_y
 _atom_site_fract_z
 _atom_site_occupancy
  Ga  Ga0  1  0.493481  0.505847  0.852181  1
  Ga  Ga1  1  0.506519  0.494153  0.147819  1
  Ga  Ga2  1  0.993481  0.994153  0.352181  1
  Ga  Ga3  1  0.006519  0.005847  0.647819  1
  Ga  Ga4  1  0.506519  0.994153  0.352181  1
  Ga  Ga5  1  0.493481  0.005847  0.647819  1
  Ga  Ga6  1  0.006519  0.505847  0.852181  1
  Ga  Ga7  1  0.993481  0.494153  0.147819  1
  Mo  Mo8  1  0.250000  0.337026  0.662757  1
  Mo  Mo9  1  0.750000  0.662974  0.337243  1
  Mo  Mo10  1  0.750000  0.162974  0.162757  1
  Mo  Mo11  1  0.250000  0.837026  0.837243  1
  Se  Se12  1  0.250000  0.273812  0.991206  1
  Se  Se13  1  0.250000  0.306341  0.306174  1
  Se  Se14  1  0.750000  0.726188  0.008794  1
  Se  Se15  1  0.750000  0.693659  0.693826  1
  Se  Se16  1  0.750000  0.193659  0.806174  1
  Se  Se17  1  0.750000  0.226188  0.491206  1
  Se  Se18  1  0.250000  0.806341  0.193826  1
  Se  Se19  1  0.250000  0.773812  0.508794  1
  O  O20  1  0.528614  0.661678  0.065715  1
  O  O21  1  0.471417  0.834195  0.261665  1
  O  O22  1  0.472022  0.920453  0.886768  1
  O  O23  1  0.028583  0.334195  0.238335  1
  O  O24  1  0.472022  0.420453  0.613232  1
  O  O25  1  0.250000  0.405237  0.080140  1
  O  O26  1  0.028614  0.338322  0.934285  1
  O  O27  1  0.750000  0.094763  0.580140  1
  O  O28  1  0.750000  0.594763  0.919860  1
  O  O29  1  0.750000  0.365863  0.110227  1
  O  O30  1  0.750000  0.894988  0.701403  1
  O  O31  1  0.972022  0.079547  0.113232  1
  O  O32  1  0.250000  0.634137  0.889773  1
  O  O33  1  0.971386  0.161678  0.434285  1
  O  O34  1  0.750000  0.584757  0.221053  1
  O  O35  1  0.971417  0.665805  0.761665  1
  O  O36  1  0.471386  0.338322  0.934285  1
  O  O37  1  0.750000  0.865863  0.389773  1
  O  O38  1  0.027978  0.920453  0.886768  1
  O  O39  1  0.971386  0.661678  0.065715  1
  O  O40  1  0.250000  0.105012  0.298597  1
  O  O41  1  0.528583  0.165805  0.738335  1
  O  O42  1  0.750000  0.084757  0.278947  1
  O  O43  1  0.250000  0.134137  0.610227  1
  O  O44  1  0.527978  0.079547  0.113232  1
  O  O45  1  0.028614  0.838322  0.565715  1
  O  O46  1  0.027978  0.420453  0.613232  1
  O  O47  1  0.528583  0.665805  0.761665  1
  O  O48  1  0.250000  0.415243  0.778947  1
  O  O49  1  0.250000  0.915243  0.721053  1
  O  O50  1  0.971417  0.165805  0.738335  1
  O  O51  1  0.527978  0.579547  0.386768  1
  O  O52  1  0.250000  0.905237  0.419860  1
  O  O53  1  0.250000  0.605012  0.201403  1
  O  O54  1  0.471417  0.334195  0.238335  1
  O  O55  1  0.528614  0.161678  0.434285  1
  O  O56  1  0.750000  0.394988  0.798597  1
  O  O57  1  0.972022  0.579547  0.386768  1
  O  O58  1  0.028583  0.834195  0.261665  1
  O  O59  1  0.471386  0.838322  0.565715  1
