# generated using pymatgen
data_BaCuPClO4
_symmetry_space_group_name_H-M   'P 1'
_cell_length_a   7.38458671
_cell_length_b   7.99510307
_cell_length_c   8.81026045
_cell_angle_alpha   90.00000000
_cell_angle_beta   90.00000000
_cell_angle_gamma   90.00000000
_symmetry_Int_Tables_number   1
_chemical_formula_structural   BaCuPClO4
_chemical_formula_sum   'Ba4 Cu4 P4 Cl4 O16'
_cell_volume   520.16246293
_cell_formula_units_Z   4
loop_
 _symmetry_equiv_pos_site_id
 _symmetry_equiv_pos_as_xyz
  1  'x, y, z'
loop_
 _atom_site_type_symbol
 _atom_site_label
 _atom_site_symmetry_multiplicity
 _atom_site_fract_x
 _atom_site_fract_y
 _atom_site_fract_z
 _atom_site_occupancy
  Ba  Ba0  1  0.873737  0.017603  0.297570  1
  Ba  Ba1  1  0.626263  0.982397  0.797570  1
  Ba  Ba2  1  0.373737  0.482397  0.702430  1
  Ba  Ba3  1  0.126263  0.517603  0.202430  1
  Cu  Cu4  1  0.364799  0.015438  0.182471  1
  Cu  Cu5  1  0.864799  0.484562  0.817529  1
  Cu  Cu6  1  0.635201  0.515438  0.317529  1
  Cu  Cu7  1  0.135201  0.984562  0.682471  1
  P  P8  1  0.873228  0.683759  0.581244  1
  P  P9  1  0.373228  0.816241  0.418756  1
  P  P10  1  0.626772  0.316241  0.081244  1
  P  P11  1  0.126772  0.183759  0.918756  1
  Cl  Cl12  1  0.830274  0.738241  0.041506  1
  Cl  Cl13  1  0.669726  0.261759  0.541506  1
  Cl  Cl14  1  0.169726  0.238241  0.458494  1
  Cl  Cl15  1  0.330274  0.761759  0.958494  1
  O  O16  1  0.662983  0.360301  0.912586  1
  O  O17  1  0.475308  0.422958  0.155388  1
  O  O18  1  0.206788  0.850269  0.312989  1
  O  O19  1  0.421759  0.626012  0.414702  1
  O  O20  1  0.793212  0.350269  0.187011  1
  O  O21  1  0.078241  0.373988  0.914702  1
  O  O22  1  0.837017  0.639699  0.412586  1
  O  O23  1  0.024692  0.577042  0.655388  1
  O  O24  1  0.293212  0.149731  0.812989  1
  O  O25  1  0.524692  0.922958  0.344612  1
  O  O26  1  0.921759  0.873988  0.585298  1
  O  O27  1  0.337017  0.860301  0.587414  1
  O  O28  1  0.975308  0.077042  0.844612  1
  O  O29  1  0.162983  0.139699  0.087414  1
  O  O30  1  0.578241  0.126012  0.085298  1
  O  O31  1  0.706788  0.649731  0.687011  1
