# generated using pymatgen
data_SiI2
_symmetry_space_group_name_H-M   'P 1'
_cell_length_a   11.59220666
_cell_length_b   17.01716289
_cell_length_c   17.28583889
_cell_angle_alpha   90.00000000
_cell_angle_beta   119.82993312
_cell_angle_gamma   90.00000000
_symmetry_Int_Tables_number   1
_chemical_formula_structural   SiI2
_chemical_formula_sum   'Si20 I40'
_cell_volume   2958.12191644
_cell_formula_units_Z   20
loop_
 _symmetry_equiv_pos_site_id
 _symmetry_equiv_pos_as_xyz
  1  'x, y, z'
loop_
 _atom_site_type_symbol
 _atom_site_label
 _atom_site_symmetry_multiplicity
 _atom_site_fract_x
 _atom_site_fract_y
 _atom_site_fract_z
 _atom_site_occupancy
  Si  Si0  1  0.438235  0.826352  0.539285  1
  Si  Si1  1  0.561765  0.326352  0.960715  1
  Si  Si2  1  0.561765  0.173648  0.460715  1
  Si  Si3  1  0.438235  0.673648  0.039285  1
  Si  Si4  1  0.438793  0.684541  0.534675  1
  Si  Si5  1  0.561207  0.184541  0.965325  1
  Si  Si6  1  0.561207  0.315459  0.465325  1
  Si  Si7  1  0.438793  0.815459  0.034675  1
  Si  Si8  1  0.231086  0.645590  0.519332  1
  Si  Si9  1  0.768914  0.145590  0.980668  1
  Si  Si10  1  0.768914  0.354410  0.480668  1
  Si  Si11  1  0.231086  0.854410  0.019332  1
  Si  Si12  1  0.080107  0.745887  0.431345  1
  Si  Si13  1  0.919893  0.245887  0.068655  1
  Si  Si14  1  0.919893  0.254113  0.568655  1
  Si  Si15  1  0.080107  0.754113  0.931345  1
  Si  Si16  1  0.207598  0.865155  0.479224  1
  Si  Si17  1  0.792402  0.365155  0.020776  1
  Si  Si18  1  0.792402  0.134845  0.520776  1
  Si  Si19  1  0.207598  0.634845  0.979224  1
  I  I20  1  0.574042  0.871321  0.694484  1
  I  I21  1  0.425958  0.371321  0.805516  1
  I  I22  1  0.425958  0.128679  0.305516  1
  I  I23  1  0.574042  0.628679  0.194484  1
  I  I24  1  0.529111  0.880200  0.448417  1
  I  I25  1  0.470889  0.380200  0.051583  1
  I  I26  1  0.470889  0.119800  0.551583  1
  I  I27  1  0.529111  0.619800  0.948417  1
  I  I28  1  0.444128  0.641391  0.400557  1
  I  I29  1  0.555872  0.141391  0.099443  1
  I  I30  1  0.555872  0.358609  0.599443  1
  I  I31  1  0.444128  0.858609  0.900557  1
  I  I32  1  0.626458  0.627631  0.669260  1
  I  I33  1  0.373542  0.127631  0.830740  1
  I  I34  1  0.373542  0.372369  0.330740  1
  I  I35  1  0.626458  0.872369  0.169260  1
  I  I36  1  0.254691  0.654934  0.668740  1
  I  I37  1  0.745309  0.154934  0.831260  1
  I  I38  1  0.745309  0.345066  0.331260  1
  I  I39  1  0.254691  0.845066  0.168740  1
  I  I40  1  0.160849  0.513423  0.455849  1
  I  I41  1  0.839151  0.013423  0.044151  1
  I  I42  1  0.839151  0.486577  0.544151  1
  I  I43  1  0.160849  0.986577  0.955849  1
  I  I44  1  0.017947  0.720489  0.275031  1
  I  I45  1  0.982053  0.220489  0.224969  1
  I  I46  1  0.982053  0.279511  0.724969  1
  I  I47  1  0.017947  0.779511  0.775031  1
  I  I48  1  0.881234  0.751085  0.448037  1
  I  I49  1  0.118766  0.251085  0.051963  1
  I  I50  1  0.118766  0.248915  0.551963  1
  I  I51  1  0.881234  0.748915  0.948037  1
  I  I52  1  0.176397  0.925196  0.597184  1
  I  I53  1  0.823603  0.425196  0.902816  1
  I  I54  1  0.823603  0.074804  0.402816  1
  I  I55  1  0.176397  0.574804  0.097184  1
  I  I56  1  0.132632  0.957350  0.353284  1
  I  I57  1  0.867368  0.457350  0.146716  1
  I  I58  1  0.867368  0.042650  0.646716  1
  I  I59  1  0.132632  0.542650  0.853284  1
