# generated using pymatgen
data_VHg4P2O9
_symmetry_space_group_name_H-M   'P 1'
_cell_length_a   7.20584858
_cell_length_b   9.23692116
_cell_length_c   16.98867961
_cell_angle_alpha   90.00000000
_cell_angle_beta   90.00000000
_cell_angle_gamma   90.00000000
_symmetry_Int_Tables_number   1
_chemical_formula_structural   VHg4P2O9
_chemical_formula_sum   'V4 Hg16 P8 O36'
_cell_volume   1130.76405529
_cell_formula_units_Z   4
loop_
 _symmetry_equiv_pos_site_id
 _symmetry_equiv_pos_as_xyz
  1  'x, y, z'
loop_
 _atom_site_type_symbol
 _atom_site_label
 _atom_site_symmetry_multiplicity
 _atom_site_fract_x
 _atom_site_fract_y
 _atom_site_fract_z
 _atom_site_occupancy
  V  V0  1  0.130102  0.766906  0.750000  1
  V  V1  1  0.369898  0.266906  0.250000  1
  V  V2  1  0.869898  0.233094  0.250000  1
  V  V3  1  0.630102  0.733094  0.750000  1
  Hg  Hg4  1  0.635342  0.751531  0.419687  1
  Hg  Hg5  1  0.129321  0.469670  0.404376  1
  Hg  Hg6  1  0.864658  0.251531  0.919687  1
  Hg  Hg7  1  0.870679  0.530330  0.595624  1
  Hg  Hg8  1  0.135342  0.748469  0.080313  1
  Hg  Hg9  1  0.370679  0.969670  0.904376  1
  Hg  Hg10  1  0.629321  0.030330  0.095624  1
  Hg  Hg11  1  0.364658  0.248469  0.580313  1
  Hg  Hg12  1  0.364658  0.248469  0.919687  1
  Hg  Hg13  1  0.629321  0.030330  0.404376  1
  Hg  Hg14  1  0.135342  0.748469  0.419687  1
  Hg  Hg15  1  0.864658  0.251531  0.580313  1
  Hg  Hg16  1  0.129321  0.469670  0.095624  1
  Hg  Hg17  1  0.870679  0.530330  0.904376  1
  Hg  Hg18  1  0.635342  0.751531  0.080313  1
  Hg  Hg19  1  0.370679  0.969670  0.595624  1
  P  P20  1  0.356668  0.609916  0.886865  1
  P  P21  1  0.143332  0.109916  0.113135  1
  P  P22  1  0.643332  0.390084  0.386865  1
  P  P23  1  0.356668  0.609916  0.613135  1
  P  P24  1  0.143332  0.109916  0.386865  1
  P  P25  1  0.856668  0.890084  0.613135  1
  P  P26  1  0.643332  0.390084  0.113135  1
  P  P27  1  0.856668  0.890084  0.886865  1
  O  O28  1  0.968230  0.098186  0.333721  1
  O  O29  1  0.680350  0.881120  0.666073  1
  O  O30  1  0.680350  0.881120  0.833927  1
  O  O31  1  0.640140  0.175832  0.250000  1
  O  O32  1  0.661725  0.524148  0.440969  1
  O  O33  1  0.131378  0.242364  0.055910  1
  O  O34  1  0.859860  0.675832  0.750000  1
  O  O35  1  0.868622  0.757636  0.944090  1
  O  O36  1  0.819650  0.381120  0.333927  1
  O  O37  1  0.338275  0.475852  0.940969  1
  O  O38  1  0.140140  0.324168  0.250000  1
  O  O39  1  0.468230  0.401814  0.166279  1
  O  O40  1  0.161725  0.975852  0.440969  1
  O  O41  1  0.319650  0.118880  0.166073  1
  O  O42  1  0.868622  0.757636  0.555910  1
  O  O43  1  0.359860  0.824168  0.750000  1
  O  O44  1  0.368622  0.742364  0.555910  1
  O  O45  1  0.631378  0.257636  0.055910  1
  O  O46  1  0.838275  0.024148  0.940969  1
  O  O47  1  0.180350  0.618880  0.666073  1
  O  O48  1  0.180350  0.618880  0.833927  1
  O  O49  1  0.319650  0.118880  0.333927  1
  O  O50  1  0.161725  0.975852  0.059031  1
  O  O51  1  0.031770  0.901814  0.666279  1
  O  O52  1  0.819650  0.381120  0.166073  1
  O  O53  1  0.468230  0.401814  0.333721  1
  O  O54  1  0.531770  0.598186  0.833721  1
  O  O55  1  0.531770  0.598186  0.666279  1
  O  O56  1  0.031770  0.901814  0.833721  1
  O  O57  1  0.838275  0.024148  0.559031  1
  O  O58  1  0.661725  0.524148  0.059031  1
  O  O59  1  0.338275  0.475852  0.559031  1
  O  O60  1  0.131378  0.242364  0.444090  1
  O  O61  1  0.631378  0.257636  0.444090  1
  O  O62  1  0.968230  0.098186  0.166279  1
  O  O63  1  0.368622  0.742364  0.944090  1
