# generated using pymatgen
data_NaScAs2O7
_symmetry_space_group_name_H-M   'P 1'
_cell_length_a   5.67465253
_cell_length_b   5.67465253
_cell_length_c   4.89163995
_cell_angle_alpha   82.54420847
_cell_angle_beta   97.45579153
_cell_angle_gamma   77.11502439
_symmetry_Int_Tables_number   1
_chemical_formula_structural   NaScAs2O7
_chemical_formula_sum   'Na1 Sc1 As2 O7'
_cell_volume   150.18826150
_cell_formula_units_Z   1
loop_
 _symmetry_equiv_pos_site_id
 _symmetry_equiv_pos_as_xyz
  1  'x, y, z'
loop_
 _atom_site_type_symbol
 _atom_site_label
 _atom_site_symmetry_multiplicity
 _atom_site_fract_x
 _atom_site_fract_y
 _atom_site_fract_z
 _atom_site_occupancy
  Na  Na0  1  0.245858  0.245858  0.500000  1
  Sc  Sc1  1  0.631653  0.631653  0.500000  1
  As  As2  1  0.176435  0.748557  0.913952  1
  As  As3  1  0.748557  0.176435  0.086048  1
  O  O4  1  0.959810  0.626289  0.753886  1
  O  O5  1  0.328905  0.574611  0.221761  1
  O  O6  1  0.361859  0.837618  0.694462  1
  O  O7  1  0.626289  0.959810  0.246114  1
  O  O8  1  0.041581  0.041581  0.000000  1
  O  O9  1  0.837618  0.361859  0.305538  1
  O  O10  1  0.574611  0.328905  0.778239  1
