# generated using pymatgen
data_CdB2F8
_symmetry_space_group_name_H-M   'P 1'
_cell_length_a   8.91843738
_cell_length_b   9.28939051
_cell_length_c   13.49034038
_cell_angle_alpha   90.00000000
_cell_angle_beta   90.00000000
_cell_angle_gamma   90.00000000
_symmetry_Int_Tables_number   1
_chemical_formula_structural   CdB2F8
_chemical_formula_sum   'Cd8 B16 F64'
_cell_volume   1117.63217302
_cell_formula_units_Z   8
loop_
 _symmetry_equiv_pos_site_id
 _symmetry_equiv_pos_as_xyz
  1  'x, y, z'
loop_
 _atom_site_type_symbol
 _atom_site_label
 _atom_site_symmetry_multiplicity
 _atom_site_fract_x
 _atom_site_fract_y
 _atom_site_fract_z
 _atom_site_occupancy
  Cd  Cd0  1  0.782245  0.532375  0.604332  1
  Cd  Cd1  1  0.217755  0.967625  0.104332  1
  Cd  Cd2  1  0.717755  0.032375  0.395668  1
  Cd  Cd3  1  0.282245  0.467625  0.895668  1
  Cd  Cd4  1  0.217755  0.467625  0.395668  1
  Cd  Cd5  1  0.282245  0.967625  0.604332  1
  Cd  Cd6  1  0.717755  0.532375  0.104332  1
  Cd  Cd7  1  0.782245  0.032375  0.895668  1
  B  B8  1  0.996949  0.721842  0.941845  1
  B  B9  1  0.182113  0.605372  0.658258  1
  B  B10  1  0.817887  0.394628  0.341742  1
  B  B11  1  0.182113  0.105372  0.841742  1
  B  B12  1  0.003051  0.278158  0.058155  1
  B  B13  1  0.682113  0.894628  0.658258  1
  B  B14  1  0.496949  0.278158  0.558155  1
  B  B15  1  0.682113  0.394628  0.841742  1
  B  B16  1  0.503051  0.721842  0.441845  1
  B  B17  1  0.317887  0.105372  0.341742  1
  B  B18  1  0.317887  0.605372  0.158258  1
  B  B19  1  0.817887  0.894628  0.158258  1
  B  B20  1  0.003051  0.778158  0.441845  1
  B  B21  1  0.496949  0.778158  0.941845  1
  B  B22  1  0.996949  0.221842  0.558155  1
  B  B23  1  0.503051  0.221842  0.058155  1
  F  F24  1  0.975024  0.413827  0.332124  1
  F  F25  1  0.257539  0.510703  0.723981  1
  F  F26  1  0.422133  0.625110  0.380546  1
  F  F27  1  0.920944  0.644091  0.016135  1
  F  F28  1  0.727740  0.423736  0.940148  1
  F  F29  1  0.475024  0.586173  0.167876  1
  F  F30  1  0.757539  0.989297  0.723981  1
  F  F31  1  0.077867  0.625110  0.880546  1
  F  F32  1  0.395200  0.698903  0.882254  1
  F  F33  1  0.272260  0.076264  0.440148  1
  F  F34  1  0.742461  0.489297  0.276019  1
  F  F35  1  0.742461  0.989297  0.223981  1
  F  F36  1  0.104800  0.198903  0.117746  1
  F  F37  1  0.579056  0.644091  0.516135  1
  F  F38  1  0.278776  0.249435  0.317202  1
  F  F39  1  0.079056  0.855909  0.516135  1
  F  F40  1  0.401627  0.820185  0.486702  1
  F  F41  1  0.420944  0.855909  0.016135  1
  F  F42  1  0.975024  0.913827  0.167876  1
  F  F43  1  0.721224  0.250565  0.817202  1
  F  F44  1  0.920944  0.144091  0.483865  1
  F  F45  1  0.901627  0.179815  0.013298  1
  F  F46  1  0.278776  0.749435  0.182798  1
  F  F47  1  0.475024  0.086173  0.332124  1
  F  F48  1  0.895200  0.301097  0.617746  1
  F  F49  1  0.221224  0.249435  0.817202  1
  F  F50  1  0.227740  0.576264  0.559852  1
  F  F51  1  0.422133  0.125110  0.119454  1
  F  F52  1  0.524976  0.413827  0.832124  1
  F  F53  1  0.727740  0.923736  0.559852  1
  F  F54  1  0.778776  0.250565  0.317202  1
  F  F55  1  0.104800  0.698903  0.382254  1
  F  F56  1  0.604800  0.801097  0.382254  1
  F  F57  1  0.024976  0.086173  0.832124  1
  F  F58  1  0.772260  0.423736  0.440148  1
  F  F59  1  0.077867  0.125110  0.619454  1
  F  F60  1  0.901627  0.679815  0.486702  1
  F  F61  1  0.227740  0.076264  0.940148  1
  F  F62  1  0.242461  0.010703  0.276019  1
  F  F63  1  0.577867  0.874890  0.880546  1
  F  F64  1  0.079056  0.355909  0.983865  1
  F  F65  1  0.577867  0.374890  0.619454  1
  F  F66  1  0.272260  0.576264  0.059852  1
  F  F67  1  0.098373  0.320185  0.513298  1
  F  F68  1  0.604800  0.301097  0.117746  1
  F  F69  1  0.895200  0.801097  0.882254  1
  F  F70  1  0.395200  0.198903  0.617746  1
  F  F71  1  0.221224  0.749435  0.682798  1
  F  F72  1  0.598373  0.679815  0.986702  1
  F  F73  1  0.598373  0.179815  0.513298  1
  F  F74  1  0.922133  0.374890  0.119454  1
  F  F75  1  0.098373  0.820185  0.986702  1
  F  F76  1  0.922133  0.874890  0.380546  1
  F  F77  1  0.420944  0.355909  0.483865  1
  F  F78  1  0.721224  0.750565  0.682798  1
  F  F79  1  0.242461  0.510703  0.223981  1
  F  F80  1  0.257539  0.010703  0.776019  1
  F  F81  1  0.579056  0.144091  0.983865  1
  F  F82  1  0.401627  0.320185  0.013298  1
  F  F83  1  0.524976  0.913827  0.667876  1
  F  F84  1  0.772260  0.923736  0.059852  1
  F  F85  1  0.778776  0.750565  0.182798  1
  F  F86  1  0.024976  0.586173  0.667876  1
  F  F87  1  0.757539  0.489297  0.776019  1
