# generated using pymatgen
data_Na2VPO6
_symmetry_space_group_name_H-M   'P 1'
_cell_length_a   6.28335322
_cell_length_b   12.57701516
_cell_length_c   8.27543573
_cell_angle_alpha   90.00000000
_cell_angle_beta   118.76852105
_cell_angle_gamma   90.00000000
_symmetry_Int_Tables_number   1
_chemical_formula_structural   Na2VPO6
_chemical_formula_sum   'Na8 V4 P4 O24'
_cell_volume   573.25406172
_cell_formula_units_Z   4
loop_
 _symmetry_equiv_pos_site_id
 _symmetry_equiv_pos_as_xyz
  1  'x, y, z'
loop_
 _atom_site_type_symbol
 _atom_site_label
 _atom_site_symmetry_multiplicity
 _atom_site_fract_x
 _atom_site_fract_y
 _atom_site_fract_z
 _atom_site_occupancy
  Na  Na0  1  0.737680  0.073512  0.931459  1
  Na  Na1  1  0.886450  0.141861  0.574936  1
  Na  Na2  1  0.113550  0.641861  0.925064  1
  Na  Na3  1  0.886450  0.358139  0.074936  1
  Na  Na4  1  0.262320  0.573512  0.568541  1
  Na  Na5  1  0.113550  0.858139  0.425064  1
  Na  Na6  1  0.262320  0.926488  0.068541  1
  Na  Na7  1  0.737680  0.426488  0.431459  1
  V  V8  1  0.592451  0.782230  0.877195  1
  V  V9  1  0.407549  0.282230  0.622805  1
  V  V10  1  0.407549  0.217770  0.122805  1
  V  V11  1  0.592451  0.717770  0.377195  1
  P  P12  1  0.789052  0.886675  0.696216  1
  P  P13  1  0.210948  0.113325  0.303784  1
  P  P14  1  0.789052  0.613325  0.196216  1
  P  P15  1  0.210948  0.386675  0.803784  1
  O  O16  1  0.777591  0.655821  0.015418  1
  O  O17  1  0.526638  0.891154  0.678458  1
  O  O18  1  0.097288  0.301783  0.645111  1
  O  O19  1  0.902712  0.801783  0.854889  1
  O  O20  1  0.678142  0.277166  0.237311  1
  O  O21  1  0.473362  0.108846  0.321542  1
  O  O22  1  0.076117  0.008557  0.244671  1
  O  O23  1  0.321858  0.722834  0.762689  1
  O  O24  1  0.409250  0.359411  0.460513  1
  O  O25  1  0.902712  0.698217  0.354889  1
  O  O26  1  0.409250  0.140589  0.960513  1
  O  O27  1  0.590750  0.640589  0.539487  1
  O  O28  1  0.590750  0.859411  0.039487  1
  O  O29  1  0.222409  0.344179  0.984582  1
  O  O30  1  0.678142  0.222834  0.737311  1
  O  O31  1  0.923883  0.508557  0.255329  1
  O  O32  1  0.222409  0.155821  0.484582  1
  O  O33  1  0.321858  0.777166  0.262689  1
  O  O34  1  0.076117  0.491443  0.744671  1
  O  O35  1  0.097288  0.198217  0.145111  1
  O  O36  1  0.526638  0.608846  0.178458  1
  O  O37  1  0.923883  0.991443  0.755329  1
  O  O38  1  0.473362  0.391154  0.821542  1
  O  O39  1  0.777591  0.844179  0.515418  1
