# generated using pymatgen
data_Na2Zn(SiO3)2
_symmetry_space_group_name_H-M   'P 1'
_cell_length_a   5.74237456
_cell_length_b   5.74237456
_cell_length_c   10.04527568
_cell_angle_alpha   88.57839633
_cell_angle_beta   91.42160367
_cell_angle_gamma   65.87543018
_symmetry_Int_Tables_number   1
_chemical_formula_structural   Na2Zn(SiO3)2
_chemical_formula_sum   'Na4 Zn2 Si4 O12'
_cell_volume   301.99578337
_cell_formula_units_Z   2
loop_
 _symmetry_equiv_pos_site_id
 _symmetry_equiv_pos_as_xyz
  1  'x, y, z'
loop_
 _atom_site_type_symbol
 _atom_site_label
 _atom_site_symmetry_multiplicity
 _atom_site_fract_x
 _atom_site_fract_y
 _atom_site_fract_z
 _atom_site_occupancy
  Na  Na0  1  0.256933  0.385334  0.896195  1
  Na  Na1  1  0.385334  0.256933  0.603805  1
  Na  Na2  1  0.743067  0.614666  0.103805  1
  Na  Na3  1  0.614666  0.743067  0.396195  1
  Zn  Zn4  1  0.724225  0.724225  0.750000  1
  Zn  Zn5  1  0.275775  0.275775  0.250000  1
  Si  Si6  1  0.858687  0.160894  0.862070  1
  Si  Si7  1  0.141313  0.839106  0.137930  1
  Si  Si8  1  0.839106  0.141313  0.362070  1
  Si  Si9  1  0.160894  0.858687  0.637930  1
  O  O10  1  0.085329  0.085329  0.750000  1
  O  O11  1  0.462777  0.769677  0.609139  1
  O  O12  1  0.083416  0.629813  0.688912  1
  O  O13  1  0.537223  0.230323  0.390861  1
  O  O14  1  0.230323  0.537223  0.109139  1
  O  O15  1  0.769677  0.462777  0.890861  1
  O  O16  1  0.916584  0.370187  0.311088  1
  O  O17  1  0.000000  0.000000  0.500000  1
  O  O18  1  0.370187  0.916584  0.188912  1
  O  O19  1  0.629813  0.083416  0.811088  1
  O  O20  1  0.914671  0.914671  0.250000  1
  O  O21  1  0.000000  0.000000  0.000000  1
