# generated using pymatgen
data_TbTaO4
_symmetry_space_group_name_H-M   'P 1'
_cell_length_a   6.58872427
_cell_length_b   6.58872427
_cell_length_c   5.12329746
_cell_angle_alpha   69.35413616
_cell_angle_beta   110.64586384
_cell_angle_gamma   65.13636660
_symmetry_Int_Tables_number   1
_chemical_formula_structural   TbTaO4
_chemical_formula_sum   'Tb2 Ta2 O8'
_cell_volume   152.48065090
_cell_formula_units_Z   2
loop_
 _symmetry_equiv_pos_site_id
 _symmetry_equiv_pos_as_xyz
  1  'x, y, z'
loop_
 _atom_site_type_symbol
 _atom_site_label
 _atom_site_symmetry_multiplicity
 _atom_site_fract_x
 _atom_site_fract_y
 _atom_site_fract_z
 _atom_site_occupancy
  Tb  Tb0  1  0.130348  0.130348  0.750000  1
  Tb  Tb1  1  0.869652  0.869652  0.250000  1
  Ta  Ta2  1  0.396359  0.396359  0.250000  1
  Ta  Ta3  1  0.603641  0.603641  0.750000  1
  O  O4  1  0.287312  0.776259  0.293475  1
  O  O5  1  0.448513  0.131956  0.161119  1
  O  O6  1  0.712688  0.223741  0.706525  1
  O  O7  1  0.868044  0.551487  0.661119  1
  O  O8  1  0.776259  0.287312  0.206525  1
  O  O9  1  0.131956  0.448513  0.338881  1
  O  O10  1  0.551487  0.868044  0.838881  1
  O  O11  1  0.223741  0.712688  0.793475  1
