# generated using pymatgen
data_CaH12CO9
_symmetry_space_group_name_H-M   'P 1'
_cell_length_a   6.07537645
_cell_length_b   6.07537645
_cell_length_c   10.98610489
_cell_angle_alpha   76.25947905
_cell_angle_beta   103.74052095
_cell_angle_gamma   93.43554473
_symmetry_Int_Tables_number   1
_chemical_formula_structural   CaH12CO9
_chemical_formula_sum   'Ca2 H24 C2 O18'
_cell_volume   382.61912661
_cell_formula_units_Z   2
loop_
 _symmetry_equiv_pos_site_id
 _symmetry_equiv_pos_as_xyz
  1  'x, y, z'
loop_
 _atom_site_type_symbol
 _atom_site_label
 _atom_site_symmetry_multiplicity
 _atom_site_fract_x
 _atom_site_fract_y
 _atom_site_fract_z
 _atom_site_occupancy
  Ca  Ca0  1  0.858531  0.858531  0.750000  1
  Ca  Ca1  1  0.141469  0.141469  0.250000  1
  H  H2  1  0.741583  0.880276  0.000881  1
  H  H3  1  0.880276  0.741583  0.499119  1
  H  H4  1  0.258417  0.119724  0.999119  1
  H  H5  1  0.119724  0.258417  0.500881  1
  H  H6  1  0.513858  0.819961  0.906795  1
  H  H7  1  0.819961  0.513858  0.593205  1
  H  H8  1  0.486142  0.180039  0.093205  1
  H  H9  1  0.180039  0.486142  0.406795  1
  H  H10  1  0.536608  0.273472  0.649780  1
  H  H11  1  0.273472  0.536608  0.850220  1
  H  H12  1  0.463392  0.726528  0.350220  1
  H  H13  1  0.726528  0.463392  0.149780  1
  H  H14  1  0.604476  0.222487  0.526517  1
  H  H15  1  0.222487  0.604476  0.973483  1
  H  H16  1  0.395524  0.777513  0.473483  1
  H  H17  1  0.777513  0.395524  0.026517  1
  H  H18  1  0.338871  0.899676  0.643338  1
  H  H19  1  0.899676  0.338871  0.856662  1
  H  H20  1  0.661129  0.100324  0.356662  1
  H  H21  1  0.100324  0.661129  0.143338  1
  H  H22  1  0.387345  0.637509  0.667069  1
  H  H23  1  0.637509  0.387345  0.832931  1
  H  H24  1  0.612655  0.362491  0.332931  1
  H  H25  1  0.362491  0.612655  0.167069  1
  C  C26  1  0.202979  0.202979  0.750000  1
  C  C27  1  0.797021  0.797021  0.250000  1
  O  O28  1  0.358867  0.358867  0.750000  1
  O  O29  1  0.641133  0.641133  0.250000  1
  O  O30  1  0.093195  0.152522  0.841382  1
  O  O31  1  0.152522  0.093195  0.658618  1
  O  O32  1  0.906805  0.847478  0.158618  1
  O  O33  1  0.847478  0.906805  0.341382  1
  O  O34  1  0.662475  0.897264  0.908732  1
  O  O35  1  0.897264  0.662475  0.591268  1
  O  O36  1  0.337525  0.102736  0.091268  1
  O  O37  1  0.102736  0.337525  0.408732  1
  O  O38  1  0.665881  0.239046  0.616790  1
  O  O39  1  0.239046  0.665881  0.883210  1
  O  O40  1  0.334119  0.760954  0.383210  1
  O  O41  1  0.760954  0.334119  0.116790  1
  O  O42  1  0.447402  0.790405  0.634708  1
  O  O43  1  0.790405  0.447402  0.865292  1
  O  O44  1  0.552598  0.209595  0.365292  1
  O  O45  1  0.209595  0.552598  0.134708  1
