# generated using pymatgen
data_Sb2POF13
_symmetry_space_group_name_H-M   'P 1'
_cell_length_a   7.46993648
_cell_length_b   15.04660014
_cell_length_c   10.57379996
_cell_angle_alpha   90.00000000
_cell_angle_beta   97.45466153
_cell_angle_gamma   90.00000000
_symmetry_Int_Tables_number   1
_chemical_formula_structural   Sb2POF13
_chemical_formula_sum   'Sb8 P4 O4 F52'
_cell_volume   1178.41985187
_cell_formula_units_Z   4
loop_
 _symmetry_equiv_pos_site_id
 _symmetry_equiv_pos_as_xyz
  1  'x, y, z'
loop_
 _atom_site_type_symbol
 _atom_site_label
 _atom_site_symmetry_multiplicity
 _atom_site_fract_x
 _atom_site_fract_y
 _atom_site_fract_z
 _atom_site_occupancy
  Sb  Sb0  1  0.137887  0.256570  0.960072  1
  Sb  Sb1  1  0.862113  0.743430  0.039928  1
  Sb  Sb2  1  0.216592  0.562630  0.210688  1
  Sb  Sb3  1  0.216592  0.937370  0.710688  1
  Sb  Sb4  1  0.137887  0.243430  0.460072  1
  Sb  Sb5  1  0.862113  0.756570  0.539928  1
  Sb  Sb6  1  0.783408  0.437370  0.789312  1
  Sb  Sb7  1  0.783408  0.062630  0.289312  1
  P  P8  1  0.236355  0.870493  0.162458  1
  P  P9  1  0.236355  0.629507  0.662458  1
  P  P10  1  0.763645  0.370493  0.337542  1
  P  P11  1  0.763645  0.129507  0.837542  1
  O  O12  1  0.935372  0.320519  0.359002  1
  O  O13  1  0.064628  0.679481  0.640998  1
  O  O14  1  0.935372  0.179481  0.859002  1
  O  O15  1  0.064628  0.820519  0.140998  1
  F  F16  1  0.030040  0.725054  0.923664  1
  F  F17  1  0.581366  0.994590  0.219126  1
  F  F18  1  0.323350  0.634624  0.800256  1
  F  F19  1  0.986579  0.639957  0.139660  1
  F  F20  1  0.862806  0.416284  0.627696  1
  F  F21  1  0.619366  0.339028  0.416776  1
  F  F22  1  0.676650  0.134624  0.699744  1
  F  F23  1  0.052690  0.034320  0.687593  1
  F  F24  1  0.339087  0.826062  0.725404  1
  F  F25  1  0.030040  0.774946  0.423664  1
  F  F26  1  0.689713  0.837096  0.460977  1
  F  F27  1  0.310287  0.162904  0.539023  1
  F  F28  1  0.947310  0.965680  0.312407  1
  F  F29  1  0.137194  0.916284  0.872304  1
  F  F30  1  0.052690  0.465680  0.187593  1
  F  F31  1  0.862806  0.083716  0.127696  1
  F  F32  1  0.380634  0.839028  0.083224  1
  F  F33  1  0.137194  0.583716  0.372304  1
  F  F34  1  0.581366  0.505410  0.719126  1
  F  F35  1  0.742835  0.741570  0.684984  1
  F  F36  1  0.986579  0.860043  0.639660  1
  F  F37  1  0.660913  0.173938  0.274596  1
  F  F38  1  0.213421  0.969185  0.133550  1
  F  F39  1  0.310287  0.337096  0.039023  1
  F  F40  1  0.786579  0.469185  0.366450  1
  F  F41  1  0.689713  0.662904  0.960977  1
  F  F42  1  0.418634  0.005410  0.780874  1
  F  F43  1  0.969960  0.225054  0.576336  1
  F  F44  1  0.739306  0.052885  0.460717  1
  F  F45  1  0.762276  0.847610  0.960519  1
  F  F46  1  0.013421  0.360043  0.860340  1
  F  F47  1  0.260694  0.552885  0.039283  1
  F  F48  1  0.237724  0.347610  0.539481  1
  F  F49  1  0.786579  0.030815  0.866450  1
  F  F50  1  0.676650  0.365376  0.199744  1
  F  F51  1  0.619366  0.160972  0.916776  1
  F  F52  1  0.739306  0.447115  0.960717  1
  F  F53  1  0.762276  0.652390  0.460519  1
  F  F54  1  0.013421  0.139957  0.360340  1
  F  F55  1  0.969960  0.274946  0.076336  1
  F  F56  1  0.339087  0.673938  0.225404  1
  F  F57  1  0.257165  0.258430  0.315016  1
  F  F58  1  0.260694  0.947115  0.539283  1
  F  F59  1  0.323350  0.865376  0.300256  1
  F  F60  1  0.380634  0.660972  0.583224  1
  F  F61  1  0.213421  0.530815  0.633550  1
  F  F62  1  0.742835  0.758430  0.184984  1
  F  F63  1  0.660913  0.326062  0.774596  1
  F  F64  1  0.257165  0.241570  0.815016  1
  F  F65  1  0.418634  0.494590  0.280874  1
  F  F66  1  0.237724  0.152390  0.039481  1
  F  F67  1  0.947310  0.534320  0.812407  1
