# generated using pymatgen
data_Na3B6NO13
_symmetry_space_group_name_H-M   'P 1'
_cell_length_a   7.75786611
_cell_length_b   10.10589916
_cell_length_c   12.71359318
_cell_angle_alpha   90.00000000
_cell_angle_beta   90.00000000
_cell_angle_gamma   90.00000000
_symmetry_Int_Tables_number   1
_chemical_formula_structural   Na3B6NO13
_chemical_formula_sum   'Na12 B24 N4 O52'
_cell_volume   996.74840828
_cell_formula_units_Z   4
loop_
 _symmetry_equiv_pos_site_id
 _symmetry_equiv_pos_as_xyz
  1  'x, y, z'
loop_
 _atom_site_type_symbol
 _atom_site_label
 _atom_site_symmetry_multiplicity
 _atom_site_fract_x
 _atom_site_fract_y
 _atom_site_fract_z
 _atom_site_occupancy
  Na  Na0  1  0.880944  0.250000  0.715337  1
  Na  Na1  1  0.500000  0.500000  0.000000  1
  Na  Na2  1  0.000000  0.000000  0.500000  1
  Na  Na3  1  0.000000  0.500000  0.500000  1
  Na  Na4  1  0.380944  0.750000  0.784663  1
  Na  Na5  1  0.500000  0.500000  0.500000  1
  Na  Na6  1  0.619056  0.250000  0.215337  1
  Na  Na7  1  0.500000  0.000000  0.000000  1
  Na  Na8  1  0.000000  0.000000  0.000000  1
  Na  Na9  1  0.000000  0.500000  0.000000  1
  Na  Na10  1  0.500000  0.000000  0.500000  1
  Na  Na11  1  0.119056  0.750000  0.284663  1
  B  B12  1  0.720129  0.750000  0.500853  1
  B  B13  1  0.474307  0.979163  0.259308  1
  B  B14  1  0.974307  0.020837  0.240692  1
  B  B15  1  0.025693  0.520837  0.759308  1
  B  B16  1  0.560435  0.750000  0.314758  1
  B  B17  1  0.227484  0.120023  0.332216  1
  B  B18  1  0.974307  0.479163  0.240692  1
  B  B19  1  0.060435  0.250000  0.185242  1
  B  B20  1  0.272516  0.379977  0.832216  1
  B  B21  1  0.772516  0.879977  0.667784  1
  B  B22  1  0.439565  0.250000  0.685242  1
  B  B23  1  0.220129  0.250000  0.999147  1
  B  B24  1  0.939565  0.750000  0.814758  1
  B  B25  1  0.779871  0.750000  0.000853  1
  B  B26  1  0.474307  0.520837  0.259308  1
  B  B27  1  0.279871  0.250000  0.499147  1
  B  B28  1  0.727484  0.620023  0.167784  1
  B  B29  1  0.727484  0.879977  0.167784  1
  B  B30  1  0.525693  0.479163  0.740692  1
  B  B31  1  0.525693  0.020837  0.740692  1
  B  B32  1  0.025693  0.979163  0.759308  1
  B  B33  1  0.272516  0.120023  0.832216  1
  B  B34  1  0.227484  0.379977  0.332216  1
  B  B35  1  0.772516  0.620023  0.667784  1
  N  N36  1  0.212253  0.750000  0.550981  1
  N  N37  1  0.712253  0.250000  0.949019  1
  N  N38  1  0.287747  0.750000  0.050981  1
  N  N39  1  0.787747  0.250000  0.449019  1
  O  O40  1  0.384904  0.094281  0.273595  1
  O  O41  1  0.098126  0.483782  0.318716  1
  O  O42  1  0.884904  0.905719  0.226405  1
  O  O43  1  0.231870  0.858813  0.087068  1
  O  O44  1  0.901874  0.983782  0.681284  1
  O  O45  1  0.449546  0.868782  0.321380  1
  O  O46  1  0.401874  0.483782  0.818716  1
  O  O47  1  0.449546  0.631218  0.321380  1
  O  O48  1  0.231870  0.641187  0.087068  1
  O  O49  1  0.268130  0.858813  0.587068  1
  O  O50  1  0.768130  0.141187  0.912932  1
  O  O51  1  0.262645  0.368852  0.446022  1
  O  O52  1  0.903327  0.250000  0.519872  1
  O  O53  1  0.949546  0.368782  0.178620  1
  O  O54  1  0.949546  0.131218  0.178620  1
  O  O55  1  0.737355  0.631148  0.553978  1
  O  O56  1  0.550454  0.368782  0.678620  1
  O  O57  1  0.384904  0.405719  0.273595  1
  O  O58  1  0.762645  0.868852  0.053978  1
  O  O59  1  0.737355  0.868852  0.553978  1
  O  O60  1  0.762645  0.631148  0.053978  1
  O  O61  1  0.731870  0.358813  0.412932  1
  O  O62  1  0.884904  0.594281  0.226405  1
  O  O63  1  0.848940  0.750000  0.707066  1
  O  O64  1  0.811530  0.750000  0.896420  1
  O  O65  1  0.768130  0.358813  0.912932  1
  O  O66  1  0.901874  0.516218  0.681284  1
  O  O67  1  0.348940  0.250000  0.792934  1
  O  O68  1  0.050454  0.868782  0.821380  1
  O  O69  1  0.237355  0.368852  0.946022  1
  O  O70  1  0.596673  0.250000  0.019872  1
  O  O71  1  0.115096  0.405719  0.773595  1
  O  O72  1  0.098126  0.016218  0.318716  1
  O  O73  1  0.151060  0.250000  0.292934  1
  O  O74  1  0.615096  0.594281  0.726405  1
  O  O75  1  0.237355  0.131148  0.946022  1
  O  O76  1  0.401874  0.016218  0.818716  1
  O  O77  1  0.050454  0.631218  0.821380  1
  O  O78  1  0.115096  0.094281  0.773595  1
  O  O79  1  0.403327  0.750000  0.980128  1
  O  O80  1  0.688470  0.750000  0.396420  1
  O  O81  1  0.550454  0.131218  0.678620  1
  O  O82  1  0.262645  0.131148  0.446022  1
  O  O83  1  0.096673  0.750000  0.480128  1
  O  O84  1  0.651060  0.750000  0.207066  1
  O  O85  1  0.598126  0.983782  0.181284  1
  O  O86  1  0.311530  0.250000  0.603580  1
  O  O87  1  0.731870  0.141187  0.412932  1
  O  O88  1  0.268130  0.641187  0.587068  1
  O  O89  1  0.615096  0.905719  0.726405  1
  O  O90  1  0.598126  0.516218  0.181284  1
  O  O91  1  0.188470  0.250000  0.103580  1
