# generated using pymatgen
data_Na2MnGaF7
_symmetry_space_group_name_H-M   'P 1'
_cell_length_a   7.51852960
_cell_length_b   7.51852960
_cell_length_c   18.43424374
_cell_angle_alpha   90.00000000
_cell_angle_beta   90.00000000
_cell_angle_gamma   120.00000000
_symmetry_Int_Tables_number   1
_chemical_formula_structural   Na2MnGaF7
_chemical_formula_sum   'Na12 Mn6 Ga6 F42'
_cell_volume   902.44716385
_cell_formula_units_Z   6
loop_
 _symmetry_equiv_pos_site_id
 _symmetry_equiv_pos_as_xyz
  1  'x, y, z'
loop_
 _atom_site_type_symbol
 _atom_site_label
 _atom_site_symmetry_multiplicity
 _atom_site_fract_x
 _atom_site_fract_y
 _atom_site_fract_z
 _atom_site_occupancy
  Na  Na0  1  0.505661  0.886523  0.665456  1
  Na  Na1  1  0.113477  0.619138  0.998789  1
  Na  Na2  1  0.380862  0.494339  0.332122  1
  Na  Na3  1  0.619138  0.113477  0.001211  1
  Na  Na4  1  0.494339  0.380862  0.667878  1
  Na  Na5  1  0.886523  0.505661  0.334544  1
  Na  Na6  1  0.860223  0.000000  0.333333  1
  Na  Na7  1  0.000000  0.860223  0.666667  1
  Na  Na8  1  0.139777  0.139777  0.000000  1
  Na  Na9  1  0.844583  0.000000  0.833333  1
  Na  Na10  1  0.000000  0.844583  0.166667  1
  Na  Na11  1  0.155417  0.155417  0.500000  1
  Mn  Mn12  1  0.495564  0.836016  0.171207  1
  Mn  Mn13  1  0.163984  0.659549  0.504541  1
  Mn  Mn14  1  0.340451  0.504436  0.837874  1
  Mn  Mn15  1  0.659549  0.163984  0.495459  1
  Mn  Mn16  1  0.504436  0.340451  0.162126  1
  Mn  Mn17  1  0.836016  0.495564  0.828793  1
  Ga  Ga18  1  0.315124  0.000000  0.333333  1
  Ga  Ga19  1  0.000000  0.315124  0.666667  1
  Ga  Ga20  1  0.684876  0.684876  0.000000  1
  Ga  Ga21  1  0.334674  0.000000  0.833333  1
  Ga  Ga22  1  0.000000  0.334674  0.166667  1
  Ga  Ga23  1  0.665326  0.665326  0.500000  1
  F  F24  1  0.427016  0.047730  0.122359  1
  F  F25  1  0.952270  0.379286  0.455692  1
  F  F26  1  0.620714  0.572984  0.789025  1
  F  F27  1  0.379286  0.952270  0.544308  1
  F  F28  1  0.572984  0.620714  0.210975  1
  F  F29  1  0.047730  0.427016  0.877641  1
  F  F30  1  0.238982  0.187027  0.860163  1
  F  F31  1  0.812973  0.051955  0.193497  1
  F  F32  1  0.948045  0.761018  0.526830  1
  F  F33  1  0.051955  0.812973  0.806503  1
  F  F34  1  0.761018  0.948045  0.473170  1
  F  F35  1  0.187027  0.238982  0.139837  1
  F  F36  1  0.372151  0.074299  0.731362  1
  F  F37  1  0.925701  0.297852  0.064696  1
  F  F38  1  0.702148  0.627849  0.398029  1
  F  F39  1  0.297852  0.925701  0.935304  1
  F  F40  1  0.627849  0.702148  0.601971  1
  F  F41  1  0.074299  0.372151  0.268638  1
  F  F42  1  0.428646  0.811913  0.808843  1
  F  F43  1  0.188087  0.616734  0.142176  1
  F  F44  1  0.383266  0.571354  0.475510  1
  F  F45  1  0.616734  0.188087  0.857824  1
  F  F46  1  0.571354  0.383266  0.524490  1
  F  F47  1  0.811913  0.428646  0.191157  1
  F  F48  1  0.770084  0.198726  0.603001  1
  F  F49  1  0.801274  0.571358  0.936334  1
  F  F50  1  0.428642  0.229916  0.269667  1
  F  F51  1  0.571358  0.801274  0.063666  1
  F  F52  1  0.229916  0.428642  0.730333  1
  F  F53  1  0.198726  0.770084  0.396999  1
  F  F54  1  0.799997  0.942460  0.948921  1
  F  F55  1  0.057540  0.857537  0.282254  1
  F  F56  1  0.142463  0.200003  0.615587  1
  F  F57  1  0.857537  0.057540  0.717746  1
  F  F58  1  0.200003  0.142463  0.384413  1
  F  F59  1  0.942460  0.799997  0.051079  1
  F  F60  1  0.565607  0.425746  0.051225  1
  F  F61  1  0.574254  0.139861  0.384558  1
  F  F62  1  0.860139  0.434393  0.717892  1
  F  F63  1  0.139861  0.574254  0.615442  1
  F  F64  1  0.434393  0.860139  0.282108  1
  F  F65  1  0.425746  0.565607  0.948775  1
