# generated using pymatgen
data_BaNa2Ti2(Si2O7)2
_symmetry_space_group_name_H-M   'P 1'
_cell_length_a   9.69841028
_cell_length_b   9.69841028
_cell_length_c   9.69841028
_cell_angle_alpha   129.87325905
_cell_angle_beta   114.19154674
_cell_angle_gamma   87.08353319
_symmetry_Int_Tables_number   1
_chemical_formula_structural   BaNa2Ti2(Si2O7)2
_chemical_formula_sum   'Ba2 Na4 Ti4 Si8 O28'
_cell_volume   608.67985252
_cell_formula_units_Z   2
loop_
 _symmetry_equiv_pos_site_id
 _symmetry_equiv_pos_as_xyz
  1  'x, y, z'
loop_
 _atom_site_type_symbol
 _atom_site_label
 _atom_site_symmetry_multiplicity
 _atom_site_fract_x
 _atom_site_fract_y
 _atom_site_fract_z
 _atom_site_occupancy
  Ba  Ba0  1  0.001389  0.274466  0.773076  1
  Ba  Ba1  1  0.998611  0.771687  0.273076  1
  Na  Na2  1  0.500000  0.521650  0.021650  1
  Na  Na3  1  0.593231  0.374310  0.281079  1
  Na  Na4  1  0.406769  0.687849  0.781079  1
  Na  Na5  1  0.000000  0.521650  0.521650  1
  Ti  Ti6  1  0.217682  0.263560  0.545878  1
  Ti  Ti7  1  0.782318  0.328197  0.045878  1
  Ti  Ti8  1  0.780861  0.824684  0.543823  1
  Ti  Ti9  1  0.219139  0.762962  0.043823  1
  Si  Si10  1  0.174039  0.357796  0.241678  1
  Si  Si11  1  0.384212  0.672989  0.346791  1
  Si  Si12  1  0.615788  0.962578  0.288776  1
  Si  Si13  1  0.616118  0.357796  0.683756  1
  Si  Si14  1  0.173802  0.962578  0.846791  1
  Si  Si15  1  0.825961  0.067638  0.183756  1
  Si  Si16  1  0.826198  0.672989  0.788776  1
  Si  Si17  1  0.383882  0.067638  0.741678  1
  O  O18  1  0.448882  0.365752  0.682583  1
  O  O19  1  0.216413  0.969446  0.253034  1
  O  O20  1  0.183169  0.365752  0.416871  1
  O  O21  1  0.816831  0.233702  0.182583  1
  O  O22  1  0.446142  0.799983  0.115114  1
  O  O23  1  0.553858  0.668972  0.353841  1
  O  O24  1  0.339149  0.513887  0.352137  1
  O  O25  1  0.796617  0.552099  0.255482  1
  O  O26  1  0.393226  0.872505  0.551234  1
  O  O27  1  0.757295  0.897678  0.378348  1
  O  O28  1  0.178729  0.158008  0.051234  1
  O  O29  1  0.242705  0.621053  0.140383  1
  O  O30  1  0.980670  0.621053  0.878348  1
  O  O31  1  0.184870  0.799983  0.853841  1
  O  O32  1  0.979767  0.127878  0.387439  1
  O  O33  1  0.240438  0.127878  0.648111  1
  O  O34  1  0.338250  0.012988  0.852137  1
  O  O35  1  0.606774  0.158008  0.479279  1
  O  O36  1  0.821271  0.872505  0.979279  1
  O  O37  1  0.759562  0.407673  0.887439  1
  O  O38  1  0.551118  0.233702  0.916871  1
  O  O39  1  0.783587  0.036621  0.753034  1
  O  O40  1  0.020233  0.407673  0.148111  1
  O  O41  1  0.019330  0.897678  0.640383  1
  O  O42  1  0.815130  0.668972  0.615114  1
  O  O43  1  0.660851  0.012988  0.174738  1
  O  O44  1  0.661750  0.513887  0.674738  1
  O  O45  1  0.203383  0.458866  0.755482  1
