# generated using pymatgen
data_Ba3SnP3
_symmetry_space_group_name_H-M   'P 1'
_cell_length_a   8.70391315
_cell_length_b   12.86928009
_cell_length_c   8.92463193
_cell_angle_alpha   90.00000000
_cell_angle_beta   114.26993277
_cell_angle_gamma   90.00000000
_symmetry_Int_Tables_number   1
_chemical_formula_structural   Ba3SnP3
_chemical_formula_sum   'Ba12 Sn4 P12'
_cell_volume   911.32342275
_cell_formula_units_Z   4
loop_
 _symmetry_equiv_pos_site_id
 _symmetry_equiv_pos_as_xyz
  1  'x, y, z'
loop_
 _atom_site_type_symbol
 _atom_site_label
 _atom_site_symmetry_multiplicity
 _atom_site_fract_x
 _atom_site_fract_y
 _atom_site_fract_z
 _atom_site_occupancy
  Ba  Ba0  1  0.798940  0.930629  0.269482  1
  Ba  Ba1  1  0.701060  0.430629  0.730518  1
  Ba  Ba2  1  0.201060  0.069371  0.730518  1
  Ba  Ba3  1  0.298940  0.569371  0.269482  1
  Ba  Ba4  1  0.322003  0.793712  0.942382  1
  Ba  Ba5  1  0.177997  0.293712  0.057618  1
  Ba  Ba6  1  0.677997  0.206288  0.057618  1
  Ba  Ba7  1  0.822003  0.706288  0.942382  1
  Ba  Ba8  1  0.991950  0.334420  0.498287  1
  Ba  Ba9  1  0.508050  0.834420  0.501713  1
  Ba  Ba10  1  0.008050  0.665580  0.501713  1
  Ba  Ba11  1  0.491950  0.165580  0.498287  1
  Sn  Sn12  1  0.861399  0.006250  0.834362  1
  Sn  Sn13  1  0.638601  0.506250  0.165638  1
  Sn  Sn14  1  0.138601  0.993750  0.165638  1
  Sn  Sn15  1  0.361399  0.493750  0.834362  1
  P  P16  1  0.124572  0.802980  0.244223  1
  P  P17  1  0.375428  0.302980  0.755777  1
  P  P18  1  0.875428  0.197020  0.755777  1
  P  P19  1  0.624572  0.697020  0.244223  1
  P  P20  1  0.419385  0.030857  0.158459  1
  P  P21  1  0.080615  0.530857  0.841541  1
  P  P22  1  0.580615  0.969143  0.841541  1
  P  P23  1  0.919385  0.469143  0.158459  1
  P  P24  1  0.433481  0.632288  0.667108  1
  P  P25  1  0.066519  0.132288  0.332892  1
  P  P26  1  0.566519  0.367712  0.332892  1
  P  P27  1  0.933481  0.867712  0.667108  1
