# generated using pymatgen
data_Al2SiO5
_symmetry_space_group_name_H-M   'P 1'
_cell_length_a   5.63563567
_cell_length_b   7.20385300
_cell_length_c   7.93487098
_cell_angle_alpha   106.00960194
_cell_angle_beta   89.89984334
_cell_angle_gamma   101.13216759
_symmetry_Int_Tables_number   1
_chemical_formula_structural   Al2SiO5
_chemical_formula_sum   'Al8 Si4 O20'
_cell_volume   303.36854625
_cell_formula_units_Z   4
loop_
 _symmetry_equiv_pos_site_id
 _symmetry_equiv_pos_as_xyz
  1  'x, y, z'
loop_
 _atom_site_type_symbol
 _atom_site_label
 _atom_site_symmetry_multiplicity
 _atom_site_fract_x
 _atom_site_fract_y
 _atom_site_fract_z
 _atom_site_occupancy
  Al  Al0  1  0.834991  0.888009  0.082623  1
  Al  Al1  1  0.165009  0.111991  0.917377  1
  Al  Al2  1  0.359710  0.900160  0.613689  1
  Al  Al3  1  0.640290  0.099840  0.386311  1
  Al  Al4  1  0.049656  0.702869  0.301246  1
  Al  Al5  1  0.950344  0.297131  0.698754  1
  Al  Al6  1  0.541958  0.675003  0.295981  1
  Al  Al7  1  0.458042  0.324997  0.704019  1
  Si  Si8  1  0.810977  0.709170  0.668500  1
  Si  Si9  1  0.189023  0.290830  0.331500  1
  Si  Si10  1  0.293271  0.703997  0.935091  1
  Si  Si11  1  0.706729  0.296003  0.064909  1
  O  O12  1  0.244037  0.498019  0.769947  1
  O  O13  1  0.755963  0.501981  0.230053  1
  O  O14  1  0.755342  0.498679  0.723634  1
  O  O15  1  0.244658  0.501321  0.276366  1
  O  O16  1  0.533777  0.709550  0.053184  1
  O  O17  1  0.466223  0.290450  0.946816  1
  O  O18  1  0.572112  0.718691  0.555392  1
  O  O19  1  0.427888  0.281309  0.444608  1
  O  O20  1  0.361057  0.877673  0.370017  1
  O  O21  1  0.638943  0.122327  0.629983  1
  O  O22  1  0.332312  0.891053  0.847083  1
  O  O23  1  0.667688  0.108947  0.152917  1
  O  O24  1  0.128404  0.110046  0.146458  1
  O  O25  1  0.871596  0.889954  0.853542  1
  O  O26  1  0.181610  0.123202  0.686031  1
  O  O27  1  0.818390  0.876798  0.313969  1
  O  O28  1  0.955240  0.273932  0.454772  1
  O  O29  1  0.044760  0.726068  0.545228  1
  O  O30  1  0.934496  0.282383  0.934680  1
  O  O31  1  0.065504  0.717617  0.065320  1
