# generated using pymatgen
data_ZrBrN
_symmetry_space_group_name_H-M   'P 1'
_cell_length_a   10.41842490
_cell_length_b   10.41842490
_cell_length_c   10.41842490
_cell_angle_alpha   20.39579193
_cell_angle_beta   20.39579193
_cell_angle_gamma   20.39579193
_symmetry_Int_Tables_number   1
_chemical_formula_structural   ZrBrN
_chemical_formula_sum   'Zr2 Br2 N2'
_cell_volume   120.20181739
_cell_formula_units_Z   2
loop_
 _symmetry_equiv_pos_site_id
 _symmetry_equiv_pos_as_xyz
  1  'x, y, z'
loop_
 _atom_site_type_symbol
 _atom_site_label
 _atom_site_symmetry_multiplicity
 _atom_site_fract_x
 _atom_site_fract_y
 _atom_site_fract_z
 _atom_site_occupancy
  Zr  Zr0  1  0.875928  0.875928  0.875928  1
  Zr  Zr1  1  0.124072  0.124072  0.124072  1
  Br  Br2  1  0.607684  0.607684  0.607684  1
  Br  Br3  1  0.392316  0.392316  0.392316  1
  N  N4  1  0.804865  0.804865  0.804865  1
  N  N5  1  0.195135  0.195135  0.195135  1
