# generated using pymatgen
data_RbV2I3O13
_symmetry_space_group_name_H-M   'P 1'
_cell_length_a   9.69127582
_cell_length_b   9.69127582
_cell_length_c   9.69127582
_cell_angle_alpha   130.14332924
_cell_angle_beta   113.78080637
_cell_angle_gamma   87.25214825
_symmetry_Int_Tables_number   1
_chemical_formula_structural   RbV2I3O13
_chemical_formula_sum   'Rb2 V4 I6 O26'
_cell_volume   606.76838857
_cell_formula_units_Z   2
loop_
 _symmetry_equiv_pos_site_id
 _symmetry_equiv_pos_as_xyz
  1  'x, y, z'
loop_
 _atom_site_type_symbol
 _atom_site_label
 _atom_site_symmetry_multiplicity
 _atom_site_fract_x
 _atom_site_fract_y
 _atom_site_fract_z
 _atom_site_occupancy
  Rb  Rb0  1  0.140843  0.055949  0.696791  1
  Rb  Rb1  1  0.859157  0.555949  0.915106  1
  V  V2  1  0.888704  0.157683  0.303594  1
  V  V3  1  0.354089  0.657683  0.268979  1
  V  V4  1  0.111296  0.414890  0.268979  1
  V  V5  1  0.645911  0.914890  0.303594  1
  I  I6  1  0.234664  0.046469  0.299526  1
  I  I7  1  0.246943  0.546469  0.811805  1
  I  I8  1  0.527717  0.281302  0.309019  1
  I  I9  1  0.472283  0.781302  0.753586  1
  I  I10  1  0.753057  0.564862  0.299526  1
  I  I11  1  0.765336  0.064862  0.811805  1
  O  O12  1  0.446125  0.711675  0.959807  1
  O  O13  1  0.734956  0.956691  0.191648  1
  O  O14  1  0.590278  0.487456  0.577734  1
  O  O15  1  0.472884  0.803992  0.574044  1
  O  O16  1  0.283009  0.484352  0.971080  1
  O  O17  1  0.729947  0.303992  0.331107  1
  O  O18  1  0.694664  0.269157  0.902192  1
  O  O19  1  0.500000  0.829152  0.329152  1
  O  O20  1  0.986728  0.188071  0.971080  1
  O  O21  1  0.553875  0.513682  0.265550  1
  O  O22  1  0.265044  0.456691  0.221735  1
  O  O23  1  0.212467  0.760707  0.275659  1
  O  O24  1  0.305336  0.207528  0.574493  1
  O  O25  1  0.787533  0.063192  0.548241  1
  O  O26  1  0.000000  0.329152  0.329152  1
  O  O27  1  0.014951  0.563192  0.275659  1
  O  O28  1  0.251868  0.211675  0.265550  1
  O  O29  1  0.013272  0.984352  0.201343  1
  O  O30  1  0.866965  0.769157  0.574493  1
  O  O31  1  0.133035  0.707528  0.902192  1
  O  O32  1  0.748132  0.013682  0.959807  1
  O  O33  1  0.409722  0.987456  0.897179  1
  O  O34  1  0.527116  0.101160  0.331107  1
  O  O35  1  0.985049  0.260707  0.548241  1
  O  O36  1  0.270053  0.601160  0.574044  1
  O  O37  1  0.716991  0.688071  0.201343  1
