# generated using pymatgen
data_SmSeClO3
_symmetry_space_group_name_H-M   'P 1'
_cell_length_a   7.18494473
_cell_length_b   7.40724928
_cell_length_c   9.05496722
_cell_angle_alpha   90.00000000
_cell_angle_beta   90.00000000
_cell_angle_gamma   90.00000000
_symmetry_Int_Tables_number   1
_chemical_formula_structural   SmSeClO3
_chemical_formula_sum   'Sm4 Se4 Cl4 O12'
_cell_volume   481.91148275
_cell_formula_units_Z   4
loop_
 _symmetry_equiv_pos_site_id
 _symmetry_equiv_pos_as_xyz
  1  'x, y, z'
loop_
 _atom_site_type_symbol
 _atom_site_label
 _atom_site_symmetry_multiplicity
 _atom_site_fract_x
 _atom_site_fract_y
 _atom_site_fract_z
 _atom_site_occupancy
  Sm  Sm0  1  0.250000  0.609736  0.539153  1
  Sm  Sm1  1  0.750000  0.890264  0.039153  1
  Sm  Sm2  1  0.750000  0.390264  0.460847  1
  Sm  Sm3  1  0.250000  0.109736  0.960847  1
  Se  Se4  1  0.750000  0.288167  0.868729  1
  Se  Se5  1  0.250000  0.211833  0.368729  1
  Se  Se6  1  0.750000  0.788167  0.631271  1
  Se  Se7  1  0.250000  0.711833  0.131271  1
  Cl  Cl8  1  0.750000  0.050795  0.320156  1
  Cl  Cl9  1  0.250000  0.449205  0.820156  1
  Cl  Cl10  1  0.250000  0.949205  0.679844  1
  Cl  Cl11  1  0.750000  0.550795  0.179844  1
  O  O12  1  0.425105  0.356943  0.432775  1
  O  O13  1  0.574895  0.643057  0.567225  1
  O  O14  1  0.250000  0.252944  0.183916  1
  O  O15  1  0.750000  0.747056  0.816084  1
  O  O16  1  0.574895  0.143057  0.932775  1
  O  O17  1  0.925105  0.643057  0.567225  1
  O  O18  1  0.074895  0.856943  0.067225  1
  O  O19  1  0.750000  0.247056  0.683916  1
  O  O20  1  0.925105  0.143057  0.932775  1
  O  O21  1  0.074895  0.356943  0.432775  1
  O  O22  1  0.425105  0.856943  0.067225  1
  O  O23  1  0.250000  0.752944  0.316084  1
