# generated using pymatgen
data_Hg3Se3O10
_symmetry_space_group_name_H-M   'P 1'
_cell_length_a   8.66996570
_cell_length_b   5.44745742
_cell_length_c   11.39251798
_cell_angle_alpha   90.00000000
_cell_angle_beta   108.16497858
_cell_angle_gamma   90.00000000
_symmetry_Int_Tables_number   1
_chemical_formula_structural   Hg3Se3O10
_chemical_formula_sum   'Hg6 Se6 O20'
_cell_volume   511.24486973
_cell_formula_units_Z   2
loop_
 _symmetry_equiv_pos_site_id
 _symmetry_equiv_pos_as_xyz
  1  'x, y, z'
loop_
 _atom_site_type_symbol
 _atom_site_label
 _atom_site_symmetry_multiplicity
 _atom_site_fract_x
 _atom_site_fract_y
 _atom_site_fract_z
 _atom_site_occupancy
  Hg  Hg0  1  0.003566  0.753486  0.128143  1
  Hg  Hg1  1  0.996434  0.253486  0.871857  1
  Hg  Hg2  1  0.007292  0.742834  0.627751  1
  Hg  Hg3  1  0.992708  0.242834  0.372249  1
  Hg  Hg4  1  0.379271  0.257573  0.207100  1
  Hg  Hg5  1  0.620729  0.757573  0.792900  1
  Se  Se6  1  0.257437  0.775168  0.960762  1
  Se  Se7  1  0.742563  0.275168  0.039238  1
  Se  Se8  1  0.260707  0.712797  0.420891  1
  Se  Se9  1  0.739293  0.212797  0.579109  1
  Se  Se10  1  0.645952  0.749756  0.284780  1
  Se  Se11  1  0.354048  0.249756  0.715220  1
  O  O12  1  0.102668  0.880496  0.832225  1
  O  O13  1  0.897332  0.380496  0.167775  1
  O  O14  1  0.112942  0.594365  0.481832  1
  O  O15  1  0.887058  0.094365  0.518168  1
  O  O16  1  0.149277  0.933771  0.315574  1
  O  O17  1  0.850723  0.433771  0.684426  1
  O  O18  1  0.159908  0.536977  0.013472  1
  O  O19  1  0.840092  0.036977  0.986528  1
  O  O20  1  0.224813  0.998602  0.060466  1
  O  O21  1  0.775187  0.498602  0.939534  1
  O  O22  1  0.242236  0.472435  0.319087  1
  O  O23  1  0.757764  0.972435  0.680913  1
  O  O24  1  0.522105  0.937494  0.334186  1
  O  O25  1  0.477895  0.437494  0.665814  1
  O  O26  1  0.528365  0.575599  0.164724  1
  O  O27  1  0.471635  0.075599  0.835276  1
  O  O28  1  0.744174  0.565531  0.399737  1
  O  O29  1  0.255826  0.065531  0.600263  1
  O  O30  1  0.766390  0.919654  0.227503  1
  O  O31  1  0.233610  0.419654  0.772497  1
