# generated using pymatgen
data_KY(WO4)2
_symmetry_space_group_name_H-M   'P 1'
_cell_length_a   7.60339318
_cell_length_b   7.60339318
_cell_length_c   7.49059290
_cell_angle_alpha   62.36365554
_cell_angle_beta   117.63634446
_cell_angle_gamma   91.68741812
_symmetry_Int_Tables_number   1
_chemical_formula_structural   KY(WO4)2
_chemical_formula_sum   'K2 Y2 W4 O16'
_cell_volume   330.21515130
_cell_formula_units_Z   2
loop_
 _symmetry_equiv_pos_site_id
 _symmetry_equiv_pos_as_xyz
  1  'x, y, z'
loop_
 _atom_site_type_symbol
 _atom_site_label
 _atom_site_symmetry_multiplicity
 _atom_site_fract_x
 _atom_site_fract_y
 _atom_site_fract_z
 _atom_site_occupancy
  K  K0  1  0.705589  0.705589  0.250000  1
  K  K1  1  0.294411  0.294411  0.750000  1
  Y  Y2  1  0.276937  0.276937  0.250000  1
  Y  Y3  1  0.723063  0.723063  0.750000  1
  W  W4  1  0.191894  0.803950  0.723712  1
  W  W5  1  0.803950  0.191894  0.776288  1
  W  W6  1  0.808106  0.196050  0.276288  1
  W  W7  1  0.196050  0.808106  0.223712  1
  O  O8  1  0.120194  0.744736  0.446563  1
  O  O9  1  0.744736  0.120194  0.053437  1
  O  O10  1  0.879806  0.255264  0.553437  1
  O  O11  1  0.255264  0.879806  0.946563  1
  O  O12  1  0.559929  0.131949  0.623777  1
  O  O13  1  0.131949  0.559929  0.876223  1
  O  O14  1  0.440071  0.868051  0.376223  1
  O  O15  1  0.868051  0.440071  0.123777  1
  O  O16  1  0.541454  0.285918  0.187757  1
  O  O17  1  0.285918  0.541454  0.312243  1
  O  O18  1  0.458546  0.714082  0.812243  1
  O  O19  1  0.714082  0.458546  0.687757  1
  O  O20  1  0.129101  0.094398  0.467907  1
  O  O21  1  0.870899  0.905602  0.532093  1
  O  O22  1  0.094398  0.129101  0.032093  1
  O  O23  1  0.905602  0.870899  0.967907  1
