# generated using pymatgen
data_Al2Ge(O2F)2
_symmetry_space_group_name_H-M   'P 1'
_cell_length_a   4.81793007
_cell_length_b   8.63171352
_cell_length_c   9.08740387
_cell_angle_alpha   90.00000000
_cell_angle_beta   90.00000000
_cell_angle_gamma   90.00000000
_symmetry_Int_Tables_number   1
_chemical_formula_structural   Al2Ge(O2F)2
_chemical_formula_sum   'Al8 Ge4 O16 F8'
_cell_volume   377.91779317
_cell_formula_units_Z   4
loop_
 _symmetry_equiv_pos_site_id
 _symmetry_equiv_pos_as_xyz
  1  'x, y, z'
loop_
 _atom_site_type_symbol
 _atom_site_label
 _atom_site_symmetry_multiplicity
 _atom_site_fract_x
 _atom_site_fract_y
 _atom_site_fract_z
 _atom_site_occupancy
  Al  Al0  1  0.593638  0.082194  0.868970  1
  Al  Al1  1  0.093638  0.917806  0.631030  1
  Al  Al2  1  0.406362  0.582194  0.131030  1
  Al  Al3  1  0.406362  0.917806  0.131030  1
  Al  Al4  1  0.906362  0.417806  0.368970  1
  Al  Al5  1  0.093638  0.582194  0.631030  1
  Al  Al6  1  0.906362  0.082194  0.368970  1
  Al  Al7  1  0.593638  0.417806  0.868970  1
  Ge  Ge8  1  0.399329  0.250000  0.559989  1
  Ge  Ge9  1  0.600671  0.750000  0.440011  1
  Ge  Ge10  1  0.899329  0.750000  0.940011  1
  Ge  Ge11  1  0.100671  0.250000  0.059989  1
  O  O12  1  0.204113  0.084059  0.509124  1
  O  O13  1  0.458718  0.250000  0.753771  1
  O  O14  1  0.795887  0.915941  0.490876  1
  O  O15  1  0.780343  0.250000  0.964564  1
  O  O16  1  0.541282  0.750000  0.246229  1
  O  O17  1  0.204113  0.415941  0.509124  1
  O  O18  1  0.295887  0.084059  0.009124  1
  O  O19  1  0.958718  0.750000  0.746229  1
  O  O20  1  0.295887  0.415941  0.009124  1
  O  O21  1  0.219657  0.750000  0.035436  1
  O  O22  1  0.704113  0.915941  0.990876  1
  O  O23  1  0.280343  0.750000  0.535436  1
  O  O24  1  0.719657  0.250000  0.464564  1
  O  O25  1  0.704113  0.584059  0.990876  1
  O  O26  1  0.795887  0.584059  0.490876  1
  O  O27  1  0.041282  0.250000  0.253771  1
  F  F28  1  0.104316  0.947464  0.250823  1
  F  F29  1  0.104316  0.552536  0.250823  1
  F  F30  1  0.395684  0.552536  0.750823  1
  F  F31  1  0.604316  0.052536  0.249177  1
  F  F32  1  0.895684  0.052536  0.749177  1
  F  F33  1  0.395684  0.947464  0.750823  1
  F  F34  1  0.604316  0.447464  0.249177  1
  F  F35  1  0.895684  0.447464  0.749177  1
