# generated using pymatgen
data_MnCdF5
_symmetry_space_group_name_H-M   'P 1'
_cell_length_a   5.57315530
_cell_length_b   5.57315530
_cell_length_c   8.01596238
_cell_angle_alpha   68.58179384
_cell_angle_beta   111.41820616
_cell_angle_gamma   109.70025286
_symmetry_Int_Tables_number   1
_chemical_formula_structural   MnCdF5
_chemical_formula_sum   'Mn2 Cd2 F10'
_cell_volume   209.72715813
_cell_formula_units_Z   2
loop_
 _symmetry_equiv_pos_site_id
 _symmetry_equiv_pos_as_xyz
  1  'x, y, z'
loop_
 _atom_site_type_symbol
 _atom_site_label
 _atom_site_symmetry_multiplicity
 _atom_site_fract_x
 _atom_site_fract_y
 _atom_site_fract_z
 _atom_site_occupancy
  Mn  Mn0  1  0.000000  0.000000  0.500000  1
  Mn  Mn1  1  0.000000  0.000000  0.000000  1
  Cd  Cd2  1  0.456844  0.456844  0.750000  1
  Cd  Cd3  1  0.543156  0.543156  0.250000  1
  F  F4  1  0.101176  0.101176  0.750000  1
  F  F5  1  0.898824  0.898824  0.250000  1
  F  F6  1  0.207860  0.751573  0.620415  1
  F  F7  1  0.751573  0.207860  0.879585  1
  F  F8  1  0.716567  0.688726  0.966580  1
  F  F9  1  0.688726  0.716567  0.533420  1
  F  F10  1  0.283433  0.311274  0.033420  1
  F  F11  1  0.311274  0.283433  0.466580  1
  F  F12  1  0.248427  0.792140  0.120415  1
  F  F13  1  0.792140  0.248427  0.379585  1
