# generated using pymatgen
data_Cr(PO3)3
_symmetry_space_group_name_H-M   'P 1'
_cell_length_a   6.32518083
_cell_length_b   15.48992018
_cell_length_c   8.44846627
_cell_angle_alpha   90.00000000
_cell_angle_beta   105.96998083
_cell_angle_gamma   90.00000000
_symmetry_Int_Tables_number   1
_chemical_formula_structural   Cr(PO3)3
_chemical_formula_sum   'Cr4 P12 O36'
_cell_volume   795.80528506
_cell_formula_units_Z   4
loop_
 _symmetry_equiv_pos_site_id
 _symmetry_equiv_pos_as_xyz
  1  'x, y, z'
loop_
 _atom_site_type_symbol
 _atom_site_label
 _atom_site_symmetry_multiplicity
 _atom_site_fract_x
 _atom_site_fract_y
 _atom_site_fract_z
 _atom_site_occupancy
  Cr  Cr0  1  0.118482  0.636814  0.875359  1
  Cr  Cr1  1  0.118482  0.863186  0.375359  1
  Cr  Cr2  1  0.881518  0.136814  0.624641  1
  Cr  Cr3  1  0.881518  0.363186  0.124641  1
  P  P4  1  0.150771  0.955875  0.721825  1
  P  P5  1  0.412419  0.387421  0.209339  1
  P  P6  1  0.587581  0.612579  0.790661  1
  P  P7  1  0.792252  0.160857  0.984152  1
  P  P8  1  0.207748  0.660857  0.515848  1
  P  P9  1  0.412419  0.112579  0.709339  1
  P  P10  1  0.792252  0.339143  0.484152  1
  P  P11  1  0.587581  0.887421  0.290661  1
  P  P12  1  0.849229  0.455875  0.778175  1
  P  P13  1  0.150771  0.544125  0.221825  1
  P  P14  1  0.849229  0.044125  0.278175  1
  P  P15  1  0.207748  0.839143  0.015848  1
  O  O16  1  0.564246  0.387816  0.100847  1
  O  O17  1  0.836331  0.074721  0.095006  1
  O  O18  1  0.163669  0.925279  0.904994  1
  O  O19  1  0.826090  0.379037  0.880337  1
  O  O20  1  0.465425  0.651689  0.612295  1
  O  O21  1  0.163669  0.574721  0.404994  1
  O  O22  1  0.801201  0.840452  0.354209  1
  O  O23  1  0.198799  0.340452  0.145791  1
  O  O24  1  0.465425  0.848311  0.112295  1
  O  O25  1  0.932460  0.346801  0.367533  1
  O  O26  1  0.947950  0.010887  0.662917  1
  O  O27  1  0.173910  0.879037  0.619663  1
  O  O28  1  0.815720  0.262662  0.594666  1
  O  O29  1  0.370094  0.014088  0.755183  1
  O  O30  1  0.052050  0.989113  0.337083  1
  O  O31  1  0.801201  0.659548  0.854209  1
  O  O32  1  0.435754  0.612184  0.899153  1
  O  O33  1  0.198799  0.159548  0.645791  1
  O  O34  1  0.629906  0.514088  0.744817  1
  O  O35  1  0.067540  0.846801  0.132467  1
  O  O36  1  0.184280  0.762662  0.905334  1
  O  O37  1  0.184280  0.737338  0.405334  1
  O  O38  1  0.564246  0.112184  0.600847  1
  O  O39  1  0.947950  0.489113  0.162917  1
  O  O40  1  0.052050  0.510887  0.837083  1
  O  O41  1  0.815720  0.237338  0.094666  1
  O  O42  1  0.534575  0.151689  0.887705  1
  O  O43  1  0.826090  0.120963  0.380337  1
  O  O44  1  0.836331  0.425279  0.595006  1
  O  O45  1  0.629906  0.985912  0.244817  1
  O  O46  1  0.534575  0.348311  0.387705  1
  O  O47  1  0.932460  0.153199  0.867533  1
  O  O48  1  0.173910  0.620963  0.119663  1
  O  O49  1  0.370094  0.485912  0.255183  1
  O  O50  1  0.435754  0.887816  0.399153  1
  O  O51  1  0.067540  0.653199  0.632467  1
