# generated using pymatgen
data_Te7As5I
_symmetry_space_group_name_H-M   'P 1'
_cell_length_a   7.72513586
_cell_length_b   7.72513586
_cell_length_c   14.57231654
_cell_angle_alpha   70.73968096
_cell_angle_beta   109.26031904
_cell_angle_gamma   149.74312587
_symmetry_Int_Tables_number   1
_chemical_formula_structural   Te7As5I
_chemical_formula_sum   'Te7 As5 I1'
_cell_volume   411.81773475
_cell_formula_units_Z   1
loop_
 _symmetry_equiv_pos_site_id
 _symmetry_equiv_pos_as_xyz
  1  'x, y, z'
loop_
 _atom_site_type_symbol
 _atom_site_label
 _atom_site_symmetry_multiplicity
 _atom_site_fract_x
 _atom_site_fract_y
 _atom_site_fract_z
 _atom_site_occupancy
  Te  Te0  1  0.614161  0.385839  0.677925  1
  Te  Te1  1  0.924676  0.075324  0.446988  1
  Te  Te2  1  0.231289  0.768711  0.211322  1
  Te  Te3  1  0.959648  0.040352  0.172717  1
  Te  Te4  1  0.645850  0.354150  0.405040  1
  Te  Te5  1  0.334928  0.665072  0.626503  1
  Te  Te6  1  0.035199  0.964801  0.892091  1
  As  As7  1  0.496921  0.503079  0.999167  1
  As  As8  1  0.806104  0.193896  0.740304  1
  As  As9  1  0.122605  0.877395  0.536338  1
  As  As10  1  0.451098  0.548902  0.321862  1
  As  As11  1  0.769040  0.230960  0.103428  1
  I  I12  1  0.303082  0.696918  0.924014  1
