# generated using pymatgen
data_Cs3TaO8
_symmetry_space_group_name_H-M   'P 1'
_cell_length_a   6.81624727
_cell_length_b   6.81624727
_cell_length_c   6.81624727
_cell_angle_alpha   112.82968665
_cell_angle_beta   112.82968665
_cell_angle_gamma   102.94488353
_symmetry_Int_Tables_number   1
_chemical_formula_structural   Cs3TaO8
_chemical_formula_sum   'Cs3 Ta1 O8'
_cell_volume   241.45394960
_cell_formula_units_Z   1
loop_
 _symmetry_equiv_pos_site_id
 _symmetry_equiv_pos_as_xyz
  1  'x, y, z'
loop_
 _atom_site_type_symbol
 _atom_site_label
 _atom_site_symmetry_multiplicity
 _atom_site_fract_x
 _atom_site_fract_y
 _atom_site_fract_z
 _atom_site_occupancy
  Cs  Cs0  1  0.500000  0.500000  0.000000  1
  Cs  Cs1  1  0.750000  0.250000  0.500000  1
  Cs  Cs2  1  0.250000  0.750000  0.500000  1
  Ta  Ta3  1  0.000000  0.000000  0.000000  1
  O  O4  1  0.048522  0.304416  0.000000  1
  O  O5  1  0.175407  0.175407  0.389333  1
  O  O6  1  0.951478  0.951478  0.255895  1
  O  O7  1  0.304416  0.048522  1.000000  1
  O  O8  1  0.695584  0.695584  0.744105  1
  O  O9  1  0.786074  0.786074  0.610667  1
  O  O10  1  0.213926  0.824593  0.000000  1
  O  O11  1  0.824593  0.213926  0.000000  1
