# generated using pymatgen
data_LiMoP2O7
_symmetry_space_group_name_H-M   'P 1'
_cell_length_a   6.56170582
_cell_length_b   6.58330453
_cell_length_c   6.96661213
_cell_angle_alpha   84.03825485
_cell_angle_beta   67.02945692
_cell_angle_gamma   82.22471253
_symmetry_Int_Tables_number   1
_chemical_formula_structural   LiMoP2O7
_chemical_formula_sum   'Li2 Mo2 P4 O14'
_cell_volume   274.10081317
_cell_formula_units_Z   2
loop_
 _symmetry_equiv_pos_site_id
 _symmetry_equiv_pos_as_xyz
  1  'x, y, z'
loop_
 _atom_site_type_symbol
 _atom_site_label
 _atom_site_symmetry_multiplicity
 _atom_site_fract_x
 _atom_site_fract_y
 _atom_site_fract_z
 _atom_site_occupancy
  Li  Li0  1  0.699009  0.010825  0.829673  1
  Li  Li1  1  0.300991  0.989175  0.170327  1
  Mo  Mo2  1  0.905400  0.348817  0.223694  1
  Mo  Mo3  1  0.094600  0.651183  0.776306  1
  P  P4  1  0.780742  0.864195  0.236045  1
  P  P5  1  0.650108  0.611505  0.648734  1
  P  P6  1  0.219258  0.135805  0.763955  1
  P  P7  1  0.349892  0.388495  0.351266  1
  O  O8  1  0.223712  0.290782  0.246356  1
  O  O9  1  0.622585  0.952723  0.133448  1
  O  O10  1  0.927440  0.016647  0.260076  1
  O  O11  1  0.377415  0.047277  0.866552  1
  O  O12  1  0.368617  0.221987  0.535559  1
  O  O13  1  0.072560  0.983353  0.739924  1
  O  O14  1  0.058887  0.325788  0.876810  1
  O  O15  1  0.588981  0.406355  0.203661  1
  O  O16  1  0.770887  0.410923  0.546846  1
  O  O17  1  0.631383  0.778013  0.464441  1
  O  O18  1  0.411019  0.593645  0.796339  1
  O  O19  1  0.941113  0.674212  0.123190  1
  O  O20  1  0.776288  0.709218  0.753644  1
  O  O21  1  0.229113  0.589077  0.453154  1
