# generated using pymatgen
data_Rb4LiZr3H2F19
_symmetry_space_group_name_H-M   'P 1'
_cell_length_a   11.60817821
_cell_length_b   13.38377284
_cell_length_c   13.93703347
_cell_angle_alpha   90.00000000
_cell_angle_beta   120.59990563
_cell_angle_gamma   90.00000000
_symmetry_Int_Tables_number   1
_chemical_formula_structural   Rb4LiZr3H2F19
_chemical_formula_sum   'Rb16 Li4 Zr12 H8 F76'
_cell_volume   1863.74460045
_cell_formula_units_Z   4
loop_
 _symmetry_equiv_pos_site_id
 _symmetry_equiv_pos_as_xyz
  1  'x, y, z'
loop_
 _atom_site_type_symbol
 _atom_site_label
 _atom_site_symmetry_multiplicity
 _atom_site_fract_x
 _atom_site_fract_y
 _atom_site_fract_z
 _atom_site_occupancy
  Rb  Rb0  1  0.728179  0.613980  0.077660  1
  Rb  Rb1  1  0.879003  0.120269  0.415904  1
  Rb  Rb2  1  0.120997  0.620269  0.084096  1
  Rb  Rb3  1  0.728095  0.133094  0.072229  1
  Rb  Rb4  1  0.271821  0.386020  0.922340  1
  Rb  Rb5  1  0.271905  0.866906  0.927771  1
  Rb  Rb6  1  0.894429  0.870140  0.927010  1
  Rb  Rb7  1  0.120997  0.879731  0.584096  1
  Rb  Rb8  1  0.271821  0.113980  0.422340  1
  Rb  Rb9  1  0.728179  0.886020  0.577660  1
  Rb  Rb10  1  0.105571  0.370140  0.572990  1
  Rb  Rb11  1  0.105571  0.129860  0.072990  1
  Rb  Rb12  1  0.894429  0.629860  0.427010  1
  Rb  Rb13  1  0.271905  0.633094  0.427771  1
  Rb  Rb14  1  0.728095  0.366906  0.572229  1
  Rb  Rb15  1  0.879003  0.379731  0.915904  1
  Li  Li16  1  0.505073  0.878329  0.754082  1
  Li  Li17  1  0.494927  0.121671  0.245918  1
  Li  Li18  1  0.505073  0.621671  0.254082  1
  Li  Li19  1  0.494927  0.378329  0.745918  1
  Zr  Zr20  1  0.345922  0.126503  0.760651  1
  Zr  Zr21  1  0.976522  0.625800  0.749502  1
  Zr  Zr22  1  0.351511  0.626328  0.762939  1
  Zr  Zr23  1  0.023478  0.374200  0.250498  1
  Zr  Zr24  1  0.345922  0.373497  0.260651  1
  Zr  Zr25  1  0.976522  0.874200  0.249502  1
  Zr  Zr26  1  0.654078  0.873497  0.239349  1
  Zr  Zr27  1  0.023478  0.125800  0.750498  1
  Zr  Zr28  1  0.654078  0.626503  0.739349  1
  Zr  Zr29  1  0.351511  0.873672  0.262939  1
  Zr  Zr30  1  0.648489  0.126328  0.737061  1
  Zr  Zr31  1  0.648489  0.373672  0.237061  1
  H  H32  1  0.609619  0.375976  0.982057  1
  H  H33  1  0.390381  0.875976  0.517943  1
  H  H34  1  0.390381  0.624024  0.017943  1
  H  H35  1  0.380591  0.120394  0.009851  1
  H  H36  1  0.380591  0.379606  0.509851  1
  H  H37  1  0.619409  0.879606  0.990149  1
  H  H38  1  0.609619  0.124024  0.482057  1
  H  H39  1  0.619409  0.620394  0.490149  1
  F  F40  1  0.062412  0.727170  0.878655  1
  F  F41  1  0.650356  0.525719  0.236090  1
  F  F42  1  0.366609  0.873744  0.578524  1
  F  F43  1  0.805058  0.963006  0.217655  1
  F  F44  1  0.422543  0.367362  0.434681  1
  F  F45  1  0.062412  0.772830  0.378655  1
  F  F46  1  0.937588  0.227170  0.621345  1
  F  F47  1  0.194942  0.463006  0.282345  1
  F  F48  1  0.359412  0.722125  0.275649  1
  F  F49  1  0.349644  0.025719  0.263910  1
  F  F50  1  0.808865  0.716541  0.724739  1
  F  F51  1  0.393145  0.979575  0.764388  1
  F  F52  1  0.816079  0.879217  0.397196  1
  F  F53  1  0.350330  0.111018  0.065398  1
  F  F54  1  0.649670  0.611018  0.434602  1
  F  F55  1  0.569086  0.129200  0.846284  1
  F  F56  1  0.191135  0.216541  0.775261  1
  F  F57  1  0.385197  0.272958  0.750816  1
  F  F58  1  0.606855  0.479575  0.735612  1
  F  F59  1  0.190819  0.867777  0.105089  1
  F  F60  1  0.573078  0.380164  0.060353  1
  F  F61  1  0.816079  0.620783  0.897196  1
  F  F62  1  0.816852  0.372697  0.212893  1
  F  F63  1  0.809181  0.132223  0.894911  1
  F  F64  1  0.614803  0.727042  0.249184  1
  F  F65  1  0.191135  0.283459  0.275261  1
  F  F66  1  0.633391  0.373744  0.921476  1
  F  F67  1  0.567985  0.622567  0.850466  1
  F  F68  1  0.569086  0.370800  0.346284  1
  F  F69  1  0.035108  0.021624  0.863758  1
  F  F70  1  0.349644  0.474281  0.763910  1
  F  F71  1  0.567985  0.877433  0.350466  1
  F  F72  1  0.426922  0.880164  0.439647  1
  F  F73  1  0.964892  0.978376  0.136242  1
  F  F74  1  0.960481  0.730572  0.635384  1
  F  F75  1  0.385197  0.227042  0.250816  1
  F  F76  1  0.183921  0.120783  0.602804  1
  F  F77  1  0.940281  0.021197  0.624509  1
  F  F78  1  0.606855  0.020425  0.235612  1
  F  F79  1  0.059719  0.978803  0.375491  1
  F  F80  1  0.640588  0.222125  0.224351  1
  F  F81  1  0.650356  0.974281  0.736090  1
  F  F82  1  0.039519  0.230572  0.864616  1
  F  F83  1  0.805058  0.536994  0.717655  1
  F  F84  1  0.350330  0.388982  0.565398  1
  F  F85  1  0.816852  0.127303  0.712893  1
  F  F86  1  0.430914  0.629200  0.653716  1
  F  F87  1  0.393145  0.520425  0.264388  1
  F  F88  1  0.940281  0.478803  0.124509  1
  F  F89  1  0.633391  0.126256  0.421476  1
  F  F90  1  0.359412  0.777875  0.775649  1
  F  F91  1  0.808865  0.783459  0.224739  1
  F  F92  1  0.183148  0.872697  0.287107  1
  F  F93  1  0.059719  0.521197  0.875491  1
  F  F94  1  0.577457  0.632638  0.565319  1
  F  F95  1  0.366609  0.626256  0.078524  1
  F  F96  1  0.426922  0.619836  0.939647  1
  F  F97  1  0.183921  0.379217  0.102804  1
  F  F98  1  0.039519  0.269428  0.364616  1
  F  F99  1  0.194942  0.036994  0.782345  1
  F  F100  1  0.432015  0.377433  0.149534  1
  F  F101  1  0.809181  0.367777  0.394911  1
  F  F102  1  0.183148  0.627303  0.787107  1
  F  F103  1  0.577457  0.867362  0.065319  1
  F  F104  1  0.422543  0.132638  0.934681  1
  F  F105  1  0.430914  0.870800  0.153716  1
  F  F106  1  0.960481  0.769428  0.135384  1
  F  F107  1  0.649670  0.888982  0.934602  1
  F  F108  1  0.432015  0.122567  0.649534  1
  F  F109  1  0.964892  0.521624  0.636242  1
  F  F110  1  0.640588  0.277875  0.724351  1
  F  F111  1  0.573078  0.119836  0.560353  1
  F  F112  1  0.035108  0.478376  0.363758  1
  F  F113  1  0.190819  0.632223  0.605089  1
  F  F114  1  0.614803  0.772958  0.749184  1
  F  F115  1  0.937588  0.272830  0.121345  1
