# generated using pymatgen
data_MoO3
_symmetry_space_group_name_H-M   'P 1'
_cell_length_a   3.76102521
_cell_length_b   3.96930391
_cell_length_c   14.42544597
_cell_angle_alpha   90.00000000
_cell_angle_beta   90.00000000
_cell_angle_gamma   90.00000000
_symmetry_Int_Tables_number   1
_chemical_formula_structural   MoO3
_chemical_formula_sum   'Mo4 O12'
_cell_volume   215.35246386
_cell_formula_units_Z   4
loop_
 _symmetry_equiv_pos_site_id
 _symmetry_equiv_pos_as_xyz
  1  'x, y, z'
loop_
 _atom_site_type_symbol
 _atom_site_label
 _atom_site_symmetry_multiplicity
 _atom_site_fract_x
 _atom_site_fract_y
 _atom_site_fract_z
 _atom_site_occupancy
  Mo  Mo0  1  0.250000  0.924115  0.602487  1
  Mo  Mo1  1  0.750000  0.424115  0.897513  1
  Mo  Mo2  1  0.250000  0.575885  0.102487  1
  Mo  Mo3  1  0.750000  0.075885  0.397513  1
  O  O4  1  0.750000  0.978280  0.911631  1
  O  O5  1  0.250000  0.478280  0.588369  1
  O  O6  1  0.250000  0.021720  0.088369  1
  O  O7  1  0.750000  0.521720  0.411631  1
  O  O8  1  0.750000  0.463012  0.780203  1
  O  O9  1  0.250000  0.963012  0.719797  1
  O  O10  1  0.750000  0.036988  0.280203  1
  O  O11  1  0.250000  0.536988  0.219797  1
  O  O12  1  0.250000  0.496039  0.935016  1
  O  O13  1  0.250000  0.003961  0.435016  1
  O  O14  1  0.750000  0.503961  0.064984  1
  O  O15  1  0.750000  0.996039  0.564984  1
