# generated using pymatgen
data_Na2ZrSiO5
_symmetry_space_group_name_H-M   'P 1'
_cell_length_a   13.85916366
_cell_length_b   5.53856500
_cell_length_c   14.03236147
_cell_angle_alpha   90.00000000
_cell_angle_beta   119.32023677
_cell_angle_gamma   90.00000000
_symmetry_Int_Tables_number   1
_chemical_formula_structural   Na2ZrSiO5
_chemical_formula_sum   'Na16 Zr8 Si8 O40'
_cell_volume   939.13907919
_cell_formula_units_Z   8
loop_
 _symmetry_equiv_pos_site_id
 _symmetry_equiv_pos_as_xyz
  1  'x, y, z'
loop_
 _atom_site_type_symbol
 _atom_site_label
 _atom_site_symmetry_multiplicity
 _atom_site_fract_x
 _atom_site_fract_y
 _atom_site_fract_z
 _atom_site_occupancy
  Na  Na0  1  0.853376  0.265406  0.922987  1
  Na  Na1  1  0.328656  0.262749  0.181393  1
  Na  Na2  1  0.828656  0.237251  0.181393  1
  Na  Na3  1  0.931670  0.765936  0.578401  1
  Na  Na4  1  0.171344  0.762749  0.818607  1
  Na  Na5  1  0.352265  0.242113  0.681900  1
  Na  Na6  1  0.852265  0.257887  0.681900  1
  Na  Na7  1  0.353376  0.234594  0.922987  1
  Na  Na8  1  0.431670  0.734064  0.578401  1
  Na  Na9  1  0.068330  0.234064  0.421599  1
  Na  Na10  1  0.147735  0.742113  0.318100  1
  Na  Na11  1  0.146624  0.734594  0.077013  1
  Na  Na12  1  0.568330  0.265936  0.421599  1
  Na  Na13  1  0.671344  0.737251  0.818607  1
  Na  Na14  1  0.646624  0.765406  0.077013  1
  Na  Na15  1  0.647735  0.757887  0.318100  1
  Zr  Zr16  1  0.127613  0.263506  0.934825  1
  Zr  Zr17  1  0.872387  0.736494  0.065175  1
  Zr  Zr18  1  0.692939  0.739219  0.564952  1
  Zr  Zr19  1  0.807061  0.239219  0.435048  1
  Zr  Zr20  1  0.627613  0.236494  0.934825  1
  Zr  Zr21  1  0.307061  0.260781  0.435048  1
  Zr  Zr22  1  0.192939  0.760781  0.564952  1
  Zr  Zr23  1  0.372387  0.763506  0.065175  1
  Si  Si24  1  0.567044  0.278701  0.159076  1
  Si  Si25  1  0.591413  0.224550  0.659348  1
  Si  Si26  1  0.908587  0.724550  0.340652  1
  Si  Si27  1  0.432956  0.721299  0.840924  1
  Si  Si28  1  0.091413  0.275450  0.659348  1
  Si  Si29  1  0.408587  0.775450  0.340652  1
  Si  Si30  1  0.932956  0.778701  0.840924  1
  Si  Si31  1  0.067044  0.221299  0.159076  1
  O  O32  1  0.348854  0.749702  0.708785  1
  O  O33  1  0.848854  0.750298  0.708785  1
  O  O34  1  0.110296  0.564217  0.641219  1
  O  O35  1  0.541606  0.711128  0.410643  1
  O  O36  1  0.960759  0.400618  0.124374  1
  O  O37  1  0.629158  0.199559  0.089181  1
  O  O38  1  0.041606  0.788872  0.410643  1
  O  O39  1  0.458394  0.288872  0.589357  1
  O  O40  1  0.341806  0.597441  0.381653  1
  O  O41  1  0.539241  0.900618  0.875626  1
  O  O42  1  0.039241  0.599382  0.875626  1
  O  O43  1  0.229789  0.973246  0.997526  1
  O  O44  1  0.651146  0.250298  0.291215  1
  O  O45  1  0.129158  0.300441  0.089181  1
  O  O46  1  0.529332  0.566517  0.134904  1
  O  O47  1  0.770211  0.026754  0.002474  1
  O  O48  1  0.460759  0.099382  0.124374  1
  O  O49  1  0.470668  0.433483  0.865096  1
  O  O50  1  0.729789  0.526754  0.997526  1
  O  O51  1  0.265280  0.965669  0.492950  1
  O  O52  1  0.958394  0.211128  0.589357  1
  O  O53  1  0.151146  0.249702  0.291215  1
  O  O54  1  0.889704  0.435783  0.358781  1
  O  O55  1  0.658194  0.402559  0.618347  1
  O  O56  1  0.734720  0.034331  0.507050  1
  O  O57  1  0.370842  0.800441  0.910819  1
  O  O58  1  0.158194  0.097441  0.618347  1
  O  O59  1  0.138738  0.223121  0.790414  1
  O  O60  1  0.870842  0.699559  0.910819  1
  O  O61  1  0.970668  0.066517  0.865096  1
  O  O62  1  0.765280  0.534331  0.492950  1
  O  O63  1  0.841806  0.902559  0.381653  1
  O  O64  1  0.234720  0.465669  0.507050  1
  O  O65  1  0.389704  0.064217  0.358781  1
  O  O66  1  0.861262  0.776879  0.209586  1
  O  O67  1  0.610296  0.935783  0.641219  1
  O  O68  1  0.270211  0.473246  0.002474  1
  O  O69  1  0.361262  0.723121  0.209586  1
  O  O70  1  0.029332  0.933483  0.134904  1
  O  O71  1  0.638738  0.276879  0.790414  1
