# generated using pymatgen
data_Ta2Bi4Br7O2
_symmetry_space_group_name_H-M   'P 1'
_cell_length_a   14.99370288
_cell_length_b   14.99370288
_cell_length_c   18.52690977
_cell_angle_alpha   90.00000000
_cell_angle_beta   90.00000000
_cell_angle_gamma   90.00000000
_symmetry_Int_Tables_number   1
_chemical_formula_structural   Ta2Bi4Br7O2
_chemical_formula_sum   'Ta16 Bi32 Br56 O16'
_cell_volume   4165.05544769
_cell_formula_units_Z   8
loop_
 _symmetry_equiv_pos_site_id
 _symmetry_equiv_pos_as_xyz
  1  'x, y, z'
loop_
 _atom_site_type_symbol
 _atom_site_label
 _atom_site_symmetry_multiplicity
 _atom_site_fract_x
 _atom_site_fract_y
 _atom_site_fract_z
 _atom_site_occupancy
  Ta  Ta0  1  0.148892  0.380937  0.500000  1
  Ta  Ta1  1  0.000000  0.500000  0.136975  1
  Ta  Ta2  1  0.500000  0.000000  0.363025  1
  Ta  Ta3  1  0.500000  0.000000  0.136975  1
  Ta  Ta4  1  0.880937  0.648892  0.000000  1
  Ta  Ta5  1  0.000000  0.500000  0.636975  1
  Ta  Ta6  1  0.619063  0.148892  0.500000  1
  Ta  Ta7  1  0.380937  0.851108  0.500000  1
  Ta  Ta8  1  0.500000  0.000000  0.863025  1
  Ta  Ta9  1  0.351108  0.880937  0.000000  1
  Ta  Ta10  1  0.000000  0.500000  0.863025  1
  Ta  Ta11  1  0.500000  0.000000  0.636975  1
  Ta  Ta12  1  0.119063  0.351108  0.000000  1
  Ta  Ta13  1  0.000000  0.500000  0.363025  1
  Ta  Ta14  1  0.851108  0.619063  0.500000  1
  Ta  Ta15  1  0.648892  0.119063  0.000000  1
  Bi  Bi16  1  0.904063  0.888874  0.331608  1
  Bi  Bi17  1  0.008613  0.853094  0.813714  1
  Bi  Bi18  1  0.388874  0.404063  0.831608  1
  Bi  Bi19  1  0.111126  0.904063  0.331608  1
  Bi  Bi20  1  0.008613  0.853094  0.186286  1
  Bi  Bi21  1  0.491387  0.353094  0.313714  1
  Bi  Bi22  1  0.646906  0.491387  0.313714  1
  Bi  Bi23  1  0.111126  0.904063  0.668392  1
  Bi  Bi24  1  0.991387  0.146906  0.186286  1
  Bi  Bi25  1  0.853094  0.991387  0.186286  1
  Bi  Bi26  1  0.508613  0.646906  0.313714  1
  Bi  Bi27  1  0.095937  0.111126  0.668392  1
  Bi  Bi28  1  0.904063  0.888874  0.668392  1
  Bi  Bi29  1  0.853094  0.991387  0.813714  1
  Bi  Bi30  1  0.388874  0.404063  0.168392  1
  Bi  Bi31  1  0.404063  0.611126  0.168392  1
  Bi  Bi32  1  0.146906  0.008613  0.813714  1
  Bi  Bi33  1  0.888874  0.095937  0.331608  1
  Bi  Bi34  1  0.646906  0.491387  0.686286  1
  Bi  Bi35  1  0.146906  0.008613  0.186286  1
  Bi  Bi36  1  0.404063  0.611126  0.831608  1
  Bi  Bi37  1  0.611126  0.595937  0.168392  1
  Bi  Bi38  1  0.595937  0.388874  0.831608  1
  Bi  Bi39  1  0.611126  0.595937  0.831608  1
  Bi  Bi40  1  0.595937  0.388874  0.168392  1
  Bi  Bi41  1  0.508613  0.646906  0.686286  1
  Bi  Bi42  1  0.353094  0.508613  0.313714  1
  Bi  Bi43  1  0.095937  0.111126  0.331608  1
  Bi  Bi44  1  0.491387  0.353094  0.686286  1
  Bi  Bi45  1  0.991387  0.146906  0.813714  1
  Bi  Bi46  1  0.888874  0.095937  0.668392  1
  Bi  Bi47  1  0.353094  0.508613  0.686286  1
  Br  Br48  1  0.611660  0.875667  0.852697  1
  Br  Br49  1  0.875667  0.388340  0.147303  1
  Br  Br50  1  0.244337  0.954226  0.500000  1
  Br  Br51  1  0.584339  0.084339  0.750000  1
  Br  Br52  1  0.375667  0.111660  0.352697  1
  Br  Br53  1  0.014274  0.752534  0.000000  1
  Br  Br54  1  0.454226  0.744337  0.000000  1
  Br  Br55  1  0.624333  0.888340  0.647303  1
  Br  Br56  1  0.415661  0.915661  0.750000  1
  Br  Br57  1  0.258098  0.809539  0.100631  1
  Br  Br58  1  0.741902  0.190461  0.100631  1
  Br  Br59  1  0.252534  0.514274  0.500000  1
  Br  Br60  1  0.545774  0.255663  0.000000  1
  Br  Br61  1  0.045774  0.244337  0.500000  1
  Br  Br62  1  0.611660  0.875667  0.147303  1
  Br  Br63  1  0.690461  0.241902  0.600631  1
  Br  Br64  1  0.758098  0.690461  0.399369  1
  Br  Br65  1  0.241902  0.309539  0.600631  1
  Br  Br66  1  0.747466  0.485726  0.500000  1
  Br  Br67  1  0.111660  0.624333  0.647303  1
  Br  Br68  1  0.888340  0.375667  0.352697  1
  Br  Br69  1  0.309539  0.758098  0.399369  1
  Br  Br70  1  0.111660  0.624333  0.352697  1
  Br  Br71  1  0.255663  0.454226  0.000000  1
  Br  Br72  1  0.741902  0.190461  0.899369  1
  Br  Br73  1  0.915661  0.584339  0.750000  1
  Br  Br74  1  0.888340  0.375667  0.647303  1
  Br  Br75  1  0.809539  0.741902  0.899369  1
  Br  Br76  1  0.985726  0.247466  0.000000  1
  Br  Br77  1  0.190461  0.258098  0.899369  1
  Br  Br78  1  0.415661  0.915661  0.250000  1
  Br  Br79  1  0.752534  0.985726  0.000000  1
  Br  Br80  1  0.584339  0.084339  0.250000  1
  Br  Br81  1  0.915661  0.584339  0.250000  1
  Br  Br82  1  0.247466  0.014274  0.000000  1
  Br  Br83  1  0.258098  0.809539  0.899369  1
  Br  Br84  1  0.375667  0.111660  0.647303  1
  Br  Br85  1  0.084339  0.415661  0.250000  1
  Br  Br86  1  0.624333  0.888340  0.352697  1
  Br  Br87  1  0.744337  0.545774  0.000000  1
  Br  Br88  1  0.190461  0.258098  0.100631  1
  Br  Br89  1  0.758098  0.690461  0.600631  1
  Br  Br90  1  0.875667  0.388340  0.852697  1
  Br  Br91  1  0.485726  0.252534  0.500000  1
  Br  Br92  1  0.124333  0.611660  0.147303  1
  Br  Br93  1  0.690461  0.241902  0.399369  1
  Br  Br94  1  0.954226  0.755663  0.500000  1
  Br  Br95  1  0.809539  0.741902  0.100631  1
  Br  Br96  1  0.388340  0.124333  0.147303  1
  Br  Br97  1  0.309539  0.758098  0.600631  1
  Br  Br98  1  0.084339  0.415661  0.750000  1
  Br  Br99  1  0.241902  0.309539  0.399369  1
  Br  Br100  1  0.388340  0.124333  0.852697  1
  Br  Br101  1  0.124333  0.611660  0.852697  1
  Br  Br102  1  0.514274  0.747466  0.500000  1
  Br  Br103  1  0.755663  0.045774  0.500000  1
  O  O104  1  0.063208  0.426080  0.926468  1
  O  O105  1  0.936792  0.573920  0.926468  1
  O  O106  1  0.436792  0.926080  0.426468  1
  O  O107  1  0.936792  0.573920  0.073532  1
  O  O108  1  0.926080  0.563208  0.573532  1
  O  O109  1  0.073920  0.436792  0.426468  1
  O  O110  1  0.563208  0.073920  0.573532  1
  O  O111  1  0.436792  0.926080  0.573532  1
  O  O112  1  0.926080  0.563208  0.426468  1
  O  O113  1  0.563208  0.073920  0.426468  1
  O  O114  1  0.426080  0.936792  0.926468  1
  O  O115  1  0.426080  0.936792  0.073532  1
  O  O116  1  0.073920  0.436792  0.573532  1
  O  O117  1  0.573920  0.063208  0.073532  1
  O  O118  1  0.573920  0.063208  0.926468  1
  O  O119  1  0.063208  0.426080  0.073532  1
