# generated using pymatgen
data_Li2TeS3
_symmetry_space_group_name_H-M   'P 1'
_cell_length_a   5.41911896
_cell_length_b   11.57938358
_cell_length_c   7.89596108
_cell_angle_alpha   90.00000000
_cell_angle_beta   91.49196461
_cell_angle_gamma   90.00000000
_symmetry_Int_Tables_number   1
_chemical_formula_structural   Li2TeS3
_chemical_formula_sum   'Li8 Te4 S12'
_cell_volume   495.30403692
_cell_formula_units_Z   4
loop_
 _symmetry_equiv_pos_site_id
 _symmetry_equiv_pos_as_xyz
  1  'x, y, z'
loop_
 _atom_site_type_symbol
 _atom_site_label
 _atom_site_symmetry_multiplicity
 _atom_site_fract_x
 _atom_site_fract_y
 _atom_site_fract_z
 _atom_site_occupancy
  Li  Li0  1  0.260383  0.728425  0.356860  1
  Li  Li1  1  0.260383  0.771575  0.856860  1
  Li  Li2  1  0.739617  0.271575  0.643140  1
  Li  Li3  1  0.739617  0.228425  0.143140  1
  Li  Li4  1  0.762552  0.585491  0.131579  1
  Li  Li5  1  0.762552  0.914509  0.631579  1
  Li  Li6  1  0.237448  0.414509  0.868421  1
  Li  Li7  1  0.237448  0.085491  0.368421  1
  Te  Te8  1  0.720752  0.912939  0.181567  1
  Te  Te9  1  0.279248  0.087061  0.818433  1
  Te  Te10  1  0.279248  0.412939  0.318433  1
  Te  Te11  1  0.720752  0.587061  0.681567  1
  S  S12  1  0.720374  0.402114  0.364097  1
  S  S13  1  0.720374  0.097886  0.864097  1
  S  S14  1  0.745440  0.426639  0.869335  1
  S  S15  1  0.254560  0.573361  0.130665  1
  S  S16  1  0.770908  0.744445  0.879138  1
  S  S17  1  0.229092  0.255555  0.120862  1
  S  S18  1  0.279626  0.597886  0.635903  1
  S  S19  1  0.279626  0.902114  0.135903  1
  S  S20  1  0.745440  0.073361  0.369335  1
  S  S21  1  0.254560  0.926639  0.630665  1
  S  S22  1  0.770908  0.755555  0.379138  1
  S  S23  1  0.229092  0.244445  0.620862  1
