# generated using pymatgen
data_Rb3Hg2S3ClO12
_symmetry_space_group_name_H-M   'P 1'
_cell_length_a   8.08149025
_cell_length_b   10.04379634
_cell_length_c   10.24350309
_cell_angle_alpha   90.00000000
_cell_angle_beta   110.88255539
_cell_angle_gamma   90.00000000
_symmetry_Int_Tables_number   1
_chemical_formula_structural   Rb3Hg2S3ClO12
_chemical_formula_sum   'Rb6 Hg4 S6 Cl2 O24'
_cell_volume   776.83765224
_cell_formula_units_Z   2
loop_
 _symmetry_equiv_pos_site_id
 _symmetry_equiv_pos_as_xyz
  1  'x, y, z'
loop_
 _atom_site_type_symbol
 _atom_site_label
 _atom_site_symmetry_multiplicity
 _atom_site_fract_x
 _atom_site_fract_y
 _atom_site_fract_z
 _atom_site_occupancy
  Rb  Rb0  1  0.901811  0.750397  0.732126  1
  Rb  Rb1  1  0.324091  0.445912  0.698660  1
  Rb  Rb2  1  0.098189  0.250397  0.267874  1
  Rb  Rb3  1  0.675909  0.945912  0.301340  1
  Rb  Rb4  1  0.683556  0.118430  0.868949  1
  Rb  Rb5  1  0.316444  0.618430  0.131051  1
  Hg  Hg6  1  0.759854  0.572923  0.047227  1
  Hg  Hg7  1  0.264839  0.851354  0.499495  1
  Hg  Hg8  1  0.735161  0.351354  0.500505  1
  Hg  Hg9  1  0.240146  0.072923  0.952773  1
  S  S10  1  0.029336  0.902963  0.108368  1
  S  S11  1  0.906181  0.607915  0.391127  1
  S  S12  1  0.451179  0.789904  0.859733  1
  S  S13  1  0.548821  0.289904  0.140267  1
  S  S14  1  0.093819  0.107915  0.608873  1
  S  S15  1  0.970664  0.402963  0.891632  1
  Cl  Cl16  1  0.524109  0.197311  0.520011  1
  Cl  Cl17  1  0.475891  0.697311  0.479989  1
  O  O18  1  0.984408  0.758734  0.092643  1
  O  O19  1  0.101110  0.483296  0.855967  1
  O  O20  1  0.411840  0.344456  0.188576  1
  O  O21  1  0.564504  0.365845  0.020215  1
  O  O22  1  0.022283  0.948795  0.961445  1
  O  O23  1  0.977717  0.448795  0.038555  1
  O  O24  1  0.962174  0.744459  0.445681  1
  O  O25  1  0.724156  0.279578  0.256077  1
  O  O26  1  0.734755  0.616856  0.268235  1
  O  O27  1  0.042370  0.534196  0.358202  1
  O  O28  1  0.898890  0.983296  0.144033  1
  O  O29  1  0.212223  0.922935  0.209603  1
  O  O30  1  0.435496  0.865845  0.979785  1
  O  O31  1  0.502868  0.145264  0.089878  1
  O  O32  1  0.037826  0.244459  0.554319  1
  O  O33  1  0.867133  0.539179  0.511994  1
  O  O34  1  0.132867  0.039179  0.488006  1
  O  O35  1  0.265245  0.116856  0.731765  1
  O  O36  1  0.497132  0.645264  0.910122  1
  O  O37  1  0.015592  0.258734  0.907357  1
  O  O38  1  0.787777  0.422935  0.790397  1
  O  O39  1  0.957630  0.034196  0.641798  1
  O  O40  1  0.275844  0.779578  0.743923  1
  O  O41  1  0.588160  0.844456  0.811424  1
