# generated using pymatgen
data_AgTeO3
_symmetry_space_group_name_H-M   'P 1'
_cell_length_a   6.02456380
_cell_length_b   11.82669282
_cell_length_c   9.22122873
_cell_angle_alpha   90.00000000
_cell_angle_beta   118.96676838
_cell_angle_gamma   90.00000000
_symmetry_Int_Tables_number   1
_chemical_formula_structural   AgTeO3
_chemical_formula_sum   'Ag8 Te8 O24'
_cell_volume   574.82613825
_cell_formula_units_Z   8
loop_
 _symmetry_equiv_pos_site_id
 _symmetry_equiv_pos_as_xyz
  1  'x, y, z'
loop_
 _atom_site_type_symbol
 _atom_site_label
 _atom_site_symmetry_multiplicity
 _atom_site_fract_x
 _atom_site_fract_y
 _atom_site_fract_z
 _atom_site_occupancy
  Ag  Ag0  1  0.428131  0.673402  0.276565  1
  Ag  Ag1  1  0.607509  0.645109  0.030448  1
  Ag  Ag2  1  0.428131  0.826598  0.776565  1
  Ag  Ag3  1  0.392491  0.145109  0.469552  1
  Ag  Ag4  1  0.571869  0.173402  0.223435  1
  Ag  Ag5  1  0.392491  0.354891  0.969552  1
  Ag  Ag6  1  0.607509  0.854891  0.530448  1
  Ag  Ag7  1  0.571869  0.326598  0.723435  1
  Te  Te8  1  0.091484  0.623313  0.491835  1
  Te  Te9  1  0.065941  0.075841  0.686200  1
  Te  Te10  1  0.934059  0.575841  0.813800  1
  Te  Te11  1  0.908516  0.123313  0.008165  1
  Te  Te12  1  0.934059  0.924159  0.313800  1
  Te  Te13  1  0.065941  0.424159  0.186200  1
  Te  Te14  1  0.091484  0.876687  0.991835  1
  Te  Te15  1  0.908516  0.376687  0.508165  1
  O  O16  1  0.231529  0.958073  0.516248  1
  O  O17  1  0.857644  0.147097  0.775813  1
  O  O18  1  0.226827  0.462808  0.555013  1
  O  O19  1  0.226827  0.037192  0.055013  1
  O  O20  1  0.976767  0.087685  0.236878  1
  O  O21  1  0.142356  0.852903  0.224187  1
  O  O22  1  0.585150  0.314644  0.438671  1
  O  O23  1  0.976767  0.412315  0.736878  1
  O  O24  1  0.887117  0.741020  0.911604  1
  O  O25  1  0.023233  0.587685  0.263122  1
  O  O26  1  0.887117  0.758980  0.411604  1
  O  O27  1  0.768471  0.458073  0.983752  1
  O  O28  1  0.768471  0.041927  0.483752  1
  O  O29  1  0.112883  0.258980  0.088396  1
  O  O30  1  0.585150  0.185356  0.938671  1
  O  O31  1  0.773173  0.962808  0.944987  1
  O  O32  1  0.231529  0.541927  0.016248  1
  O  O33  1  0.414850  0.685356  0.561329  1
  O  O34  1  0.142356  0.647097  0.724187  1
  O  O35  1  0.023233  0.912315  0.763122  1
  O  O36  1  0.857644  0.352903  0.275813  1
  O  O37  1  0.414850  0.814644  0.061329  1
  O  O38  1  0.773173  0.537192  0.444987  1
  O  O39  1  0.112883  0.241020  0.588396  1
