# generated using pymatgen
data_Sm2Ta2Cl2O7
_symmetry_space_group_name_H-M   'P 1'
_cell_length_a   7.97808446
_cell_length_b   7.97808446
_cell_length_c   6.92091134
_cell_angle_alpha   66.83060150
_cell_angle_beta   113.16939850
_cell_angle_gamma   151.43035001
_symmetry_Int_Tables_number   1
_chemical_formula_structural   Sm2Ta2Cl2O7
_chemical_formula_sum   'Sm2 Ta2 Cl2 O7'
_cell_volume   192.52156708
_cell_formula_units_Z   1
loop_
 _symmetry_equiv_pos_site_id
 _symmetry_equiv_pos_as_xyz
  1  'x, y, z'
loop_
 _atom_site_type_symbol
 _atom_site_label
 _atom_site_symmetry_multiplicity
 _atom_site_fract_x
 _atom_site_fract_y
 _atom_site_fract_z
 _atom_site_occupancy
  Sm  Sm0  1  0.306662  0.693338  0.836817  1
  Sm  Sm1  1  0.693338  0.306662  0.163183  1
  Ta  Ta2  1  0.965047  0.034953  0.199701  1
  Ta  Ta3  1  0.034953  0.965047  0.800299  1
  Cl  Cl4  1  0.680056  0.319944  0.565660  1
  Cl  Cl5  1  0.319944  0.680056  0.434340  1
  O  O6  1  0.453252  0.546748  0.160064  1
  O  O7  1  0.546748  0.453252  0.839936  1
  O  O8  1  0.917866  0.082134  0.845623  1
  O  O9  1  0.000000  0.000000  0.500000  1
  O  O10  1  0.823679  0.176321  0.066944  1
  O  O11  1  0.082134  0.917866  0.154377  1
  O  O12  1  0.176321  0.823679  0.933056  1
