# generated using pymatgen
data_Na3Sc2(PO4)3
_symmetry_space_group_name_H-M   'P 1'
_cell_length_a   9.13408042
_cell_length_b   9.13408042
_cell_length_c   9.13408042
_cell_angle_alpha   60.08276401
_cell_angle_beta   60.08276401
_cell_angle_gamma   60.08276401
_symmetry_Int_Tables_number   1
_chemical_formula_structural   Na3Sc2(PO4)3
_chemical_formula_sum   'Na6 Sc4 P6 O24'
_cell_volume   539.87503587
_cell_formula_units_Z   2
loop_
 _symmetry_equiv_pos_site_id
 _symmetry_equiv_pos_as_xyz
  1  'x, y, z'
loop_
 _atom_site_type_symbol
 _atom_site_label
 _atom_site_symmetry_multiplicity
 _atom_site_fract_x
 _atom_site_fract_y
 _atom_site_fract_z
 _atom_site_occupancy
  Na  Na0  1  0.377207  0.750000  0.122793  1
  Na  Na1  1  0.122793  0.377207  0.750000  1
  Na  Na2  1  0.877207  0.622793  0.250000  1
  Na  Na3  1  0.750000  0.122793  0.377207  1
  Na  Na4  1  0.250000  0.877207  0.622793  1
  Na  Na5  1  0.622793  0.250000  0.877207  1
  Sc  Sc6  1  0.852901  0.852901  0.852901  1
  Sc  Sc7  1  0.647099  0.647099  0.647099  1
  Sc  Sc8  1  0.147099  0.147099  0.147099  1
  Sc  Sc9  1  0.352901  0.352901  0.352901  1
  P  P10  1  0.250000  0.541833  0.958168  1
  P  P11  1  0.958168  0.250000  0.541832  1
  P  P12  1  0.541832  0.958168  0.250000  1
  P  P13  1  0.750000  0.458168  0.041832  1
  P  P14  1  0.458168  0.041833  0.750000  1
  P  P15  1  0.041833  0.750000  0.458168  1
  O  O16  1  0.873972  0.723712  0.485237  1
  O  O17  1  0.431852  0.210856  0.583838  1
  O  O18  1  0.373972  0.985237  0.223712  1
  O  O19  1  0.416162  0.568148  0.789144  1
  O  O20  1  0.916162  0.289144  0.068148  1
  O  O21  1  0.068148  0.916162  0.289144  1
  O  O22  1  0.083838  0.710856  0.931852  1
  O  O23  1  0.126028  0.276288  0.514763  1
  O  O24  1  0.626028  0.014763  0.776288  1
  O  O25  1  0.568148  0.789144  0.416162  1
  O  O26  1  0.776288  0.626028  0.014763  1
  O  O27  1  0.514763  0.126028  0.276288  1
  O  O28  1  0.289144  0.068148  0.916162  1
  O  O29  1  0.276288  0.514763  0.126028  1
  O  O30  1  0.210856  0.583838  0.431852  1
  O  O31  1  0.723712  0.485237  0.873972  1
  O  O32  1  0.710856  0.931852  0.083838  1
  O  O33  1  0.931852  0.083838  0.710856  1
  O  O34  1  0.485237  0.873972  0.723712  1
  O  O35  1  0.014763  0.776288  0.626028  1
  O  O36  1  0.583838  0.431852  0.210856  1
  O  O37  1  0.789144  0.416162  0.568148  1
  O  O38  1  0.223712  0.373972  0.985237  1
  O  O39  1  0.985237  0.223712  0.373972  1
