# generated using pymatgen
data_NaB3O5
_symmetry_space_group_name_H-M   'P 1'
_cell_length_a   10.24992643
_cell_length_b   11.58234650
_cell_length_c   10.97455812
_cell_angle_alpha   90.00000000
_cell_angle_beta   104.70189749
_cell_angle_gamma   90.00000000
_symmetry_Int_Tables_number   1
_chemical_formula_structural   NaB3O5
_chemical_formula_sum   'Na12 B36 O60'
_cell_volume   1260.22264652
_cell_formula_units_Z   12
loop_
 _symmetry_equiv_pos_site_id
 _symmetry_equiv_pos_as_xyz
  1  'x, y, z'
loop_
 _atom_site_type_symbol
 _atom_site_label
 _atom_site_symmetry_multiplicity
 _atom_site_fract_x
 _atom_site_fract_y
 _atom_site_fract_z
 _atom_site_occupancy
  Na  Na0  1  0.070805  0.633604  0.877536  1
  Na  Na1  1  0.070805  0.866396  0.377536  1
  Na  Na2  1  0.929195  0.366396  0.122464  1
  Na  Na3  1  0.589546  0.367836  0.913296  1
  Na  Na4  1  0.350141  0.346927  0.387947  1
  Na  Na5  1  0.410454  0.632164  0.086704  1
  Na  Na6  1  0.350141  0.153073  0.887947  1
  Na  Na7  1  0.649859  0.846927  0.112053  1
  Na  Na8  1  0.589546  0.132164  0.413296  1
  Na  Na9  1  0.929195  0.133604  0.622464  1
  Na  Na10  1  0.649859  0.653073  0.612053  1
  Na  Na11  1  0.410454  0.867836  0.586704  1
  B  B12  1  0.708487  0.909901  0.593403  1
  B  B13  1  0.411874  0.175438  0.616351  1
  B  B14  1  0.272753  0.602590  0.496309  1
  B  B15  1  0.272753  0.897410  0.996309  1
  B  B16  1  0.588126  0.675438  0.883649  1
  B  B17  1  0.705021  0.473781  0.287193  1
  B  B18  1  0.708487  0.590099  0.093403  1
  B  B19  1  0.911756  0.699169  0.093668  1
  B  B20  1  0.088244  0.300831  0.906332  1
  B  B21  1  0.911756  0.800831  0.593668  1
  B  B22  1  0.291513  0.090099  0.406597  1
  B  B23  1  0.294979  0.526219  0.712807  1
  B  B24  1  0.209169  0.554532  0.266460  1
  B  B25  1  0.613376  0.305204  0.655149  1
  B  B26  1  0.802666  0.572043  0.915441  1
  B  B27  1  0.197334  0.427957  0.084559  1
  B  B28  1  0.878349  0.330063  0.373995  1
  B  B29  1  0.588126  0.824562  0.383649  1
  B  B30  1  0.613376  0.194796  0.155149  1
  B  B31  1  0.197334  0.072043  0.584559  1
  B  B32  1  0.291513  0.409901  0.906597  1
  B  B33  1  0.121651  0.669937  0.626005  1
  B  B34  1  0.121651  0.830063  0.126005  1
  B  B35  1  0.294979  0.973781  0.212807  1
  B  B36  1  0.209169  0.945468  0.766460  1
  B  B37  1  0.790831  0.445468  0.733540  1
  B  B38  1  0.411874  0.324562  0.116351  1
  B  B39  1  0.386624  0.805204  0.844851  1
  B  B40  1  0.727247  0.102590  0.003691  1
  B  B41  1  0.802666  0.927957  0.415441  1
  B  B42  1  0.727247  0.397410  0.503691  1
  B  B43  1  0.088244  0.199169  0.406332  1
  B  B44  1  0.878349  0.169937  0.873995  1
  B  B45  1  0.386624  0.694796  0.344851  1
  B  B46  1  0.790831  0.054532  0.233540  1
  B  B47  1  0.705021  0.026219  0.787193  1
  O  O48  1  0.402421  0.335268  0.990052  1
  O  O49  1  0.619847  0.178937  0.033961  1
  O  O50  1  0.756854  0.507404  0.012997  1
  O  O51  1  0.902534  0.661678  0.973821  1
  O  O52  1  0.679470  0.871845  0.327488  1
  O  O53  1  0.212734  0.526278  0.387979  1
  O  O54  1  0.243146  0.007404  0.487003  1
  O  O55  1  0.816736  0.671453  0.156904  1
  O  O56  1  0.016287  0.728220  0.655518  1
  O  O57  1  0.357306  0.460171  0.814228  1
  O  O58  1  0.517981  0.238951  0.691998  1
  O  O59  1  0.787266  0.026278  0.112021  1
  O  O60  1  0.337588  0.529939  0.604292  1
  O  O61  1  0.597579  0.835268  0.509948  1
  O  O62  1  0.296113  0.641882  0.244233  1
  O  O63  1  0.834273  0.319278  0.480369  1
  O  O64  1  0.016287  0.771780  0.155518  1
  O  O65  1  0.662412  0.470061  0.395708  1
  O  O66  1  0.756854  0.992596  0.512997  1
  O  O67  1  0.983713  0.228220  0.844482  1
  O  O68  1  0.482019  0.738951  0.808002  1
  O  O69  1  0.834273  0.180722  0.980369  1
  O  O70  1  0.296113  0.858118  0.744233  1
  O  O71  1  0.703887  0.358118  0.755767  1
  O  O72  1  0.787266  0.473722  0.612021  1
  O  O73  1  0.402421  0.164732  0.490052  1
  O  O74  1  0.212734  0.973722  0.887979  1
  O  O75  1  0.320530  0.128155  0.672512  1
  O  O76  1  0.380153  0.821063  0.966039  1
  O  O77  1  0.867226  0.996361  0.334585  1
  O  O78  1  0.597579  0.664732  0.009948  1
  O  O79  1  0.185449  0.595029  0.722626  1
  O  O80  1  0.132774  0.496361  0.165415  1
  O  O81  1  0.902534  0.838322  0.473821  1
  O  O82  1  0.165727  0.680722  0.519631  1
  O  O83  1  0.380153  0.678937  0.466039  1
  O  O84  1  0.814551  0.095029  0.777374  1
  O  O85  1  0.183264  0.171453  0.343096  1
  O  O86  1  0.243146  0.492596  0.987003  1
  O  O87  1  0.165727  0.819278  0.019631  1
  O  O88  1  0.867226  0.503639  0.834585  1
  O  O89  1  0.816736  0.828547  0.656904  1
  O  O90  1  0.132774  0.003639  0.665415  1
  O  O91  1  0.703887  0.141882  0.255767  1
  O  O92  1  0.642694  0.960171  0.685772  1
  O  O93  1  0.482019  0.761049  0.308002  1
  O  O94  1  0.814551  0.404971  0.277374  1
  O  O95  1  0.097466  0.161678  0.526179  1
  O  O96  1  0.337588  0.970061  0.104292  1
  O  O97  1  0.185449  0.904971  0.222626  1
  O  O98  1  0.320530  0.371845  0.172512  1
  O  O99  1  0.097466  0.338322  0.026179  1
  O  O100  1  0.983713  0.271780  0.344482  1
  O  O101  1  0.619847  0.321063  0.533961  1
  O  O102  1  0.679470  0.628155  0.827488  1
  O  O103  1  0.517981  0.261049  0.191998  1
  O  O104  1  0.357306  0.039829  0.314228  1
  O  O105  1  0.642694  0.539829  0.185772  1
  O  O106  1  0.662412  0.029939  0.895708  1
  O  O107  1  0.183264  0.328547  0.843096  1
