# generated using pymatgen
data_SrBiBrO2
_symmetry_space_group_name_H-M   'P 1'
_cell_length_a   7.21026452
_cell_length_b   7.21026452
_cell_length_c   5.73557009
_cell_angle_alpha   90.00000000
_cell_angle_beta   90.00000000
_cell_angle_gamma   132.04827968
_symmetry_Int_Tables_number   1
_chemical_formula_structural   SrBiBrO2
_chemical_formula_sum   'Sr2 Bi2 Br2 O4'
_cell_volume   221.42296355
_cell_formula_units_Z   2
loop_
 _symmetry_equiv_pos_site_id
 _symmetry_equiv_pos_as_xyz
  1  'x, y, z'
loop_
 _atom_site_type_symbol
 _atom_site_label
 _atom_site_symmetry_multiplicity
 _atom_site_fract_x
 _atom_site_fract_y
 _atom_site_fract_z
 _atom_site_occupancy
  Sr  Sr0  1  0.899042  0.100958  0.750000  1
  Sr  Sr1  1  0.100958  0.899042  0.250000  1
  Bi  Bi2  1  0.422378  0.577622  0.250000  1
  Bi  Bi3  1  0.577622  0.422378  0.750000  1
  Br  Br4  1  0.245362  0.754638  0.750000  1
  Br  Br5  1  0.754638  0.245362  0.250000  1
  O  O6  1  0.733873  0.733873  0.500000  1
  O  O7  1  0.266127  0.266127  0.000000  1
  O  O8  1  0.266127  0.266127  0.500000  1
  O  O9  1  0.733873  0.733873  1.000000  1
