# generated using pymatgen
data_Li2FeP2O7
_symmetry_space_group_name_H-M   'P 1'
_cell_length_a   8.50338020
_cell_length_b   5.07146478
_cell_length_c   14.03935912
_cell_angle_alpha   90.00000000
_cell_angle_beta   114.40707743
_cell_angle_gamma   90.00000000
_symmetry_Int_Tables_number   1
_chemical_formula_structural   Li2FeP2O7
_chemical_formula_sum   'Li8 Fe4 P8 O28'
_cell_volume   551.33491974
_cell_formula_units_Z   4
loop_
 _symmetry_equiv_pos_site_id
 _symmetry_equiv_pos_as_xyz
  1  'x, y, z'
loop_
 _atom_site_type_symbol
 _atom_site_label
 _atom_site_symmetry_multiplicity
 _atom_site_fract_x
 _atom_site_fract_y
 _atom_site_fract_z
 _atom_site_occupancy
  Li  Li0  1  0.044888  0.241684  0.174263  1
  Li  Li1  1  0.505918  0.220911  0.423895  1
  Li  Li2  1  0.044888  0.258316  0.674263  1
  Li  Li3  1  0.955112  0.741684  0.325737  1
  Li  Li4  1  0.494082  0.779089  0.576105  1
  Li  Li5  1  0.955112  0.758316  0.825737  1
  Li  Li6  1  0.494082  0.720911  0.076105  1
  Li  Li7  1  0.505918  0.279089  0.923895  1
  Fe  Fe8  1  0.220587  0.255902  0.478696  1
  Fe  Fe9  1  0.220587  0.244098  0.978696  1
  Fe  Fe10  1  0.779413  0.755902  0.021304  1
  Fe  Fe11  1  0.779413  0.744098  0.521304  1
  P  P12  1  0.807850  0.238493  0.377121  1
  P  P13  1  0.192150  0.761507  0.622879  1
  P  P14  1  0.192150  0.738493  0.122879  1
  P  P15  1  0.807850  0.261507  0.877121  1
  P  P16  1  0.671284  0.264915  0.646980  1
  P  P17  1  0.328716  0.764915  0.853020  1
  P  P18  1  0.671284  0.235085  0.146980  1
  P  P19  1  0.328716  0.735085  0.353020  1
  O  O20  1  0.274440  0.872484  0.057609  1
  O  O21  1  0.165688  0.441624  0.101263  1
  O  O22  1  0.834312  0.941624  0.398737  1
  O  O23  1  0.834312  0.558376  0.898737  1
  O  O24  1  0.183807  0.591896  0.857753  1
  O  O25  1  0.699255  0.938805  0.138406  1
  O  O26  1  0.338523  0.717334  0.741416  1
  O  O27  1  0.028560  0.875248  0.119848  1
  O  O28  1  0.699255  0.561195  0.638406  1
  O  O29  1  0.661477  0.282666  0.258584  1
  O  O30  1  0.725560  0.372484  0.442391  1
  O  O31  1  0.971440  0.375248  0.380152  1
  O  O32  1  0.338523  0.782666  0.241416  1
  O  O33  1  0.165688  0.058376  0.601263  1
  O  O34  1  0.725560  0.127516  0.942391  1
  O  O35  1  0.507857  0.828862  0.431636  1
  O  O36  1  0.507857  0.671138  0.931636  1
  O  O37  1  0.492143  0.328862  0.068364  1
  O  O38  1  0.661477  0.217334  0.758584  1
  O  O39  1  0.183807  0.908104  0.357753  1
  O  O40  1  0.492143  0.171138  0.568364  1
  O  O41  1  0.971440  0.124752  0.880152  1
  O  O42  1  0.028560  0.624752  0.619848  1
  O  O43  1  0.816193  0.091896  0.642247  1
  O  O44  1  0.816193  0.408104  0.142247  1
  O  O45  1  0.300745  0.438805  0.361594  1
  O  O46  1  0.274440  0.627516  0.557609  1
  O  O47  1  0.300745  0.061195  0.861594  1
