# generated using pymatgen
data_BaV2TeO8
_symmetry_space_group_name_H-M   'P 1'
_cell_length_a   9.89727986
_cell_length_b   5.69475855
_cell_length_c   14.64542387
_cell_angle_alpha   90.00000000
_cell_angle_beta   112.42386156
_cell_angle_gamma   90.00000000
_symmetry_Int_Tables_number   1
_chemical_formula_structural   BaV2TeO8
_chemical_formula_sum   'Ba4 V8 Te4 O32'
_cell_volume   763.03956799
_cell_formula_units_Z   4
loop_
 _symmetry_equiv_pos_site_id
 _symmetry_equiv_pos_as_xyz
  1  'x, y, z'
loop_
 _atom_site_type_symbol
 _atom_site_label
 _atom_site_symmetry_multiplicity
 _atom_site_fract_x
 _atom_site_fract_y
 _atom_site_fract_z
 _atom_site_occupancy
  Ba  Ba0  1  0.755263  0.312875  0.163473  1
  Ba  Ba1  1  0.244737  0.687125  0.836527  1
  Ba  Ba2  1  0.755263  0.187125  0.663473  1
  Ba  Ba3  1  0.244737  0.812875  0.336527  1
  V  V4  1  0.004671  0.841427  0.086563  1
  V  V5  1  0.518736  0.152098  0.862502  1
  V  V6  1  0.995329  0.341427  0.413437  1
  V  V7  1  0.995329  0.158573  0.913437  1
  V  V8  1  0.004671  0.658573  0.586563  1
  V  V9  1  0.481264  0.847902  0.137498  1
  V  V10  1  0.518736  0.347902  0.362502  1
  V  V11  1  0.481264  0.652098  0.637498  1
  Te  Te12  1  0.283509  0.163283  0.591280  1
  Te  Te13  1  0.716491  0.663283  0.908720  1
  Te  Te14  1  0.283509  0.336717  0.091280  1
  Te  Te15  1  0.716491  0.836717  0.408720  1
  O  O16  1  0.156629  0.115376  0.454678  1
  O  O17  1  0.137306  0.635977  0.139259  1
  O  O18  1  0.395036  0.899901  0.558929  1
  O  O19  1  0.012613  0.008687  0.819647  1
  O  O20  1  0.576324  0.880969  0.934601  1
  O  O21  1  0.433537  0.865905  0.236201  1
  O  O22  1  0.862694  0.364023  0.860741  1
  O  O23  1  0.423676  0.380969  0.565399  1
  O  O24  1  0.335756  0.172541  0.824287  1
  O  O25  1  0.566463  0.365905  0.263799  1
  O  O26  1  0.012613  0.491313  0.319647  1
  O  O27  1  0.576324  0.619031  0.434601  1
  O  O28  1  0.604964  0.399901  0.941071  1
  O  O29  1  0.156629  0.384624  0.954678  1
  O  O30  1  0.843371  0.884624  0.545322  1
  O  O31  1  0.664244  0.672541  0.675713  1
  O  O32  1  0.335756  0.327459  0.324287  1
  O  O33  1  0.395036  0.600099  0.058929  1
  O  O34  1  0.433537  0.634095  0.736201  1
  O  O35  1  0.124269  0.450463  0.546962  1
  O  O36  1  0.124269  0.049537  0.046962  1
  O  O37  1  0.875731  0.549537  0.453038  1
  O  O38  1  0.862694  0.135977  0.360741  1
  O  O39  1  0.987387  0.508687  0.680353  1
  O  O40  1  0.664244  0.827459  0.175713  1
  O  O41  1  0.875731  0.950463  0.953038  1
  O  O42  1  0.423676  0.119031  0.065399  1
  O  O43  1  0.566463  0.134095  0.763799  1
  O  O44  1  0.987387  0.991313  0.180353  1
  O  O45  1  0.604964  0.100099  0.441071  1
  O  O46  1  0.843371  0.615376  0.045322  1
  O  O47  1  0.137306  0.864023  0.639259  1
