# generated using pymatgen
data_ZnFe2(SeO3)4
_symmetry_space_group_name_H-M   'P 1'
_cell_length_a   8.19255046
_cell_length_b   8.18853985
_cell_length_c   8.33685565
_cell_angle_alpha   90.00000000
_cell_angle_beta   92.24032294
_cell_angle_gamma   90.00000000
_symmetry_Int_Tables_number   1
_chemical_formula_structural   ZnFe2(SeO3)4
_chemical_formula_sum   'Zn2 Fe4 Se8 O24'
_cell_volume   558.85069487
_cell_formula_units_Z   2
loop_
 _symmetry_equiv_pos_site_id
 _symmetry_equiv_pos_as_xyz
  1  'x, y, z'
loop_
 _atom_site_type_symbol
 _atom_site_label
 _atom_site_symmetry_multiplicity
 _atom_site_fract_x
 _atom_site_fract_y
 _atom_site_fract_z
 _atom_site_occupancy
  Zn  Zn0  1  0.344497  0.601541  0.836861  1
  Zn  Zn1  1  0.844497  0.398459  0.836861  1
  Fe  Fe2  1  0.750422  0.760608  0.999783  1
  Fe  Fe3  1  0.243894  0.739922  0.491475  1
  Fe  Fe4  1  0.250422  0.239392  0.999783  1
  Fe  Fe5  1  0.743894  0.260078  0.491475  1
  Se  Se6  1  0.549768  0.095486  0.808775  1
  Se  Se7  1  0.049768  0.904514  0.808775  1
  Se  Se8  1  0.450696  0.571930  0.179366  1
  Se  Se9  1  0.167109  0.324519  0.585438  1
  Se  Se10  1  0.419240  0.057045  0.319941  1
  Se  Se11  1  0.950696  0.428070  0.179366  1
  Se  Se12  1  0.667109  0.675481  0.585438  1
  Se  Se13  1  0.919240  0.942955  0.319941  1
  O  O14  1  0.698341  0.963384  0.880505  1
  O  O15  1  0.009392  0.309726  0.012273  1
  O  O16  1  0.256981  0.161792  0.223952  1
  O  O17  1  0.459595  0.666512  0.633131  1
  O  O18  1  0.176832  0.751734  0.730996  1
  O  O19  1  0.491014  0.192534  0.980244  1
  O  O20  1  0.512610  0.218879  0.421361  1
  O  O21  1  0.758312  0.626537  0.773728  1
  O  O22  1  0.348448  0.719253  0.278456  1
  O  O23  1  0.959595  0.333488  0.633131  1
  O  O24  1  0.315674  0.972559  0.478936  1
  O  O25  1  0.293724  0.482416  0.061524  1
  O  O26  1  0.756981  0.838208  0.223952  1
  O  O27  1  0.694151  0.502978  0.477354  1
  O  O28  1  0.848448  0.280747  0.278456  1
  O  O29  1  0.676832  0.248266  0.730996  1
  O  O30  1  0.258312  0.373463  0.773728  1
  O  O31  1  0.198341  0.036616  0.880505  1
  O  O32  1  0.815674  0.027441  0.478936  1
  O  O33  1  0.793724  0.517584  0.061524  1
  O  O34  1  0.509391  0.690274  0.012273  1
  O  O35  1  0.012610  0.781121  0.421361  1
  O  O36  1  0.194151  0.497022  0.477354  1
  O  O37  1  0.991014  0.807466  0.980244  1
