# generated using pymatgen
data_Ti3PbO7
_symmetry_space_group_name_H-M   'P 1'
_cell_length_a   6.68049418
_cell_length_b   3.83644990
_cell_length_c   10.83378306
_cell_angle_alpha   90.00000000
_cell_angle_beta   97.80024490
_cell_angle_gamma   90.00000000
_symmetry_Int_Tables_number   1
_chemical_formula_structural   Ti3PbO7
_chemical_formula_sum   'Ti6 Pb2 O14'
_cell_volume   275.09401144
_cell_formula_units_Z   2
loop_
 _symmetry_equiv_pos_site_id
 _symmetry_equiv_pos_as_xyz
  1  'x, y, z'
loop_
 _atom_site_type_symbol
 _atom_site_label
 _atom_site_symmetry_multiplicity
 _atom_site_fract_x
 _atom_site_fract_y
 _atom_site_fract_z
 _atom_site_occupancy
  Ti  Ti0  1  0.448858  0.250000  0.101320  1
  Ti  Ti1  1  0.551142  0.750000  0.898680  1
  Ti  Ti2  1  0.305904  0.250000  0.435831  1
  Ti  Ti3  1  0.694096  0.750000  0.564169  1
  Ti  Ti4  1  0.745234  0.250000  0.343844  1
  Ti  Ti5  1  0.254766  0.750000  0.656156  1
  Pb  Pb6  1  0.994973  0.250000  0.848644  1
  Pb  Pb7  1  0.005027  0.750000  0.151356  1
  O  O8  1  0.523594  0.250000  0.925923  1
  O  O9  1  0.476406  0.750000  0.074077  1
  O  O10  1  0.256968  0.250000  0.618659  1
  O  O11  1  0.743032  0.750000  0.381341  1
  O  O12  1  0.645570  0.250000  0.521579  1
  O  O13  1  0.354430  0.750000  0.478421  1
  O  O14  1  0.170620  0.250000  0.056838  1
  O  O15  1  0.829380  0.750000  0.943162  1
  O  O16  1  0.045569  0.250000  0.372136  1
  O  O17  1  0.954431  0.750000  0.627864  1
  O  O18  1  0.435679  0.250000  0.285522  1
  O  O19  1  0.564321  0.750000  0.714478  1
  O  O20  1  0.752830  0.250000  0.175891  1
  O  O21  1  0.247170  0.750000  0.824109  1
