# generated using pymatgen
data_DyCuS2
_symmetry_space_group_name_H-M   'P 1'
_cell_length_a   3.96055754
_cell_length_b   6.25766837
_cell_length_c   13.47608963
_cell_angle_alpha   90.00000000
_cell_angle_beta   90.00000000
_cell_angle_gamma   90.00000000
_symmetry_Int_Tables_number   1
_chemical_formula_structural   DyCuS2
_chemical_formula_sum   'Dy4 Cu4 S8'
_cell_volume   333.98946006
_cell_formula_units_Z   4
loop_
 _symmetry_equiv_pos_site_id
 _symmetry_equiv_pos_as_xyz
  1  'x, y, z'
loop_
 _atom_site_type_symbol
 _atom_site_label
 _atom_site_symmetry_multiplicity
 _atom_site_fract_x
 _atom_site_fract_y
 _atom_site_fract_z
 _atom_site_occupancy
  Dy  Dy0  1  0.742263  0.748309  0.366917  1
  Dy  Dy1  1  0.757737  0.251691  0.866917  1
  Dy  Dy2  1  0.257737  0.248309  0.133083  1
  Dy  Dy3  1  0.242263  0.751691  0.633083  1
  Cu  Cu4  1  0.726887  0.373931  0.547458  1
  Cu  Cu5  1  0.773113  0.626069  0.047458  1
  Cu  Cu6  1  0.273113  0.873931  0.952542  1
  Cu  Cu7  1  0.226887  0.126069  0.452542  1
  S  S8  1  0.260354  0.497279  0.961372  1
  S  S9  1  0.739646  0.997279  0.538628  1
  S  S10  1  0.239646  0.502721  0.461372  1
  S  S11  1  0.242959  0.987235  0.294907  1
  S  S12  1  0.760354  0.002721  0.038628  1
  S  S13  1  0.257041  0.012765  0.794907  1
  S  S14  1  0.757041  0.487235  0.205093  1
  S  S15  1  0.742959  0.512765  0.705093  1
