# generated using pymatgen
data_Ti3Tl3(PO4)5
_symmetry_space_group_name_H-M   'P 1'
_cell_length_a   6.40304599
_cell_length_b   14.94300463
_cell_length_c   18.52174970
_cell_angle_alpha   90.00000000
_cell_angle_beta   90.00000000
_cell_angle_gamma   90.00000000
_symmetry_Int_Tables_number   1
_chemical_formula_structural   Ti3Tl3(PO4)5
_chemical_formula_sum   'Ti12 Tl12 P20 O80'
_cell_volume   1772.17482620
_cell_formula_units_Z   4
loop_
 _symmetry_equiv_pos_site_id
 _symmetry_equiv_pos_as_xyz
  1  'x, y, z'
loop_
 _atom_site_type_symbol
 _atom_site_label
 _atom_site_symmetry_multiplicity
 _atom_site_fract_x
 _atom_site_fract_y
 _atom_site_fract_z
 _atom_site_occupancy
  Ti  Ti0  1  0.744145  0.377523  0.543742  1
  Ti  Ti1  1  0.255855  0.377523  0.043742  1
  Ti  Ti2  1  0.246840  0.747888  0.147357  1
  Ti  Ti3  1  0.753160  0.747888  0.647357  1
  Ti  Ti4  1  0.744227  0.639621  0.948409  1
  Ti  Ti5  1  0.255773  0.139621  0.051591  1
  Ti  Ti6  1  0.255855  0.877523  0.456258  1
  Ti  Ti7  1  0.246840  0.247888  0.352643  1
  Ti  Ti8  1  0.744145  0.877523  0.956258  1
  Ti  Ti9  1  0.255773  0.639621  0.448409  1
  Ti  Ti10  1  0.744227  0.139621  0.551591  1
  Ti  Ti11  1  0.753160  0.247888  0.852643  1
  Tl  Tl12  1  0.854836  0.475560  0.344966  1
  Tl  Tl13  1  0.143770  0.027224  0.850652  1
  Tl  Tl14  1  0.856230  0.527224  0.149348  1
  Tl  Tl15  1  0.827726  0.249553  0.177664  1
  Tl  Tl16  1  0.827726  0.749553  0.322336  1
  Tl  Tl17  1  0.145164  0.975560  0.655034  1
  Tl  Tl18  1  0.854836  0.975560  0.155034  1
  Tl  Tl19  1  0.145164  0.475560  0.844966  1
  Tl  Tl20  1  0.856230  0.027224  0.350652  1
  Tl  Tl21  1  0.143770  0.527224  0.649348  1
  Tl  Tl22  1  0.172274  0.249553  0.677664  1
  Tl  Tl23  1  0.172274  0.749553  0.822336  1
  P  P24  1  0.642990  0.399914  0.721849  1
  P  P25  1  0.254852  0.751523  0.603380  1
  P  P26  1  0.642990  0.899914  0.778151  1
  P  P27  1  0.644399  0.591678  0.773123  1
  P  P28  1  0.357010  0.899914  0.278151  1
  P  P29  1  0.753269  0.109915  0.003036  1
  P  P30  1  0.254852  0.251523  0.896620  1
  P  P31  1  0.644399  0.091678  0.726877  1
  P  P32  1  0.355601  0.091678  0.226877  1
  P  P33  1  0.745148  0.751523  0.103380  1
  P  P34  1  0.745148  0.251523  0.396620  1
  P  P35  1  0.355601  0.591678  0.273123  1
  P  P36  1  0.246414  0.406180  0.489191  1
  P  P37  1  0.753586  0.406180  0.989191  1
  P  P38  1  0.246414  0.906180  0.010809  1
  P  P39  1  0.753269  0.609915  0.496964  1
  P  P40  1  0.357010  0.399914  0.221849  1
  P  P41  1  0.246731  0.609915  0.996964  1
  P  P42  1  0.753586  0.906180  0.510809  1
  P  P43  1  0.246731  0.109915  0.503036  1
  O  O44  1  0.238143  0.851238  0.082278  1
  O  O45  1  0.440698  0.134903  0.548650  1
  O  O46  1  0.065225  0.248294  0.844680  1
  O  O47  1  0.753402  0.510083  0.515199  1
  O  O48  1  0.754964  0.824155  0.736698  1
  O  O49  1  0.559302  0.134903  0.048650  1
  O  O50  1  0.055784  0.633566  0.949044  1
  O  O51  1  0.752383  0.117314  0.655546  1
  O  O52  1  0.239974  0.667094  0.066740  1
  O  O53  1  0.246987  0.506307  0.470757  1
  O  O54  1  0.056242  0.383238  0.538050  1
  O  O55  1  0.757694  0.139581  0.789347  1
  O  O56  1  0.590528  0.598758  0.272670  1
  O  O57  1  0.934775  0.248294  0.344680  1
  O  O58  1  0.749708  0.340326  0.439317  1
  O  O59  1  0.056242  0.883238  0.961950  1
  O  O60  1  0.282747  0.487514  0.267266  1
  O  O61  1  0.250502  0.260443  0.069004  1
  O  O62  1  0.242306  0.639581  0.210653  1
  O  O63  1  0.761857  0.851238  0.582278  1
  O  O64  1  0.440698  0.634903  0.951350  1
  O  O65  1  0.250292  0.340326  0.939317  1
  O  O66  1  0.559302  0.634903  0.451350  1
  O  O67  1  0.546686  0.749481  0.150932  1
  O  O68  1  0.944216  0.133566  0.050956  1
  O  O69  1  0.754964  0.324155  0.763302  1
  O  O70  1  0.246598  0.010083  0.484801  1
  O  O71  1  0.252001  0.667636  0.554363  1
  O  O72  1  0.250292  0.840326  0.560683  1
  O  O73  1  0.747999  0.167636  0.445637  1
  O  O74  1  0.752383  0.617314  0.844454  1
  O  O75  1  0.761857  0.351238  0.917722  1
  O  O76  1  0.717253  0.987514  0.732734  1
  O  O77  1  0.590528  0.098758  0.227330  1
  O  O78  1  0.749498  0.760443  0.930996  1
  O  O79  1  0.282747  0.987514  0.232734  1
  O  O80  1  0.242306  0.139581  0.289347  1
  O  O81  1  0.247617  0.117314  0.155546  1
  O  O82  1  0.250502  0.760443  0.430996  1
  O  O83  1  0.253156  0.413620  0.147195  1
  O  O84  1  0.252001  0.167636  0.945637  1
  O  O85  1  0.546686  0.249481  0.349068  1
  O  O86  1  0.757694  0.639581  0.710653  1
  O  O87  1  0.934775  0.748294  0.155320  1
  O  O88  1  0.753013  0.006307  0.529243  1
  O  O89  1  0.055784  0.133566  0.550956  1
  O  O90  1  0.440909  0.381511  0.534762  1
  O  O91  1  0.409472  0.598758  0.772670  1
  O  O92  1  0.746844  0.413620  0.647195  1
  O  O93  1  0.238143  0.351238  0.417722  1
  O  O94  1  0.245036  0.324155  0.263302  1
  O  O95  1  0.253156  0.913620  0.352805  1
  O  O96  1  0.943758  0.383238  0.038050  1
  O  O97  1  0.247617  0.617314  0.344454  1
  O  O98  1  0.239974  0.167094  0.433260  1
  O  O99  1  0.753402  0.010083  0.984801  1
  O  O100  1  0.746844  0.913620  0.852805  1
  O  O101  1  0.246598  0.510083  0.015199  1
  O  O102  1  0.747999  0.667636  0.054363  1
  O  O103  1  0.409472  0.098758  0.727330  1
  O  O104  1  0.943758  0.883238  0.461950  1
  O  O105  1  0.245036  0.824155  0.236698  1
  O  O106  1  0.592305  0.394889  0.220032  1
  O  O107  1  0.065225  0.748294  0.655320  1
  O  O108  1  0.717253  0.487514  0.767266  1
  O  O109  1  0.753013  0.506307  0.970757  1
  O  O110  1  0.440909  0.881511  0.965238  1
  O  O111  1  0.559091  0.381511  0.034762  1
  O  O112  1  0.407695  0.394889  0.720032  1
  O  O113  1  0.453314  0.749481  0.650932  1
  O  O114  1  0.749498  0.260443  0.569004  1
  O  O115  1  0.246987  0.006307  0.029243  1
  O  O116  1  0.760026  0.667094  0.566740  1
  O  O117  1  0.592305  0.894889  0.279968  1
  O  O118  1  0.944216  0.633566  0.449044  1
  O  O119  1  0.749708  0.840326  0.060683  1
  O  O120  1  0.407695  0.894889  0.779968  1
  O  O121  1  0.760026  0.167094  0.933260  1
  O  O122  1  0.559091  0.881511  0.465238  1
  O  O123  1  0.453314  0.249481  0.849068  1
