# generated using pymatgen
data_Cs2MnO4
_symmetry_space_group_name_H-M   'P 1'
_cell_length_a   6.40836547
_cell_length_b   8.57690131
_cell_length_c   11.38817165
_cell_angle_alpha   90.00000000
_cell_angle_beta   90.00000000
_cell_angle_gamma   90.00000000
_symmetry_Int_Tables_number   1
_chemical_formula_structural   Cs2MnO4
_chemical_formula_sum   'Cs8 Mn4 O16'
_cell_volume   625.93853496
_cell_formula_units_Z   4
loop_
 _symmetry_equiv_pos_site_id
 _symmetry_equiv_pos_as_xyz
  1  'x, y, z'
loop_
 _atom_site_type_symbol
 _atom_site_label
 _atom_site_symmetry_multiplicity
 _atom_site_fract_x
 _atom_site_fract_y
 _atom_site_fract_z
 _atom_site_occupancy
  Cs  Cs0  1  0.750000  0.169020  0.411331  1
  Cs  Cs1  1  0.250000  0.830980  0.588669  1
  Cs  Cs2  1  0.750000  0.669020  0.088669  1
  Cs  Cs3  1  0.250000  0.330980  0.911331  1
  Cs  Cs4  1  0.750000  0.487321  0.693489  1
  Cs  Cs5  1  0.250000  0.512679  0.306511  1
  Cs  Cs6  1  0.750000  0.987321  0.806511  1
  Cs  Cs7  1  0.250000  0.012679  0.193489  1
  Mn  Mn8  1  0.750000  0.736114  0.419587  1
  Mn  Mn9  1  0.250000  0.263886  0.580413  1
  Mn  Mn10  1  0.750000  0.236114  0.080413  1
  Mn  Mn11  1  0.250000  0.763886  0.919587  1
  O  O12  1  0.750000  0.542561  0.415222  1
  O  O13  1  0.250000  0.457439  0.584778  1
  O  O14  1  0.750000  0.042561  0.084778  1
  O  O15  1  0.250000  0.957439  0.915222  1
  O  O16  1  0.750000  0.792448  0.560117  1
  O  O17  1  0.250000  0.207552  0.439883  1
  O  O18  1  0.750000  0.292448  0.939883  1
  O  O19  1  0.250000  0.707552  0.060117  1
  O  O20  1  0.961498  0.806855  0.352874  1
  O  O21  1  0.461498  0.193145  0.647126  1
  O  O22  1  0.538502  0.306855  0.147126  1
  O  O23  1  0.038502  0.693145  0.852874  1
  O  O24  1  0.038502  0.193145  0.647126  1
  O  O25  1  0.538502  0.806855  0.352874  1
  O  O26  1  0.461498  0.693145  0.852874  1
  O  O27  1  0.961498  0.306855  0.147126  1
