# generated using pymatgen
data_KNO2
_symmetry_space_group_name_H-M   'P 1'
_cell_length_a   4.27756248
_cell_length_b   4.27756248
_cell_length_c   4.19042122
_cell_angle_alpha   76.67814540
_cell_angle_beta   103.32185460
_cell_angle_gamma   94.45344342
_symmetry_Int_Tables_number   1
_chemical_formula_structural   KNO2
_chemical_formula_sum   'K1 N1 O2'
_cell_volume   72.57905155
_cell_formula_units_Z   1
loop_
 _symmetry_equiv_pos_site_id
 _symmetry_equiv_pos_as_xyz
  1  'x, y, z'
loop_
 _atom_site_type_symbol
 _atom_site_label
 _atom_site_symmetry_multiplicity
 _atom_site_fract_x
 _atom_site_fract_y
 _atom_site_fract_z
 _atom_site_occupancy
  K  K0  1  0.002664  0.997336  0.054775  1
  N  N1  1  0.504323  0.495677  0.441640  1
  O  O2  1  0.395027  0.233717  0.598691  1
  O  O3  1  0.766283  0.604973  0.598691  1
