# generated using pymatgen
data_Sb8Cl2O11
_symmetry_space_group_name_H-M   'P 1'
_cell_length_a   10.69974174
_cell_length_b   11.55225414
_cell_length_c   14.24612063
_cell_angle_alpha   78.35051426
_cell_angle_beta   76.41378419
_cell_angle_gamma   72.83365321
_symmetry_Int_Tables_number   1
_chemical_formula_structural   Sb8Cl2O11
_chemical_formula_sum   'Sb32 Cl8 O44'
_cell_volume   1618.63064504
_cell_formula_units_Z   4
loop_
 _symmetry_equiv_pos_site_id
 _symmetry_equiv_pos_as_xyz
  1  'x, y, z'
loop_
 _atom_site_type_symbol
 _atom_site_label
 _atom_site_symmetry_multiplicity
 _atom_site_fract_x
 _atom_site_fract_y
 _atom_site_fract_z
 _atom_site_occupancy
  Sb  Sb0  1  0.362389  0.888457  0.729297  1
  Sb  Sb1  1  0.296610  0.627178  0.391436  1
  Sb  Sb2  1  0.993171  0.379337  0.812840  1
  Sb  Sb3  1  0.309474  0.860540  0.134494  1
  Sb  Sb4  1  0.839765  0.850331  0.683307  1
  Sb  Sb5  1  0.309487  0.126975  0.859949  1
  Sb  Sb6  1  0.275878  0.376907  0.638680  1
  Sb  Sb7  1  0.369346  0.650287  0.974325  1
  Sb  Sb8  1  0.018379  0.613617  0.558315  1
  Sb  Sb9  1  0.690526  0.139460  0.865506  1
  Sb  Sb10  1  0.175290  0.911593  0.558524  1
  Sb  Sb11  1  0.841794  0.579000  0.968467  1
  Sb  Sb12  1  0.158206  0.421000  0.031533  1
  Sb  Sb13  1  0.011514  0.100708  0.068112  1
  Sb  Sb14  1  0.968577  0.148992  0.689303  1
  Sb  Sb15  1  0.660394  0.857038  0.505431  1
  Sb  Sb16  1  0.665126  0.597606  0.753845  1
  Sb  Sb17  1  0.006829  0.620663  0.187160  1
  Sb  Sb18  1  0.988486  0.899292  0.931888  1
  Sb  Sb19  1  0.339606  0.142962  0.494569  1
  Sb  Sb20  1  0.690513  0.873025  0.140051  1
  Sb  Sb21  1  0.703390  0.372822  0.608564  1
  Sb  Sb22  1  0.630654  0.349713  0.025675  1
  Sb  Sb23  1  0.981621  0.386383  0.441685  1
  Sb  Sb24  1  0.187902  0.666239  0.797952  1
  Sb  Sb25  1  0.724122  0.623093  0.361320  1
  Sb  Sb26  1  0.031423  0.851008  0.310697  1
  Sb  Sb27  1  0.334874  0.402394  0.246155  1
  Sb  Sb28  1  0.824710  0.088407  0.441476  1
  Sb  Sb29  1  0.812098  0.333761  0.202048  1
  Sb  Sb30  1  0.637611  0.111543  0.270703  1
  Sb  Sb31  1  0.160235  0.149669  0.316693  1
  Cl  Cl32  1  0.530081  0.816179  0.912994  1
  Cl  Cl33  1  0.492013  0.894364  0.351031  1
  Cl  Cl34  1  0.507987  0.105636  0.648969  1
  Cl  Cl35  1  0.499363  0.638433  0.167969  1
  Cl  Cl36  1  0.491149  0.369522  0.403062  1
  Cl  Cl37  1  0.500637  0.361567  0.832031  1
  Cl  Cl38  1  0.469919  0.183821  0.087006  1
  Cl  Cl39  1  0.508851  0.630478  0.596938  1
  O  O40  1  0.215166  0.270770  0.572155  1
  O  O41  1  0.990418  0.239603  0.140802  1
  O  O42  1  0.787920  0.173002  0.299005  1
  O  O43  1  0.238489  0.012724  0.810259  1
  O  O44  1  0.761511  0.987276  0.189741  1
  O  O45  1  0.222524  0.535595  0.322446  1
  O  O46  1  0.184783  0.093635  0.456882  1
  O  O47  1  0.982001  0.264012  0.357788  1
  O  O48  1  0.216893  0.572936  0.963450  1
  O  O49  1  0.826857  0.862732  0.017927  1
  O  O50  1  0.777476  0.464405  0.677554  1
  O  O51  1  0.795614  0.718210  0.210518  1
  O  O52  1  0.902144  0.272248  0.568227  1
  O  O53  1  0.009582  0.760397  0.859198  1
  O  O54  1  0.973969  0.528528  0.088920  1
  O  O55  1  0.783107  0.427064  0.036550  1
  O  O56  1  0.009133  0.996487  0.378503  1
  O  O57  1  0.784834  0.729230  0.427845  1
  O  O58  1  0.921752  0.531685  0.311632  1
  O  O59  1  0.256956  0.271798  0.335003  1
  O  O60  1  0.767101  0.202607  0.726918  1
  O  O61  1  0.743044  0.728202  0.664997  1
  O  O62  1  0.695004  0.257345  0.149705  1
  O  O63  1  0.109994  0.971017  0.161218  1
  O  O64  1  0.243309  0.767331  0.060520  1
  O  O65  1  0.232899  0.797393  0.273082  1
  O  O66  1  0.097856  0.727752  0.431773  1
  O  O67  1  0.204386  0.281790  0.789482  1
  O  O68  1  0.781476  0.460695  0.467830  1
  O  O69  1  0.990867  0.003513  0.621497  1
  O  O70  1  0.212080  0.826998  0.700995  1
  O  O71  1  0.304996  0.742655  0.850295  1
  O  O72  1  0.078248  0.468315  0.688368  1
  O  O73  1  0.181117  0.455117  0.168072  1
  O  O74  1  0.756691  0.232669  0.939480  1
  O  O75  1  0.815217  0.906365  0.543118  1
  O  O76  1  0.818883  0.544883  0.831928  1
  O  O77  1  0.708601  0.999825  0.400047  1
  O  O78  1  0.291399  0.000175  0.599953  1
  O  O79  1  0.017999  0.735988  0.642212  1
  O  O80  1  0.026031  0.471472  0.911080  1
  O  O81  1  0.173143  0.137268  0.982073  1
  O  O82  1  0.218524  0.539305  0.532170  1
  O  O83  1  0.890006  0.028983  0.838782  1
