# generated using pymatgen
data_Li3VF6
_symmetry_space_group_name_H-M   'P 1'
_cell_length_a   8.54750333
_cell_length_b   8.54750333
_cell_length_c   10.27292017
_cell_angle_alpha   84.85735188
_cell_angle_beta   95.14264812
_cell_angle_gamma   117.78260228
_symmetry_Int_Tables_number   1
_chemical_formula_structural   Li3VF6
_chemical_formula_sum   'Li18 V6 F36'
_cell_volume   660.36862023
_cell_formula_units_Z   6
loop_
 _symmetry_equiv_pos_site_id
 _symmetry_equiv_pos_as_xyz
  1  'x, y, z'
loop_
 _atom_site_type_symbol
 _atom_site_label
 _atom_site_symmetry_multiplicity
 _atom_site_fract_x
 _atom_site_fract_y
 _atom_site_fract_z
 _atom_site_occupancy
  Li  Li0  1  0.810169  0.810169  0.250000  1
  Li  Li1  1  0.991178  0.707844  0.774318  1
  Li  Li2  1  0.707844  0.991178  0.725682  1
  Li  Li3  1  0.008822  0.292156  0.225682  1
  Li  Li4  1  0.292156  0.008822  0.274318  1
  Li  Li5  1  0.674378  0.628345  0.529737  1
  Li  Li6  1  0.628345  0.674378  0.970263  1
  Li  Li7  1  0.189831  0.189831  0.750000  1
  Li  Li8  1  0.654223  0.057169  0.070203  1
  Li  Li9  1  0.057169  0.654223  0.429797  1
  Li  Li10  1  0.345777  0.942831  0.929797  1
  Li  Li11  1  0.942831  0.345777  0.570203  1
  Li  Li12  1  0.529450  0.867162  0.450697  1
  Li  Li13  1  0.867162  0.529450  0.049303  1
  Li  Li14  1  0.470550  0.132838  0.549303  1
  Li  Li15  1  0.132838  0.470550  0.950697  1
  Li  Li16  1  0.371655  0.325622  0.029737  1
  Li  Li17  1  0.325622  0.371655  0.470263  1
  V  V18  1  0.663751  0.339703  0.293741  1
  V  V19  1  0.339703  0.663751  0.206259  1
  V  V20  1  0.336249  0.660297  0.706259  1
  V  V21  1  0.660297  0.336249  0.793741  1
  V  V22  1  0.000000  0.000000  0.000000  1
  V  V23  1  0.000000  0.000000  0.500000  1
  F  F24  1  0.925188  0.070097  0.330759  1
  F  F25  1  0.586878  0.105724  0.893302  1
  F  F26  1  0.105724  0.586878  0.606698  1
  F  F27  1  0.929903  0.074812  0.830759  1
  F  F28  1  0.074812  0.929903  0.669241  1
  F  F29  1  0.070097  0.925188  0.169241  1
  F  F30  1  0.569488  0.753096  0.306632  1
  F  F31  1  0.753096  0.569488  0.193368  1
  F  F32  1  0.430512  0.246904  0.693368  1
  F  F33  1  0.246904  0.430512  0.806632  1
  F  F34  1  0.434324  0.896877  0.612986  1
  F  F35  1  0.896877  0.434324  0.887014  1
  F  F36  1  0.565676  0.103123  0.387014  1
  F  F37  1  0.103123  0.565676  0.112986  1
  F  F38  1  0.561721  0.759760  0.808896  1
  F  F39  1  0.759760  0.561721  0.691104  1
  F  F40  1  0.438279  0.240240  0.191104  1
  F  F41  1  0.240240  0.438279  0.308896  1
  F  F42  1  0.772594  0.269785  0.157906  1
  F  F43  1  0.269785  0.772594  0.342094  1
  F  F44  1  0.227406  0.730215  0.842094  1
  F  F45  1  0.730215  0.227406  0.657906  1
  F  F46  1  0.915821  0.759481  0.939722  1
  F  F47  1  0.759481  0.915821  0.560278  1
  F  F48  1  0.084179  0.240519  0.060278  1
  F  F49  1  0.240519  0.084179  0.439722  1
  F  F50  1  0.755919  0.901828  0.068822  1
  F  F51  1  0.901828  0.755919  0.431178  1
  F  F52  1  0.244081  0.098172  0.931178  1
  F  F53  1  0.098172  0.244081  0.568822  1
  F  F54  1  0.433848  0.592840  0.564003  1
  F  F55  1  0.592840  0.433848  0.935997  1
  F  F56  1  0.566152  0.407160  0.435997  1
  F  F57  1  0.407160  0.566152  0.064003  1
  F  F58  1  0.413122  0.894276  0.106698  1
  F  F59  1  0.894276  0.413122  0.393302  1
