# generated using pymatgen
data_Cs2Al2Sb2O7
_symmetry_space_group_name_H-M   'P 1'
_cell_length_a   5.78785331
_cell_length_b   5.78785331
_cell_length_c   9.11824089
_cell_angle_alpha   90.00000000
_cell_angle_beta   90.00000000
_cell_angle_gamma   120.00000000
_symmetry_Int_Tables_number   1
_chemical_formula_structural   Cs2Al2Sb2O7
_chemical_formula_sum   'Cs2 Al2 Sb2 O7'
_cell_volume   264.53109147
_cell_formula_units_Z   1
loop_
 _symmetry_equiv_pos_site_id
 _symmetry_equiv_pos_as_xyz
  1  'x, y, z'
loop_
 _atom_site_type_symbol
 _atom_site_label
 _atom_site_symmetry_multiplicity
 _atom_site_fract_x
 _atom_site_fract_y
 _atom_site_fract_z
 _atom_site_occupancy
  Cs  Cs0  1  0.333333  0.666667  0.597464  1
  Cs  Cs1  1  0.666667  0.333333  0.402536  1
  Al  Al2  1  0.000000  0.000000  0.189481  1
  Al  Al3  1  0.000000  0.000000  0.810519  1
  Sb  Sb4  1  0.333333  0.666667  0.147039  1
  Sb  Sb5  1  0.666667  0.333333  0.852961  1
  O  O6  1  0.332608  0.166304  0.736659  1
  O  O7  1  0.166304  0.833696  0.263341  1
  O  O8  1  0.833696  0.166304  0.736659  1
  O  O9  1  0.667392  0.833696  0.263341  1
  O  O10  1  0.000000  0.000000  0.000000  1
  O  O11  1  0.166304  0.332608  0.263341  1
  O  O12  1  0.833696  0.667392  0.736659  1
