# generated using pymatgen
data_HgAs4(S2I)2
_symmetry_space_group_name_H-M   'P 1'
_cell_length_a   10.09952526
_cell_length_b   15.89930386
_cell_length_c   12.51349202
_cell_angle_alpha   90.00000000
_cell_angle_beta   128.24583175
_cell_angle_gamma   90.00000000
_symmetry_Int_Tables_number   1
_chemical_formula_structural   HgAs4(S2I)2
_chemical_formula_sum   'Hg4 As16 S16 I8'
_cell_volume   1578.07433390
_cell_formula_units_Z   4
loop_
 _symmetry_equiv_pos_site_id
 _symmetry_equiv_pos_as_xyz
  1  'x, y, z'
loop_
 _atom_site_type_symbol
 _atom_site_label
 _atom_site_symmetry_multiplicity
 _atom_site_fract_x
 _atom_site_fract_y
 _atom_site_fract_z
 _atom_site_occupancy
  Hg  Hg0  1  0.711048  0.954444  0.499682  1
  Hg  Hg1  1  0.288952  0.045556  0.500318  1
  Hg  Hg2  1  0.711048  0.545556  0.999682  1
  Hg  Hg3  1  0.288952  0.454444  0.000318  1
  As  As4  1  0.632908  0.047826  0.910191  1
  As  As5  1  0.784958  0.153781  0.213937  1
  As  As6  1  0.886198  0.532569  0.623843  1
  As  As7  1  0.113802  0.032569  0.876157  1
  As  As8  1  0.367092  0.547826  0.589809  1
  As  As9  1  0.969047  0.314742  0.635606  1
  As  As10  1  0.632908  0.452174  0.410191  1
  As  As11  1  0.030953  0.685258  0.364394  1
  As  As12  1  0.030953  0.814742  0.864394  1
  As  As13  1  0.969047  0.185258  0.135606  1
  As  As14  1  0.215042  0.846219  0.786063  1
  As  As15  1  0.113802  0.467431  0.376157  1
  As  As16  1  0.367092  0.952174  0.089809  1
  As  As17  1  0.215042  0.653781  0.286063  1
  As  As18  1  0.886198  0.967431  0.123843  1
  As  As19  1  0.784958  0.346219  0.713937  1
  S  S20  1  0.902559  0.557522  0.315545  1
  S  S21  1  0.458007  0.878543  0.991428  1
  S  S22  1  0.902559  0.942478  0.815545  1
  S  S23  1  0.097441  0.442478  0.684455  1
  S  S24  1  0.222375  0.656866  0.588033  1
  S  S25  1  0.222375  0.843134  0.088033  1
  S  S26  1  0.137540  0.982253  0.719836  1
  S  S27  1  0.862460  0.017747  0.280164  1
  S  S28  1  0.097441  0.057522  0.184455  1
  S  S29  1  0.777625  0.156866  0.911967  1
  S  S30  1  0.541993  0.378543  0.508572  1
  S  S31  1  0.862460  0.482253  0.780164  1
  S  S32  1  0.777625  0.343134  0.411967  1
  S  S33  1  0.458007  0.621457  0.491428  1
  S  S34  1  0.541993  0.121457  0.008572  1
  S  S35  1  0.137540  0.517747  0.219836  1
  I  I36  1  0.374269  0.615753  0.028786  1
  I  I37  1  0.374269  0.884247  0.528786  1
  I  I38  1  0.625731  0.115753  0.471214  1
  I  I39  1  0.625731  0.384247  0.971214  1
  I  I40  1  0.244690  0.204374  0.538200  1
  I  I41  1  0.244690  0.295626  0.038200  1
  I  I42  1  0.755310  0.704374  0.961800  1
  I  I43  1  0.755310  0.795626  0.461800  1
