# generated using pymatgen
data_WO3
_symmetry_space_group_name_H-M   'P 1'
_cell_length_a   7.70435557
_cell_length_b   7.70435557
_cell_length_c   3.89855218
_cell_angle_alpha   90.00000000
_cell_angle_beta   90.00000000
_cell_angle_gamma   90.00000000
_symmetry_Int_Tables_number   1
_chemical_formula_structural   WO3
_chemical_formula_sum   'W4 O12'
_cell_volume   231.40673113
_cell_formula_units_Z   4
loop_
 _symmetry_equiv_pos_site_id
 _symmetry_equiv_pos_as_xyz
  1  'x, y, z'
loop_
 _atom_site_type_symbol
 _atom_site_label
 _atom_site_symmetry_multiplicity
 _atom_site_fract_x
 _atom_site_fract_y
 _atom_site_fract_z
 _atom_site_occupancy
  W  W0  1  0.740169  0.240169  0.035882  1
  W  W1  1  0.259831  0.759831  0.035882  1
  W  W2  1  0.759831  0.740169  0.964118  1
  W  W3  1  0.240169  0.259831  0.964118  1
  O  O4  1  0.744559  0.244559  0.507740  1
  O  O5  1  0.244559  0.255441  0.492260  1
  O  O6  1  0.255441  0.755441  0.507740  1
  O  O7  1  0.755441  0.744559  0.492260  1
  O  O8  1  0.250166  0.004200  0.001134  1
  O  O9  1  0.249834  0.504200  0.998866  1
  O  O10  1  0.995800  0.250166  0.998866  1
  O  O11  1  0.749834  0.995800  0.001134  1
  O  O12  1  0.004200  0.749834  0.998866  1
  O  O13  1  0.495800  0.249834  0.001134  1
  O  O14  1  0.504200  0.750166  0.001134  1
  O  O15  1  0.750166  0.495800  0.998866  1
