# generated using pymatgen
data_BaNaZrF7
_symmetry_space_group_name_H-M   'P 1'
_cell_length_a   5.62076632
_cell_length_b   9.26578755
_cell_length_c   11.41228651
_cell_angle_alpha   90.00000000
_cell_angle_beta   90.00000000
_cell_angle_gamma   90.00000000
_symmetry_Int_Tables_number   1
_chemical_formula_structural   BaNaZrF7
_chemical_formula_sum   'Ba4 Na4 Zr4 F28'
_cell_volume   594.36131471
_cell_formula_units_Z   4
loop_
 _symmetry_equiv_pos_site_id
 _symmetry_equiv_pos_as_xyz
  1  'x, y, z'
loop_
 _atom_site_type_symbol
 _atom_site_label
 _atom_site_symmetry_multiplicity
 _atom_site_fract_x
 _atom_site_fract_y
 _atom_site_fract_z
 _atom_site_occupancy
  Ba  Ba0  1  0.250000  0.530512  0.672198  1
  Ba  Ba1  1  0.750000  0.469488  0.327802  1
  Ba  Ba2  1  0.250000  0.030512  0.827802  1
  Ba  Ba3  1  0.750000  0.969488  0.172198  1
  Na  Na4  1  0.250000  0.634527  0.054730  1
  Na  Na5  1  0.750000  0.365473  0.945270  1
  Na  Na6  1  0.750000  0.865473  0.554730  1
  Na  Na7  1  0.250000  0.134527  0.445270  1
  Zr  Zr8  1  0.250000  0.251199  0.139668  1
  Zr  Zr9  1  0.250000  0.751199  0.360332  1
  Zr  Zr10  1  0.750000  0.748801  0.860332  1
  Zr  Zr11  1  0.750000  0.248801  0.639668  1
  F  F12  1  0.996360  0.277904  0.774661  1
  F  F13  1  0.518502  0.575433  0.886504  1
  F  F14  1  0.518502  0.075433  0.613496  1
  F  F15  1  0.990100  0.327587  0.515443  1
  F  F16  1  0.003640  0.222096  0.274661  1
  F  F17  1  0.496360  0.222096  0.274661  1
  F  F18  1  0.018502  0.424567  0.113496  1
  F  F19  1  0.009900  0.172413  0.015443  1
  F  F20  1  0.503640  0.277904  0.774661  1
  F  F21  1  0.503640  0.777904  0.725339  1
  F  F22  1  0.509900  0.327587  0.515443  1
  F  F23  1  0.750000  0.477249  0.667888  1
  F  F24  1  0.509900  0.827587  0.984557  1
  F  F25  1  0.009900  0.672413  0.484557  1
  F  F26  1  0.496360  0.722096  0.225339  1
  F  F27  1  0.990100  0.827587  0.984557  1
  F  F28  1  0.981498  0.075433  0.613496  1
  F  F29  1  0.750000  0.977249  0.832112  1
  F  F30  1  0.481498  0.424567  0.113496  1
  F  F31  1  0.250000  0.022751  0.167888  1
  F  F32  1  0.481498  0.924567  0.386504  1
  F  F33  1  0.018502  0.924567  0.386504  1
  F  F34  1  0.996360  0.777904  0.725339  1
  F  F35  1  0.490100  0.672413  0.484557  1
  F  F36  1  0.490100  0.172413  0.015443  1
  F  F37  1  0.981498  0.575433  0.886504  1
  F  F38  1  0.250000  0.522751  0.332112  1
  F  F39  1  0.003640  0.722096  0.225339  1
