# generated using pymatgen
data_LiScF4
_symmetry_space_group_name_H-M   'P 1'
_cell_length_a   6.22070863
_cell_length_b   6.22070863
_cell_length_c   6.22070863
_cell_angle_alpha   132.02827821
_cell_angle_beta   132.02827821
_cell_angle_gamma   70.18436820
_symmetry_Int_Tables_number   1
_chemical_formula_structural   LiScF4
_chemical_formula_sum   'Li2 Sc2 F8'
_cell_volume   130.19640705
_cell_formula_units_Z   2
loop_
 _symmetry_equiv_pos_site_id
 _symmetry_equiv_pos_as_xyz
  1  'x, y, z'
loop_
 _atom_site_type_symbol
 _atom_site_label
 _atom_site_symmetry_multiplicity
 _atom_site_fract_x
 _atom_site_fract_y
 _atom_site_fract_z
 _atom_site_occupancy
  Li  Li0  1  0.500000  0.500000  0.000000  1
  Li  Li1  1  0.250000  0.750000  0.500000  1
  Sc  Sc2  1  0.750000  0.250000  0.500000  1
  Sc  Sc3  1  0.000000  0.000000  0.000000  1
  F  F4  1  0.129914  0.241331  0.532160  1
  F  F5  1  0.709171  0.597754  0.467840  1
  F  F6  1  0.347754  0.379914  0.388584  1
  F  F7  1  0.402246  0.870086  0.111416  1
  F  F8  1  0.758669  0.290829  0.888584  1
  F  F9  1  0.040829  0.652246  0.032160  1
  F  F10  1  0.991331  0.959171  0.611416  1
  F  F11  1  0.620086  0.008669  0.967840  1
