# generated using pymatgen
data_Ag5GeO4
_symmetry_space_group_name_H-M   'P 1'
_cell_length_a   6.54620911
_cell_length_b   10.07194275
_cell_length_c   11.25999752
_cell_angle_alpha   90.00000000
_cell_angle_beta   124.49162661
_cell_angle_gamma   90.00000000
_symmetry_Int_Tables_number   1
_chemical_formula_structural   Ag5GeO4
_chemical_formula_sum   'Ag20 Ge4 O16'
_cell_volume   611.89759550
_cell_formula_units_Z   4
loop_
 _symmetry_equiv_pos_site_id
 _symmetry_equiv_pos_as_xyz
  1  'x, y, z'
loop_
 _atom_site_type_symbol
 _atom_site_label
 _atom_site_symmetry_multiplicity
 _atom_site_fract_x
 _atom_site_fract_y
 _atom_site_fract_z
 _atom_site_occupancy
  Ag  Ag0  1  0.575820  0.415493  0.409850  1
  Ag  Ag1  1  0.424180  0.915493  0.090150  1
  Ag  Ag2  1  0.424180  0.584507  0.590150  1
  Ag  Ag3  1  0.575820  0.084507  0.909850  1
  Ag  Ag4  1  0.103270  0.354718  0.378632  1
  Ag  Ag5  1  0.896730  0.854718  0.121368  1
  Ag  Ag6  1  0.896730  0.645282  0.621368  1
  Ag  Ag7  1  0.103270  0.145282  0.878632  1
  Ag  Ag8  1  0.822730  0.407633  0.801100  1
  Ag  Ag9  1  0.177270  0.907633  0.698900  1
  Ag  Ag10  1  0.177270  0.592367  0.198900  1
  Ag  Ag11  1  0.822730  0.092367  0.301100  1
  Ag  Ag12  1  0.301562  0.377325  0.075684  1
  Ag  Ag13  1  0.698438  0.877325  0.424316  1
  Ag  Ag14  1  0.698438  0.622675  0.924316  1
  Ag  Ag15  1  0.301562  0.122675  0.575684  1
  Ag  Ag16  1  0.847300  0.375172  0.057196  1
  Ag  Ag17  1  0.152700  0.875172  0.442804  1
  Ag  Ag18  1  0.152700  0.624828  0.942804  1
  Ag  Ag19  1  0.847300  0.124828  0.557196  1
  Ge  Ge20  1  0.250938  0.386457  0.740579  1
  Ge  Ge21  1  0.749062  0.886457  0.759421  1
  Ge  Ge22  1  0.749062  0.613543  0.259421  1
  Ge  Ge23  1  0.250938  0.113543  0.240579  1
  O  O24  1  0.722222  0.439010  0.222258  1
  O  O25  1  0.277778  0.939010  0.277742  1
  O  O26  1  0.277778  0.560990  0.777742  1
  O  O27  1  0.722222  0.060990  0.722258  1
  O  O28  1  0.419646  0.290143  0.903307  1
  O  O29  1  0.580354  0.790143  0.596693  1
  O  O30  1  0.580354  0.709857  0.096693  1
  O  O31  1  0.419646  0.209857  0.403307  1
  O  O32  1  0.930758  0.343165  0.643061  1
  O  O33  1  0.381614  0.139716  0.138491  1
  O  O34  1  0.069242  0.843165  0.856939  1
  O  O35  1  0.930758  0.156835  0.143061  1
  O  O36  1  0.381614  0.360284  0.638491  1
  O  O37  1  0.618386  0.860284  0.861509  1
  O  O38  1  0.618386  0.639716  0.361509  1
  O  O39  1  0.069242  0.656835  0.356939  1
