# generated using pymatgen
data_TlCuPSe3
_symmetry_space_group_name_H-M   'P 1'
_cell_length_a   7.66687371
_cell_length_b   9.43891940
_cell_length_c   11.46843503
_cell_angle_alpha   90.00000000
_cell_angle_beta   130.78380049
_cell_angle_gamma   90.00000000
_symmetry_Int_Tables_number   1
_chemical_formula_structural   TlCuPSe3
_chemical_formula_sum   'Tl4 Cu4 P4 Se12'
_cell_volume   628.41095610
_cell_formula_units_Z   4
loop_
 _symmetry_equiv_pos_site_id
 _symmetry_equiv_pos_as_xyz
  1  'x, y, z'
loop_
 _atom_site_type_symbol
 _atom_site_label
 _atom_site_symmetry_multiplicity
 _atom_site_fract_x
 _atom_site_fract_y
 _atom_site_fract_z
 _atom_site_occupancy
  Tl  Tl0  1  0.290717  0.974702  0.743594  1
  Tl  Tl1  1  0.709283  0.025298  0.256406  1
  Tl  Tl2  1  0.290717  0.525298  0.243594  1
  Tl  Tl3  1  0.709283  0.474702  0.756406  1
  Cu  Cu4  1  0.912600  0.165996  0.732542  1
  Cu  Cu5  1  0.912600  0.334004  0.232542  1
  Cu  Cu6  1  0.087400  0.665996  0.767458  1
  Cu  Cu7  1  0.087400  0.834004  0.267458  1
  P  P8  1  0.070296  0.101379  0.069890  1
  P  P9  1  0.929704  0.898621  0.930110  1
  P  P10  1  0.070296  0.398621  0.569890  1
  P  P11  1  0.929704  0.601379  0.430110  1
  Se  Se12  1  0.228446  0.224075  0.992358  1
  Se  Se13  1  0.322475  0.026911  0.310611  1
  Se  Se14  1  0.677525  0.526911  0.189389  1
  Se  Se15  1  0.239347  0.718520  0.497377  1
  Se  Se16  1  0.760653  0.218520  0.002623  1
  Se  Se17  1  0.677525  0.973089  0.689389  1
  Se  Se18  1  0.771554  0.775925  0.007642  1
  Se  Se19  1  0.771554  0.724075  0.507642  1
  Se  Se20  1  0.760653  0.281480  0.502623  1
  Se  Se21  1  0.239347  0.781480  0.997377  1
  Se  Se22  1  0.228446  0.275925  0.492358  1
  Se  Se23  1  0.322475  0.473089  0.810611  1
