# generated using pymatgen
data_SrFe2(SeO3)4
_symmetry_space_group_name_H-M   'P 1'
_cell_length_a   7.23799899
_cell_length_b   5.46158879
_cell_length_c   7.32742521
_cell_angle_alpha   90.00000000
_cell_angle_beta   91.83729212
_cell_angle_gamma   90.00000000
_symmetry_Int_Tables_number   1
_chemical_formula_structural   SrFe2(SeO3)4
_chemical_formula_sum   'Sr1 Fe2 Se4 O12'
_cell_volume   289.51134318
_cell_formula_units_Z   1
loop_
 _symmetry_equiv_pos_site_id
 _symmetry_equiv_pos_as_xyz
  1  'x, y, z'
loop_
 _atom_site_type_symbol
 _atom_site_label
 _atom_site_symmetry_multiplicity
 _atom_site_fract_x
 _atom_site_fract_y
 _atom_site_fract_z
 _atom_site_occupancy
  Sr  Sr0  1  0.500000  0.500000  0.500000  1
  Fe  Fe1  1  0.000000  0.000000  0.500000  1
  Fe  Fe2  1  0.500000  0.500000  0.000000  1
  Se  Se3  1  0.089788  0.500000  0.723554  1
  Se  Se4  1  0.702112  0.000000  0.885007  1
  Se  Se5  1  0.297888  0.000000  0.114993  1
  Se  Se6  1  0.910212  0.500000  0.276446  1
  O  O7  1  0.433830  0.754732  0.195058  1
  O  O8  1  0.768229  0.500000  0.083973  1
  O  O9  1  0.818050  0.735068  0.407632  1
  O  O10  1  0.433830  0.245268  0.195058  1
  O  O11  1  0.885019  0.000000  0.744570  1
  O  O12  1  0.231771  0.500000  0.916027  1
  O  O13  1  0.818050  0.264932  0.407632  1
  O  O14  1  0.181950  0.735068  0.592368  1
  O  O15  1  0.114981  0.000000  0.255430  1
  O  O16  1  0.181950  0.264932  0.592368  1
  O  O17  1  0.566170  0.754732  0.804942  1
  O  O18  1  0.566170  0.245268  0.804942  1
