# generated using pymatgen
data_Cd(GaO2)2
_symmetry_space_group_name_H-M   'P 1'
_cell_length_a   20.66903673
_cell_length_b   20.66903673
_cell_length_c   20.66903673
_cell_angle_alpha   17.16675659
_cell_angle_beta   17.16675659
_cell_angle_gamma   17.16675659
_symmetry_Int_Tables_number   1
_chemical_formula_structural   Cd(GaO2)2
_chemical_formula_sum   'Cd8 Ga16 O32'
_cell_volume   671.15717876
_cell_formula_units_Z   8
loop_
 _symmetry_equiv_pos_site_id
 _symmetry_equiv_pos_as_xyz
  1  'x, y, z'
loop_
 _atom_site_type_symbol
 _atom_site_label
 _atom_site_symmetry_multiplicity
 _atom_site_fract_x
 _atom_site_fract_y
 _atom_site_fract_z
 _atom_site_occupancy
  Cd  Cd0  1  0.311946  0.311946  0.311946  1
  Cd  Cd1  1  0.561750  0.561750  0.561750  1
  Cd  Cd2  1  0.501086  0.501086  0.501086  1
  Cd  Cd3  1  0.657104  0.657104  0.657104  1
  Cd  Cd4  1  0.811803  0.811803  0.811803  1
  Cd  Cd5  1  0.749347  0.749347  0.749347  1
  Cd  Cd6  1  0.905386  0.905386  0.905386  1
  Cd  Cd7  1  0.062661  0.062661  0.062661  1
  Ga  Ga8  1  0.001006  0.001006  0.001006  1
  Ga  Ga9  1  0.251841  0.251841  0.251841  1
  Ga  Ga10  1  0.776616  0.776616  0.290657  1
  Ga  Ga11  1  0.290657  0.776616  0.776616  1
  Ga  Ga12  1  0.027736  0.027736  0.535416  1
  Ga  Ga13  1  0.776616  0.290657  0.776616  1
  Ga  Ga14  1  0.535416  0.027736  0.027736  1
  Ga  Ga15  1  0.281116  0.281116  0.782207  1
  Ga  Ga16  1  0.027736  0.535416  0.027736  1
  Ga  Ga17  1  0.156106  0.156106  0.156106  1
  Ga  Ga18  1  0.782207  0.281116  0.281116  1
  Ga  Ga19  1  0.527763  0.527763  0.040213  1
  Ga  Ga20  1  0.281116  0.782207  0.281116  1
  Ga  Ga21  1  0.040213  0.527763  0.527763  1
  Ga  Ga22  1  0.407126  0.407126  0.407126  1
  Ga  Ga23  1  0.527763  0.040213  0.527763  1
  O  O24  1  0.481470  0.931215  0.481470  1
  O  O25  1  0.597026  0.597026  0.597026  1
  O  O26  1  0.931215  0.481470  0.481470  1
  O  O27  1  0.481470  0.481470  0.931215  1
  O  O28  1  0.726972  0.185102  0.726972  1
  O  O29  1  0.092135  0.092135  0.606663  1
  O  O30  1  0.606663  0.092135  0.092135  1
  O  O31  1  0.846573  0.846573  0.846573  1
  O  O32  1  0.968343  0.968343  0.968343  1
  O  O33  1  0.185102  0.726972  0.726972  1
  O  O34  1  0.726972  0.726972  0.185102  1
  O  O35  1  0.092135  0.606663  0.092135  1
  O  O36  1  0.991457  0.417871  0.991457  1
  O  O37  1  0.317416  0.317416  0.900415  1
  O  O38  1  0.098133  0.098133  0.098133  1
  O  O39  1  0.417871  0.991457  0.991457  1
  O  O40  1  0.900415  0.317416  0.317416  1
  O  O41  1  0.219968  0.219968  0.219968  1
  O  O42  1  0.991457  0.991457  0.417871  1
  O  O43  1  0.317416  0.900415  0.317416  1
  O  O44  1  0.572159  0.572159  0.141709  1
  O  O45  1  0.243685  0.666785  0.243685  1
  O  O46  1  0.141709  0.572159  0.572159  1
  O  O47  1  0.348237  0.348237  0.348237  1
  O  O48  1  0.464528  0.464528  0.464528  1
  O  O49  1  0.666785  0.243685  0.243685  1
  O  O50  1  0.243685  0.243685  0.666785  1
  O  O51  1  0.572159  0.141709  0.572159  1
  O  O52  1  0.849908  0.849908  0.342346  1
  O  O53  1  0.342346  0.849908  0.849908  1
  O  O54  1  0.712565  0.712565  0.712565  1
  O  O55  1  0.849908  0.342346  0.849908  1
