# generated using pymatgen
data_Ba3Lu(BO2)9
_symmetry_space_group_name_H-M   'P 1'
_cell_length_a   7.25957102
_cell_length_b   7.25957102
_cell_length_c   17.26634728
_cell_angle_alpha   90.00000000
_cell_angle_beta   90.00000000
_cell_angle_gamma   120.00000000
_symmetry_Int_Tables_number   1
_chemical_formula_structural   Ba3Lu(BO2)9
_chemical_formula_sum   'Ba6 Lu2 B18 O36'
_cell_volume   788.04863386
_cell_formula_units_Z   2
loop_
 _symmetry_equiv_pos_site_id
 _symmetry_equiv_pos_as_xyz
  1  'x, y, z'
loop_
 _atom_site_type_symbol
 _atom_site_label
 _atom_site_symmetry_multiplicity
 _atom_site_fract_x
 _atom_site_fract_y
 _atom_site_fract_z
 _atom_site_occupancy
  Ba  Ba0  1  0.333333  0.666667  0.869056  1
  Ba  Ba1  1  0.000000  0.000000  0.750000  1
  Ba  Ba2  1  0.333333  0.666667  0.630944  1
  Ba  Ba3  1  0.666667  0.333333  0.130944  1
  Ba  Ba4  1  0.666667  0.333333  0.369056  1
  Ba  Ba5  1  0.000000  0.000000  0.250000  1
  Lu  Lu6  1  0.000000  0.000000  0.000000  1
  Lu  Lu7  1  0.000000  0.000000  0.500000  1
  B  B8  1  0.448051  0.281100  0.580128  1
  B  B9  1  0.377821  0.494811  0.250000  1
  B  B10  1  0.883010  0.377821  0.750000  1
  B  B11  1  0.281100  0.833049  0.419872  1
  B  B12  1  0.833049  0.551949  0.919872  1
  B  B13  1  0.718900  0.166951  0.919872  1
  B  B14  1  0.718900  0.166951  0.580128  1
  B  B15  1  0.622178  0.505189  0.750000  1
  B  B16  1  0.166951  0.448051  0.080128  1
  B  B17  1  0.505189  0.883010  0.250000  1
  B  B18  1  0.551949  0.718900  0.419872  1
  B  B19  1  0.494811  0.116990  0.750000  1
  B  B20  1  0.116990  0.622178  0.250000  1
  B  B21  1  0.448051  0.281100  0.919872  1
  B  B22  1  0.166951  0.448051  0.419872  1
  B  B23  1  0.281100  0.833049  0.080128  1
  B  B24  1  0.551949  0.718900  0.080128  1
  B  B25  1  0.833049  0.551949  0.580128  1
  O  O26  1  0.494466  0.877998  0.080629  1
  O  O27  1  0.877998  0.383532  0.580629  1
  O  O28  1  0.494466  0.877998  0.419371  1
  O  O29  1  0.247108  0.238977  0.921454  1
  O  O30  1  0.587143  0.668190  0.750000  1
  O  O31  1  0.616468  0.494466  0.919371  1
  O  O32  1  0.505534  0.122002  0.580629  1
  O  O33  1  0.991869  0.752892  0.578546  1
  O  O34  1  0.122002  0.616468  0.419371  1
  O  O35  1  0.331810  0.918953  0.750000  1
  O  O36  1  0.752892  0.761023  0.078546  1
  O  O37  1  0.008131  0.247108  0.078546  1
  O  O38  1  0.542232  0.708966  0.250000  1
  O  O39  1  0.291034  0.833265  0.250000  1
  O  O40  1  0.081047  0.412857  0.750000  1
  O  O41  1  0.877998  0.383532  0.919371  1
  O  O42  1  0.761023  0.008131  0.578546  1
  O  O43  1  0.918953  0.587143  0.250000  1
  O  O44  1  0.383532  0.505534  0.080629  1
  O  O45  1  0.122002  0.616468  0.080629  1
  O  O46  1  0.166735  0.457768  0.250000  1
  O  O47  1  0.238977  0.991869  0.078546  1
  O  O48  1  0.761023  0.008131  0.921454  1
  O  O49  1  0.991869  0.752892  0.921454  1
  O  O50  1  0.008131  0.247108  0.421454  1
  O  O51  1  0.457768  0.291034  0.750000  1
  O  O52  1  0.668190  0.081047  0.250000  1
  O  O53  1  0.833265  0.542232  0.750000  1
  O  O54  1  0.505534  0.122002  0.919371  1
  O  O55  1  0.616468  0.494466  0.580629  1
  O  O56  1  0.752892  0.761023  0.421454  1
  O  O57  1  0.247108  0.238977  0.578546  1
  O  O58  1  0.238977  0.991869  0.421454  1
  O  O59  1  0.708966  0.166735  0.750000  1
  O  O60  1  0.383532  0.505534  0.419371  1
  O  O61  1  0.412857  0.331810  0.250000  1
