# generated using pymatgen
data_Na2Li3FeO4
_symmetry_space_group_name_H-M   'P 1'
_cell_length_a   6.65344375
_cell_length_b   8.03145888
_cell_length_c   8.38611744
_cell_angle_alpha   90.00000000
_cell_angle_beta   90.00000000
_cell_angle_gamma   90.00000000
_symmetry_Int_Tables_number   1
_chemical_formula_structural   Na2Li3FeO4
_chemical_formula_sum   'Na8 Li12 Fe4 O16'
_cell_volume   448.12778265
_cell_formula_units_Z   4
loop_
 _symmetry_equiv_pos_site_id
 _symmetry_equiv_pos_as_xyz
  1  'x, y, z'
loop_
 _atom_site_type_symbol
 _atom_site_label
 _atom_site_symmetry_multiplicity
 _atom_site_fract_x
 _atom_site_fract_y
 _atom_site_fract_z
 _atom_site_occupancy
  Na  Na0  1  0.000000  0.258351  0.751575  1
  Na  Na1  1  0.000000  0.741649  0.248425  1
  Na  Na2  1  0.500000  0.758351  0.748425  1
  Na  Na3  1  0.500000  0.241649  0.251575  1
  Na  Na4  1  0.740025  0.500000  0.000000  1
  Na  Na5  1  0.759975  0.000000  0.500000  1
  Na  Na6  1  0.259975  0.500000  0.000000  1
  Na  Na7  1  0.240025  0.000000  0.500000  1
  Li  Li8  1  0.755890  0.486181  0.351853  1
  Li  Li9  1  0.755890  0.513819  0.648147  1
  Li  Li10  1  0.744110  0.986181  0.148147  1
  Li  Li11  1  0.744110  0.013819  0.851853  1
  Li  Li12  1  0.244110  0.513819  0.648147  1
  Li  Li13  1  0.244110  0.486181  0.351853  1
  Li  Li14  1  0.255890  0.013819  0.851853  1
  Li  Li15  1  0.255890  0.986181  0.148147  1
  Li  Li16  1  0.000000  0.267869  0.415456  1
  Li  Li17  1  0.000000  0.732131  0.584544  1
  Li  Li18  1  0.500000  0.767869  0.084544  1
  Li  Li19  1  0.500000  0.232131  0.915456  1
  Fe  Fe20  1  0.000000  0.773934  0.876907  1
  Fe  Fe21  1  0.000000  0.226066  0.123093  1
  Fe  Fe22  1  0.500000  0.273934  0.623093  1
  Fe  Fe23  1  0.500000  0.726066  0.376907  1
  O  O24  1  0.000000  0.560414  0.774731  1
  O  O25  1  0.000000  0.439586  0.225269  1
  O  O26  1  0.500000  0.060414  0.725269  1
  O  O27  1  0.500000  0.939586  0.274731  1
  O  O28  1  0.755852  0.803694  0.989760  1
  O  O29  1  0.755852  0.196306  0.010240  1
  O  O30  1  0.744148  0.303694  0.510240  1
  O  O31  1  0.744148  0.696306  0.489760  1
  O  O32  1  0.244148  0.196306  0.010240  1
  O  O33  1  0.244148  0.803694  0.989760  1
  O  O34  1  0.255852  0.696306  0.489760  1
  O  O35  1  0.255852  0.303694  0.510240  1
  O  O36  1  0.000000  0.951682  0.722647  1
  O  O37  1  0.000000  0.048318  0.277353  1
  O  O38  1  0.500000  0.451682  0.777353  1
  O  O39  1  0.500000  0.548318  0.222647  1
