# generated using pymatgen
data_KNaZnO2
_symmetry_space_group_name_H-M   'P 1'
_cell_length_a   6.05322474
_cell_length_b   6.05322474
_cell_length_c   5.61989645
_cell_angle_alpha   69.54644194
_cell_angle_beta   110.45355806
_cell_angle_gamma   71.95445195
_symmetry_Int_Tables_number   1
_chemical_formula_structural   KNaZnO2
_chemical_formula_sum   'K2 Na2 Zn2 O4'
_cell_volume   157.38631097
_cell_formula_units_Z   2
loop_
 _symmetry_equiv_pos_site_id
 _symmetry_equiv_pos_as_xyz
  1  'x, y, z'
loop_
 _atom_site_type_symbol
 _atom_site_label
 _atom_site_symmetry_multiplicity
 _atom_site_fract_x
 _atom_site_fract_y
 _atom_site_fract_z
 _atom_site_occupancy
  K  K0  1  0.123808  0.123808  0.250000  1
  K  K1  1  0.876192  0.876192  0.750000  1
  Na  Na2  1  0.229439  0.229439  0.750000  1
  Na  Na3  1  0.770561  0.770561  0.250000  1
  Zn  Zn4  1  0.489684  0.489684  0.250000  1
  Zn  Zn5  1  0.510316  0.510316  0.750000  1
  O  O6  1  0.573563  0.212045  0.132760  1
  O  O7  1  0.212045  0.573563  0.367240  1
  O  O8  1  0.787955  0.426437  0.632760  1
  O  O9  1  0.426437  0.787955  0.867240  1
