# generated using pymatgen
data_AsSXe2(OF3)3
_symmetry_space_group_name_H-M   'P 1'
_cell_length_a   11.46513315
_cell_length_b   9.04619595
_cell_length_c   16.37718123
_cell_angle_alpha   90.00000000
_cell_angle_beta   133.09526377
_cell_angle_gamma   90.00000000
_symmetry_Int_Tables_number   1
_chemical_formula_structural   AsSXe2(OF3)3
_chemical_formula_sum   'As4 S4 Xe8 O12 F36'
_cell_volume   1240.32995356
_cell_formula_units_Z   4
loop_
 _symmetry_equiv_pos_site_id
 _symmetry_equiv_pos_as_xyz
  1  'x, y, z'
loop_
 _atom_site_type_symbol
 _atom_site_label
 _atom_site_symmetry_multiplicity
 _atom_site_fract_x
 _atom_site_fract_y
 _atom_site_fract_z
 _atom_site_occupancy
  As  As0  1  0.744730  0.188332  0.437688  1
  As  As1  1  0.744730  0.311668  0.937688  1
  As  As2  1  0.255270  0.811668  0.562312  1
  As  As3  1  0.255270  0.688332  0.062312  1
  S  S4  1  0.824151  0.906631  0.731485  1
  S  S5  1  0.175849  0.093369  0.268515  1
  S  S6  1  0.175849  0.406631  0.768515  1
  S  S7  1  0.824151  0.593369  0.231485  1
  Xe  Xe8  1  0.830010  0.417915  0.707788  1
  Xe  Xe9  1  0.830010  0.082085  0.207788  1
  Xe  Xe10  1  0.739760  0.824096  0.886815  1
  Xe  Xe11  1  0.169990  0.917915  0.792212  1
  Xe  Xe12  1  0.260240  0.175904  0.113185  1
  Xe  Xe13  1  0.169990  0.582085  0.292212  1
  Xe  Xe14  1  0.739760  0.675904  0.386815  1
  Xe  Xe15  1  0.260240  0.324096  0.613185  1
  O  O16  1  0.878779  0.456469  0.289854  1
  O  O17  1  0.773769  0.788432  0.766017  1
  O  O18  1  0.924770  0.669775  0.217138  1
  O  O19  1  0.226231  0.211568  0.233983  1
  O  O20  1  0.121221  0.543531  0.710146  1
  O  O21  1  0.121221  0.956469  0.210146  1
  O  O22  1  0.924770  0.830225  0.717138  1
  O  O23  1  0.075230  0.330225  0.782862  1
  O  O24  1  0.075230  0.169775  0.282862  1
  O  O25  1  0.226231  0.288432  0.733983  1
  O  O26  1  0.773769  0.711568  0.266017  1
  O  O27  1  0.878779  0.043531  0.789854  1
  F  F28  1  0.334219  0.436124  0.892820  1
  F  F29  1  0.710644  0.658910  0.494732  1
  F  F30  1  0.124862  0.616111  0.075386  1
  F  F31  1  0.617303  0.263016  0.452491  1
  F  F32  1  0.382697  0.763016  0.047509  1
  F  F33  1  0.124862  0.883889  0.575386  1
  F  F34  1  0.875005  0.343978  0.512385  1
  F  F35  1  0.615707  0.034302  0.364555  1
  F  F36  1  0.384293  0.534302  0.135445  1
  F  F37  1  0.617303  0.236984  0.952491  1
  F  F38  1  0.145187  0.906781  0.432843  1
  F  F39  1  0.145187  0.593219  0.932843  1
  F  F40  1  0.875138  0.383889  0.924614  1
  F  F41  1  0.875005  0.156022  0.012385  1
  F  F42  1  0.875138  0.116111  0.424614  1
  F  F43  1  0.384293  0.965698  0.635445  1
  F  F44  1  0.710644  0.841090  0.994732  1
  F  F45  1  0.638791  0.285748  0.310082  1
  F  F46  1  0.638791  0.214252  0.810082  1
  F  F47  1  0.334219  0.063876  0.392820  1
  F  F48  1  0.384146  0.514868  0.354138  1
  F  F49  1  0.361209  0.785748  0.189918  1
  F  F50  1  0.124995  0.656022  0.487615  1
  F  F51  1  0.615854  0.485132  0.645862  1
  F  F52  1  0.289356  0.341090  0.505268  1
  F  F53  1  0.615707  0.465698  0.864555  1
  F  F54  1  0.854813  0.093219  0.567157  1
  F  F55  1  0.289356  0.158910  0.005268  1
  F  F56  1  0.615854  0.014868  0.145862  1
  F  F57  1  0.382697  0.736984  0.547509  1
  F  F58  1  0.665781  0.936124  0.607180  1
  F  F59  1  0.665781  0.563876  0.107180  1
  F  F60  1  0.384146  0.985132  0.854138  1
  F  F61  1  0.361209  0.714252  0.689918  1
  F  F62  1  0.124995  0.843978  0.987615  1
  F  F63  1  0.854813  0.406781  0.067157  1
