# generated using pymatgen
data_Rb2Na2SiO4
_symmetry_space_group_name_H-M   'P 1'
_cell_length_a   9.92873345
_cell_length_b   11.04543679
_cell_length_c   11.26967149
_cell_angle_alpha   90.00000000
_cell_angle_beta   90.00000000
_cell_angle_gamma   90.00000000
_symmetry_Int_Tables_number   1
_chemical_formula_structural   Rb2Na2SiO4
_chemical_formula_sum   'Rb16 Na16 Si8 O32'
_cell_volume   1235.91329161
_cell_formula_units_Z   8
loop_
 _symmetry_equiv_pos_site_id
 _symmetry_equiv_pos_as_xyz
  1  'x, y, z'
loop_
 _atom_site_type_symbol
 _atom_site_label
 _atom_site_symmetry_multiplicity
 _atom_site_fract_x
 _atom_site_fract_y
 _atom_site_fract_z
 _atom_site_occupancy
  Rb  Rb0  1  0.640161  0.150508  0.636535  1
  Rb  Rb1  1  0.140161  0.349492  0.363465  1
  Rb  Rb2  1  0.298392  0.937171  0.035556  1
  Rb  Rb3  1  0.701608  0.437171  0.464444  1
  Rb  Rb4  1  0.798392  0.562829  0.964444  1
  Rb  Rb5  1  0.359839  0.650508  0.863465  1
  Rb  Rb6  1  0.640161  0.349492  0.136535  1
  Rb  Rb7  1  0.140161  0.150508  0.863465  1
  Rb  Rb8  1  0.859839  0.849492  0.136535  1
  Rb  Rb9  1  0.298392  0.562829  0.535556  1
  Rb  Rb10  1  0.701608  0.062829  0.964444  1
  Rb  Rb11  1  0.359839  0.849492  0.363465  1
  Rb  Rb12  1  0.201608  0.062829  0.535556  1
  Rb  Rb13  1  0.201608  0.437171  0.035556  1
  Rb  Rb14  1  0.798392  0.937171  0.464444  1
  Rb  Rb15  1  0.859839  0.650508  0.636535  1
  Na  Na16  1  0.033148  0.749275  0.906389  1
  Na  Na17  1  0.966852  0.250725  0.093611  1
  Na  Na18  1  0.908153  0.951263  0.746508  1
  Na  Na19  1  0.033148  0.750725  0.406389  1
  Na  Na20  1  0.908153  0.548737  0.246508  1
  Na  Na21  1  0.591847  0.048737  0.246508  1
  Na  Na22  1  0.408153  0.548737  0.253492  1
  Na  Na23  1  0.091847  0.048737  0.253492  1
  Na  Na24  1  0.533148  0.749275  0.593611  1
  Na  Na25  1  0.091847  0.451263  0.753492  1
  Na  Na26  1  0.466852  0.249275  0.906389  1
  Na  Na27  1  0.466852  0.250725  0.406389  1
  Na  Na28  1  0.533148  0.750725  0.093611  1
  Na  Na29  1  0.591847  0.451263  0.746508  1
  Na  Na30  1  0.966852  0.249275  0.593611  1
  Na  Na31  1  0.408153  0.951263  0.753492  1
  Si  Si32  1  0.157661  0.804425  0.682173  1
  Si  Si33  1  0.342339  0.304425  0.682173  1
  Si  Si34  1  0.157661  0.695575  0.182173  1
  Si  Si35  1  0.657661  0.695575  0.317827  1
  Si  Si36  1  0.657661  0.804425  0.817827  1
  Si  Si37  1  0.342339  0.195575  0.182173  1
  Si  Si38  1  0.842339  0.304425  0.817827  1
  Si  Si39  1  0.842339  0.195575  0.317827  1
  O  O40  1  0.841866  0.105982  0.197870  1
  O  O41  1  0.878125  0.163226  0.773915  1
  O  O42  1  0.460781  0.148056  0.088368  1
  O  O43  1  0.158134  0.605982  0.302130  1
  O  O44  1  0.190666  0.310428  0.619312  1
  O  O45  1  0.039219  0.851944  0.588368  1
  O  O46  1  0.309334  0.689572  0.119312  1
  O  O47  1  0.690666  0.310428  0.880688  1
  O  O48  1  0.960781  0.351944  0.911632  1
  O  O49  1  0.378125  0.336774  0.226085  1
  O  O50  1  0.690666  0.189572  0.380688  1
  O  O51  1  0.809334  0.810428  0.880688  1
  O  O52  1  0.460781  0.351944  0.588368  1
  O  O53  1  0.960781  0.148056  0.411632  1
  O  O54  1  0.841866  0.394018  0.697870  1
  O  O55  1  0.539219  0.851944  0.911632  1
  O  O56  1  0.658134  0.605982  0.197870  1
  O  O57  1  0.378125  0.163226  0.726085  1
  O  O58  1  0.158134  0.894018  0.802130  1
  O  O59  1  0.658134  0.894018  0.697870  1
  O  O60  1  0.878125  0.336774  0.273915  1
  O  O61  1  0.309334  0.810428  0.619312  1
  O  O62  1  0.341866  0.394018  0.802130  1
  O  O63  1  0.621875  0.663226  0.773915  1
  O  O64  1  0.121875  0.836774  0.226085  1
  O  O65  1  0.190666  0.189572  0.119312  1
  O  O66  1  0.341866  0.105982  0.302130  1
  O  O67  1  0.539219  0.648056  0.411632  1
  O  O68  1  0.039219  0.648056  0.088368  1
  O  O69  1  0.809334  0.689572  0.380688  1
  O  O70  1  0.621875  0.836774  0.273915  1
  O  O71  1  0.121875  0.663226  0.726085  1
