# generated using pymatgen
data_PNF2
_symmetry_space_group_name_H-M   'P 1'
_cell_length_a   7.22463377
_cell_length_b   9.21327904
_cell_length_c   12.33017920
_cell_angle_alpha   90.00000000
_cell_angle_beta   90.00000000
_cell_angle_gamma   90.00000000
_symmetry_Int_Tables_number   1
_chemical_formula_structural   PNF2
_chemical_formula_sum   'P12 N12 F24'
_cell_volume   820.72837770
_cell_formula_units_Z   12
loop_
 _symmetry_equiv_pos_site_id
 _symmetry_equiv_pos_as_xyz
  1  'x, y, z'
loop_
 _atom_site_type_symbol
 _atom_site_label
 _atom_site_symmetry_multiplicity
 _atom_site_fract_x
 _atom_site_fract_y
 _atom_site_fract_z
 _atom_site_occupancy
  P  P0  1  0.667181  0.598929  0.861361  1
  P  P1  1  0.591926  0.559053  0.250000  1
  P  P2  1  0.832819  0.098929  0.138639  1
  P  P3  1  0.908074  0.059053  0.750000  1
  P  P4  1  0.332819  0.401071  0.361361  1
  P  P5  1  0.091926  0.940947  0.250000  1
  P  P6  1  0.167181  0.901071  0.861361  1
  P  P7  1  0.332819  0.401071  0.138639  1
  P  P8  1  0.667181  0.598929  0.638639  1
  P  P9  1  0.832819  0.098929  0.361361  1
  P  P10  1  0.408074  0.440947  0.750000  1
  P  P11  1  0.167181  0.901071  0.638639  1
  N  N12  1  0.503174  0.508923  0.360900  1
  N  N13  1  0.496826  0.491077  0.860900  1
  N  N14  1  0.996826  0.008923  0.639100  1
  N  N15  1  0.254120  0.849112  0.750000  1
  N  N16  1  0.003174  0.991077  0.139100  1
  N  N17  1  0.496826  0.491077  0.639100  1
  N  N18  1  0.996826  0.008923  0.860900  1
  N  N19  1  0.003174  0.991077  0.360900  1
  N  N20  1  0.745880  0.150888  0.250000  1
  N  N21  1  0.245880  0.349112  0.250000  1
  N  N22  1  0.754120  0.650888  0.750000  1
  N  N23  1  0.503174  0.508923  0.139100  1
  F  F24  1  0.118614  0.765192  0.569079  1
  F  F25  1  0.891245  0.228083  0.750000  1
  F  F26  1  0.697533  0.022674  0.750000  1
  F  F27  1  0.618614  0.734808  0.569079  1
  F  F28  1  0.608755  0.728083  0.250000  1
  F  F29  1  0.802467  0.522674  0.250000  1
  F  F30  1  0.176922  0.464877  0.433999  1
  F  F31  1  0.881386  0.234808  0.069079  1
  F  F32  1  0.118614  0.765192  0.930921  1
  F  F33  1  0.391245  0.271917  0.750000  1
  F  F34  1  0.823078  0.535123  0.933999  1
  F  F35  1  0.197533  0.477326  0.750000  1
  F  F36  1  0.823078  0.535123  0.566001  1
  F  F37  1  0.302467  0.977326  0.250000  1
  F  F38  1  0.323078  0.964877  0.933999  1
  F  F39  1  0.676922  0.035123  0.433999  1
  F  F40  1  0.108755  0.771917  0.250000  1
  F  F41  1  0.881386  0.234808  0.430921  1
  F  F42  1  0.176922  0.464877  0.066001  1
  F  F43  1  0.381386  0.265192  0.430921  1
  F  F44  1  0.618614  0.734808  0.930921  1
  F  F45  1  0.676922  0.035123  0.066001  1
  F  F46  1  0.323078  0.964877  0.566001  1
  F  F47  1  0.381386  0.265192  0.069079  1
