# generated using pymatgen
data_RbFeCl4
_symmetry_space_group_name_H-M   'P 1'
_cell_length_a   7.27898368
_cell_length_b   9.53221267
_cell_length_c   11.54698610
_cell_angle_alpha   90.00000000
_cell_angle_beta   90.00000000
_cell_angle_gamma   90.00000000
_symmetry_Int_Tables_number   1
_chemical_formula_structural   RbFeCl4
_chemical_formula_sum   'Rb4 Fe4 Cl16'
_cell_volume   801.18555739
_cell_formula_units_Z   4
loop_
 _symmetry_equiv_pos_site_id
 _symmetry_equiv_pos_as_xyz
  1  'x, y, z'
loop_
 _atom_site_type_symbol
 _atom_site_label
 _atom_site_symmetry_multiplicity
 _atom_site_fract_x
 _atom_site_fract_y
 _atom_site_fract_z
 _atom_site_occupancy
  Rb  Rb0  1  0.250000  0.162366  0.679842  1
  Rb  Rb1  1  0.750000  0.837634  0.320158  1
  Rb  Rb2  1  0.750000  0.662366  0.820158  1
  Rb  Rb3  1  0.250000  0.337634  0.179842  1
  Fe  Fe4  1  0.250000  0.689215  0.567550  1
  Fe  Fe5  1  0.750000  0.310785  0.432450  1
  Fe  Fe6  1  0.750000  0.189215  0.932450  1
  Fe  Fe7  1  0.250000  0.810785  0.067550  1
  Cl  Cl8  1  0.250000  0.545258  0.716787  1
  Cl  Cl9  1  0.750000  0.454742  0.283213  1
  Cl  Cl10  1  0.750000  0.045258  0.783213  1
  Cl  Cl11  1  0.250000  0.954742  0.216787  1
  Cl  Cl12  1  0.250000  0.576234  0.401668  1
  Cl  Cl13  1  0.750000  0.423766  0.598332  1
  Cl  Cl14  1  0.750000  0.076234  0.098332  1
  Cl  Cl15  1  0.250000  0.923766  0.901668  1
  Cl  Cl16  1  0.003633  0.825336  0.581250  1
  Cl  Cl17  1  0.503633  0.174664  0.418750  1
  Cl  Cl18  1  0.996367  0.325336  0.918750  1
  Cl  Cl19  1  0.496367  0.674664  0.081250  1
  Cl  Cl20  1  0.996367  0.174664  0.418750  1
  Cl  Cl21  1  0.496367  0.825336  0.581250  1
  Cl  Cl22  1  0.003633  0.674664  0.081250  1
  Cl  Cl23  1  0.503633  0.325336  0.918750  1
