# generated using pymatgen
data_Ba3SrTa2O9
_symmetry_space_group_name_H-M   'P 1'
_cell_length_a   6.09539069
_cell_length_b   6.09539069
_cell_length_c   15.99008741
_cell_angle_alpha   90.00000000
_cell_angle_beta   90.00000000
_cell_angle_gamma   120.00000000
_symmetry_Int_Tables_number   1
_chemical_formula_structural   Ba3SrTa2O9
_chemical_formula_sum   'Ba6 Sr2 Ta4 O18'
_cell_volume   514.49903390
_cell_formula_units_Z   2
loop_
 _symmetry_equiv_pos_site_id
 _symmetry_equiv_pos_as_xyz
  1  'x, y, z'
loop_
 _atom_site_type_symbol
 _atom_site_label
 _atom_site_symmetry_multiplicity
 _atom_site_fract_x
 _atom_site_fract_y
 _atom_site_fract_z
 _atom_site_occupancy
  Ba  Ba0  1  0.000000  0.000000  0.250000  1
  Ba  Ba1  1  0.000000  0.000000  0.750000  1
  Ba  Ba2  1  0.333333  0.666667  0.876564  1
  Ba  Ba3  1  0.666667  0.333333  0.376564  1
  Ba  Ba4  1  0.666667  0.333333  0.123436  1
  Ba  Ba5  1  0.333333  0.666667  0.623436  1
  Sr  Sr6  1  0.000000  0.000000  0.000000  1
  Sr  Sr7  1  0.000000  0.000000  0.500000  1
  Ta  Ta8  1  0.333333  0.666667  0.156341  1
  Ta  Ta9  1  0.666667  0.333333  0.656341  1
  Ta  Ta10  1  0.666667  0.333333  0.843659  1
  Ta  Ta11  1  0.333333  0.666667  0.343659  1
  O  O12  1  0.482009  0.964017  0.250000  1
  O  O13  1  0.517991  0.482009  0.750000  1
  O  O14  1  0.964017  0.482009  0.750000  1
  O  O15  1  0.035983  0.517991  0.250000  1
  O  O16  1  0.482009  0.517991  0.250000  1
  O  O17  1  0.517991  0.035983  0.750000  1
  O  O18  1  0.173552  0.347103  0.398509  1
  O  O19  1  0.826448  0.173552  0.898509  1
  O  O20  1  0.347103  0.173552  0.898509  1
  O  O21  1  0.652897  0.826448  0.398509  1
  O  O22  1  0.173552  0.826448  0.398509  1
  O  O23  1  0.826448  0.652897  0.601491  1
  O  O24  1  0.826448  0.173552  0.601491  1
  O  O25  1  0.826448  0.652897  0.898509  1
  O  O26  1  0.347103  0.173552  0.601491  1
  O  O27  1  0.652897  0.826448  0.101491  1
  O  O28  1  0.173552  0.347103  0.101491  1
  O  O29  1  0.173552  0.826448  0.101491  1
