# generated using pymatgen
data_Ba3In(BO2)9
_symmetry_space_group_name_H-M   'P 1'
_cell_length_a   7.23343751
_cell_length_b   7.23343751
_cell_length_c   17.14814604
_cell_angle_alpha   90.00000000
_cell_angle_beta   90.00000000
_cell_angle_gamma   120.00000000
_symmetry_Int_Tables_number   1
_chemical_formula_structural   Ba3In(BO2)9
_chemical_formula_sum   'Ba6 In2 B18 O36'
_cell_volume   777.02908168
_cell_formula_units_Z   2
loop_
 _symmetry_equiv_pos_site_id
 _symmetry_equiv_pos_as_xyz
  1  'x, y, z'
loop_
 _atom_site_type_symbol
 _atom_site_label
 _atom_site_symmetry_multiplicity
 _atom_site_fract_x
 _atom_site_fract_y
 _atom_site_fract_z
 _atom_site_occupancy
  Ba  Ba0  1  0.333333  0.666667  0.370040  1
  Ba  Ba1  1  0.333333  0.666667  0.129960  1
  Ba  Ba2  1  0.666667  0.333333  0.629960  1
  Ba  Ba3  1  0.666667  0.333333  0.870040  1
  Ba  Ba4  1  0.000000  0.000000  0.250000  1
  Ba  Ba5  1  0.000000  0.000000  0.750000  1
  In  In6  1  0.000000  0.000000  0.000000  1
  In  In7  1  0.000000  0.000000  0.500000  1
  B  B8  1  0.720664  0.167392  0.078187  1
  B  B9  1  0.279336  0.832608  0.578187  1
  B  B10  1  0.505400  0.883792  0.750000  1
  B  B11  1  0.553272  0.720664  0.921813  1
  B  B12  1  0.446728  0.279336  0.421813  1
  B  B13  1  0.832608  0.553272  0.421813  1
  B  B14  1  0.494600  0.116208  0.250000  1
  B  B15  1  0.378392  0.494600  0.750000  1
  B  B16  1  0.167392  0.446728  0.578187  1
  B  B17  1  0.883792  0.378392  0.250000  1
  B  B18  1  0.446728  0.279336  0.078187  1
  B  B19  1  0.279336  0.832608  0.921813  1
  B  B20  1  0.720664  0.167392  0.421813  1
  B  B21  1  0.116208  0.621608  0.750000  1
  B  B22  1  0.621608  0.505400  0.250000  1
  B  B23  1  0.832608  0.553272  0.078187  1
  B  B24  1  0.553272  0.720664  0.578187  1
  B  B25  1  0.167392  0.446728  0.921813  1
  O  O26  1  0.166402  0.456944  0.750000  1
  O  O27  1  0.615255  0.494223  0.421277  1
  O  O28  1  0.413750  0.331238  0.750000  1
  O  O29  1  0.245248  0.239305  0.422250  1
  O  O30  1  0.505777  0.121032  0.421277  1
  O  O31  1  0.331238  0.917489  0.250000  1
  O  O32  1  0.505777  0.121032  0.078723  1
  O  O33  1  0.121032  0.615255  0.921277  1
  O  O34  1  0.833598  0.543056  0.250000  1
  O  O35  1  0.754752  0.760695  0.577750  1
  O  O36  1  0.239305  0.994057  0.922250  1
  O  O37  1  0.005943  0.245248  0.577750  1
  O  O38  1  0.494223  0.878968  0.921277  1
  O  O39  1  0.994057  0.754752  0.422250  1
  O  O40  1  0.543056  0.709458  0.750000  1
  O  O41  1  0.384745  0.505777  0.921277  1
  O  O42  1  0.760695  0.005943  0.077750  1
  O  O43  1  0.384745  0.505777  0.578723  1
  O  O44  1  0.878968  0.384745  0.078723  1
  O  O45  1  0.994057  0.754752  0.077750  1
  O  O46  1  0.615255  0.494223  0.078723  1
  O  O47  1  0.494223  0.878968  0.578723  1
  O  O48  1  0.709458  0.166402  0.250000  1
  O  O49  1  0.082511  0.413750  0.250000  1
  O  O50  1  0.239305  0.994057  0.577750  1
  O  O51  1  0.917489  0.586250  0.750000  1
  O  O52  1  0.290542  0.833598  0.750000  1
  O  O53  1  0.456944  0.290542  0.250000  1
  O  O54  1  0.878968  0.384745  0.421277  1
  O  O55  1  0.121032  0.615255  0.578723  1
  O  O56  1  0.586250  0.668762  0.250000  1
  O  O57  1  0.760695  0.005943  0.422250  1
  O  O58  1  0.668762  0.082511  0.750000  1
  O  O59  1  0.005943  0.245248  0.922250  1
  O  O60  1  0.245248  0.239305  0.077750  1
  O  O61  1  0.754752  0.760695  0.922250  1
