# generated using pymatgen
data_TlBr
_symmetry_space_group_name_H-M   'P 1'
_cell_length_a   6.71707461
_cell_length_b   6.71707461
_cell_length_c   5.06230668
_cell_angle_alpha   90.00000000
_cell_angle_beta   90.00000000
_cell_angle_gamma   141.09979153
_symmetry_Int_Tables_number   1
_chemical_formula_structural   TlBr
_chemical_formula_sum   'Tl2 Br2'
_cell_volume   143.43160226
_cell_formula_units_Z   2
loop_
 _symmetry_equiv_pos_site_id
 _symmetry_equiv_pos_as_xyz
  1  'x, y, z'
loop_
 _atom_site_type_symbol
 _atom_site_label
 _atom_site_symmetry_multiplicity
 _atom_site_fract_x
 _atom_site_fract_y
 _atom_site_fract_z
 _atom_site_occupancy
  Tl  Tl0  1  0.885704  0.114296  0.750000  1
  Tl  Tl1  1  0.114296  0.885704  0.250000  1
  Br  Br2  1  0.367602  0.632398  0.250000  1
  Br  Br3  1  0.632398  0.367602  0.750000  1
