# generated using pymatgen
data_CaB4O7
_symmetry_space_group_name_H-M   'P 1'
_cell_length_a   7.91491657
_cell_length_b   9.97107275
_cell_length_c   14.55210145
_cell_angle_alpha   90.00000000
_cell_angle_beta   120.95751527
_cell_angle_gamma   90.00000000
_symmetry_Int_Tables_number   1
_chemical_formula_structural   CaB4O7
_chemical_formula_sum   'Ca8 B32 O56'
_cell_volume   984.85629961
_cell_formula_units_Z   8
loop_
 _symmetry_equiv_pos_site_id
 _symmetry_equiv_pos_as_xyz
  1  'x, y, z'
loop_
 _atom_site_type_symbol
 _atom_site_label
 _atom_site_symmetry_multiplicity
 _atom_site_fract_x
 _atom_site_fract_y
 _atom_site_fract_z
 _atom_site_occupancy
  Ca  Ca0  1  0.488595  0.115010  0.155118  1
  Ca  Ca1  1  0.857712  0.917287  0.562500  1
  Ca  Ca2  1  0.511405  0.884990  0.844882  1
  Ca  Ca3  1  0.142288  0.417287  0.937500  1
  Ca  Ca4  1  0.857712  0.582713  0.062500  1
  Ca  Ca5  1  0.488595  0.384990  0.655118  1
  Ca  Ca6  1  0.511405  0.615010  0.344882  1
  Ca  Ca7  1  0.142288  0.082713  0.437500  1
  B  B8  1  0.224592  0.671493  0.631051  1
  B  B9  1  0.416165  0.569421  0.817922  1
  B  B10  1  0.775408  0.171493  0.868949  1
  B  B11  1  0.369306  0.708616  0.947395  1
  B  B12  1  0.630694  0.208616  0.552605  1
  B  B13  1  0.630694  0.291384  0.052605  1
  B  B14  1  0.583835  0.430579  0.182078  1
  B  B15  1  0.209078  0.914489  0.964368  1
  B  B16  1  0.790922  0.414489  0.535632  1
  B  B17  1  0.199190  0.392302  0.346391  1
  B  B18  1  0.583835  0.069421  0.682078  1
  B  B19  1  0.275210  0.109761  0.697054  1
  B  B20  1  0.276463  0.320874  0.791100  1
  B  B21  1  0.275210  0.390239  0.197054  1
  B  B22  1  0.724790  0.609761  0.802946  1
  B  B23  1  0.790922  0.085511  0.035632  1
  B  B24  1  0.775408  0.328507  0.368949  1
  B  B25  1  0.724790  0.890239  0.302946  1
  B  B26  1  0.199190  0.107698  0.846391  1
  B  B27  1  0.723537  0.679126  0.208900  1
  B  B28  1  0.723537  0.820874  0.708900  1
  B  B29  1  0.416165  0.930579  0.317922  1
  B  B30  1  0.369306  0.791384  0.447395  1
  B  B31  1  0.224592  0.828507  0.131051  1
  B  B32  1  0.800810  0.607698  0.653609  1
  B  B33  1  0.062380  0.708442  0.958361  1
  B  B34  1  0.937620  0.208442  0.541639  1
  B  B35  1  0.276463  0.179126  0.291100  1
  B  B36  1  0.209078  0.585511  0.464368  1
  B  B37  1  0.062380  0.791558  0.458361  1
  B  B38  1  0.800810  0.892302  0.153609  1
  B  B39  1  0.937620  0.291558  0.041639  1
  O  O40  1  0.809519  0.553368  0.571104  1
  O  O41  1  0.718220  0.423539  0.417064  1
  O  O42  1  0.111718  0.720203  0.072416  1
  O  O43  1  0.426680  0.026658  0.697731  1
  O  O44  1  0.190481  0.053368  0.928896  1
  O  O45  1  0.812679  0.748234  0.661478  1
  O  O46  1  0.282088  0.668404  0.737633  1
  O  O47  1  0.966922  0.336184  0.591573  1
  O  O48  1  0.374488  0.653634  0.454652  1
  O  O49  1  0.496698  0.147816  0.576224  1
  O  O50  1  0.573320  0.526658  0.802269  1
  O  O51  1  0.229337  0.038788  0.774058  1
  O  O52  1  0.303582  0.047807  0.321268  1
  O  O53  1  0.101297  0.388032  0.089152  1
  O  O54  1  0.654892  0.748093  0.264815  1
  O  O55  1  0.966922  0.163816  0.091573  1
  O  O56  1  0.625512  0.153634  0.045348  1
  O  O57  1  0.187321  0.251766  0.338522  1
  O  O58  1  0.496698  0.352184  0.076224  1
  O  O59  1  0.229337  0.461212  0.274058  1
  O  O60  1  0.426680  0.473342  0.197731  1
  O  O61  1  0.696418  0.952193  0.678732  1
  O  O62  1  0.763623  0.363746  0.040082  1
  O  O63  1  0.187321  0.248234  0.838522  1
  O  O64  1  0.717912  0.331596  0.262367  1
  O  O65  1  0.898703  0.888032  0.410848  1
  O  O66  1  0.111718  0.779797  0.572416  1
  O  O67  1  0.236377  0.636254  0.959918  1
  O  O68  1  0.718220  0.076461  0.917064  1
  O  O69  1  0.303582  0.452193  0.821268  1
  O  O70  1  0.573320  0.973342  0.302269  1
  O  O71  1  0.654892  0.751907  0.764815  1
  O  O72  1  0.033078  0.836184  0.908427  1
  O  O73  1  0.282088  0.831596  0.237633  1
  O  O74  1  0.033078  0.663816  0.408427  1
  O  O75  1  0.770663  0.961212  0.225942  1
  O  O76  1  0.345108  0.251907  0.735185  1
  O  O77  1  0.717912  0.168404  0.762367  1
  O  O78  1  0.281780  0.576461  0.582936  1
  O  O79  1  0.190481  0.446632  0.428896  1
  O  O80  1  0.898703  0.611968  0.910848  1
  O  O81  1  0.101297  0.111968  0.589152  1
  O  O82  1  0.696418  0.547807  0.178732  1
  O  O83  1  0.809519  0.946632  0.071104  1
  O  O84  1  0.281780  0.923539  0.082936  1
  O  O85  1  0.812679  0.751766  0.161478  1
  O  O86  1  0.770663  0.538788  0.725942  1
  O  O87  1  0.625512  0.346366  0.545348  1
  O  O88  1  0.503302  0.647816  0.923776  1
  O  O89  1  0.888282  0.220203  0.427584  1
  O  O90  1  0.503302  0.852184  0.423776  1
  O  O91  1  0.236377  0.863746  0.459918  1
  O  O92  1  0.345108  0.248093  0.235185  1
  O  O93  1  0.763623  0.136254  0.540082  1
  O  O94  1  0.888282  0.279797  0.927584  1
  O  O95  1  0.374488  0.846366  0.954652  1
