# generated using pymatgen
data_K3Sb7(SO3)3
_symmetry_space_group_name_H-M   'P 1'
_cell_length_a   14.60086189
_cell_length_b   14.60086189
_cell_length_c   5.72134595
_cell_angle_alpha   90.00000000
_cell_angle_beta   90.00000000
_cell_angle_gamma   120.00000000
_symmetry_Int_Tables_number   1
_chemical_formula_structural   K3Sb7(SO3)3
_chemical_formula_sum   'K6 Sb14 S6 O18'
_cell_volume   1056.29646507
_cell_formula_units_Z   2
loop_
 _symmetry_equiv_pos_site_id
 _symmetry_equiv_pos_as_xyz
  1  'x, y, z'
loop_
 _atom_site_type_symbol
 _atom_site_label
 _atom_site_symmetry_multiplicity
 _atom_site_fract_x
 _atom_site_fract_y
 _atom_site_fract_z
 _atom_site_occupancy
  K  K0  1  0.704856  0.896662  0.640076  1
  K  K1  1  0.191806  0.295144  0.640076  1
  K  K2  1  0.295144  0.103338  0.140076  1
  K  K3  1  0.896662  0.191806  0.140076  1
  K  K4  1  0.808194  0.704856  0.140076  1
  K  K5  1  0.103338  0.808194  0.640076  1
  Sb  Sb6  1  0.554165  0.720083  0.146292  1
  Sb  Sb7  1  0.834082  0.554165  0.646292  1
  Sb  Sb8  1  0.599570  0.985407  0.135819  1
  Sb  Sb9  1  0.014593  0.614163  0.135819  1
  Sb  Sb10  1  0.400430  0.014593  0.635819  1
  Sb  Sb11  1  0.385837  0.400430  0.135819  1
  Sb  Sb12  1  0.279917  0.834082  0.146292  1
  Sb  Sb13  1  0.985407  0.385837  0.635819  1
  Sb  Sb14  1  0.614163  0.599570  0.635819  1
  Sb  Sb15  1  0.445835  0.279917  0.646292  1
  Sb  Sb16  1  0.165918  0.445835  0.146292  1
  Sb  Sb17  1  0.720083  0.165918  0.646292  1
  Sb  Sb18  1  0.666667  0.333333  0.246120  1
  Sb  Sb19  1  0.333333  0.666667  0.746120  1
  S  S20  1  0.626820  0.462260  0.069447  1
  S  S21  1  0.462260  0.835440  0.569447  1
  S  S22  1  0.373180  0.537740  0.569447  1
  S  S23  1  0.537740  0.164560  0.069447  1
  S  S24  1  0.164560  0.626820  0.569447  1
  S  S25  1  0.835440  0.373180  0.069447  1
  O  O26  1  0.877072  0.227322  0.627226  1
  O  O27  1  0.063174  0.357803  0.889656  1
  O  O28  1  0.350251  0.122928  0.627226  1
  O  O29  1  0.649749  0.877072  0.127226  1
  O  O30  1  0.648416  0.712858  0.390476  1
  O  O31  1  0.642197  0.705371  0.889656  1
  O  O32  1  0.357803  0.294629  0.389656  1
  O  O33  1  0.351584  0.287142  0.890476  1
  O  O34  1  0.287142  0.935559  0.390476  1
  O  O35  1  0.064441  0.351584  0.390476  1
  O  O36  1  0.772678  0.649749  0.627226  1
  O  O37  1  0.122928  0.772678  0.127226  1
  O  O38  1  0.705371  0.063174  0.389656  1
  O  O39  1  0.227322  0.350251  0.127226  1
  O  O40  1  0.712858  0.064441  0.890476  1
  O  O41  1  0.936826  0.642197  0.389656  1
  O  O42  1  0.935559  0.648416  0.890476  1
  O  O43  1  0.294629  0.936826  0.889656  1
