# generated using pymatgen
data_NaLiSiB3HO8
_symmetry_space_group_name_H-M   'P 1'
_cell_length_a   6.83414184
_cell_length_b   14.01007158
_cell_length_c   7.78592099
_cell_angle_alpha   90.00000000
_cell_angle_beta   124.41344037
_cell_angle_gamma   90.00000000
_symmetry_Int_Tables_number   1
_chemical_formula_structural   NaLiSiB3HO8
_chemical_formula_sum   'Na4 Li4 Si4 B12 H4 O32'
_cell_volume   615.00444261
_cell_formula_units_Z   4
loop_
 _symmetry_equiv_pos_site_id
 _symmetry_equiv_pos_as_xyz
  1  'x, y, z'
loop_
 _atom_site_type_symbol
 _atom_site_label
 _atom_site_symmetry_multiplicity
 _atom_site_fract_x
 _atom_site_fract_y
 _atom_site_fract_z
 _atom_site_occupancy
  Na  Na0  1  0.974888  0.491893  0.256539  1
  Na  Na1  1  0.974888  0.008107  0.756539  1
  Na  Na2  1  0.025112  0.508107  0.743461  1
  Na  Na3  1  0.025112  0.991893  0.243461  1
  Li  Li4  1  0.538834  0.199015  0.873205  1
  Li  Li5  1  0.461166  0.800985  0.126795  1
  Li  Li6  1  0.538834  0.300985  0.373205  1
  Li  Li7  1  0.461166  0.699015  0.626795  1
  Si  Si8  1  0.041969  0.247380  0.209150  1
  Si  Si9  1  0.958031  0.752620  0.790850  1
  Si  Si10  1  0.041969  0.252620  0.709150  1
  Si  Si11  1  0.958031  0.747380  0.290850  1
  B  B12  1  0.463187  0.507030  0.215887  1
  B  B13  1  0.765525  0.152772  0.316741  1
  B  B14  1  0.536813  0.007030  0.284113  1
  B  B15  1  0.682765  0.849003  0.915654  1
  B  B16  1  0.536813  0.492970  0.784113  1
  B  B17  1  0.234475  0.652772  0.183259  1
  B  B18  1  0.317235  0.349003  0.584346  1
  B  B19  1  0.463187  0.992970  0.715887  1
  B  B20  1  0.234475  0.847228  0.683259  1
  B  B21  1  0.317235  0.150997  0.084346  1
  B  B22  1  0.682765  0.650997  0.415654  1
  B  B23  1  0.765525  0.347228  0.816741  1
  H  H24  1  0.305885  0.387666  0.056132  1
  H  H25  1  0.694115  0.887666  0.443868  1
  H  H26  1  0.694115  0.612334  0.943868  1
  H  H27  1  0.305885  0.112334  0.556132  1
  O  O28  1  0.728229  0.784886  0.790454  1
  O  O29  1  0.187357  0.777496  0.520355  1
  O  O30  1  0.031965  0.654251  0.207882  1
  O  O31  1  0.680930  0.547644  0.354716  1
  O  O32  1  0.319070  0.452356  0.645284  1
  O  O33  1  0.812643  0.222504  0.479645  1
  O  O34  1  0.463718  0.410365  0.169350  1
  O  O35  1  0.455254  0.675045  0.379726  1
  O  O36  1  0.536282  0.589635  0.830650  1
  O  O37  1  0.875254  0.841194  0.138722  1
  O  O38  1  0.968035  0.154251  0.292118  1
  O  O39  1  0.271771  0.215114  0.209546  1
  O  O40  1  0.124746  0.341194  0.361278  1
  O  O41  1  0.751355  0.053242  0.381560  1
  O  O42  1  0.875254  0.658806  0.638722  1
  O  O43  1  0.968035  0.345749  0.792118  1
  O  O44  1  0.544746  0.324955  0.620274  1
  O  O45  1  0.751355  0.446758  0.881560  1
  O  O46  1  0.680930  0.952356  0.854716  1
  O  O47  1  0.031965  0.845749  0.707882  1
  O  O48  1  0.319070  0.047644  0.145284  1
  O  O49  1  0.124746  0.158806  0.861278  1
  O  O50  1  0.271771  0.284886  0.709546  1
  O  O51  1  0.455254  0.824955  0.879726  1
  O  O52  1  0.187357  0.722504  0.020355  1
  O  O53  1  0.728229  0.715114  0.290454  1
  O  O54  1  0.248645  0.553242  0.118440  1
  O  O55  1  0.536282  0.910365  0.330650  1
  O  O56  1  0.812643  0.277496  0.979645  1
  O  O57  1  0.544746  0.175045  0.120274  1
  O  O58  1  0.248645  0.946758  0.618440  1
  O  O59  1  0.463718  0.089635  0.669350  1
