# generated using pymatgen
data_K4Ba(GeO3)3
_symmetry_space_group_name_H-M   'P 1'
_cell_length_a   7.56790922
_cell_length_b   7.56790922
_cell_length_c   11.56563157
_cell_angle_alpha   89.72421391
_cell_angle_beta   90.27578609
_cell_angle_gamma   68.38619002
_symmetry_Int_Tables_number   1
_chemical_formula_structural   K4Ba(GeO3)3
_chemical_formula_sum   'K8 Ba2 Ge6 O18'
_cell_volume   615.80377908
_cell_formula_units_Z   2
loop_
 _symmetry_equiv_pos_site_id
 _symmetry_equiv_pos_as_xyz
  1  'x, y, z'
loop_
 _atom_site_type_symbol
 _atom_site_label
 _atom_site_symmetry_multiplicity
 _atom_site_fract_x
 _atom_site_fract_y
 _atom_site_fract_z
 _atom_site_occupancy
  K  K0  1  0.293277  0.842165  0.250929  1
  K  K1  1  0.050104  0.050104  0.000000  1
  K  K2  1  0.842165  0.293277  0.749071  1
  K  K3  1  0.566802  0.566802  0.000000  1
  K  K4  1  0.586859  0.586859  0.500000  1
  K  K5  1  0.310426  0.416798  0.745704  1
  K  K6  1  0.998448  0.998448  0.500000  1
  K  K7  1  0.416798  0.310426  0.254296  1
  Ba  Ba8  1  0.817249  0.802390  0.770347  1
  Ba  Ba9  1  0.802390  0.817249  0.229653  1
  Ge  Ge10  1  0.889774  0.332690  0.258097  1
  Ge  Ge11  1  0.332690  0.889774  0.741903  1
  Ge  Ge12  1  0.486404  0.092344  0.524360  1
  Ge  Ge13  1  0.100485  0.492487  0.030889  1
  Ge  Ge14  1  0.092344  0.486404  0.475640  1
  Ge  Ge15  1  0.492487  0.100485  0.969111  1
  O  O16  1  0.346060  0.346060  0.500000  1
  O  O17  1  0.102003  0.902583  0.760831  1
  O  O18  1  0.902583  0.102003  0.239169  1
  O  O19  1  0.991589  0.331486  0.401860  1
  O  O20  1  0.349067  0.349067  0.000000  1
  O  O21  1  0.489769  0.948938  0.082310  1
  O  O22  1  0.368019  0.059846  0.841364  1
  O  O23  1  0.331486  0.991589  0.598140  1
  O  O24  1  0.059846  0.368019  0.158636  1
  O  O25  1  0.707291  0.106543  0.921837  1
  O  O26  1  0.517654  0.666632  0.750941  1
  O  O27  1  0.095956  0.670180  0.385643  1
  O  O28  1  0.670180  0.095956  0.614357  1
  O  O29  1  0.538393  0.974586  0.392184  1
  O  O30  1  0.948938  0.489769  0.917690  1
  O  O31  1  0.106543  0.707291  0.078163  1
  O  O32  1  0.974586  0.538393  0.607816  1
  O  O33  1  0.666632  0.517654  0.249059  1
