# generated using pymatgen
data_Y2(MoO4)3
_symmetry_space_group_name_H-M   'P 1'
_cell_length_a   10.52553548
_cell_length_b   10.54187769
_cell_length_c   10.73499800
_cell_angle_alpha   90.00000000
_cell_angle_beta   90.00000000
_cell_angle_gamma   90.00000000
_symmetry_Int_Tables_number   1
_chemical_formula_structural   Y2(MoO4)3
_chemical_formula_sum   'Y8 Mo12 O48'
_cell_volume   1191.14365173
_cell_formula_units_Z   4
loop_
 _symmetry_equiv_pos_site_id
 _symmetry_equiv_pos_as_xyz
  1  'x, y, z'
loop_
 _atom_site_type_symbol
 _atom_site_label
 _atom_site_symmetry_multiplicity
 _atom_site_fract_x
 _atom_site_fract_y
 _atom_site_fract_z
 _atom_site_occupancy
  Y  Y0  1  0.312048  0.999069  0.740927  1
  Y  Y1  1  0.687952  0.000931  0.740927  1
  Y  Y2  1  0.187952  0.499069  0.740927  1
  Y  Y3  1  0.502784  0.687998  0.266447  1
  Y  Y4  1  0.997216  0.187998  0.266447  1
  Y  Y5  1  0.812048  0.500931  0.740927  1
  Y  Y6  1  0.002784  0.812002  0.266447  1
  Y  Y7  1  0.497216  0.312002  0.266447  1
  Mo  Mo8  1  0.247409  0.247928  0.003440  1
  Mo  Mo9  1  0.001924  0.206824  0.646899  1
  Mo  Mo10  1  0.498076  0.706824  0.646899  1
  Mo  Mo11  1  0.252591  0.747928  0.003440  1
  Mo  Mo12  1  0.706219  0.007649  0.359806  1
  Mo  Mo13  1  0.206219  0.492351  0.359806  1
  Mo  Mo14  1  0.501924  0.293176  0.646899  1
  Mo  Mo15  1  0.293781  0.992351  0.359806  1
  Mo  Mo16  1  0.747409  0.252072  0.003440  1
  Mo  Mo17  1  0.793781  0.507649  0.359806  1
  Mo  Mo18  1  0.752591  0.752072  0.003440  1
  Mo  Mo19  1  0.998076  0.793176  0.646899  1
  O  O20  1  0.124879  0.879079  0.717811  1
  O  O21  1  0.515746  0.696139  0.481922  1
  O  O22  1  0.305632  0.996794  0.525347  1
  O  O23  1  0.984254  0.196139  0.481922  1
  O  O24  1  0.150001  0.341207  0.309430  1
  O  O25  1  0.872784  0.821998  0.099098  1
  O  O26  1  0.627216  0.321998  0.099098  1
  O  O27  1  0.127216  0.178002  0.099098  1
  O  O28  1  0.118358  0.620524  0.293788  1
  O  O29  1  0.003978  0.626556  0.695935  1
  O  O30  1  0.503978  0.873444  0.695935  1
  O  O31  1  0.194368  0.496794  0.525347  1
  O  O32  1  0.381642  0.120524  0.293788  1
  O  O33  1  0.136477  0.820330  0.102785  1
  O  O34  1  0.372784  0.678002  0.099098  1
  O  O35  1  0.650001  0.158793  0.309430  1
  O  O36  1  0.823356  0.635506  0.904015  1
  O  O37  1  0.636477  0.679670  0.102785  1
  O  O38  1  0.881642  0.379476  0.293788  1
  O  O39  1  0.624879  0.620921  0.717811  1
  O  O40  1  0.153843  0.147574  0.691673  1
  O  O41  1  0.873219  0.995554  0.311985  1
  O  O42  1  0.319042  0.128495  0.907693  1
  O  O43  1  0.849999  0.658793  0.309430  1
  O  O44  1  0.996022  0.373444  0.695935  1
  O  O45  1  0.618358  0.879476  0.293788  1
  O  O46  1  0.484254  0.303861  0.481922  1
  O  O47  1  0.875121  0.120921  0.717811  1
  O  O48  1  0.863523  0.179670  0.102785  1
  O  O49  1  0.349999  0.841207  0.309430  1
  O  O50  1  0.694368  0.003206  0.525347  1
  O  O51  1  0.626781  0.495554  0.311985  1
  O  O52  1  0.805632  0.503206  0.525347  1
  O  O53  1  0.180958  0.628495  0.907693  1
  O  O54  1  0.363523  0.320330  0.102785  1
  O  O55  1  0.373219  0.504446  0.311985  1
  O  O56  1  0.375121  0.379079  0.717811  1
  O  O57  1  0.653843  0.352426  0.691673  1
  O  O58  1  0.015746  0.803861  0.481922  1
  O  O59  1  0.323356  0.864494  0.904015  1
  O  O60  1  0.126781  0.004446  0.311985  1
  O  O61  1  0.346157  0.647574  0.691673  1
  O  O62  1  0.496022  0.126556  0.695935  1
  O  O63  1  0.676644  0.135506  0.904015  1
  O  O64  1  0.819042  0.371505  0.907693  1
  O  O65  1  0.680958  0.871505  0.907693  1
  O  O66  1  0.176644  0.364494  0.904015  1
  O  O67  1  0.846157  0.852426  0.691673  1
