# generated using pymatgen
data_TeAuBr8
_symmetry_space_group_name_H-M   'P 1'
_cell_length_a   8.28870520
_cell_length_b   9.33507324
_cell_length_c   10.88304281
_cell_angle_alpha   86.91121279
_cell_angle_beta   70.42531525
_cell_angle_gamma   82.15582501
_symmetry_Int_Tables_number   1
_chemical_formula_structural   TeAuBr8
_chemical_formula_sum   'Te2 Au2 Br16'
_cell_volume   785.96096502
_cell_formula_units_Z   2
loop_
 _symmetry_equiv_pos_site_id
 _symmetry_equiv_pos_as_xyz
  1  'x, y, z'
loop_
 _atom_site_type_symbol
 _atom_site_label
 _atom_site_symmetry_multiplicity
 _atom_site_fract_x
 _atom_site_fract_y
 _atom_site_fract_z
 _atom_site_occupancy
  Te  Te0  1  0.623261  0.250991  0.724785  1
  Te  Te1  1  0.376739  0.749009  0.275215  1
  Au  Au2  1  0.005923  0.108042  0.313995  1
  Au  Au3  1  0.994077  0.891958  0.686005  1
  Br  Br4  1  0.288106  0.069503  0.354776  1
  Br  Br5  1  0.711894  0.930497  0.645224  1
  Br  Br6  1  0.915963  0.317588  0.464249  1
  Br  Br7  1  0.084037  0.682412  0.535751  1
  Br  Br8  1  0.085098  0.891608  0.172980  1
  Br  Br9  1  0.914902  0.108392  0.827020  1
  Br  Br10  1  0.741922  0.164935  0.255699  1
  Br  Br11  1  0.258078  0.835065  0.744301  1
  Br  Br12  1  0.394053  0.310659  0.616564  1
  Br  Br13  1  0.605947  0.689341  0.383436  1
  Br  Br14  1  0.647847  0.507305  0.779081  1
  Br  Br15  1  0.352153  0.492695  0.220919  1
  Br  Br16  1  0.411236  0.193312  0.944804  1
  Br  Br17  1  0.588764  0.806688  0.055196  1
  Br  Br18  1  0.926410  0.407919  0.066553  1
  Br  Br19  1  0.073590  0.592081  0.933447  1
