# generated using pymatgen
data_VCdAgO4
_symmetry_space_group_name_H-M   'P 1'
_cell_length_a   5.54324413
_cell_length_b   7.09974346
_cell_length_c   10.04215497
_cell_angle_alpha   90.00000000
_cell_angle_beta   90.00000000
_cell_angle_gamma   90.00000000
_symmetry_Int_Tables_number   1
_chemical_formula_structural   VCdAgO4
_chemical_formula_sum   'V4 Cd4 Ag4 O16'
_cell_volume   395.21514720
_cell_formula_units_Z   4
loop_
 _symmetry_equiv_pos_site_id
 _symmetry_equiv_pos_as_xyz
  1  'x, y, z'
loop_
 _atom_site_type_symbol
 _atom_site_label
 _atom_site_symmetry_multiplicity
 _atom_site_fract_x
 _atom_site_fract_y
 _atom_site_fract_z
 _atom_site_occupancy
  V  V0  1  0.988608  0.750000  0.679101  1
  V  V1  1  0.488608  0.250000  0.820899  1
  V  V2  1  0.011392  0.250000  0.320899  1
  V  V3  1  0.511392  0.750000  0.179101  1
  Cd  Cd4  1  0.500000  0.500000  0.500000  1
  Cd  Cd5  1  0.000000  0.500000  0.000000  1
  Cd  Cd6  1  0.500000  0.000000  0.500000  1
  Cd  Cd7  1  0.000000  0.000000  0.000000  1
  Ag  Ag8  1  0.997578  0.750000  0.349332  1
  Ag  Ag9  1  0.497578  0.250000  0.150668  1
  Ag  Ag10  1  0.002422  0.250000  0.650668  1
  Ag  Ag11  1  0.502422  0.750000  0.849332  1
  O  O12  1  0.941162  0.750000  0.857001  1
  O  O13  1  0.441162  0.250000  0.642999  1
  O  O14  1  0.058838  0.250000  0.142999  1
  O  O15  1  0.558838  0.750000  0.357001  1
  O  O16  1  0.293453  0.750000  0.626301  1
  O  O17  1  0.793453  0.250000  0.873699  1
  O  O18  1  0.706547  0.250000  0.373699  1
  O  O19  1  0.206547  0.750000  0.126301  1
  O  O20  1  0.844912  0.552656  0.617275  1
  O  O21  1  0.344912  0.447344  0.882725  1
  O  O22  1  0.155088  0.052656  0.382725  1
  O  O23  1  0.655088  0.947344  0.117275  1
  O  O24  1  0.155088  0.447344  0.382725  1
  O  O25  1  0.655088  0.552656  0.117275  1
  O  O26  1  0.844912  0.947344  0.617275  1
  O  O27  1  0.344912  0.052656  0.882725  1
