# generated using pymatgen
data_Cu8GeS6
_symmetry_space_group_name_H-M   'P 1'
_cell_length_a   6.96708567
_cell_length_b   7.03711402
_cell_length_c   9.81899490
_cell_angle_alpha   90.00000000
_cell_angle_beta   90.00000000
_cell_angle_gamma   90.00000000
_symmetry_Int_Tables_number   1
_chemical_formula_structural   Cu8GeS6
_chemical_formula_sum   'Cu16 Ge2 S12'
_cell_volume   481.40741252
_cell_formula_units_Z   2
loop_
 _symmetry_equiv_pos_site_id
 _symmetry_equiv_pos_as_xyz
  1  'x, y, z'
loop_
 _atom_site_type_symbol
 _atom_site_label
 _atom_site_symmetry_multiplicity
 _atom_site_fract_x
 _atom_site_fract_y
 _atom_site_fract_z
 _atom_site_occupancy
  Cu  Cu0  1  0.300960  0.000000  0.461258  1
  Cu  Cu1  1  0.699040  0.500000  0.961258  1
  Cu  Cu2  1  0.480789  0.797943  0.256887  1
  Cu  Cu3  1  0.519211  0.702057  0.756887  1
  Cu  Cu4  1  0.519211  0.297943  0.756887  1
  Cu  Cu5  1  0.480789  0.202057  0.256887  1
  Cu  Cu6  1  0.881593  0.792766  0.858221  1
  Cu  Cu7  1  0.118407  0.707234  0.358221  1
  Cu  Cu8  1  0.118407  0.292766  0.358221  1
  Cu  Cu9  1  0.881593  0.207234  0.858221  1
  Cu  Cu10  1  0.834202  0.767725  0.136505  1
  Cu  Cu11  1  0.165798  0.732275  0.636505  1
  Cu  Cu12  1  0.165798  0.267725  0.636505  1
  Cu  Cu13  1  0.834202  0.232275  0.136505  1
  Cu  Cu14  1  0.390487  0.000000  0.028119  1
  Cu  Cu15  1  0.609513  0.500000  0.528119  1
  Ge  Ge16  1  0.248744  0.500000  0.010150  1
  Ge  Ge17  1  0.751256  0.000000  0.510150  1
  S  S18  1  0.277285  0.500000  0.506364  1
  S  S19  1  0.722715  0.000000  0.006364  1
  S  S20  1  0.242532  0.762180  0.887100  1
  S  S21  1  0.757468  0.737820  0.387100  1
  S  S22  1  0.757468  0.262180  0.387100  1
  S  S23  1  0.242532  0.237820  0.887100  1
  S  S24  1  0.990217  0.000000  0.662118  1
  S  S25  1  0.009783  0.500000  0.162118  1
  S  S26  1  0.495080  0.000000  0.644260  1
  S  S27  1  0.504920  0.500000  0.144260  1
  S  S28  1  0.217700  0.000000  0.242306  1
  S  S29  1  0.782300  0.500000  0.742306  1
