# generated using pymatgen
data_RbSbBrF3
_symmetry_space_group_name_H-M   'P 1'
_cell_length_a   4.56521642
_cell_length_b   7.87781926
_cell_length_c   9.10164277
_cell_angle_alpha   110.50421724
_cell_angle_beta   99.10683748
_cell_angle_gamma   103.53165495
_symmetry_Int_Tables_number   1
_chemical_formula_structural   RbSbBrF3
_chemical_formula_sum   'Rb2 Sb2 Br2 F6'
_cell_volume   287.52323346
_cell_formula_units_Z   2
loop_
 _symmetry_equiv_pos_site_id
 _symmetry_equiv_pos_as_xyz
  1  'x, y, z'
loop_
 _atom_site_type_symbol
 _atom_site_label
 _atom_site_symmetry_multiplicity
 _atom_site_fract_x
 _atom_site_fract_y
 _atom_site_fract_z
 _atom_site_occupancy
  Rb  Rb0  1  0.988143  0.312817  0.652933  1
  Rb  Rb1  1  0.011857  0.687183  0.347067  1
  Sb  Sb2  1  0.319339  0.159843  0.208960  1
  Sb  Sb3  1  0.680661  0.840157  0.791040  1
  Br  Br4  1  0.436561  0.772507  0.069028  1
  Br  Br5  1  0.563439  0.227493  0.930972  1
  F  F6  1  0.605505  0.559303  0.683926  1
  F  F7  1  0.699375  0.879424  0.585270  1
  F  F8  1  0.300625  0.120576  0.414730  1
  F  F9  1  0.394495  0.440697  0.316074  1
  F  F10  1  0.222147  0.764546  0.699633  1
  F  F11  1  0.777853  0.235454  0.300367  1
