# generated using pymatgen
data_Cs4NaHf3H2F19
_symmetry_space_group_name_H-M   'P 1'
_cell_length_a   11.62983736
_cell_length_b   6.98446590
_cell_length_c   13.47003535
_cell_angle_alpha   90.00000000
_cell_angle_beta   110.67365511
_cell_angle_gamma   90.00000000
_symmetry_Int_Tables_number   1
_chemical_formula_structural   Cs4NaHf3H2F19
_chemical_formula_sum   'Cs8 Na2 Hf6 H4 F38'
_cell_volume   1023.69077737
_cell_formula_units_Z   2
loop_
 _symmetry_equiv_pos_site_id
 _symmetry_equiv_pos_as_xyz
  1  'x, y, z'
loop_
 _atom_site_type_symbol
 _atom_site_label
 _atom_site_symmetry_multiplicity
 _atom_site_fract_x
 _atom_site_fract_y
 _atom_site_fract_z
 _atom_site_occupancy
  Cs  Cs0  1  0.356182  0.250000  0.573248  1
  Cs  Cs1  1  0.475985  0.750000  0.071937  1
  Cs  Cs2  1  0.643818  0.750000  0.426752  1
  Cs  Cs3  1  0.029852  0.750000  0.416340  1
  Cs  Cs4  1  0.970148  0.250000  0.583660  1
  Cs  Cs5  1  0.524015  0.250000  0.928063  1
  Cs  Cs6  1  0.137222  0.250000  0.924092  1
  Cs  Cs7  1  0.862778  0.750000  0.075908  1
  Na  Na8  1  0.736340  0.250000  0.749541  1
  Na  Na9  1  0.263660  0.750000  0.250459  1
  Hf  Hf10  1  0.915973  0.750000  0.754475  1
  Hf  Hf11  1  0.594358  0.750000  0.747548  1
  Hf  Hf12  1  0.084027  0.250000  0.245525  1
  Hf  Hf13  1  0.230090  0.750000  0.749028  1
  Hf  Hf14  1  0.405642  0.250000  0.252452  1
  Hf  Hf15  1  0.769910  0.250000  0.250972  1
  H  H16  1  0.376055  0.750000  0.504012  1
  H  H17  1  0.868930  0.250000  0.001950  1
  H  H18  1  0.623945  0.250000  0.495988  1
  H  H19  1  0.131070  0.750000  0.998050  1
  F  F20  1  0.198746  0.944801  0.630792  1
  F  F21  1  0.283210  0.250000  0.340498  1
  F  F22  1  0.716790  0.750000  0.659502  1
  F  F23  1  0.511635  0.250000  0.415851  1
  F  F24  1  0.980490  0.250000  0.083241  1
  F  F25  1  0.584691  0.036388  0.741222  1
  F  F26  1  0.700755  0.250000  0.561234  1
  F  F27  1  0.216490  0.250000  0.156837  1
  F  F28  1  0.210865  0.750000  0.060029  1
  F  F29  1  0.123782  0.971317  0.240979  1
  F  F30  1  0.682607  0.446057  0.138285  1
  F  F31  1  0.783510  0.750000  0.843163  1
  F  F32  1  0.082614  0.582346  0.763270  1
  F  F33  1  0.317393  0.946057  0.861715  1
  F  F34  1  0.876218  0.028683  0.759021  1
  F  F35  1  0.299245  0.750000  0.438766  1
  F  F36  1  0.123782  0.528683  0.240979  1
  F  F37  1  0.682607  0.053943  0.138285  1
  F  F38  1  0.593061  0.250000  0.266367  1
  F  F39  1  0.801254  0.444801  0.369208  1
  F  F40  1  0.917386  0.082346  0.236730  1
  F  F41  1  0.907219  0.750000  0.603226  1
  F  F42  1  0.488365  0.750000  0.584149  1
  F  F43  1  0.584691  0.463612  0.741222  1
  F  F44  1  0.198746  0.555199  0.630792  1
  F  F45  1  0.415309  0.963612  0.258778  1
  F  F46  1  0.082614  0.917654  0.763270  1
  F  F47  1  0.019510  0.750000  0.916759  1
  F  F48  1  0.801254  0.055199  0.369208  1
  F  F49  1  0.415309  0.536388  0.258778  1
  F  F50  1  0.789135  0.250000  0.939971  1
  F  F51  1  0.876218  0.471317  0.759021  1
  F  F52  1  0.917386  0.417654  0.236730  1
  F  F53  1  0.399970  0.250000  0.101577  1
  F  F54  1  0.317393  0.553943  0.861715  1
  F  F55  1  0.406939  0.750000  0.733633  1
  F  F56  1  0.600030  0.750000  0.898423  1
  F  F57  1  0.092781  0.250000  0.396774  1
