# generated using pymatgen
data_Y3Ga5O12
_symmetry_space_group_name_H-M   'P 1'
_cell_length_a   10.76565523
_cell_length_b   10.76565523
_cell_length_c   10.76565523
_cell_angle_alpha   109.47122063
_cell_angle_beta   109.47122063
_cell_angle_gamma   109.47122063
_symmetry_Int_Tables_number   1
_chemical_formula_structural   Y3Ga5O12
_chemical_formula_sum   'Y12 Ga20 O48'
_cell_volume   960.50473847
_cell_formula_units_Z   4
loop_
 _symmetry_equiv_pos_site_id
 _symmetry_equiv_pos_as_xyz
  1  'x, y, z'
loop_
 _atom_site_type_symbol
 _atom_site_label
 _atom_site_symmetry_multiplicity
 _atom_site_fract_x
 _atom_site_fract_y
 _atom_site_fract_z
 _atom_site_occupancy
  Y  Y0  1  0.250000  0.875000  0.625000  1
  Y  Y1  1  0.875000  0.625000  0.250000  1
  Y  Y2  1  0.625000  0.875000  0.750000  1
  Y  Y3  1  0.875000  0.750000  0.625000  1
  Y  Y4  1  0.625000  0.250000  0.875000  1
  Y  Y5  1  0.750000  0.625000  0.875000  1
  Y  Y6  1  0.750000  0.125000  0.375000  1
  Y  Y7  1  0.125000  0.375000  0.750000  1
  Y  Y8  1  0.375000  0.125000  0.250000  1
  Y  Y9  1  0.125000  0.250000  0.375000  1
  Y  Y10  1  0.375000  0.750000  0.125000  1
  Y  Y11  1  0.250000  0.375000  0.125000  1
  Ga  Ga12  1  0.250000  0.125000  0.875000  1
  Ga  Ga13  1  0.750000  0.875000  0.125000  1
  Ga  Ga14  1  0.375000  0.250000  0.625000  1
  Ga  Ga15  1  0.625000  0.375000  0.250000  1
  Ga  Ga16  1  0.125000  0.750000  0.875000  1
  Ga  Ga17  1  0.875000  0.125000  0.750000  1
  Ga  Ga18  1  0.750000  0.375000  0.625000  1
  Ga  Ga19  1  0.375000  0.625000  0.750000  1
  Ga  Ga20  1  0.125000  0.875000  0.250000  1
  Ga  Ga21  1  0.875000  0.250000  0.125000  1
  Ga  Ga22  1  0.625000  0.750000  0.375000  1
  Ga  Ga23  1  0.250000  0.625000  0.375000  1
  Ga  Ga24  1  0.500000  0.500000  0.500000  1
  Ga  Ga25  1  0.500000  0.500000  0.000000  1
  Ga  Ga26  1  0.500000  1.000000  0.500000  1
  Ga  Ga27  1  1.000000  0.500000  0.500000  1
  Ga  Ga28  1  0.500000  1.000000  0.000000  1
  Ga  Ga29  1  1.000000  1.000000  0.500000  1
  Ga  Ga30  1  1.000000  0.500000  0.000000  1
  Ga  Ga31  1  0.000000  0.000000  0.000000  1
  O  O32  1  0.794309  0.417621  0.822585  1
  O  O33  1  0.082379  0.876688  0.404963  1
  O  O34  1  0.677415  0.095037  0.971724  1
  O  O35  1  0.705691  0.528276  0.623312  1
  O  O36  1  0.705691  0.677415  0.082379  1
  O  O37  1  0.528276  0.623312  0.705691  1
  O  O38  1  0.095037  0.623312  0.417621  1
  O  O39  1  0.623312  0.705691  0.528276  1
  O  O40  1  0.404963  0.822584  0.528276  1
  O  O41  1  0.876688  0.971724  0.794309  1
  O  O42  1  0.971724  0.794309  0.876688  1
  O  O43  1  0.082379  0.705691  0.677415  1
  O  O44  1  0.623312  0.417621  0.095037  1
  O  O45  1  0.528276  0.404963  0.822585  1
  O  O46  1  0.677415  0.082379  0.705691  1
  O  O47  1  0.417621  0.095037  0.623312  1
  O  O48  1  0.822584  0.528276  0.404963  1
  O  O49  1  0.404963  0.082379  0.876688  1
  O  O50  1  0.095037  0.971724  0.677415  1
  O  O51  1  0.595037  0.177415  0.471724  1
  O  O52  1  0.971724  0.677415  0.095037  1
  O  O53  1  0.822584  0.794309  0.417621  1
  O  O54  1  0.876688  0.404963  0.082379  1
  O  O55  1  0.794309  0.876688  0.971724  1
  O  O56  1  0.205691  0.582379  0.177415  1
  O  O57  1  0.917621  0.123312  0.595037  1
  O  O58  1  0.322585  0.904963  0.028276  1
  O  O59  1  0.294309  0.471724  0.376688  1
  O  O60  1  0.294309  0.322584  0.917621  1
  O  O61  1  0.471724  0.376688  0.294309  1
  O  O62  1  0.904963  0.376688  0.582379  1
  O  O63  1  0.376688  0.294309  0.471724  1
  O  O64  1  0.205691  0.123312  0.028276  1
  O  O65  1  0.123312  0.595037  0.917621  1
  O  O66  1  0.177415  0.205691  0.582379  1
  O  O67  1  0.582379  0.177415  0.205691  1
  O  O68  1  0.028276  0.322584  0.904963  1
  O  O69  1  0.904963  0.028276  0.322585  1
  O  O70  1  0.595037  0.917621  0.123312  1
  O  O71  1  0.177415  0.471724  0.595037  1
  O  O72  1  0.582379  0.904963  0.376688  1
  O  O73  1  0.322584  0.917621  0.294309  1
  O  O74  1  0.471724  0.595037  0.177415  1
  O  O75  1  0.376688  0.582379  0.904963  1
  O  O76  1  0.917621  0.294309  0.322585  1
  O  O77  1  0.028276  0.205691  0.123312  1
  O  O78  1  0.123312  0.028276  0.205691  1
  O  O79  1  0.417621  0.822584  0.794309  1
