# generated using pymatgen
data_CO2
_symmetry_space_group_name_H-M   'P 1'
_cell_length_a   4.91528417
_cell_length_b   5.41288723
_cell_length_c   7.23238549
_cell_angle_alpha   90.00000000
_cell_angle_beta   90.00000000
_cell_angle_gamma   90.00000000
_symmetry_Int_Tables_number   1
_chemical_formula_structural   CO2
_chemical_formula_sum   'C4 O8'
_cell_volume   192.42397262
_cell_formula_units_Z   4
loop_
 _symmetry_equiv_pos_site_id
 _symmetry_equiv_pos_as_xyz
  1  'x, y, z'
loop_
 _atom_site_type_symbol
 _atom_site_label
 _atom_site_symmetry_multiplicity
 _atom_site_fract_x
 _atom_site_fract_y
 _atom_site_fract_z
 _atom_site_occupancy
  C  C0  1  0.500000  0.750000  0.859992  1
  C  C1  1  0.000000  0.750000  0.359992  1
  C  C2  1  0.000000  0.250000  0.640008  1
  C  C3  1  0.500000  0.250000  0.140008  1
  O  O4  1  0.694764  0.124042  0.139156  1
  O  O5  1  0.305236  0.375958  0.139156  1
  O  O6  1  0.805236  0.124042  0.639156  1
  O  O7  1  0.194764  0.875958  0.360844  1
  O  O8  1  0.194764  0.375958  0.639156  1
  O  O9  1  0.805236  0.624042  0.360844  1
  O  O10  1  0.694764  0.624042  0.860844  1
  O  O11  1  0.305236  0.875958  0.860844  1
