# generated using pymatgen
data_NaPPdS4
_symmetry_space_group_name_H-M   'P 1'
_cell_length_a   8.15962088
_cell_length_b   8.15962088
_cell_length_c   8.15962088
_cell_angle_alpha   125.66205937
_cell_angle_beta   125.66205937
_cell_angle_gamma   80.44428154
_symmetry_Int_Tables_number   1
_chemical_formula_structural   NaPPdS4
_chemical_formula_sum   'Na2 P2 Pd2 S8'
_cell_volume   345.94578296
_cell_formula_units_Z   2
loop_
 _symmetry_equiv_pos_site_id
 _symmetry_equiv_pos_as_xyz
  1  'x, y, z'
loop_
 _atom_site_type_symbol
 _atom_site_label
 _atom_site_symmetry_multiplicity
 _atom_site_fract_x
 _atom_site_fract_y
 _atom_site_fract_z
 _atom_site_occupancy
  Na  Na0  1  0.750000  0.750000  0.000000  1
  Na  Na1  1  0.250000  0.250000  0.000000  1
  P  P2  1  0.750000  0.250000  0.500000  1
  P  P3  1  0.250000  0.750000  0.500000  1
  Pd  Pd4  1  0.000000  0.500000  0.500000  1
  Pd  Pd5  1  0.500000  1.000000  0.500000  1
  S  S6  1  0.210140  0.710140  0.203739  1
  S  S7  1  0.493599  0.993599  0.203739  1
  S  S8  1  0.006401  0.210140  0.500000  1
  S  S9  1  0.710140  0.506401  0.500000  1
  S  S10  1  0.789860  0.289860  0.796261  1
  S  S11  1  0.993599  0.789860  0.500000  1
  S  S12  1  0.289860  0.493599  0.500000  1
  S  S13  1  0.506401  0.006401  0.796261  1
