# generated using pymatgen
data_Dy3CuGeSe7
_symmetry_space_group_name_H-M   'P 1'
_cell_length_a   10.33287399
_cell_length_b   10.33287399
_cell_length_c   6.10775921
_cell_angle_alpha   90.00000000
_cell_angle_beta   90.00000000
_cell_angle_gamma   120.00000000
_symmetry_Int_Tables_number   1
_chemical_formula_structural   Dy3CuGeSe7
_chemical_formula_sum   'Dy6 Cu2 Ge2 Se14'
_cell_volume   564.74813438
_cell_formula_units_Z   2
loop_
 _symmetry_equiv_pos_site_id
 _symmetry_equiv_pos_as_xyz
  1  'x, y, z'
loop_
 _atom_site_type_symbol
 _atom_site_label
 _atom_site_symmetry_multiplicity
 _atom_site_fract_x
 _atom_site_fract_y
 _atom_site_fract_z
 _atom_site_occupancy
  Dy  Dy0  1  0.220066  0.355891  0.420077  1
  Dy  Dy1  1  0.864175  0.220066  0.920077  1
  Dy  Dy2  1  0.355891  0.135825  0.920077  1
  Dy  Dy3  1  0.644109  0.864175  0.420077  1
  Dy  Dy4  1  0.135825  0.779934  0.420077  1
  Dy  Dy5  1  0.779934  0.644109  0.920077  1
  Cu  Cu6  1  0.000000  0.000000  0.473007  1
  Cu  Cu7  1  0.000000  0.000000  0.973007  1
  Ge  Ge8  1  0.666667  0.333333  0.337197  1
  Ge  Ge9  1  0.333333  0.666667  0.837197  1
  Se  Se10  1  0.262647  0.102874  0.454945  1
  Se  Se11  1  0.159773  0.262647  0.954945  1
  Se  Se12  1  0.102874  0.840227  0.954945  1
  Se  Se13  1  0.897126  0.159773  0.454945  1
  Se  Se14  1  0.840227  0.737353  0.454945  1
  Se  Se15  1  0.737353  0.897126  0.954945  1
  Se  Se16  1  0.517928  0.425442  0.170610  1
  Se  Se17  1  0.092486  0.517928  0.670610  1
  Se  Se18  1  0.425442  0.907514  0.670610  1
  Se  Se19  1  0.574558  0.092486  0.170610  1
  Se  Se20  1  0.907514  0.482072  0.170610  1
  Se  Se21  1  0.482072  0.574558  0.670610  1
  Se  Se22  1  0.333333  0.666667  0.224219  1
  Se  Se23  1  0.666667  0.333333  0.724219  1
