# generated using pymatgen
data_KGaAs2O7
_symmetry_space_group_name_H-M   'P 1'
_cell_length_a   6.38917773
_cell_length_b   6.48278397
_cell_length_c   8.35408595
_cell_angle_alpha   96.52542030
_cell_angle_beta   103.90014616
_cell_angle_gamma   103.69690262
_symmetry_Int_Tables_number   1
_chemical_formula_structural   KGaAs2O7
_chemical_formula_sum   'K2 Ga2 As4 O14'
_cell_volume   320.95941404
_cell_formula_units_Z   2
loop_
 _symmetry_equiv_pos_site_id
 _symmetry_equiv_pos_as_xyz
  1  'x, y, z'
loop_
 _atom_site_type_symbol
 _atom_site_label
 _atom_site_symmetry_multiplicity
 _atom_site_fract_x
 _atom_site_fract_y
 _atom_site_fract_z
 _atom_site_occupancy
  K  K0  1  0.000000  0.500000  0.500000  1
  K  K1  1  0.000000  0.500000  0.000000  1
  Ga  Ga2  1  0.375088  0.191146  0.724882  1
  Ga  Ga3  1  0.624912  0.808854  0.275118  1
  As  As4  1  0.825247  0.033791  0.689699  1
  As  As5  1  0.482454  0.745789  0.834723  1
  As  As6  1  0.174753  0.966209  0.310301  1
  As  As7  1  0.517546  0.254211  0.165277  1
  O  O8  1  0.230760  0.115907  0.147292  1
  O  O9  1  0.309241  0.875321  0.721649  1
  O  O10  1  0.573968  0.498874  0.287350  1
  O  O11  1  0.909377  0.802682  0.218790  1
  O  O12  1  0.690759  0.124679  0.278351  1
  O  O13  1  0.769240  0.884093  0.852708  1
  O  O14  1  0.334726  0.788345  0.330159  1
  O  O15  1  0.445145  0.737167  0.028884  1
  O  O16  1  0.426032  0.501126  0.712650  1
  O  O17  1  0.207203  0.152935  0.479863  1
  O  O18  1  0.792797  0.847065  0.520137  1
  O  O19  1  0.090623  0.197318  0.781210  1
  O  O20  1  0.554855  0.262833  0.971116  1
  O  O21  1  0.665274  0.211655  0.669841  1
