# generated using pymatgen
data_Zn3TeAs2Pb3O14
_symmetry_space_group_name_H-M   'P 1'
_cell_length_a   8.68897354
_cell_length_b   8.68897354
_cell_length_c   5.32815878
_cell_angle_alpha   90.00000000
_cell_angle_beta   90.00000000
_cell_angle_gamma   120.00000000
_symmetry_Int_Tables_number   1
_chemical_formula_structural   Zn3TeAs2Pb3O14
_chemical_formula_sum   'Zn3 Te1 As2 Pb3 O14'
_cell_volume   348.37320115
_cell_formula_units_Z   1
loop_
 _symmetry_equiv_pos_site_id
 _symmetry_equiv_pos_as_xyz
  1  'x, y, z'
loop_
 _atom_site_type_symbol
 _atom_site_label
 _atom_site_symmetry_multiplicity
 _atom_site_fract_x
 _atom_site_fract_y
 _atom_site_fract_z
 _atom_site_occupancy
  Zn  Zn0  1  0.241321  0.000000  0.500000  1
  Zn  Zn1  1  0.758679  0.758679  0.500000  1
  Zn  Zn2  1  0.000000  0.241321  0.500000  1
  Te  Te3  1  0.000000  0.000000  0.000000  1
  As  As4  1  0.333333  0.666667  0.539460  1
  As  As5  1  0.666667  0.333333  0.460540  1
  Pb  Pb6  1  0.602547  0.000000  0.000000  1
  Pb  Pb7  1  0.397453  0.397453  0.000000  1
  Pb  Pb8  1  0.000000  0.602547  0.000000  1
  O  O9  1  0.540287  0.734019  0.670083  1
  O  O10  1  0.459713  0.193732  0.329917  1
  O  O11  1  0.122721  0.211794  0.211036  1
  O  O12  1  0.265981  0.806268  0.670083  1
  O  O13  1  0.089073  0.877279  0.211036  1
  O  O14  1  0.910927  0.788206  0.788964  1
  O  O15  1  0.666667  0.333333  0.781023  1
  O  O16  1  0.877279  0.089073  0.788964  1
  O  O17  1  0.193732  0.459713  0.670083  1
  O  O18  1  0.788206  0.910927  0.211036  1
  O  O19  1  0.333333  0.666667  0.218977  1
  O  O20  1  0.211794  0.122721  0.788964  1
  O  O21  1  0.806268  0.265981  0.329917  1
  O  O22  1  0.734019  0.540287  0.329917  1
