# generated using pymatgen
data_BiSeBr
_symmetry_space_group_name_H-M   'P 1'
_cell_length_a   4.16684458
_cell_length_b   8.56273684
_cell_length_c   11.01651432
_cell_angle_alpha   90.00000000
_cell_angle_beta   90.00000000
_cell_angle_gamma   90.00000000
_symmetry_Int_Tables_number   1
_chemical_formula_structural   BiSeBr
_chemical_formula_sum   'Bi4 Se4 Br4'
_cell_volume   393.06475373
_cell_formula_units_Z   4
loop_
 _symmetry_equiv_pos_site_id
 _symmetry_equiv_pos_as_xyz
  1  'x, y, z'
loop_
 _atom_site_type_symbol
 _atom_site_label
 _atom_site_symmetry_multiplicity
 _atom_site_fract_x
 _atom_site_fract_y
 _atom_site_fract_z
 _atom_site_occupancy
  Bi  Bi0  1  0.250000  0.883572  0.867253  1
  Bi  Bi1  1  0.250000  0.383572  0.632747  1
  Bi  Bi2  1  0.750000  0.616428  0.367253  1
  Bi  Bi3  1  0.750000  0.116428  0.132747  1
  Se  Se4  1  0.750000  0.318366  0.459676  1
  Se  Se5  1  0.250000  0.181634  0.959676  1
  Se  Se6  1  0.250000  0.681634  0.540324  1
  Se  Se7  1  0.750000  0.818366  0.040324  1
  Br  Br8  1  0.750000  0.025023  0.696141  1
  Br  Br9  1  0.750000  0.525023  0.803859  1
  Br  Br10  1  0.250000  0.974977  0.303859  1
  Br  Br11  1  0.250000  0.474977  0.196141  1
