# generated using pymatgen
data_Sr5Nb4O15
_symmetry_space_group_name_H-M   'P 1'
_cell_length_a   5.74585628
_cell_length_b   5.74585628
_cell_length_c   11.67169651
_cell_angle_alpha   89.34713888
_cell_angle_beta   90.65286112
_cell_angle_gamma   120.11354810
_symmetry_Int_Tables_number   1
_chemical_formula_structural   Sr5Nb4O15
_chemical_formula_sum   'Sr5 Nb4 O15'
_cell_volume   333.30247150
_cell_formula_units_Z   1
loop_
 _symmetry_equiv_pos_site_id
 _symmetry_equiv_pos_as_xyz
  1  'x, y, z'
loop_
 _atom_site_type_symbol
 _atom_site_label
 _atom_site_symmetry_multiplicity
 _atom_site_fract_x
 _atom_site_fract_y
 _atom_site_fract_z
 _atom_site_occupancy
  Sr  Sr0  1  0.666926  0.333074  0.219690  1
  Sr  Sr1  1  0.333074  0.666926  0.780310  1
  Sr  Sr2  1  0.669886  0.330114  0.561175  1
  Sr  Sr3  1  0.330114  0.669886  0.438825  1
  Sr  Sr4  1  0.000000  0.000000  0.000000  1
  Nb  Nb5  1  0.997598  0.002402  0.679587  1
  Nb  Nb6  1  0.002402  0.997598  0.320413  1
  Nb  Nb7  1  0.664680  0.335320  0.894274  1
  Nb  Nb8  1  0.335320  0.664680  0.105726  1
  O  O9  1  0.836157  0.657877  0.392784  1
  O  O10  1  0.829683  0.676008  0.807524  1
  O  O11  1  0.657877  0.836157  0.607216  1
  O  O12  1  0.833892  0.166108  0.390456  1
  O  O13  1  0.323992  0.170317  0.807524  1
  O  O14  1  0.163843  0.342123  0.607216  1
  O  O15  1  0.500000  0.000000  0.000000  1
  O  O16  1  0.166108  0.833892  0.609544  1
  O  O17  1  0.171724  0.828276  0.196584  1
  O  O18  1  1.000000  0.500000  0.000000  1
  O  O19  1  0.676008  0.829683  0.192476  1
  O  O20  1  0.828276  0.171724  0.803416  1
  O  O21  1  0.170317  0.323992  0.192476  1
  O  O22  1  0.342123  0.163843  0.392784  1
  O  O23  1  0.500000  0.500000  0.000000  1
