# generated using pymatgen
data_LiGaTe2
_symmetry_space_group_name_H-M   'P 1'
_cell_length_a   7.52258805
_cell_length_b   7.52258805
_cell_length_c   7.52258805
_cell_angle_alpha   129.57864405
_cell_angle_beta   129.57864405
_cell_angle_gamma   74.08127571
_symmetry_Int_Tables_number   1
_chemical_formula_structural   LiGaTe2
_chemical_formula_sum   'Li2 Ga2 Te4'
_cell_volume   246.59890795
_cell_formula_units_Z   2
loop_
 _symmetry_equiv_pos_site_id
 _symmetry_equiv_pos_as_xyz
  1  'x, y, z'
loop_
 _atom_site_type_symbol
 _atom_site_label
 _atom_site_symmetry_multiplicity
 _atom_site_fract_x
 _atom_site_fract_y
 _atom_site_fract_z
 _atom_site_occupancy
  Li  Li0  1  0.500000  0.500000  0.000000  1
  Li  Li1  1  0.250000  0.750000  0.500000  1
  Ga  Ga2  1  1.000000  0.000000  0.000000  1
  Ga  Ga3  1  0.750000  0.250000  0.500000  1
  Te  Te4  1  0.639691  0.625000  0.514691  1
  Te  Te5  1  0.375000  0.889691  0.014691  1
  Te  Te6  1  0.875000  0.360309  0.985309  1
  Te  Te7  1  0.110309  0.125000  0.485309  1
