# generated using pymatgen
data_AsXeF11
_symmetry_space_group_name_H-M   'P 1'
_cell_length_a   6.15816543
_cell_length_b   16.68315831
_cell_length_c   8.30783906
_cell_angle_alpha   90.00000000
_cell_angle_beta   92.74117286
_cell_angle_gamma   90.00000000
_symmetry_Int_Tables_number   1
_chemical_formula_structural   AsXeF11
_chemical_formula_sum   'As4 Xe4 F44'
_cell_volume   852.55121660
_cell_formula_units_Z   4
loop_
 _symmetry_equiv_pos_site_id
 _symmetry_equiv_pos_as_xyz
  1  'x, y, z'
loop_
 _atom_site_type_symbol
 _atom_site_label
 _atom_site_symmetry_multiplicity
 _atom_site_fract_x
 _atom_site_fract_y
 _atom_site_fract_z
 _atom_site_occupancy
  As  As0  1  0.603758  0.605814  0.200832  1
  As  As1  1  0.396242  0.105814  0.299168  1
  As  As2  1  0.396242  0.394186  0.799168  1
  As  As3  1  0.603758  0.894186  0.700832  1
  Xe  Xe4  1  0.796722  0.106326  0.747748  1
  Xe  Xe5  1  0.796722  0.393674  0.247748  1
  Xe  Xe6  1  0.203278  0.606326  0.752252  1
  Xe  Xe7  1  0.203278  0.893674  0.252252  1
  F  F8  1  0.927476  0.307658  0.379750  1
  F  F9  1  0.894579  0.920969  0.278140  1
  F  F10  1  0.838004  0.312336  0.078643  1
  F  F11  1  0.828327  0.539507  0.143937  1
  F  F12  1  0.525630  0.340893  0.309441  1
  F  F13  1  0.072524  0.692342  0.620250  1
  F  F14  1  0.476313  0.917125  0.505044  1
  F  F15  1  0.523687  0.417125  0.994956  1
  F  F16  1  0.838004  0.187664  0.578643  1
  F  F17  1  0.828327  0.960493  0.643937  1
  F  F18  1  0.737967  0.878552  0.887832  1
  F  F19  1  0.171673  0.460493  0.856063  1
  F  F20  1  0.927476  0.192342  0.879750  1
  F  F21  1  0.818119  0.448403  0.458445  1
  F  F22  1  0.525630  0.159107  0.809441  1
  F  F23  1  0.474370  0.840893  0.190559  1
  F  F24  1  0.181881  0.948403  0.041555  1
  F  F25  1  0.733924  0.686604  0.114235  1
  F  F26  1  0.523687  0.082875  0.494956  1
  F  F27  1  0.818119  0.051597  0.958445  1
  F  F28  1  0.072524  0.807658  0.120250  1
  F  F29  1  0.266076  0.313396  0.885765  1
  F  F30  1  0.737967  0.621448  0.387832  1
  F  F31  1  0.266076  0.186604  0.385765  1
  F  F32  1  0.105421  0.420969  0.221860  1
  F  F33  1  0.733924  0.813396  0.614235  1
  F  F34  1  0.161996  0.812336  0.421357  1
  F  F35  1  0.512105  0.486059  0.727975  1
  F  F36  1  0.512105  0.013941  0.227975  1
  F  F37  1  0.262033  0.378552  0.612168  1
  F  F38  1  0.161996  0.687664  0.921357  1
  F  F39  1  0.476313  0.582875  0.005044  1
  F  F40  1  0.375681  0.840098  0.752638  1
  F  F41  1  0.171673  0.039507  0.356063  1
  F  F42  1  0.262033  0.121448  0.112168  1
  F  F43  1  0.624319  0.340098  0.747362  1
  F  F44  1  0.375681  0.659902  0.252638  1
  F  F45  1  0.487895  0.513941  0.272025  1
  F  F46  1  0.894579  0.579031  0.778140  1
  F  F47  1  0.474370  0.659107  0.690559  1
  F  F48  1  0.624319  0.159902  0.247362  1
  F  F49  1  0.487895  0.986060  0.772025  1
  F  F50  1  0.181881  0.551597  0.541555  1
  F  F51  1  0.105421  0.079031  0.721860  1
