# generated using pymatgen
data_RbMnVO4
_symmetry_space_group_name_H-M   'P 1'
_cell_length_a   11.50845304
_cell_length_b   11.50845304
_cell_length_c   9.20844003
_cell_angle_alpha   90.00000000
_cell_angle_beta   90.00000000
_cell_angle_gamma   120.00000000
_symmetry_Int_Tables_number   1
_chemical_formula_structural   RbMnVO4
_chemical_formula_sum   'Rb8 Mn8 V8 O32'
_cell_volume   1056.21077977
_cell_formula_units_Z   8
loop_
 _symmetry_equiv_pos_site_id
 _symmetry_equiv_pos_as_xyz
  1  'x, y, z'
loop_
 _atom_site_type_symbol
 _atom_site_label
 _atom_site_symmetry_multiplicity
 _atom_site_fract_x
 _atom_site_fract_y
 _atom_site_fract_z
 _atom_site_occupancy
  Rb  Rb0  1  0.000000  0.000000  0.386207  1
  Rb  Rb1  1  0.000000  0.000000  0.886207  1
  Rb  Rb2  1  0.472525  0.517354  0.400535  1
  Rb  Rb3  1  0.955171  0.472525  0.900535  1
  Rb  Rb4  1  0.482646  0.955171  0.400535  1
  Rb  Rb5  1  0.527475  0.482646  0.900535  1
  Rb  Rb6  1  0.044829  0.527475  0.400535  1
  Rb  Rb7  1  0.517354  0.044829  0.900535  1
  Mn  Mn8  1  0.835036  0.164246  0.203580  1
  Mn  Mn9  1  0.835754  0.670790  0.203580  1
  Mn  Mn10  1  0.670790  0.835036  0.703580  1
  Mn  Mn11  1  0.164246  0.329210  0.703580  1
  Mn  Mn12  1  0.666667  0.333333  0.567933  1
  Mn  Mn13  1  0.329210  0.164964  0.203580  1
  Mn  Mn14  1  0.333333  0.666667  0.067933  1
  Mn  Mn15  1  0.164964  0.835754  0.703580  1
  V  V16  1  0.172665  0.840187  0.095241  1
  V  V17  1  0.827335  0.159813  0.595241  1
  V  V18  1  0.332478  0.172665  0.595241  1
  V  V19  1  0.667522  0.827335  0.095241  1
  V  V20  1  0.666667  0.333333  0.159558  1
  V  V21  1  0.159813  0.332478  0.095241  1
  V  V22  1  0.333333  0.666667  0.659558  1
  V  V23  1  0.840187  0.667522  0.595241  1
  O  O24  1  0.232159  0.503989  0.591884  1
  O  O25  1  0.307417  0.484058  0.133945  1
  O  O26  1  0.818796  0.806060  0.621944  1
  O  O27  1  0.503989  0.271830  0.091884  1
  O  O28  1  0.012736  0.818796  0.121944  1
  O  O29  1  0.667186  0.781026  0.915060  1
  O  O30  1  0.289207  0.971089  0.204220  1
  O  O31  1  0.271830  0.767841  0.591884  1
  O  O32  1  0.728170  0.232159  0.091884  1
  O  O33  1  0.823359  0.307417  0.633945  1
  O  O34  1  0.666667  0.333333  0.346678  1
  O  O35  1  0.781026  0.113839  0.415060  1
  O  O36  1  0.028911  0.318118  0.204220  1
  O  O37  1  0.333333  0.666667  0.846678  1
  O  O38  1  0.886161  0.667186  0.415060  1
  O  O39  1  0.318118  0.289207  0.704220  1
  O  O40  1  0.484058  0.176641  0.633945  1
  O  O41  1  0.332814  0.218974  0.415060  1
  O  O42  1  0.218974  0.886161  0.915060  1
  O  O43  1  0.767841  0.496011  0.091884  1
  O  O44  1  0.681882  0.710793  0.204220  1
  O  O45  1  0.515942  0.823359  0.133945  1
  O  O46  1  0.987264  0.181204  0.621944  1
  O  O47  1  0.806060  0.987264  0.121944  1
  O  O48  1  0.496011  0.728170  0.591884  1
  O  O49  1  0.181204  0.193940  0.121944  1
  O  O50  1  0.710793  0.028911  0.704220  1
  O  O51  1  0.971089  0.681882  0.704220  1
  O  O52  1  0.692583  0.515942  0.633945  1
  O  O53  1  0.113839  0.332814  0.915060  1
  O  O54  1  0.193940  0.012736  0.621944  1
  O  O55  1  0.176641  0.692583  0.133945  1
