# generated using pymatgen
data_KFeF4
_symmetry_space_group_name_H-M   'P 1'
_cell_length_a   7.72906835
_cell_length_b   7.93417148
_cell_length_c   12.45991821
_cell_angle_alpha   90.00000000
_cell_angle_beta   90.00000000
_cell_angle_gamma   90.00000000
_symmetry_Int_Tables_number   1
_chemical_formula_structural   KFeF4
_chemical_formula_sum   'K8 Fe8 F32'
_cell_volume   764.08895505
_cell_formula_units_Z   8
loop_
 _symmetry_equiv_pos_site_id
 _symmetry_equiv_pos_as_xyz
  1  'x, y, z'
loop_
 _atom_site_type_symbol
 _atom_site_label
 _atom_site_symmetry_multiplicity
 _atom_site_fract_x
 _atom_site_fract_y
 _atom_site_fract_z
 _atom_site_occupancy
  K  K0  1  0.750000  0.375717  0.025292  1
  K  K1  1  0.250000  0.376213  0.483056  1
  K  K2  1  0.750000  0.876213  0.016944  1
  K  K3  1  0.250000  0.624283  0.974708  1
  K  K4  1  0.250000  0.875717  0.474708  1
  K  K5  1  0.750000  0.124283  0.525292  1
  K  K6  1  0.750000  0.623787  0.516944  1
  K  K7  1  0.250000  0.123787  0.983056  1
  Fe  Fe8  1  0.000505  0.625595  0.248986  1
  Fe  Fe9  1  0.999495  0.125595  0.251014  1
  Fe  Fe10  1  0.999495  0.374405  0.751014  1
  Fe  Fe11  1  0.500505  0.374405  0.751014  1
  Fe  Fe12  1  0.499495  0.874405  0.748986  1
  Fe  Fe13  1  0.500505  0.125595  0.251014  1
  Fe  Fe14  1  0.499495  0.625595  0.248986  1
  Fe  Fe15  1  0.000505  0.874405  0.748986  1
  F  F16  1  0.035410  0.875622  0.251813  1
  F  F17  1  0.450679  0.619495  0.398707  1
  F  F18  1  0.035410  0.624378  0.751813  1
  F  F19  1  0.451675  0.368704  0.900953  1
  F  F20  1  0.548325  0.868704  0.599047  1
  F  F21  1  0.750000  0.401745  0.788817  1
  F  F22  1  0.950679  0.380505  0.601293  1
  F  F23  1  0.464590  0.624378  0.751813  1
  F  F24  1  0.750000  0.844428  0.785789  1
  F  F25  1  0.049321  0.619495  0.398707  1
  F  F26  1  0.549321  0.119495  0.101293  1
  F  F27  1  0.535410  0.375622  0.248187  1
  F  F28  1  0.549321  0.380505  0.601293  1
  F  F29  1  0.950679  0.119495  0.101293  1
  F  F30  1  0.548325  0.631296  0.099047  1
  F  F31  1  0.451675  0.131296  0.400953  1
  F  F32  1  0.049321  0.880505  0.898707  1
  F  F33  1  0.250000  0.901745  0.711183  1
  F  F34  1  0.951675  0.631296  0.099047  1
  F  F35  1  0.750000  0.655572  0.285789  1
  F  F36  1  0.250000  0.344428  0.714211  1
  F  F37  1  0.964590  0.375622  0.248187  1
  F  F38  1  0.535410  0.124378  0.748187  1
  F  F39  1  0.951675  0.868704  0.599047  1
  F  F40  1  0.450679  0.880505  0.898707  1
  F  F41  1  0.464590  0.875622  0.251813  1
  F  F42  1  0.048325  0.131296  0.400953  1
  F  F43  1  0.250000  0.155572  0.214211  1
  F  F44  1  0.964590  0.124378  0.748187  1
  F  F45  1  0.250000  0.598255  0.211183  1
  F  F46  1  0.750000  0.098255  0.288817  1
  F  F47  1  0.048325  0.368704  0.900953  1
