# generated using pymatgen
data_BaN3Cl
_symmetry_space_group_name_H-M   'P 1'
_cell_length_a   5.65228045
_cell_length_b   4.58402554
_cell_length_c   7.96433244
_cell_angle_alpha   90.00000000
_cell_angle_beta   101.62050892
_cell_angle_gamma   90.00000000
_symmetry_Int_Tables_number   1
_chemical_formula_structural   BaN3Cl
_chemical_formula_sum   'Ba2 N6 Cl2'
_cell_volume   202.12776540
_cell_formula_units_Z   2
loop_
 _symmetry_equiv_pos_site_id
 _symmetry_equiv_pos_as_xyz
  1  'x, y, z'
loop_
 _atom_site_type_symbol
 _atom_site_label
 _atom_site_symmetry_multiplicity
 _atom_site_fract_x
 _atom_site_fract_y
 _atom_site_fract_z
 _atom_site_occupancy
  Ba  Ba0  1  0.682645  0.250000  0.763893  1
  Ba  Ba1  1  0.317355  0.750000  0.236107  1
  N  N2  1  0.359127  0.750000  0.620714  1
  N  N3  1  0.051831  0.250000  0.354161  1
  N  N4  1  0.152714  0.750000  0.634198  1
  N  N5  1  0.948169  0.750000  0.645839  1
  N  N6  1  0.847286  0.250000  0.365802  1
  N  N7  1  0.640873  0.250000  0.379286  1
  Cl  Cl8  1  0.237461  0.250000  0.948308  1
  Cl  Cl9  1  0.762539  0.750000  0.051692  1
