# generated using pymatgen
data_Ca5Te3O14
_symmetry_space_group_name_H-M   'P 1'
_cell_length_a   7.45791470
_cell_length_b   7.45791470
_cell_length_c   10.60172739
_cell_angle_alpha   90.00000000
_cell_angle_beta   90.00000000
_cell_angle_gamma   90.22943553
_symmetry_Int_Tables_number   1
_chemical_formula_structural   Ca5Te3O14
_chemical_formula_sum   'Ca10 Te6 O28'
_cell_volume   589.66856152
_cell_formula_units_Z   2
loop_
 _symmetry_equiv_pos_site_id
 _symmetry_equiv_pos_as_xyz
  1  'x, y, z'
loop_
 _atom_site_type_symbol
 _atom_site_label
 _atom_site_symmetry_multiplicity
 _atom_site_fract_x
 _atom_site_fract_y
 _atom_site_fract_z
 _atom_site_occupancy
  Ca  Ca0  1  0.755001  0.755001  0.272812  1
  Ca  Ca1  1  0.767662  0.267662  0.250000  1
  Ca  Ca2  1  0.255001  0.255001  0.227188  1
  Ca  Ca3  1  0.732338  0.232338  0.750000  1
  Ca  Ca4  1  0.500000  0.500000  0.000000  1
  Ca  Ca5  1  0.267662  0.767662  0.250000  1
  Ca  Ca6  1  0.232338  0.732338  0.750000  1
  Ca  Ca7  1  0.744999  0.744999  0.772812  1
  Ca  Ca8  1  0.000000  0.000000  0.500000  1
  Ca  Ca9  1  0.244999  0.244999  0.727188  1
  Te  Te10  1  0.500000  0.000000  0.500000  1
  Te  Te11  1  0.500000  0.500000  0.500000  1
  Te  Te12  1  0.500000  0.000000  0.000000  1
  Te  Te13  1  0.000000  0.500000  0.000000  1
  Te  Te14  1  0.000000  0.000000  0.000000  1
  Te  Te15  1  0.000000  0.500000  0.500000  1
  O  O16  1  0.445162  0.445162  0.329870  1
  O  O17  1  0.252275  0.506748  0.564877  1
  O  O18  1  0.463772  0.177908  0.870254  1
  O  O19  1  0.322092  0.036228  0.370254  1
  O  O20  1  0.795845  0.467135  0.887566  1
  O  O21  1  0.963772  0.677908  0.629746  1
  O  O22  1  0.752275  0.006748  0.935123  1
  O  O23  1  0.993252  0.247725  0.064877  1
  O  O24  1  0.536228  0.822092  0.129746  1
  O  O25  1  0.295845  0.967135  0.612434  1
  O  O26  1  0.506748  0.252275  0.564877  1
  O  O27  1  0.493252  0.747725  0.435123  1
  O  O28  1  0.967135  0.295845  0.612434  1
  O  O29  1  0.006748  0.752275  0.935123  1
  O  O30  1  0.177908  0.463772  0.870254  1
  O  O31  1  0.054838  0.054838  0.829870  1
  O  O32  1  0.945162  0.945162  0.170130  1
  O  O33  1  0.467135  0.795845  0.887566  1
  O  O34  1  0.032865  0.704155  0.387566  1
  O  O35  1  0.704155  0.032865  0.387566  1
  O  O36  1  0.822092  0.536228  0.129746  1
  O  O37  1  0.204155  0.532865  0.112434  1
  O  O38  1  0.247725  0.993252  0.064877  1
  O  O39  1  0.747725  0.493252  0.435123  1
  O  O40  1  0.677908  0.963772  0.629746  1
  O  O41  1  0.532865  0.204155  0.112434  1
  O  O42  1  0.036228  0.322092  0.370254  1
  O  O43  1  0.554838  0.554838  0.670130  1
