# generated using pymatgen
data_XeF3
_symmetry_space_group_name_H-M   'P 1'
_cell_length_a   6.57835493
_cell_length_b   7.46613466
_cell_length_c   6.85590412
_cell_angle_alpha   90.00000000
_cell_angle_beta   92.68421874
_cell_angle_gamma   90.00000000
_symmetry_Int_Tables_number   1
_chemical_formula_structural   XeF3
_chemical_formula_sum   'Xe4 F12'
_cell_volume   336.35748087
_cell_formula_units_Z   4
loop_
 _symmetry_equiv_pos_site_id
 _symmetry_equiv_pos_as_xyz
  1  'x, y, z'
loop_
 _atom_site_type_symbol
 _atom_site_label
 _atom_site_symmetry_multiplicity
 _atom_site_fract_x
 _atom_site_fract_y
 _atom_site_fract_z
 _atom_site_occupancy
  Xe  Xe0  1  0.500000  0.500000  0.000000  1
  Xe  Xe1  1  0.000000  0.000000  0.000000  1
  Xe  Xe2  1  0.000000  0.500000  0.500000  1
  Xe  Xe3  1  0.500000  0.000000  0.500000  1
  F  F4  1  0.155420  0.809561  0.171052  1
  F  F5  1  0.844580  0.190439  0.828948  1
  F  F6  1  0.482508  0.887576  0.770367  1
  F  F7  1  0.296796  0.580311  0.494233  1
  F  F8  1  0.203204  0.080311  0.505767  1
  F  F9  1  0.796796  0.919689  0.494233  1
  F  F10  1  0.703204  0.419689  0.505767  1
  F  F11  1  0.982508  0.612424  0.770367  1
  F  F12  1  0.344580  0.309561  0.828948  1
  F  F13  1  0.517492  0.112424  0.229633  1
  F  F14  1  0.655420  0.690439  0.171052  1
  F  F15  1  0.017492  0.387576  0.229633  1
