# generated using pymatgen
data_Dy(IO3)3
_symmetry_space_group_name_H-M   'P 1'
_cell_length_a   7.20898938
_cell_length_b   8.60988796
_cell_length_c   13.55204219
_cell_angle_alpha   90.00000000
_cell_angle_beta   100.30349817
_cell_angle_gamma   90.00000000
_symmetry_Int_Tables_number   1
_chemical_formula_structural   Dy(IO3)3
_chemical_formula_sum   'Dy4 I12 O36'
_cell_volume   827.59177810
_cell_formula_units_Z   4
loop_
 _symmetry_equiv_pos_site_id
 _symmetry_equiv_pos_as_xyz
  1  'x, y, z'
loop_
 _atom_site_type_symbol
 _atom_site_label
 _atom_site_symmetry_multiplicity
 _atom_site_fract_x
 _atom_site_fract_y
 _atom_site_fract_z
 _atom_site_occupancy
  Dy  Dy0  1  0.171844  0.254222  0.646264  1
  Dy  Dy1  1  0.828156  0.745778  0.353736  1
  Dy  Dy2  1  0.828156  0.754222  0.853736  1
  Dy  Dy3  1  0.171844  0.245778  0.146264  1
  I  I4  1  0.667137  0.043162  0.643844  1
  I  I5  1  0.667137  0.456838  0.143844  1
  I  I6  1  0.332863  0.543162  0.856156  1
  I  I7  1  0.164924  0.794024  0.609586  1
  I  I8  1  0.835076  0.294024  0.890414  1
  I  I9  1  0.733152  0.979616  0.109863  1
  I  I10  1  0.332863  0.956838  0.356156  1
  I  I11  1  0.266848  0.479616  0.390137  1
  I  I12  1  0.733152  0.520384  0.609863  1
  I  I13  1  0.266848  0.020384  0.890137  1
  I  I14  1  0.835076  0.205976  0.390414  1
  I  I15  1  0.164924  0.705976  0.109586  1
  O  O16  1  0.842303  0.026113  0.318681  1
  O  O17  1  0.321544  0.420281  0.520935  1
  O  O18  1  0.226369  0.208274  0.823581  1
  O  O19  1  0.851973  0.309075  0.177327  1
  O  O20  1  0.019335  0.529966  0.386992  1
  O  O21  1  0.338340  0.466398  0.730463  1
  O  O22  1  0.773631  0.708274  0.676419  1
  O  O23  1  0.773631  0.791726  0.176419  1
  O  O24  1  0.980665  0.029966  0.113008  1
  O  O25  1  0.468551  0.173947  0.638717  1
  O  O26  1  0.661660  0.966398  0.769537  1
  O  O27  1  0.035325  0.168255  0.490853  1
  O  O28  1  0.226369  0.291726  0.323581  1
  O  O29  1  0.148027  0.690925  0.822673  1
  O  O30  1  0.157697  0.526113  0.181319  1
  O  O31  1  0.678456  0.579719  0.479065  1
  O  O32  1  0.321544  0.079719  0.020935  1
  O  O33  1  0.468551  0.326053  0.138717  1
  O  O34  1  0.035325  0.331745  0.990853  1
  O  O35  1  0.637612  0.333534  0.954637  1
  O  O36  1  0.661660  0.533602  0.269537  1
  O  O37  1  0.964675  0.668255  0.009147  1
  O  O38  1  0.531449  0.826053  0.361283  1
  O  O39  1  0.637612  0.166466  0.454637  1
  O  O40  1  0.362388  0.666466  0.045363  1
  O  O41  1  0.019335  0.970034  0.886992  1
  O  O42  1  0.157697  0.973887  0.681319  1
  O  O43  1  0.842303  0.473887  0.818681  1
  O  O44  1  0.531449  0.673947  0.861283  1
  O  O45  1  0.851973  0.190925  0.677327  1
  O  O46  1  0.980665  0.470034  0.613008  1
  O  O47  1  0.362388  0.833534  0.545363  1
  O  O48  1  0.964675  0.831745  0.509147  1
  O  O49  1  0.148027  0.809075  0.322673  1
  O  O50  1  0.338340  0.033602  0.230463  1
  O  O51  1  0.678456  0.920281  0.979065  1
