# generated using pymatgen
data_CsPS3
_symmetry_space_group_name_H-M   'P 1'
_cell_length_a   7.67704649
_cell_length_b   7.67704649
_cell_length_c   7.67704649
_cell_angle_alpha   122.80778573
_cell_angle_beta   104.86376862
_cell_angle_gamma   101.63380979
_symmetry_Int_Tables_number   1
_chemical_formula_structural   CsPS3
_chemical_formula_sum   'Cs2 P2 S6'
_cell_volume   333.69034512
_cell_formula_units_Z   2
loop_
 _symmetry_equiv_pos_site_id
 _symmetry_equiv_pos_as_xyz
  1  'x, y, z'
loop_
 _atom_site_type_symbol
 _atom_site_label
 _atom_site_symmetry_multiplicity
 _atom_site_fract_x
 _atom_site_fract_y
 _atom_site_fract_z
 _atom_site_occupancy
  Cs  Cs0  1  0.261003  0.500000  0.761003  1
  Cs  Cs1  1  0.738997  0.500000  0.238997  1
  P  P2  1  0.345568  0.845568  0.500000  1
  P  P3  1  0.654432  0.154432  0.500000  1
  S  S4  1  0.667260  0.000000  0.667260  1
  S  S5  1  0.332740  0.000000  0.332740  1
  S  S6  1  0.240653  0.971771  0.731118  1
  S  S7  1  0.759347  0.490465  0.731118  1
  S  S8  1  0.759347  0.028229  0.268882  1
  S  S9  1  0.240653  0.509535  0.268882  1
