# generated using pymatgen
data_PH7CN3O3F
_symmetry_space_group_name_H-M   'P 1'
_cell_length_a   6.86978626
_cell_length_b   10.26474556
_cell_length_c   9.44141503
_cell_angle_alpha   90.00000000
_cell_angle_beta   104.56724878
_cell_angle_gamma   90.00000000
_symmetry_Int_Tables_number   1
_chemical_formula_structural   PH7CN3O3F
_chemical_formula_sum   'P4 H28 C4 N12 O12 F4'
_cell_volume   644.37390960
_cell_formula_units_Z   4
loop_
 _symmetry_equiv_pos_site_id
 _symmetry_equiv_pos_as_xyz
  1  'x, y, z'
loop_
 _atom_site_type_symbol
 _atom_site_label
 _atom_site_symmetry_multiplicity
 _atom_site_fract_x
 _atom_site_fract_y
 _atom_site_fract_z
 _atom_site_occupancy
  P  P0  1  0.154878  0.608746  0.875083  1
  P  P1  1  0.154878  0.891254  0.375083  1
  P  P2  1  0.845122  0.108746  0.624917  1
  P  P3  1  0.845122  0.391254  0.124917  1
  H  H4  1  0.246760  0.283238  0.353576  1
  H  H5  1  0.246760  0.216762  0.853576  1
  H  H6  1  0.461321  0.061190  0.258362  1
  H  H7  1  0.755477  0.442827  0.417622  1
  H  H8  1  0.244523  0.557173  0.582378  1
  H  H9  1  0.168692  0.512447  0.091642  1
  H  H10  1  0.753240  0.783238  0.146424  1
  H  H11  1  0.538679  0.561190  0.241638  1
  H  H12  1  0.461321  0.438810  0.758362  1
  H  H13  1  0.157109  0.493318  0.401824  1
  H  H14  1  0.755477  0.057173  0.917622  1
  H  H15  1  0.157109  0.006682  0.901824  1
  H  H16  1  0.842891  0.506682  0.598176  1
  H  H17  1  0.607410  0.687728  0.005722  1
  H  H18  1  0.842891  0.993318  0.098176  1
  H  H19  1  0.753240  0.716762  0.646424  1
  H  H20  1  0.538679  0.938810  0.741638  1
  H  H21  1  0.607410  0.812272  0.505722  1
  H  H22  1  0.831308  0.012447  0.408358  1
  H  H23  1  0.392590  0.312272  0.994278  1
  H  H24  1  0.541715  0.283058  0.717674  1
  H  H25  1  0.168692  0.987553  0.591642  1
  H  H26  1  0.458285  0.783058  0.782326  1
  H  H27  1  0.244523  0.942827  0.082378  1
  H  H28  1  0.831308  0.487553  0.908358  1
  H  H29  1  0.458285  0.716942  0.282326  1
  H  H30  1  0.541715  0.216942  0.217674  1
  H  H31  1  0.392590  0.187728  0.494278  1
  C  C32  1  0.662856  0.626331  0.447506  1
  C  C33  1  0.337144  0.373669  0.552494  1
  C  C34  1  0.337144  0.126331  0.052494  1
  C  C35  1  0.662856  0.873669  0.947506  1
  N  N36  1  0.558026  0.640868  0.307962  1
  N  N37  1  0.241192  0.015321  0.007510  1
  N  N38  1  0.670550  0.725146  0.541576  1
  N  N39  1  0.241192  0.484679  0.507510  1
  N  N40  1  0.441974  0.140868  0.192038  1
  N  N41  1  0.670550  0.774854  0.041576  1
  N  N42  1  0.329450  0.274854  0.458424  1
  N  N43  1  0.758808  0.984679  0.992490  1
  N  N44  1  0.329450  0.225146  0.958424  1
  N  N45  1  0.441974  0.359132  0.692038  1
  N  N46  1  0.558026  0.859132  0.807962  1
  N  N47  1  0.758808  0.515321  0.492490  1
  O  O48  1  0.305806  0.623906  0.785373  1
  O  O49  1  0.694194  0.123906  0.714627  1
  O  O50  1  0.694194  0.376094  0.214627  1
  O  O51  1  0.739406  0.046126  0.472026  1
  O  O52  1  0.046620  0.045573  0.693500  1
  O  O53  1  0.953380  0.954427  0.306500  1
  O  O54  1  0.953380  0.545573  0.806500  1
  O  O55  1  0.739406  0.453874  0.972026  1
  O  O56  1  0.305806  0.876094  0.285373  1
  O  O57  1  0.260594  0.546126  0.027974  1
  O  O58  1  0.260594  0.953874  0.527974  1
  O  O59  1  0.046620  0.454427  0.193500  1
  F  F60  1  0.101278  0.752946  0.919122  1
  F  F61  1  0.898722  0.252946  0.580878  1
  F  F62  1  0.101278  0.747054  0.419122  1
  F  F63  1  0.898722  0.247054  0.080878  1
