# generated using pymatgen
data_Tl2S
_symmetry_space_group_name_H-M   'P 1'
_cell_length_a   9.67592246
_cell_length_b   9.67592246
_cell_length_c   9.67592246
_cell_angle_alpha   81.36948907
_cell_angle_beta   81.36948907
_cell_angle_gamma   81.36948907
_symmetry_Int_Tables_number   1
_chemical_formula_structural   Tl2S
_chemical_formula_sum   'Tl18 S9'
_cell_volume   877.92375189
_cell_formula_units_Z   9
loop_
 _symmetry_equiv_pos_site_id
 _symmetry_equiv_pos_as_xyz
  1  'x, y, z'
loop_
 _atom_site_type_symbol
 _atom_site_label
 _atom_site_symmetry_multiplicity
 _atom_site_fract_x
 _atom_site_fract_y
 _atom_site_fract_z
 _atom_site_occupancy
  Tl  Tl0  1  0.241033  0.266416  0.572434  1
  Tl  Tl1  1  0.235438  0.914461  0.944852  1
  Tl  Tl2  1  0.339350  0.307683  0.963790  1
  Tl  Tl3  1  0.905012  0.572914  0.602819  1
  Tl  Tl4  1  0.914461  0.944852  0.235438  1
  Tl  Tl5  1  0.572434  0.241033  0.266416  1
  Tl  Tl6  1  0.300360  0.666570  0.634232  1
  Tl  Tl7  1  0.634556  0.998762  0.968486  1
  Tl  Tl8  1  0.998762  0.968486  0.634556  1
  Tl  Tl9  1  0.634232  0.300360  0.666570  1
  Tl  Tl10  1  0.572914  0.602819  0.905012  1
  Tl  Tl11  1  0.266416  0.572434  0.241033  1
  Tl  Tl12  1  0.602819  0.905012  0.572914  1
  Tl  Tl13  1  0.307683  0.963790  0.339350  1
  Tl  Tl14  1  0.944852  0.235438  0.914461  1
  Tl  Tl15  1  0.968486  0.634556  0.998762  1
  Tl  Tl16  1  0.963790  0.339350  0.307683  1
  Tl  Tl17  1  0.666570  0.634232  0.300360  1
  S  S18  1  0.459055  0.459055  0.459055  1
  S  S19  1  0.792248  0.792248  0.792248  1
  S  S20  1  0.758603  0.423627  0.088823  1
  S  S21  1  0.125451  0.457342  0.790316  1
  S  S22  1  0.088823  0.758603  0.423627  1
  S  S23  1  0.790316  0.125451  0.457342  1
  S  S24  1  0.423627  0.088823  0.758603  1
  S  S25  1  0.457342  0.790316  0.125451  1
  S  S26  1  0.137367  0.137367  0.137367  1
