# generated using pymatgen
data_TmNbO4
_symmetry_space_group_name_H-M   'P 1'
_cell_length_a   6.52469564
_cell_length_b   6.52469564
_cell_length_c   5.10467826
_cell_angle_alpha   68.86752146
_cell_angle_beta   111.13247854
_cell_angle_gamma   65.52788835
_symmetry_Int_Tables_number   1
_chemical_formula_structural   TmNbO4
_chemical_formula_sum   'Tm2 Nb2 O8'
_cell_volume   147.51033101
_cell_formula_units_Z   2
loop_
 _symmetry_equiv_pos_site_id
 _symmetry_equiv_pos_as_xyz
  1  'x, y, z'
loop_
 _atom_site_type_symbol
 _atom_site_label
 _atom_site_symmetry_multiplicity
 _atom_site_fract_x
 _atom_site_fract_y
 _atom_site_fract_z
 _atom_site_occupancy
  Tm  Tm0  1  0.371334  0.371334  0.750000  1
  Tm  Tm1  1  0.628666  0.628666  0.250000  1
  Nb  Nb2  1  0.107346  0.107346  0.250000  1
  Nb  Nb3  1  0.892654  0.892654  0.750000  1
  O  O4  1  0.950759  0.626041  0.659385  1
  O  O5  1  0.049241  0.373959  0.340615  1
  O  O6  1  0.626041  0.950759  0.840615  1
  O  O7  1  0.716882  0.219257  0.287974  1
  O  O8  1  0.283118  0.780743  0.712026  1
  O  O9  1  0.373959  0.049241  0.159385  1
  O  O10  1  0.780743  0.283118  0.787974  1
  O  O11  1  0.219257  0.716882  0.212026  1
