# generated using pymatgen
data_Ba2Zn7F18
_symmetry_space_group_name_H-M   'P 1'
_cell_length_a   7.16236049
_cell_length_b   7.44266371
_cell_length_c   7.63773743
_cell_angle_alpha   94.28518274
_cell_angle_beta   92.88549046
_cell_angle_gamma   116.34070840
_symmetry_Int_Tables_number   1
_chemical_formula_structural   Ba2Zn7F18
_chemical_formula_sum   'Ba2 Zn7 F18'
_cell_volume   362.26035795
_cell_formula_units_Z   1
loop_
 _symmetry_equiv_pos_site_id
 _symmetry_equiv_pos_as_xyz
  1  'x, y, z'
loop_
 _atom_site_type_symbol
 _atom_site_label
 _atom_site_symmetry_multiplicity
 _atom_site_fract_x
 _atom_site_fract_y
 _atom_site_fract_z
 _atom_site_occupancy
  Ba  Ba0  1  0.316045  0.688661  0.632222  1
  Ba  Ba1  1  0.683955  0.311339  0.367778  1
  Zn  Zn2  1  0.000000  0.000000  0.500000  1
  Zn  Zn3  1  0.191077  0.870699  0.179027  1
  Zn  Zn4  1  0.808923  0.129301  0.820973  1
  Zn  Zn5  1  0.820591  0.618932  0.806771  1
  Zn  Zn6  1  0.179409  0.381068  0.193229  1
  Zn  Zn7  1  0.608989  0.732028  0.123433  1
  Zn  Zn8  1  0.391011  0.267972  0.876567  1
  F  F9  1  0.479305  0.560294  0.322863  1
  F  F10  1  0.520695  0.439706  0.677137  1
  F  F11  1  0.109890  0.771496  0.925158  1
  F  F12  1  0.890110  0.228504  0.074842  1
  F  F13  1  0.717819  0.990466  0.557451  1
  F  F14  1  0.282181  0.009534  0.442549  1
  F  F15  1  0.920654  0.718036  0.571913  1
  F  F16  1  0.079346  0.281964  0.428087  1
  F  F17  1  0.906868  0.872144  0.238477  1
  F  F18  1  0.093132  0.127856  0.761523  1
  F  F19  1  0.701851  0.823626  0.878839  1
  F  F20  1  0.298149  0.176374  0.121161  1
  F  F21  1  0.102174  0.604990  0.285878  1
  F  F22  1  0.897826  0.395010  0.714122  1
  F  F23  1  0.499022  0.928609  0.185132  1
  F  F24  1  0.500978  0.071391  0.814868  1
  F  F25  1  0.679104  0.487197  0.026328  1
  F  F26  1  0.320896  0.512803  0.973672  1
