# generated using pymatgen
data_NaAlCdF6
_symmetry_space_group_name_H-M   'P 1'
_cell_length_a   3.69908561
_cell_length_b   10.11562123
_cell_length_c   12.69617663
_cell_angle_alpha   90.00000000
_cell_angle_beta   90.00000000
_cell_angle_gamma   90.00000000
_symmetry_Int_Tables_number   1
_chemical_formula_structural   NaAlCdF6
_chemical_formula_sum   'Na4 Al4 Cd4 F24'
_cell_volume   475.07250643
_cell_formula_units_Z   4
loop_
 _symmetry_equiv_pos_site_id
 _symmetry_equiv_pos_as_xyz
  1  'x, y, z'
loop_
 _atom_site_type_symbol
 _atom_site_label
 _atom_site_symmetry_multiplicity
 _atom_site_fract_x
 _atom_site_fract_y
 _atom_site_fract_z
 _atom_site_occupancy
  Na  Na0  1  0.250000  0.174291  0.914834  1
  Na  Na1  1  0.250000  0.325709  0.414834  1
  Na  Na2  1  0.750000  0.825709  0.085166  1
  Na  Na3  1  0.750000  0.674291  0.585166  1
  Al  Al4  1  0.250000  0.820033  0.835657  1
  Al  Al5  1  0.750000  0.179967  0.164343  1
  Al  Al6  1  0.250000  0.679967  0.335657  1
  Al  Al7  1  0.750000  0.320033  0.664343  1
  Cd  Cd8  1  0.750000  0.000069  0.379671  1
  Cd  Cd9  1  0.750000  0.499931  0.879671  1
  Cd  Cd10  1  0.250000  0.999931  0.620329  1
  Cd  Cd11  1  0.250000  0.500069  0.120329  1
  F  F12  1  0.750000  0.139672  0.643599  1
  F  F13  1  0.250000  0.098132  0.457547  1
  F  F14  1  0.750000  0.360328  0.143599  1
  F  F15  1  0.750000  0.144898  0.026889  1
  F  F16  1  0.750000  0.004683  0.199210  1
  F  F17  1  0.750000  0.286632  0.807243  1
  F  F18  1  0.250000  0.860328  0.356401  1
  F  F19  1  0.750000  0.901868  0.542453  1
  F  F20  1  0.250000  0.639672  0.856401  1
  F  F21  1  0.750000  0.813611  0.833853  1
  F  F22  1  0.750000  0.355102  0.526889  1
  F  F23  1  0.750000  0.686389  0.333853  1
  F  F24  1  0.250000  0.186389  0.166147  1
  F  F25  1  0.250000  0.786632  0.692757  1
  F  F26  1  0.250000  0.644898  0.473111  1
  F  F27  1  0.750000  0.598132  0.042453  1
  F  F28  1  0.250000  0.401868  0.957547  1
  F  F29  1  0.250000  0.995317  0.800790  1
  F  F30  1  0.250000  0.713368  0.192757  1
  F  F31  1  0.750000  0.495317  0.699210  1
  F  F32  1  0.250000  0.313611  0.666147  1
  F  F33  1  0.250000  0.504683  0.300790  1
  F  F34  1  0.250000  0.855102  0.973111  1
  F  F35  1  0.750000  0.213368  0.307243  1
