# generated using pymatgen
data_CdSO4
_symmetry_space_group_name_H-M   'P 1'
_cell_length_a   4.84806734
_cell_length_b   4.88067739
_cell_length_c   6.60086486
_cell_angle_alpha   90.00000000
_cell_angle_beta   90.00000000
_cell_angle_gamma   90.00000000
_symmetry_Int_Tables_number   1
_chemical_formula_structural   CdSO4
_chemical_formula_sum   'Cd2 S2 O8'
_cell_volume   156.18869169
_cell_formula_units_Z   2
loop_
 _symmetry_equiv_pos_site_id
 _symmetry_equiv_pos_as_xyz
  1  'x, y, z'
loop_
 _atom_site_type_symbol
 _atom_site_label
 _atom_site_symmetry_multiplicity
 _atom_site_fract_x
 _atom_site_fract_y
 _atom_site_fract_z
 _atom_site_occupancy
  Cd  Cd0  1  0.870625  0.765866  0.500000  1
  Cd  Cd1  1  0.129375  0.265866  0.000000  1
  S  S2  1  0.328368  0.229353  0.500000  1
  S  S3  1  0.671632  0.729353  0.000000  1
  O  O4  1  0.812275  0.601382  0.819843  1
  O  O5  1  0.187725  0.101382  0.680157  1
  O  O6  1  0.187725  0.101382  0.319843  1
  O  O7  1  0.812275  0.601382  0.180157  1
  O  O8  1  0.373264  0.666029  0.000000  1
  O  O9  1  0.626736  0.166029  0.500000  1
  O  O10  1  0.704969  0.031589  0.000000  1
  O  O11  1  0.295031  0.531589  0.500000  1
