# generated using pymatgen
data_Ta2Se17Br12
_symmetry_space_group_name_H-M   'P 1'
_cell_length_a   12.31798458
_cell_length_b   14.15839552
_cell_length_c   14.17344370
_cell_angle_alpha   111.71002821
_cell_angle_beta   97.60038683
_cell_angle_gamma   99.79885809
_symmetry_Int_Tables_number   1
_chemical_formula_structural   Ta2Se17Br12
_chemical_formula_sum   'Ta4 Se34 Br24'
_cell_volume   2211.00234749
_cell_formula_units_Z   2
loop_
 _symmetry_equiv_pos_site_id
 _symmetry_equiv_pos_as_xyz
  1  'x, y, z'
loop_
 _atom_site_type_symbol
 _atom_site_label
 _atom_site_symmetry_multiplicity
 _atom_site_fract_x
 _atom_site_fract_y
 _atom_site_fract_z
 _atom_site_occupancy
  Ta  Ta0  1  0.689377  0.276414  0.479319  1
  Ta  Ta1  1  0.310623  0.723586  0.520681  1
  Ta  Ta2  1  0.842725  0.720501  0.990752  1
  Ta  Ta3  1  0.157275  0.279499  0.009248  1
  Se  Se4  1  0.478832  0.826560  0.980468  1
  Se  Se5  1  0.521168  0.173440  0.019532  1
  Se  Se6  1  0.328848  0.904708  0.974901  1
  Se  Se7  1  0.671152  0.095292  0.025099  1
  Se  Se8  1  0.340298  0.015449  0.152420  1
  Se  Se9  1  0.659702  0.984551  0.847580  1
  Se  Se10  1  0.279511  0.899904  0.227648  1
  Se  Se11  1  0.720489  0.100096  0.772352  1
  Se  Se12  1  0.448729  0.838232  0.245183  1
  Se  Se13  1  0.551271  0.161768  0.754817  1
  Se  Se14  1  0.388286  0.662842  0.148194  1
  Se  Se15  1  0.611714  0.337158  0.851806  1
  Se  Se16  1  0.393719  0.648523  0.962799  1
  Se  Se17  1  0.606281  0.351477  0.037201  1
  Se  Se18  1  0.194836  0.630424  0.923481  1
  Se  Se19  1  0.805164  0.369576  0.076519  1
  Se  Se20  1  0.161988  0.583590  0.742138  1
  Se  Se21  1  0.838012  0.416410  0.257862  1
  Se  Se22  1  0.122410  0.399772  0.671484  1
  Se  Se23  1  0.877590  0.600228  0.328516  1
  Se  Se24  1  0.304634  0.368117  0.653946  1
  Se  Se25  1  0.695366  0.631883  0.346054  1
  Se  Se26  1  0.247619  0.190823  0.665599  1
  Se  Se27  1  0.752381  0.809177  0.334401  1
  Se  Se28  1  0.243921  0.069610  0.504238  1
  Se  Se29  1  0.756079  0.930390  0.495762  1
  Se  Se30  1  0.054718  0.031601  0.408393  1
  Se  Se31  1  0.945282  0.968399  0.591607  1
  Se  Se32  1  0.086936  0.108670  0.290810  1
  Se  Se33  1  0.913064  0.891330  0.709190  1
  Se  Se34  1  0.124977  0.292252  0.389436  1
  Se  Se35  1  0.875023  0.707748  0.610564  1
  Se  Se36  1  0.312809  0.331373  0.472656  1
  Se  Se37  1  0.687191  0.668627  0.527344  1
  Br  Br38  1  0.848559  0.434076  0.511631  1
  Br  Br39  1  0.151441  0.565924  0.488369  1
  Br  Br40  1  0.604235  0.391794  0.623197  1
  Br  Br41  1  0.395765  0.608206  0.376803  1
  Br  Br42  1  0.539254  0.117896  0.451308  1
  Br  Br43  1  0.460746  0.882104  0.548692  1
  Br  Br44  1  0.770916  0.165514  0.334984  1
  Br  Br45  1  0.229084  0.834486  0.665016  1
  Br  Br46  1  0.567875  0.322105  0.352887  1
  Br  Br47  1  0.432125  0.677895  0.647113  1
  Br  Br48  1  0.813454  0.242010  0.615144  1
  Br  Br49  1  0.186546  0.757990  0.384856  1
  Br  Br50  1  0.795730  0.886952  0.109347  1
  Br  Br51  1  0.204270  0.113048  0.890653  1
  Br  Br52  1  0.980290  0.728513  0.142481  1
  Br  Br53  1  0.019710  0.271487  0.857519  1
  Br  Br54  1  0.885394  0.551533  0.879072  1
  Br  Br55  1  0.114606  0.448467  0.120928  1
  Br  Br56  1  0.693597  0.705846  0.841826  1
  Br  Br57  1  0.306403  0.294154  0.158174  1
  Br  Br58  1  0.681965  0.615047  0.043149  1
  Br  Br59  1  0.318035  0.384953  0.956851  1
  Br  Br60  1  0.989392  0.826789  0.939595  1
  Br  Br61  1  0.010608  0.173211  0.060405  1
