# generated using pymatgen
data_AgSe3I
_symmetry_space_group_name_H-M   'P 1'
_cell_length_a   5.10159740
_cell_length_b   8.25125816
_cell_length_c   15.05008984
_cell_angle_alpha   90.00000000
_cell_angle_beta   90.00000000
_cell_angle_gamma   90.00000000
_symmetry_Int_Tables_number   1
_chemical_formula_structural   AgSe3I
_chemical_formula_sum   'Ag4 Se12 I4'
_cell_volume   633.52746927
_cell_formula_units_Z   4
loop_
 _symmetry_equiv_pos_site_id
 _symmetry_equiv_pos_as_xyz
  1  'x, y, z'
loop_
 _atom_site_type_symbol
 _atom_site_label
 _atom_site_symmetry_multiplicity
 _atom_site_fract_x
 _atom_site_fract_y
 _atom_site_fract_z
 _atom_site_occupancy
  Ag  Ag0  1  0.697708  0.250000  0.750000  1
  Ag  Ag1  1  0.302292  0.750000  0.250000  1
  Ag  Ag2  1  0.302292  0.750000  0.750000  1
  Ag  Ag3  1  0.697708  0.250000  0.250000  1
  Se  Se4  1  0.385662  0.369795  0.621132  1
  Se  Se5  1  0.614338  0.869795  0.878868  1
  Se  Se6  1  0.600801  0.261043  0.000000  1
  Se  Se7  1  0.614338  0.869795  0.121132  1
  Se  Se8  1  0.399199  0.738957  0.000000  1
  Se  Se9  1  0.614338  0.630205  0.621132  1
  Se  Se10  1  0.385662  0.369795  0.378868  1
  Se  Se11  1  0.600801  0.238957  0.500000  1
  Se  Se12  1  0.399199  0.761043  0.500000  1
  Se  Se13  1  0.614338  0.630205  0.378868  1
  Se  Se14  1  0.385662  0.130205  0.121132  1
  Se  Se15  1  0.385662  0.130205  0.878868  1
  I  I16  1  0.000000  0.500000  0.165775  1
  I  I17  1  0.000000  0.000000  0.334225  1
  I  I18  1  0.000000  0.000000  0.665775  1
  I  I19  1  0.000000  0.500000  0.834225  1
