# generated using pymatgen
data_In5S5Br
_symmetry_space_group_name_H-M   'P 1'
_cell_length_a   4.00319744
_cell_length_b   9.23819904
_cell_length_c   15.13720261
_cell_angle_alpha   90.00000000
_cell_angle_beta   90.00000000
_cell_angle_gamma   90.00000000
_symmetry_Int_Tables_number   1
_chemical_formula_structural   In5S5Br
_chemical_formula_sum   'In10 S10 Br2'
_cell_volume   559.80909406
_cell_formula_units_Z   2
loop_
 _symmetry_equiv_pos_site_id
 _symmetry_equiv_pos_as_xyz
  1  'x, y, z'
loop_
 _atom_site_type_symbol
 _atom_site_label
 _atom_site_symmetry_multiplicity
 _atom_site_fract_x
 _atom_site_fract_y
 _atom_site_fract_z
 _atom_site_occupancy
  In  In0  1  0.000000  0.887213  0.403130  1
  In  In1  1  0.500000  0.112787  0.903130  1
  In  In2  1  0.500000  0.606394  0.525747  1
  In  In3  1  0.000000  0.393606  0.025747  1
  In  In4  1  0.500000  0.185074  0.302138  1
  In  In5  1  0.000000  0.814926  0.802138  1
  In  In6  1  0.500000  0.479578  0.255886  1
  In  In7  1  0.000000  0.520422  0.755886  1
  In  In8  1  0.500000  0.860117  0.109437  1
  In  In9  1  0.000000  0.139883  0.609437  1
  S  S10  1  0.500000  0.701525  0.361342  1
  S  S11  1  0.000000  0.298475  0.861342  1
  S  S12  1  0.500000  0.434820  0.661912  1
  S  S13  1  0.000000  0.565180  0.161912  1
  S  S14  1  0.000000  0.770893  0.563579  1
  S  S15  1  0.500000  0.229107  0.063579  1
  S  S16  1  0.500000  0.059588  0.453745  1
  S  S17  1  0.000000  0.940412  0.953745  1
  S  S18  1  0.000000  0.028744  0.251338  1
  S  S19  1  0.500000  0.971256  0.751338  1
  Br  Br20  1  0.000000  0.402942  0.458426  1
  Br  Br21  1  0.500000  0.597058  0.958426  1
