# generated using pymatgen
data_Na3MnF6
_symmetry_space_group_name_H-M   'P 1'
_cell_length_a   5.56275589
_cell_length_b   5.75684240
_cell_length_c   9.82907154
_cell_angle_alpha   90.00000000
_cell_angle_beta   122.71253424
_cell_angle_gamma   90.00000000
_symmetry_Int_Tables_number   1
_chemical_formula_structural   Na3MnF6
_chemical_formula_sum   'Na6 Mn2 F12'
_cell_volume   264.84118058
_cell_formula_units_Z   2
loop_
 _symmetry_equiv_pos_site_id
 _symmetry_equiv_pos_as_xyz
  1  'x, y, z'
loop_
 _atom_site_type_symbol
 _atom_site_label
 _atom_site_symmetry_multiplicity
 _atom_site_fract_x
 _atom_site_fract_y
 _atom_site_fract_z
 _atom_site_occupancy
  Na  Na0  1  0.241956  0.445102  0.248398  1
  Na  Na1  1  0.758044  0.945102  0.251602  1
  Na  Na2  1  0.758044  0.554898  0.751602  1
  Na  Na3  1  0.241956  0.054898  0.748398  1
  Na  Na4  1  0.500000  0.500000  0.000000  1
  Na  Na5  1  0.500000  0.000000  0.500000  1
  Mn  Mn6  1  0.000000  0.500000  0.500000  1
  Mn  Mn7  1  0.000000  0.000000  0.000000  1
  F  F8  1  0.906311  0.779349  0.567280  1
  F  F9  1  0.093689  0.279349  0.932720  1
  F  F10  1  0.093689  0.220651  0.432720  1
  F  F11  1  0.906311  0.720651  0.067280  1
  F  F12  1  0.222975  0.671959  0.441366  1
  F  F13  1  0.777025  0.171959  0.058634  1
  F  F14  1  0.777025  0.328041  0.558634  1
  F  F15  1  0.222975  0.828041  0.941366  1
  F  F16  1  0.645650  0.938147  0.763641  1
  F  F17  1  0.354350  0.438147  0.736359  1
  F  F18  1  0.354350  0.061853  0.236359  1
  F  F19  1  0.645650  0.561853  0.263641  1
