# generated using pymatgen
data_VSnPO5
_symmetry_space_group_name_H-M   'P 1'
_cell_length_a   5.35320418
_cell_length_b   6.61942831
_cell_length_c   6.96485025
_cell_angle_alpha   113.01241493
_cell_angle_beta   107.44448241
_cell_angle_gamma   95.14357502
_symmetry_Int_Tables_number   1
_chemical_formula_structural   VSnPO5
_chemical_formula_sum   'V2 Sn2 P2 O10'
_cell_volume   210.61407794
_cell_formula_units_Z   2
loop_
 _symmetry_equiv_pos_site_id
 _symmetry_equiv_pos_as_xyz
  1  'x, y, z'
loop_
 _atom_site_type_symbol
 _atom_site_label
 _atom_site_symmetry_multiplicity
 _atom_site_fract_x
 _atom_site_fract_y
 _atom_site_fract_z
 _atom_site_occupancy
  V  V0  1  0.840178  0.366127  0.239278  1
  V  V1  1  0.159822  0.633873  0.760722  1
  Sn  Sn2  1  0.402759  0.219409  0.458532  1
  Sn  Sn3  1  0.597241  0.780591  0.541468  1
  P  P4  1  0.824813  0.808307  0.103677  1
  P  P5  1  0.175187  0.191693  0.896323  1
  O  O6  1  0.223525  0.500621  0.463690  1
  O  O7  1  0.899495  0.064763  0.269000  1
  O  O8  1  0.931259  0.252389  0.964015  1
  O  O9  1  0.068741  0.747611  0.035985  1
  O  O10  1  0.100505  0.935237  0.731000  1
  O  O11  1  0.763247  0.667141  0.224211  1
  O  O12  1  0.236753  0.332859  0.775789  1
  O  O13  1  0.574216  0.760918  0.893820  1
  O  O14  1  0.776475  0.499379  0.536310  1
  O  O15  1  0.425784  0.239082  0.106180  1
