# generated using pymatgen
data_KAu(NO3)4
_symmetry_space_group_name_H-M   'P 1'
_cell_length_a   8.66038452
_cell_length_b   7.34531164
_cell_length_c   10.38908714
_cell_angle_alpha   90.00000000
_cell_angle_beta   120.65640814
_cell_angle_gamma   90.00000000
_symmetry_Int_Tables_number   1
_chemical_formula_structural   KAu(NO3)4
_chemical_formula_sum   'K2 Au2 N8 O24'
_cell_volume   568.51856729
_cell_formula_units_Z   2
loop_
 _symmetry_equiv_pos_site_id
 _symmetry_equiv_pos_as_xyz
  1  'x, y, z'
loop_
 _atom_site_type_symbol
 _atom_site_label
 _atom_site_symmetry_multiplicity
 _atom_site_fract_x
 _atom_site_fract_y
 _atom_site_fract_z
 _atom_site_occupancy
  K  K0  1  0.500000  0.500000  0.000000  1
  K  K1  1  0.500000  0.000000  0.500000  1
  Au  Au2  1  0.000000  0.000000  0.000000  1
  Au  Au3  1  0.000000  0.500000  0.500000  1
  N  N4  1  0.696983  0.244181  0.838498  1
  N  N5  1  0.166550  0.392372  0.328964  1
  N  N6  1  0.833450  0.892372  0.171036  1
  N  N7  1  0.833450  0.607628  0.671036  1
  N  N8  1  0.696983  0.255819  0.338498  1
  N  N9  1  0.303017  0.744181  0.661502  1
  N  N10  1  0.303017  0.755819  0.161502  1
  N  N11  1  0.166550  0.107628  0.828964  1
  O  O12  1  0.069723  0.984024  0.749176  1
  O  O13  1  0.434989  0.803653  0.775543  1
  O  O14  1  0.755094  0.296255  0.968163  1
  O  O15  1  0.170007  0.350892  0.458695  1
  O  O16  1  0.267520  0.295844  0.306722  1
  O  O17  1  0.069723  0.515976  0.249176  1
  O  O18  1  0.732480  0.704156  0.693278  1
  O  O19  1  0.434989  0.696347  0.275543  1
  O  O20  1  0.170007  0.149108  0.958695  1
  O  O21  1  0.930277  0.484024  0.750824  1
  O  O22  1  0.829993  0.850892  0.041305  1
  O  O23  1  0.930277  0.015976  0.250824  1
  O  O24  1  0.217759  0.606071  0.687305  1
  O  O25  1  0.244906  0.796255  0.531837  1
  O  O26  1  0.782241  0.106071  0.812695  1
  O  O27  1  0.217759  0.893929  0.187305  1
  O  O28  1  0.565011  0.303653  0.724457  1
  O  O29  1  0.829993  0.649108  0.541305  1
  O  O30  1  0.565011  0.196347  0.224457  1
  O  O31  1  0.244906  0.703745  0.031837  1
  O  O32  1  0.732480  0.795844  0.193278  1
  O  O33  1  0.782241  0.393929  0.312695  1
  O  O34  1  0.267520  0.204156  0.806722  1
  O  O35  1  0.755094  0.203745  0.468163  1
