# generated using pymatgen
data_Cs2VF6
_symmetry_space_group_name_H-M   'P 1'
_cell_length_a   8.19897484
_cell_length_b   8.19897484
_cell_length_c   7.41198029
_cell_angle_alpha   90.00000000
_cell_angle_beta   90.00000000
_cell_angle_gamma   134.83619123
_symmetry_Int_Tables_number   1
_chemical_formula_structural   Cs2VF6
_chemical_formula_sum   'Cs4 V2 F12'
_cell_volume   353.32671147
_cell_formula_units_Z   2
loop_
 _symmetry_equiv_pos_site_id
 _symmetry_equiv_pos_as_xyz
  1  'x, y, z'
loop_
 _atom_site_type_symbol
 _atom_site_label
 _atom_site_symmetry_multiplicity
 _atom_site_fract_x
 _atom_site_fract_y
 _atom_site_fract_z
 _atom_site_occupancy
  Cs  Cs0  1  0.048932  0.951068  0.250000  1
  Cs  Cs1  1  0.951068  0.048932  0.750000  1
  Cs  Cs2  1  0.731233  0.268767  0.250000  1
  Cs  Cs3  1  0.268767  0.731233  0.750000  1
  V  V4  1  0.384809  0.615191  0.250000  1
  V  V5  1  0.615191  0.384809  0.750000  1
  F  F6  1  0.260863  0.739137  0.250000  1
  F  F7  1  0.739137  0.260863  0.750000  1
  F  F8  1  0.505078  0.494922  0.250000  1
  F  F9  1  0.494922  0.505078  0.750000  1
  F  F10  1  0.599792  0.836561  0.429424  1
  F  F11  1  0.836561  0.599792  0.570576  1
  F  F12  1  0.836561  0.599792  0.929424  1
  F  F13  1  0.599792  0.836561  0.070576  1
  F  F14  1  0.163439  0.400208  0.429424  1
  F  F15  1  0.400208  0.163439  0.570576  1
  F  F16  1  0.163439  0.400208  0.070576  1
  F  F17  1  0.400208  0.163439  0.929424  1
