# generated using pymatgen
data_Ba5Li2(WO5)3
_symmetry_space_group_name_H-M   'P 1'
_cell_length_a   5.84644325
_cell_length_b   5.84644325
_cell_length_c   24.33998835
_cell_angle_alpha   90.00000000
_cell_angle_beta   90.00000000
_cell_angle_gamma   120.00000000
_symmetry_Int_Tables_number   1
_chemical_formula_structural   Ba5Li2(WO5)3
_chemical_formula_sum   'Ba10 Li4 W6 O30'
_cell_volume   720.50081082
_cell_formula_units_Z   2
loop_
 _symmetry_equiv_pos_site_id
 _symmetry_equiv_pos_as_xyz
  1  'x, y, z'
loop_
 _atom_site_type_symbol
 _atom_site_label
 _atom_site_symmetry_multiplicity
 _atom_site_fract_x
 _atom_site_fract_y
 _atom_site_fract_z
 _atom_site_occupancy
  Ba  Ba0  1  0.000000  0.000000  0.149734  1
  Ba  Ba1  1  0.000000  0.000000  0.849877  1
  Ba  Ba2  1  0.666667  0.333333  0.957711  1
  Ba  Ba3  1  0.666667  0.333333  0.553026  1
  Ba  Ba4  1  0.000000  0.000000  0.649734  1
  Ba  Ba5  1  0.333333  0.666667  0.053026  1
  Ba  Ba6  1  0.000000  0.000000  0.349877  1
  Ba  Ba7  1  0.666667  0.333333  0.242382  1
  Ba  Ba8  1  0.333333  0.666667  0.457711  1
  Ba  Ba9  1  0.333333  0.666667  0.742382  1
  Li  Li10  1  0.666667  0.333333  0.681208  1
  Li  Li11  1  0.333333  0.666667  0.181208  1
  Li  Li12  1  0.000000  0.000000  0.009211  1
  Li  Li13  1  0.000000  0.000000  0.509211  1
  W  W14  1  0.333333  0.666667  0.902412  1
  W  W15  1  0.666667  0.333333  0.799104  1
  W  W16  1  0.333333  0.666667  0.299104  1
  W  W17  1  0.666667  0.333333  0.402412  1
  W  W18  1  0.333333  0.666667  0.599282  1
  W  W19  1  0.666667  0.333333  0.099282  1
  O  O20  1  0.351706  0.175853  0.052818  1
  O  O21  1  0.176831  0.823169  0.942837  1
  O  O22  1  0.500178  0.000356  0.350883  1
  O  O23  1  0.824147  0.648294  0.052818  1
  O  O24  1  0.490665  0.981330  0.646816  1
  O  O25  1  0.646337  0.823169  0.942837  1
  O  O26  1  0.177365  0.354729  0.258664  1
  O  O27  1  0.354729  0.177365  0.758664  1
  O  O28  1  0.822635  0.645271  0.758664  1
  O  O29  1  0.177365  0.822635  0.258664  1
  O  O30  1  0.000356  0.500178  0.850883  1
  O  O31  1  0.823169  0.176831  0.442837  1
  O  O32  1  0.353663  0.176831  0.442837  1
  O  O33  1  0.500178  0.499822  0.350883  1
  O  O34  1  0.999644  0.499822  0.350883  1
  O  O35  1  0.499822  0.500178  0.850883  1
  O  O36  1  0.176831  0.353663  0.942837  1
  O  O37  1  0.018670  0.509335  0.646816  1
  O  O38  1  0.175853  0.351706  0.552818  1
  O  O39  1  0.824147  0.175853  0.052818  1
  O  O40  1  0.490665  0.509335  0.646816  1
  O  O41  1  0.648294  0.824147  0.552818  1
  O  O42  1  0.981330  0.490665  0.146816  1
  O  O43  1  0.822635  0.177365  0.758664  1
  O  O44  1  0.509335  0.490665  0.146816  1
  O  O45  1  0.509335  0.018670  0.146816  1
  O  O46  1  0.499822  0.999644  0.850883  1
  O  O47  1  0.645271  0.822635  0.258664  1
  O  O48  1  0.823169  0.646337  0.442837  1
  O  O49  1  0.175853  0.824147  0.552818  1
