# generated using pymatgen
data_CsBa2Br5
_symmetry_space_group_name_H-M   'P 1'
_cell_length_a   10.15342201
_cell_length_b   8.83265435
_cell_length_c   14.16823510
_cell_angle_alpha   90.00000000
_cell_angle_beta   90.25456940
_cell_angle_gamma   90.00000000
_symmetry_Int_Tables_number   1
_chemical_formula_structural   CsBa2Br5
_chemical_formula_sum   'Cs4 Ba8 Br20'
_cell_volume   1270.61840112
_cell_formula_units_Z   4
loop_
 _symmetry_equiv_pos_site_id
 _symmetry_equiv_pos_as_xyz
  1  'x, y, z'
loop_
 _atom_site_type_symbol
 _atom_site_label
 _atom_site_symmetry_multiplicity
 _atom_site_fract_x
 _atom_site_fract_y
 _atom_site_fract_z
 _atom_site_occupancy
  Cs  Cs0  1  0.010769  0.942944  0.833446  1
  Cs  Cs1  1  0.989231  0.442944  0.666554  1
  Cs  Cs2  1  0.989231  0.057056  0.166554  1
  Cs  Cs3  1  0.010769  0.557056  0.333446  1
  Ba  Ba4  1  0.499923  0.971976  0.822526  1
  Ba  Ba5  1  0.500077  0.471976  0.677474  1
  Ba  Ba6  1  0.500077  0.028024  0.177474  1
  Ba  Ba7  1  0.499923  0.528024  0.322526  1
  Ba  Ba8  1  0.253439  0.431456  0.992670  1
  Ba  Ba9  1  0.746561  0.931456  0.507330  1
  Ba  Ba10  1  0.746561  0.568544  0.007330  1
  Ba  Ba11  1  0.253439  0.068544  0.492670  1
  Br  Br12  1  0.288131  0.049074  0.997803  1
  Br  Br13  1  0.711869  0.549074  0.502197  1
  Br  Br14  1  0.711869  0.950926  0.002197  1
  Br  Br15  1  0.288131  0.450926  0.497803  1
  Br  Br16  1  0.724093  0.689677  0.782984  1
  Br  Br17  1  0.275907  0.189677  0.717016  1
  Br  Br18  1  0.275907  0.310323  0.217016  1
  Br  Br19  1  0.724093  0.810323  0.282984  1
  Br  Br20  1  0.461803  0.837231  0.598971  1
  Br  Br21  1  0.538197  0.337231  0.901029  1
  Br  Br22  1  0.538197  0.162769  0.401029  1
  Br  Br23  1  0.461803  0.662769  0.098971  1
  Br  Br24  1  0.289119  0.663148  0.812695  1
  Br  Br25  1  0.710881  0.163148  0.687305  1
  Br  Br26  1  0.710881  0.336852  0.187305  1
  Br  Br27  1  0.289119  0.836852  0.312695  1
  Br  Br28  1  0.036203  0.825347  0.577600  1
  Br  Br29  1  0.963797  0.325347  0.922400  1
  Br  Br30  1  0.963797  0.174653  0.422400  1
  Br  Br31  1  0.036203  0.674653  0.077600  1
