# generated using pymatgen
data_BaNdGaO4
_symmetry_space_group_name_H-M   'P 1'
_cell_length_a   5.91758144
_cell_length_b   7.19355038
_cell_length_c   10.02194404
_cell_angle_alpha   90.00000000
_cell_angle_beta   90.00000000
_cell_angle_gamma   90.00000000
_symmetry_Int_Tables_number   1
_chemical_formula_structural   BaNdGaO4
_chemical_formula_sum   'Ba4 Nd4 Ga4 O16'
_cell_volume   426.61832528
_cell_formula_units_Z   4
loop_
 _symmetry_equiv_pos_site_id
 _symmetry_equiv_pos_as_xyz
  1  'x, y, z'
loop_
 _atom_site_type_symbol
 _atom_site_label
 _atom_site_symmetry_multiplicity
 _atom_site_fract_x
 _atom_site_fract_y
 _atom_site_fract_z
 _atom_site_occupancy
  Ba  Ba0  1  0.506430  0.422943  0.078406  1
  Ba  Ba1  1  0.006430  0.077057  0.921594  1
  Ba  Ba2  1  0.493570  0.922943  0.421594  1
  Ba  Ba3  1  0.993570  0.577057  0.578406  1
  Nd  Nd4  1  0.511649  0.252994  0.701213  1
  Nd  Nd5  1  0.011649  0.247006  0.298787  1
  Nd  Nd6  1  0.488351  0.752994  0.798787  1
  Nd  Nd7  1  0.988351  0.747006  0.201213  1
  Ga  Ga8  1  0.486445  0.466502  0.416946  1
  Ga  Ga9  1  0.986445  0.033498  0.583054  1
  Ga  Ga10  1  0.513555  0.966502  0.083054  1
  Ga  Ga11  1  0.013555  0.533498  0.916946  1
  O  O12  1  0.501303  0.600246  0.577648  1
  O  O13  1  0.001303  0.899754  0.422352  1
  O  O14  1  0.498697  0.100246  0.922352  1
  O  O15  1  0.998697  0.399754  0.077648  1
  O  O16  1  0.257387  0.554274  0.301335  1
  O  O17  1  0.757387  0.945726  0.698665  1
  O  O18  1  0.742613  0.054274  0.198665  1
  O  O19  1  0.242613  0.445726  0.801335  1
  O  O20  1  0.331599  0.252653  0.471174  1
  O  O21  1  0.831599  0.247347  0.528826  1
  O  O22  1  0.668401  0.752653  0.028826  1
  O  O23  1  0.168401  0.747347  0.971174  1
  O  O24  1  0.747572  0.512315  0.317342  1
  O  O25  1  0.247572  0.987685  0.682658  1
  O  O26  1  0.252428  0.012315  0.182658  1
  O  O27  1  0.752428  0.487685  0.817342  1
