# generated using pymatgen
data_Ca3Mg(SiO4)2
_symmetry_space_group_name_H-M   'P 1'
_cell_length_a   9.46807457
_cell_length_b   5.35133455
_cell_length_c   13.39481205
_cell_angle_alpha   90.00000000
_cell_angle_beta   92.35690158
_cell_angle_gamma   90.00000000
_symmetry_Int_Tables_number   1
_chemical_formula_structural   Ca3Mg(SiO4)2
_chemical_formula_sum   'Ca12 Mg4 Si8 O32'
_cell_volume   678.09860075
_cell_formula_units_Z   4
loop_
 _symmetry_equiv_pos_site_id
 _symmetry_equiv_pos_as_xyz
  1  'x, y, z'
loop_
 _atom_site_type_symbol
 _atom_site_label
 _atom_site_symmetry_multiplicity
 _atom_site_fract_x
 _atom_site_fract_y
 _atom_site_fract_z
 _atom_site_occupancy
  Ca  Ca0  1  0.423131  0.259076  0.097697  1
  Ca  Ca1  1  0.222954  0.676583  0.756462  1
  Ca  Ca2  1  0.222954  0.823417  0.256462  1
  Ca  Ca3  1  0.777046  0.323417  0.243538  1
  Ca  Ca4  1  0.924275  0.768343  0.080654  1
  Ca  Ca5  1  0.423131  0.240924  0.597697  1
  Ca  Ca6  1  0.777046  0.176583  0.743538  1
  Ca  Ca7  1  0.924275  0.731657  0.580654  1
  Ca  Ca8  1  0.075725  0.231657  0.919346  1
  Ca  Ca9  1  0.576869  0.759076  0.402303  1
  Ca  Ca10  1  0.576869  0.740924  0.902303  1
  Ca  Ca11  1  0.075725  0.268343  0.419346  1
  Mg  Mg12  1  0.253568  0.742566  0.004340  1
  Mg  Mg13  1  0.253568  0.757434  0.504340  1
  Mg  Mg14  1  0.746432  0.242566  0.495660  1
  Mg  Mg15  1  0.746432  0.257434  0.995660  1
  Si  Si16  1  0.905999  0.773034  0.358579  1
  Si  Si17  1  0.601955  0.771801  0.132440  1
  Si  Si18  1  0.094001  0.226966  0.641421  1
  Si  Si19  1  0.905999  0.726966  0.858579  1
  Si  Si20  1  0.398045  0.271801  0.367560  1
  Si  Si21  1  0.601955  0.728199  0.632440  1
  Si  Si22  1  0.094001  0.273034  0.141421  1
  Si  Si23  1  0.398045  0.228199  0.867560  1
  O  O24  1  0.814156  0.029434  0.372193  1
  O  O25  1  0.696336  0.584565  0.062497  1
  O  O26  1  0.303664  0.084565  0.437503  1
  O  O27  1  0.069690  0.185775  0.255316  1
  O  O28  1  0.185844  0.529434  0.127807  1
  O  O29  1  0.069690  0.314225  0.755316  1
  O  O30  1  0.175960  0.043598  0.082982  1
  O  O31  1  0.597072  0.861479  0.741359  1
  O  O32  1  0.696336  0.915435  0.562497  1
  O  O33  1  0.941506  0.297073  0.076517  1
  O  O34  1  0.185844  0.970566  0.627807  1
  O  O35  1  0.175960  0.456402  0.582982  1
  O  O36  1  0.058494  0.797073  0.423483  1
  O  O37  1  0.323207  0.949007  0.874195  1
  O  O38  1  0.930310  0.685775  0.244684  1
  O  O39  1  0.402928  0.138521  0.258641  1
  O  O40  1  0.553425  0.210653  0.926935  1
  O  O41  1  0.941506  0.202927  0.576517  1
  O  O42  1  0.446575  0.789347  0.073065  1
  O  O43  1  0.303664  0.415435  0.937503  1
  O  O44  1  0.676793  0.050993  0.125805  1
  O  O45  1  0.402928  0.361479  0.758641  1
  O  O46  1  0.824040  0.543598  0.417018  1
  O  O47  1  0.446575  0.710653  0.573065  1
  O  O48  1  0.930310  0.814225  0.744684  1
  O  O49  1  0.323207  0.550993  0.374195  1
  O  O50  1  0.676793  0.449007  0.625805  1
  O  O51  1  0.814156  0.470566  0.872193  1
  O  O52  1  0.824040  0.956402  0.917018  1
  O  O53  1  0.597072  0.638521  0.241359  1
  O  O54  1  0.058494  0.702927  0.923483  1
  O  O55  1  0.553425  0.289347  0.426935  1
