# generated using pymatgen
data_NaNb3(TeO4)4
_symmetry_space_group_name_H-M   'P 1'
_cell_length_a   6.71264993
_cell_length_b   7.55558616
_cell_length_c   14.42705301
_cell_angle_alpha   90.00000000
_cell_angle_beta   102.08866798
_cell_angle_gamma   90.00000000
_symmetry_Int_Tables_number   1
_chemical_formula_structural   NaNb3(TeO4)4
_chemical_formula_sum   'Na2 Nb6 Te8 O32'
_cell_volume   715.48540920
_cell_formula_units_Z   2
loop_
 _symmetry_equiv_pos_site_id
 _symmetry_equiv_pos_as_xyz
  1  'x, y, z'
loop_
 _atom_site_type_symbol
 _atom_site_label
 _atom_site_symmetry_multiplicity
 _atom_site_fract_x
 _atom_site_fract_y
 _atom_site_fract_z
 _atom_site_occupancy
  Na  Na0  1  0.500000  0.500000  0.500000  1
  Na  Na1  1  0.500000  0.000000  0.500000  1
  Nb  Nb2  1  0.076990  0.499787  0.273595  1
  Nb  Nb3  1  0.076990  0.000213  0.273595  1
  Nb  Nb4  1  0.923010  0.500213  0.726405  1
  Nb  Nb5  1  0.000000  0.500000  0.000000  1
  Nb  Nb6  1  0.923010  0.999787  0.726405  1
  Nb  Nb7  1  0.000000  0.000000  0.000000  1
  Te  Te8  1  0.489233  0.250000  0.000709  1
  Te  Te9  1  0.595677  0.250000  0.278712  1
  Te  Te10  1  0.052539  0.750000  0.498295  1
  Te  Te11  1  0.574317  0.750000  0.289392  1
  Te  Te12  1  0.510767  0.750000  0.999291  1
  Te  Te13  1  0.947461  0.250000  0.501705  1
  Te  Te14  1  0.425683  0.250000  0.710608  1
  Te  Te15  1  0.404323  0.750000  0.721288  1
  O  O16  1  0.009807  0.250000  0.739024  1
  O  O17  1  0.379007  0.560815  0.294996  1
  O  O18  1  0.781023  0.446459  0.282001  1
  O  O19  1  0.312087  0.250000  0.581037  1
  O  O20  1  0.143356  0.250000  0.310815  1
  O  O21  1  0.387454  0.750000  0.872514  1
  O  O22  1  0.687913  0.750000  0.418963  1
  O  O23  1  0.781023  0.053541  0.282001  1
  O  O24  1  0.346078  0.750000  0.576971  1
  O  O25  1  0.952578  0.533127  0.857896  1
  O  O26  1  0.218977  0.946459  0.717999  1
  O  O27  1  0.876588  0.057530  0.574055  1
  O  O28  1  0.047422  0.033127  0.142104  1
  O  O29  1  0.620993  0.439185  0.705004  1
  O  O30  1  0.856644  0.750000  0.689185  1
  O  O31  1  0.990193  0.750000  0.260976  1
  O  O32  1  0.379007  0.939185  0.294996  1
  O  O33  1  0.047422  0.466873  0.142104  1
  O  O34  1  0.296995  0.440680  0.004949  1
  O  O35  1  0.123412  0.942470  0.425945  1
  O  O36  1  0.703005  0.940680  0.995051  1
  O  O37  1  0.612546  0.250000  0.127486  1
  O  O38  1  0.079719  0.750000  0.019095  1
  O  O39  1  0.876588  0.442470  0.574055  1
  O  O40  1  0.653922  0.250000  0.423029  1
  O  O41  1  0.296995  0.059320  0.004949  1
  O  O42  1  0.123412  0.557530  0.425945  1
  O  O43  1  0.703005  0.559320  0.995051  1
  O  O44  1  0.920281  0.250000  0.980905  1
  O  O45  1  0.620993  0.060815  0.705004  1
  O  O46  1  0.952578  0.966873  0.857896  1
  O  O47  1  0.218977  0.553541  0.717999  1
