# generated using pymatgen
data_NdTl(PO3)4
_symmetry_space_group_name_H-M   'P 1'
_cell_length_a   10.61618486
_cell_length_b   9.13905733
_cell_length_c   13.10514750
_cell_angle_alpha   90.00000000
_cell_angle_beta   125.09687826
_cell_angle_gamma   90.00000000
_symmetry_Int_Tables_number   1
_chemical_formula_structural   NdTl(PO3)4
_chemical_formula_sum   'Nd4 Tl4 P16 O48'
_cell_volume   1040.30623498
_cell_formula_units_Z   4
loop_
 _symmetry_equiv_pos_site_id
 _symmetry_equiv_pos_as_xyz
  1  'x, y, z'
loop_
 _atom_site_type_symbol
 _atom_site_label
 _atom_site_symmetry_multiplicity
 _atom_site_fract_x
 _atom_site_fract_y
 _atom_site_fract_z
 _atom_site_occupancy
  Nd  Nd0  1  0.683706  0.727892  0.183313  1
  Nd  Nd1  1  0.316294  0.227892  0.316687  1
  Nd  Nd2  1  0.316294  0.272108  0.816687  1
  Nd  Nd3  1  0.683706  0.772108  0.683313  1
  Tl  Tl4  1  0.752119  0.062769  0.960814  1
  Tl  Tl5  1  0.247881  0.562769  0.539186  1
  Tl  Tl6  1  0.247881  0.937231  0.039186  1
  Tl  Tl7  1  0.752119  0.437231  0.460814  1
  P  P8  1  0.026098  0.976281  0.276356  1
  P  P9  1  0.973902  0.476281  0.223644  1
  P  P10  1  0.973902  0.023719  0.723644  1
  P  P11  1  0.026098  0.523719  0.776356  1
  P  P12  1  0.681343  0.174020  0.641096  1
  P  P13  1  0.318657  0.674020  0.858904  1
  P  P14  1  0.318657  0.825980  0.358904  1
  P  P15  1  0.681343  0.325980  0.141096  1
  P  P16  1  0.614486  0.403046  0.761110  1
  P  P17  1  0.385514  0.903046  0.738890  1
  P  P18  1  0.385514  0.596954  0.238890  1
  P  P19  1  0.614486  0.096954  0.261110  1
  P  P20  1  0.800178  0.604855  0.977364  1
  P  P21  1  0.199822  0.104855  0.522636  1
  P  P22  1  0.199822  0.395145  0.022636  1
  P  P23  1  0.800178  0.895145  0.477364  1
  O  O24  1  0.725538  0.292003  0.749695  1
  O  O25  1  0.274462  0.792003  0.750305  1
  O  O26  1  0.274462  0.707997  0.250305  1
  O  O27  1  0.725538  0.207997  0.249695  1
  O  O28  1  0.929961  0.911814  0.782186  1
  O  O29  1  0.070039  0.411814  0.717814  1
  O  O30  1  0.070039  0.088186  0.217814  1
  O  O31  1  0.929961  0.588186  0.282186  1
  O  O32  1  0.486655  0.316905  0.749156  1
  O  O33  1  0.513345  0.816905  0.750844  1
  O  O34  1  0.513345  0.683095  0.250844  1
  O  O35  1  0.486655  0.183095  0.249156  1
  O  O36  1  0.633471  0.034359  0.669780  1
  O  O37  1  0.366529  0.534359  0.830220  1
  O  O38  1  0.366529  0.965641  0.330220  1
  O  O39  1  0.633471  0.465641  0.169780  1
  O  O40  1  0.427776  0.031976  0.824445  1
  O  O41  1  0.572224  0.531976  0.675555  1
  O  O42  1  0.572224  0.968024  0.175555  1
  O  O43  1  0.427776  0.468024  0.324445  1
  O  O44  1  0.867493  0.911695  0.195547  1
  O  O45  1  0.132507  0.411695  0.304453  1
  O  O46  1  0.132507  0.088305  0.804453  1
  O  O47  1  0.867493  0.588305  0.695547  1
  O  O48  1  0.699121  0.660794  0.014339  1
  O  O49  1  0.300879  0.160794  0.485661  1
  O  O50  1  0.300879  0.339206  0.985661  1
  O  O51  1  0.699121  0.839206  0.514339  1
  O  O52  1  0.849524  0.343215  0.166754  1
  O  O53  1  0.150476  0.843215  0.333246  1
  O  O54  1  0.150476  0.656785  0.833246  1
  O  O55  1  0.849524  0.156785  0.666754  1
  O  O56  1  0.734341  0.450042  0.904095  1
  O  O57  1  0.265659  0.950042  0.595905  1
  O  O58  1  0.265659  0.549958  0.095905  1
  O  O59  1  0.734341  0.049958  0.404095  1
  O  O60  1  0.419822  0.745966  0.984484  1
  O  O61  1  0.580178  0.245966  0.515516  1
  O  O62  1  0.580178  0.254034  0.015516  1
  O  O63  1  0.419822  0.754034  0.484484  1
  O  O64  1  0.837277  0.795073  0.407291  1
  O  O65  1  0.162723  0.295073  0.092709  1
  O  O66  1  0.162723  0.204927  0.592709  1
  O  O67  1  0.837277  0.704927  0.907291  1
  O  O68  1  0.042764  0.042386  0.398661  1
  O  O69  1  0.957236  0.542386  0.101339  1
  O  O70  1  0.957236  0.957614  0.601339  1
  O  O71  1  0.042764  0.457614  0.898661  1
