# generated using pymatgen
data_TaPbF7
_symmetry_space_group_name_H-M   'P 1'
_cell_length_a   4.99580844
_cell_length_b   7.43392947
_cell_length_c   6.89135000
_cell_angle_alpha   90.00000000
_cell_angle_beta   94.02095486
_cell_angle_gamma   90.00000000
_symmetry_Int_Tables_number   1
_chemical_formula_structural   TaPbF7
_chemical_formula_sum   'Ta2 Pb2 F14'
_cell_volume   255.30432670
_cell_formula_units_Z   2
loop_
 _symmetry_equiv_pos_site_id
 _symmetry_equiv_pos_as_xyz
  1  'x, y, z'
loop_
 _atom_site_type_symbol
 _atom_site_label
 _atom_site_symmetry_multiplicity
 _atom_site_fract_x
 _atom_site_fract_y
 _atom_site_fract_z
 _atom_site_occupancy
  Ta  Ta0  1  0.533654  0.750000  0.217658  1
  Ta  Ta1  1  0.466346  0.250000  0.782342  1
  Pb  Pb2  1  0.014453  0.250000  0.316381  1
  Pb  Pb3  1  0.985547  0.750000  0.683619  1
  F  F4  1  0.645327  0.250000  0.050638  1
  F  F5  1  0.673382  0.469477  0.788693  1
  F  F6  1  0.326618  0.969477  0.211307  1
  F  F7  1  0.800948  0.578569  0.358802  1
  F  F8  1  0.404828  0.750000  0.487911  1
  F  F9  1  0.595172  0.250000  0.512089  1
  F  F10  1  0.354673  0.750000  0.949362  1
  F  F11  1  0.800948  0.921431  0.358802  1
  F  F12  1  0.199052  0.421431  0.641198  1
  F  F13  1  0.171006  0.250000  0.950787  1
  F  F14  1  0.199052  0.078569  0.641198  1
  F  F15  1  0.326618  0.530523  0.211307  1
  F  F16  1  0.828994  0.750000  0.049213  1
  F  F17  1  0.673382  0.030523  0.788693  1
