# generated using pymatgen
data_Nd3NbO7
_symmetry_space_group_name_H-M   'P 1'
_cell_length_a   7.68346955
_cell_length_b   7.77407832
_cell_length_c   10.98873662
_cell_angle_alpha   90.00000000
_cell_angle_beta   90.00000000
_cell_angle_gamma   90.00000000
_symmetry_Int_Tables_number   1
_chemical_formula_structural   Nd3NbO7
_chemical_formula_sum   'Nd12 Nb4 O28'
_cell_volume   656.37805154
_cell_formula_units_Z   4
loop_
 _symmetry_equiv_pos_site_id
 _symmetry_equiv_pos_as_xyz
  1  'x, y, z'
loop_
 _atom_site_type_symbol
 _atom_site_label
 _atom_site_symmetry_multiplicity
 _atom_site_fract_x
 _atom_site_fract_y
 _atom_site_fract_z
 _atom_site_occupancy
  Nd  Nd0  1  0.486886  0.295446  0.250000  1
  Nd  Nd1  1  0.749388  0.542232  0.476254  1
  Nd  Nd2  1  0.250612  0.457768  0.523746  1
  Nd  Nd3  1  0.986886  0.204554  0.250000  1
  Nd  Nd4  1  0.750612  0.042232  0.976254  1
  Nd  Nd5  1  0.750612  0.042232  0.523746  1
  Nd  Nd6  1  0.513114  0.704554  0.750000  1
  Nd  Nd7  1  0.250612  0.457768  0.976254  1
  Nd  Nd8  1  0.013114  0.795446  0.750000  1
  Nd  Nd9  1  0.249388  0.957768  0.023746  1
  Nd  Nd10  1  0.749388  0.542232  0.023746  1
  Nd  Nd11  1  0.249388  0.957768  0.476254  1
  Nb  Nb12  1  0.495086  0.753698  0.250000  1
  Nb  Nb13  1  0.995086  0.746302  0.250000  1
  Nb  Nb14  1  0.004914  0.253698  0.750000  1
  Nb  Nb15  1  0.504914  0.246302  0.750000  1
  O  O16  1  0.035515  0.049992  0.626810  1
  O  O17  1  0.964485  0.950008  0.126810  1
  O  O18  1  0.752666  0.670969  0.250000  1
  O  O19  1  0.535515  0.450008  0.626810  1
  O  O20  1  0.964485  0.950008  0.373190  1
  O  O21  1  0.256130  0.729398  0.617074  1
  O  O22  1  0.252666  0.829031  0.250000  1
  O  O23  1  0.464485  0.549992  0.373190  1
  O  O24  1  0.243870  0.229398  0.382926  1
  O  O25  1  0.457618  0.093479  0.613482  1
  O  O26  1  0.743870  0.270602  0.117074  1
  O  O27  1  0.457618  0.093479  0.886518  1
  O  O28  1  0.743870  0.270602  0.382926  1
  O  O29  1  0.957618  0.406521  0.886518  1
  O  O30  1  0.247334  0.329031  0.750000  1
  O  O31  1  0.542382  0.906521  0.386518  1
  O  O32  1  0.042382  0.593479  0.113482  1
  O  O33  1  0.957618  0.406521  0.613482  1
  O  O34  1  0.243870  0.229398  0.117074  1
  O  O35  1  0.542382  0.906521  0.113482  1
  O  O36  1  0.747334  0.170969  0.750000  1
  O  O37  1  0.464485  0.549992  0.126810  1
  O  O38  1  0.756130  0.770602  0.882926  1
  O  O39  1  0.256130  0.729398  0.882926  1
  O  O40  1  0.535515  0.450008  0.873190  1
  O  O41  1  0.042382  0.593479  0.386518  1
  O  O42  1  0.756130  0.770602  0.617074  1
  O  O43  1  0.035515  0.049992  0.873190  1
