# generated using pymatgen
data_Na3PH16(SO2)4
_symmetry_space_group_name_H-M   'P 1'
_cell_length_a   8.69623955
_cell_length_b   12.95696782
_cell_length_c   13.59742741
_cell_angle_alpha   90.00000000
_cell_angle_beta   103.49063568
_cell_angle_gamma   90.00000000
_symmetry_Int_Tables_number   1
_chemical_formula_structural   Na3PH16(SO2)4
_chemical_formula_sum   'Na12 P4 H64 S16 O32'
_cell_volume   1489.84186544
_cell_formula_units_Z   4
loop_
 _symmetry_equiv_pos_site_id
 _symmetry_equiv_pos_as_xyz
  1  'x, y, z'
loop_
 _atom_site_type_symbol
 _atom_site_label
 _atom_site_symmetry_multiplicity
 _atom_site_fract_x
 _atom_site_fract_y
 _atom_site_fract_z
 _atom_site_occupancy
  Na  Na0  1  0.000000  0.000000  0.000000  1
  Na  Na1  1  0.000000  0.500000  0.500000  1
  Na  Na2  1  0.500000  0.500000  0.000000  1
  Na  Na3  1  0.500000  0.000000  0.500000  1
  Na  Na4  1  0.664996  0.450492  0.590723  1
  Na  Na5  1  0.335004  0.950492  0.909277  1
  Na  Na6  1  0.335004  0.549508  0.409277  1
  Na  Na7  1  0.664996  0.049508  0.090723  1
  Na  Na8  1  0.168487  0.941911  0.583079  1
  Na  Na9  1  0.831513  0.441911  0.916921  1
  Na  Na10  1  0.831513  0.058089  0.416921  1
  Na  Na11  1  0.168487  0.558089  0.083079  1
  P  P12  1  0.285606  0.327987  0.748593  1
  P  P13  1  0.714394  0.827987  0.751407  1
  P  P14  1  0.714394  0.672013  0.251407  1
  P  P15  1  0.285606  0.172013  0.248593  1
  H  H16  1  0.810288  0.844160  0.093398  1
  H  H17  1  0.189712  0.344160  0.406602  1
  H  H18  1  0.189712  0.155840  0.906602  1
  H  H19  1  0.810288  0.655840  0.593398  1
  H  H20  1  0.729734  0.861748  0.980465  1
  H  H21  1  0.270266  0.361748  0.519535  1
  H  H22  1  0.270266  0.138252  0.019535  1
  H  H23  1  0.729734  0.638252  0.480465  1
  H  H24  1  0.932534  0.192692  0.083049  1
  H  H25  1  0.067466  0.692692  0.416951  1
  H  H26  1  0.067466  0.807308  0.916951  1
  H  H27  1  0.932534  0.307308  0.583049  1
  H  H28  1  0.829463  0.193975  0.969190  1
  H  H29  1  0.170537  0.693975  0.530810  1
  H  H30  1  0.170537  0.806025  0.030810  1
  H  H31  1  0.829463  0.306025  0.469190  1
  H  H32  1  0.233718  0.565604  0.863804  1
  H  H33  1  0.766282  0.065604  0.636196  1
  H  H34  1  0.766282  0.434396  0.136196  1
  H  H35  1  0.233718  0.934396  0.363804  1
  H  H36  1  0.280755  0.670313  0.921683  1
  H  H37  1  0.719245  0.170313  0.578317  1
  H  H38  1  0.719245  0.329687  0.078317  1
  H  H39  1  0.280755  0.829687  0.421683  1
  H  H40  1  0.496573  0.517084  0.801370  1
  H  H41  1  0.503427  0.017084  0.698630  1
  H  H42  1  0.503427  0.482916  0.198630  1
  H  H43  1  0.496573  0.982916  0.301370  1
  H  H44  1  0.590160  0.616754  0.844083  1
  H  H45  1  0.409840  0.116754  0.655917  1
  H  H46  1  0.409840  0.383246  0.155917  1
  H  H47  1  0.590160  0.883246  0.344083  1
  H  H48  1  0.389251  0.556219  0.630383  1
  H  H49  1  0.610749  0.056219  0.869617  1
  H  H50  1  0.610749  0.443781  0.369617  1
  H  H51  1  0.389251  0.943781  0.130383  1
  H  H52  1  0.501395  0.645123  0.605095  1
  H  H53  1  0.498605  0.145123  0.894905  1
  H  H54  1  0.498605  0.354877  0.394905  1
  H  H55  1  0.501395  0.854877  0.105095  1
  H  H56  1  0.969524  0.472925  0.739203  1
  H  H57  1  0.030476  0.972925  0.760797  1
  H  H58  1  0.030476  0.527075  0.260797  1
  H  H59  1  0.969524  0.027075  0.239203  1
  H  H60  1  0.855329  0.560004  0.756060  1
  H  H61  1  0.144671  0.060004  0.743940  1
  H  H62  1  0.144671  0.439996  0.243940  1
  H  H63  1  0.855329  0.939996  0.256060  1
  H  H64  1  0.314168  0.766826  0.701531  1
  H  H65  1  0.685832  0.266826  0.798469  1
  H  H66  1  0.685832  0.233174  0.298469  1
  H  H67  1  0.314168  0.733174  0.201531  1
  H  H68  1  0.129820  0.759013  0.690753  1
  H  H69  1  0.870180  0.259013  0.809247  1
  H  H70  1  0.870180  0.240987  0.309247  1
  H  H71  1  0.129820  0.740987  0.190753  1
  H  H72  1  0.822973  0.861700  0.532676  1
  H  H73  1  0.177027  0.361700  0.967324  1
  H  H74  1  0.177027  0.138300  0.467324  1
  H  H75  1  0.822973  0.638300  0.032676  1
  H  H76  1  0.897653  0.842659  0.439496  1
  H  H77  1  0.102347  0.342659  0.060504  1
  H  H78  1  0.102347  0.157341  0.560504  1
  H  H79  1  0.897653  0.657341  0.939496  1
  S  S80  1  0.218279  0.480508  0.716944  1
  S  S81  1  0.781721  0.980508  0.783056  1
  S  S82  1  0.781721  0.519492  0.283056  1
  S  S83  1  0.218279  0.019492  0.216944  1
  S  S84  1  0.388631  0.308860  0.898520  1
  S  S85  1  0.611369  0.808860  0.601480  1
  S  S86  1  0.611369  0.691140  0.101480  1
  S  S87  1  0.388631  0.191140  0.398520  1
  S  S88  1  0.442178  0.287650  0.662400  1
  S  S89  1  0.557822  0.787650  0.837600  1
  S  S90  1  0.557822  0.712350  0.337600  1
  S  S91  1  0.442178  0.212350  0.162400  1
  S  S92  1  0.088233  0.233138  0.714342  1
  S  S93  1  0.911767  0.733138  0.785658  1
  S  S94  1  0.911767  0.766862  0.285658  1
  S  S95  1  0.088233  0.266862  0.214342  1
  O  O96  1  0.801556  0.895286  0.039045  1
  O  O97  1  0.198444  0.395286  0.460955  1
  O  O98  1  0.198444  0.104714  0.960955  1
  O  O99  1  0.801556  0.604714  0.539045  1
  O  O100  1  0.850029  0.154586  0.033323  1
  O  O101  1  0.149971  0.654586  0.466677  1
  O  O102  1  0.149971  0.845414  0.966677  1
  O  O103  1  0.850029  0.345414  0.533323  1
  O  O104  1  0.260353  0.597644  0.932184  1
  O  O105  1  0.739647  0.097644  0.567816  1
  O  O106  1  0.739647  0.402356  0.067816  1
  O  O107  1  0.260353  0.902356  0.432184  1
  O  O108  1  0.589372  0.540492  0.852757  1
  O  O109  1  0.410628  0.040492  0.647243  1
  O  O110  1  0.410628  0.459508  0.147243  1
  O  O111  1  0.589372  0.959508  0.352757  1
  O  O112  1  0.466253  0.573036  0.589623  1
  O  O113  1  0.533747  0.073036  0.910377  1
  O  O114  1  0.533747  0.426964  0.410377  1
  O  O115  1  0.466253  0.926964  0.089623  1
  O  O116  1  0.861015  0.484106  0.748725  1
  O  O117  1  0.138985  0.984106  0.751275  1
  O  O118  1  0.138985  0.515894  0.251275  1
  O  O119  1  0.861015  0.015894  0.248725  1
  O  O120  1  0.211440  0.765617  0.651612  1
  O  O121  1  0.788560  0.265617  0.848388  1
  O  O122  1  0.788560  0.234383  0.348388  1
  O  O123  1  0.211440  0.734383  0.151612  1
  O  O124  1  0.904787  0.887784  0.499089  1
  O  O125  1  0.095213  0.387784  0.000911  1
  O  O126  1  0.095213  0.112216  0.500911  1
  O  O127  1  0.904787  0.612216  0.999089  1
