# generated using pymatgen
data_SrLiAlF6
_symmetry_space_group_name_H-M   'P 1'
_cell_length_a   5.15717097
_cell_length_b   10.26708446
_cell_length_c   8.50670864
_cell_angle_alpha   90.00000000
_cell_angle_beta   91.06282478
_cell_angle_gamma   90.00000000
_symmetry_Int_Tables_number   1
_chemical_formula_structural   SrLiAlF6
_chemical_formula_sum   'Sr4 Li4 Al4 F24'
_cell_volume   450.34515874
_cell_formula_units_Z   4
loop_
 _symmetry_equiv_pos_site_id
 _symmetry_equiv_pos_as_xyz
  1  'x, y, z'
loop_
 _atom_site_type_symbol
 _atom_site_label
 _atom_site_symmetry_multiplicity
 _atom_site_fract_x
 _atom_site_fract_y
 _atom_site_fract_z
 _atom_site_occupancy
  Sr  Sr0  1  0.330399  0.314351  0.474640  1
  Sr  Sr1  1  0.330399  0.185649  0.974640  1
  Sr  Sr2  1  0.669601  0.814351  0.025360  1
  Sr  Sr3  1  0.669601  0.685649  0.525360  1
  Li  Li4  1  0.744600  0.068643  0.667823  1
  Li  Li5  1  0.744600  0.431357  0.167823  1
  Li  Li6  1  0.255400  0.568643  0.832177  1
  Li  Li7  1  0.255400  0.931357  0.332177  1
  Al  Al8  1  0.774378  0.097049  0.260796  1
  Al  Al9  1  0.225622  0.902951  0.739204  1
  Al  Al10  1  0.225622  0.597049  0.239204  1
  Al  Al11  1  0.774378  0.402951  0.760796  1
  F  F12  1  0.917544  0.845981  0.666901  1
  F  F13  1  0.524699  0.982527  0.823890  1
  F  F14  1  0.475301  0.482527  0.676110  1
  F  F15  1  0.105401  0.428992  0.223821  1
  F  F16  1  0.640886  0.101781  0.455073  1
  F  F17  1  0.359114  0.601781  0.044927  1
  F  F18  1  0.119659  0.617103  0.440541  1
  F  F19  1  0.605933  0.242489  0.732344  1
  F  F20  1  0.880341  0.382897  0.559459  1
  F  F21  1  0.359114  0.898219  0.544927  1
  F  F22  1  0.894599  0.928992  0.276179  1
  F  F23  1  0.605933  0.257511  0.232344  1
  F  F24  1  0.082456  0.154019  0.333099  1
  F  F25  1  0.082456  0.345981  0.833099  1
  F  F26  1  0.880341  0.117103  0.059459  1
  F  F27  1  0.394067  0.742489  0.767656  1
  F  F28  1  0.105401  0.071008  0.723821  1
  F  F29  1  0.894599  0.571008  0.776179  1
  F  F30  1  0.917544  0.654019  0.166901  1
  F  F31  1  0.524699  0.517473  0.323890  1
  F  F32  1  0.394067  0.757511  0.267656  1
  F  F33  1  0.119659  0.882897  0.940541  1
  F  F34  1  0.640886  0.398219  0.955073  1
  F  F35  1  0.475301  0.017473  0.176110  1
