# generated using pymatgen
data_NaCo3P3(HO6)2
_symmetry_space_group_name_H-M   'P 1'
_cell_length_a   8.55053524
_cell_length_b   8.55053524
_cell_length_c   6.61969587
_cell_angle_alpha   73.25460555
_cell_angle_beta   106.74539445
_cell_angle_gamma   88.94717970
_symmetry_Int_Tables_number   1
_chemical_formula_structural   NaCo3P3(HO6)2
_chemical_formula_sum   'Na2 Co6 P6 H4 O24'
_cell_volume   441.07966538
_cell_formula_units_Z   2
loop_
 _symmetry_equiv_pos_site_id
 _symmetry_equiv_pos_as_xyz
  1  'x, y, z'
loop_
 _atom_site_type_symbol
 _atom_site_label
 _atom_site_symmetry_multiplicity
 _atom_site_fract_x
 _atom_site_fract_y
 _atom_site_fract_z
 _atom_site_occupancy
  Na  Na0  1  0.956581  0.956581  0.250000  1
  Na  Na1  1  0.043419  0.043419  0.750000  1
  Co  Co2  1  0.723849  0.723849  0.750000  1
  Co  Co3  1  0.276151  0.276151  0.250000  1
  Co  Co4  1  0.049600  0.625987  0.625658  1
  Co  Co5  1  0.625987  0.049600  0.874342  1
  Co  Co6  1  0.950400  0.374013  0.374342  1
  Co  Co7  1  0.374013  0.950400  0.125658  1
  P  P8  1  0.317426  0.317426  0.750000  1
  P  P9  1  0.682574  0.682574  0.250000  1
  P  P10  1  0.893898  0.328140  0.889538  1
  P  P11  1  0.328140  0.893898  0.610462  1
  P  P12  1  0.106102  0.671860  0.110462  1
  P  P13  1  0.671860  0.106102  0.389538  1
  H  H14  1  0.624087  0.387821  0.810887  1
  H  H15  1  0.387821  0.624087  0.689113  1
  H  H16  1  0.375913  0.612179  0.189113  1
  H  H17  1  0.612179  0.375913  0.310887  1
  O  O18  1  0.792513  0.720884  0.460733  1
  O  O19  1  0.720884  0.792513  0.039267  1
  O  O20  1  0.207487  0.279116  0.539267  1
  O  O21  1  0.279116  0.207487  0.960733  1
  O  O22  1  0.284546  0.500976  0.731873  1
  O  O23  1  0.500976  0.284546  0.768127  1
  O  O24  1  0.715454  0.499024  0.268127  1
  O  O25  1  0.499024  0.715454  0.231873  1
  O  O26  1  0.981916  0.671698  0.887525  1
  O  O27  1  0.671698  0.981916  0.612475  1
  O  O28  1  0.018084  0.328302  0.112475  1
  O  O29  1  0.328302  0.018084  0.387525  1
  O  O30  1  0.448970  0.733129  0.655579  1
  O  O31  1  0.733129  0.448970  0.844421  1
  O  O32  1  0.551030  0.266871  0.344421  1
  O  O33  1  0.266871  0.551030  0.155579  1
  O  O34  1  0.964936  0.393031  0.696519  1
  O  O35  1  0.393031  0.964936  0.803481  1
  O  O36  1  0.035064  0.606969  0.303481  1
  O  O37  1  0.606969  0.035064  0.196519  1
  O  O38  1  0.153612  0.845668  0.595651  1
  O  O39  1  0.845668  0.153612  0.904349  1
  O  O40  1  0.846388  0.154332  0.404349  1
  O  O41  1  0.154332  0.846388  0.095651  1
