# generated using pymatgen
data_PClOF2
_symmetry_space_group_name_H-M   'P 1'
_cell_length_a   5.84918060
_cell_length_b   10.29540017
_cell_length_c   13.76407010
_cell_angle_alpha   90.00000000
_cell_angle_beta   90.00000000
_cell_angle_gamma   90.00000000
_symmetry_Int_Tables_number   1
_chemical_formula_structural   PClOF2
_chemical_formula_sum   'P8 Cl8 O8 F16'
_cell_volume   828.86755204
_cell_formula_units_Z   8
loop_
 _symmetry_equiv_pos_site_id
 _symmetry_equiv_pos_as_xyz
  1  'x, y, z'
loop_
 _atom_site_type_symbol
 _atom_site_label
 _atom_site_symmetry_multiplicity
 _atom_site_fract_x
 _atom_site_fract_y
 _atom_site_fract_z
 _atom_site_occupancy
  P  P0  1  0.750000  0.279045  0.571103  1
  P  P1  1  0.750000  0.220955  0.071103  1
  P  P2  1  0.250000  0.349417  0.255660  1
  P  P3  1  0.750000  0.650583  0.744340  1
  P  P4  1  0.750000  0.849417  0.244340  1
  P  P5  1  0.250000  0.720955  0.428897  1
  P  P6  1  0.250000  0.779045  0.928897  1
  P  P7  1  0.250000  0.150583  0.755660  1
  Cl  Cl8  1  0.250000  0.616466  0.005094  1
  Cl  Cl9  1  0.750000  0.668903  0.195840  1
  Cl  Cl10  1  0.750000  0.116466  0.494906  1
  Cl  Cl11  1  0.250000  0.331097  0.804160  1
  Cl  Cl12  1  0.750000  0.831097  0.695840  1
  Cl  Cl13  1  0.250000  0.883534  0.505094  1
  Cl  Cl14  1  0.250000  0.168903  0.304160  1
  Cl  Cl15  1  0.750000  0.383534  0.994906  1
  O  O16  1  0.750000  0.630008  0.849318  1
  O  O17  1  0.750000  0.230080  0.176940  1
  O  O18  1  0.250000  0.130008  0.650682  1
  O  O19  1  0.750000  0.869992  0.349318  1
  O  O20  1  0.250000  0.730080  0.323060  1
  O  O21  1  0.250000  0.769920  0.823060  1
  O  O22  1  0.750000  0.269920  0.676940  1
  O  O23  1  0.250000  0.369992  0.150682  1
  F  F24  1  0.045950  0.643006  0.473071  1
  F  F25  1  0.954050  0.143006  0.026929  1
  F  F26  1  0.046361  0.413129  0.311384  1
  F  F27  1  0.953639  0.913129  0.188616  1
  F  F28  1  0.545950  0.356994  0.526929  1
  F  F29  1  0.454050  0.643006  0.473071  1
  F  F30  1  0.454050  0.856994  0.973071  1
  F  F31  1  0.546361  0.586871  0.688616  1
  F  F32  1  0.546361  0.913129  0.188616  1
  F  F33  1  0.953639  0.586871  0.688616  1
  F  F34  1  0.046361  0.086871  0.811384  1
  F  F35  1  0.453639  0.413129  0.311384  1
  F  F36  1  0.045950  0.856994  0.973071  1
  F  F37  1  0.545950  0.143006  0.026929  1
  F  F38  1  0.954050  0.356994  0.526929  1
  F  F39  1  0.453639  0.086871  0.811384  1
