# generated using pymatgen
data_K9InSe7
_symmetry_space_group_name_H-M   'P 1'
_cell_length_a   11.42009268
_cell_length_b   8.29699820
_cell_length_c   25.32008803
_cell_angle_alpha   90.00000000
_cell_angle_beta   102.49654101
_cell_angle_gamma   90.00000000
_symmetry_Int_Tables_number   1
_chemical_formula_structural   K9InSe7
_chemical_formula_sum   'K36 In4 Se28'
_cell_volume   2342.30346308
_cell_formula_units_Z   4
loop_
 _symmetry_equiv_pos_site_id
 _symmetry_equiv_pos_as_xyz
  1  'x, y, z'
loop_
 _atom_site_type_symbol
 _atom_site_label
 _atom_site_symmetry_multiplicity
 _atom_site_fract_x
 _atom_site_fract_y
 _atom_site_fract_z
 _atom_site_occupancy
  K  K0  1  0.790864  0.075868  0.798588  1
  K  K1  1  0.790864  0.424132  0.298588  1
  K  K2  1  0.664503  0.458272  0.564650  1
  K  K3  1  0.383137  0.860336  0.548191  1
  K  K4  1  0.664503  0.041728  0.064650  1
  K  K5  1  0.143383  0.414297  0.542681  1
  K  K6  1  0.234779  0.430122  0.283904  1
  K  K7  1  0.264247  0.057102  0.409272  1
  K  K8  1  0.209136  0.575868  0.701412  1
  K  K9  1  0.143383  0.085703  0.042681  1
  K  K10  1  0.383137  0.639664  0.048191  1
  K  K11  1  0.925806  0.059313  0.421523  1
  K  K12  1  0.485966  0.924281  0.727681  1
  K  K13  1  0.856617  0.914297  0.957319  1
  K  K14  1  0.074194  0.559313  0.078477  1
  K  K15  1  0.956683  0.241051  0.665741  1
  K  K16  1  0.514034  0.424281  0.772319  1
  K  K17  1  0.335497  0.541728  0.435350  1
  K  K18  1  0.234779  0.069878  0.783904  1
  K  K19  1  0.735753  0.942898  0.590728  1
  K  K20  1  0.209136  0.924132  0.201412  1
  K  K21  1  0.956683  0.258949  0.165741  1
  K  K22  1  0.043317  0.741051  0.834259  1
  K  K23  1  0.616863  0.139664  0.451809  1
  K  K24  1  0.856617  0.585703  0.457319  1
  K  K25  1  0.485966  0.575719  0.227681  1
  K  K26  1  0.335497  0.958272  0.935350  1
  K  K27  1  0.043317  0.758949  0.334259  1
  K  K28  1  0.765221  0.569878  0.716096  1
  K  K29  1  0.616863  0.360336  0.951809  1
  K  K30  1  0.514034  0.075719  0.272319  1
  K  K31  1  0.765221  0.930122  0.216096  1
  K  K32  1  0.925806  0.440687  0.921523  1
  K  K33  1  0.264247  0.442898  0.909272  1
  K  K34  1  0.074194  0.940687  0.578477  1
  K  K35  1  0.735753  0.557102  0.090728  1
  In  In36  1  0.555454  0.695826  0.372328  1
  In  In37  1  0.555454  0.804174  0.872328  1
  In  In38  1  0.444546  0.304174  0.627672  1
  In  In39  1  0.444546  0.195826  0.127672  1
  Se  Se40  1  0.936722  0.630091  0.626122  1
  Se  Se41  1  0.936722  0.869909  0.126122  1
  Se  Se42  1  0.123208  0.766096  0.468643  1
  Se  Se43  1  0.063278  0.369909  0.373878  1
  Se  Se44  1  0.465686  0.616218  0.648406  1
  Se  Se45  1  0.264964  0.189574  0.665285  1
  Se  Se46  1  0.655298  0.193704  0.678673  1
  Se  Se47  1  0.590655  0.744921  0.976559  1
  Se  Se48  1  0.735036  0.689574  0.834715  1
  Se  Se49  1  0.026479  0.340186  0.803190  1
  Se  Se50  1  0.534314  0.116218  0.851594  1
  Se  Se51  1  0.344702  0.693704  0.821327  1
  Se  Se52  1  0.465686  0.883782  0.148406  1
  Se  Se53  1  0.409345  0.244921  0.523441  1
  Se  Se54  1  0.876792  0.233904  0.531357  1
  Se  Se55  1  0.344702  0.806296  0.321327  1
  Se  Se56  1  0.590655  0.755079  0.476559  1
  Se  Se57  1  0.735036  0.810426  0.334715  1
  Se  Se58  1  0.973521  0.659814  0.196810  1
  Se  Se59  1  0.409345  0.255079  0.023441  1
  Se  Se60  1  0.063278  0.130091  0.873878  1
  Se  Se61  1  0.876792  0.266096  0.031357  1
  Se  Se62  1  0.123208  0.733904  0.968643  1
  Se  Se63  1  0.026479  0.159814  0.303190  1
  Se  Se64  1  0.655298  0.306296  0.178673  1
  Se  Se65  1  0.973521  0.840186  0.696810  1
  Se  Se66  1  0.534314  0.383782  0.351594  1
  Se  Se67  1  0.264964  0.310426  0.165285  1
