# generated using pymatgen
data_Te2S(O2F3)2
_symmetry_space_group_name_H-M   'P 1'
_cell_length_a   9.06034247
_cell_length_b   9.08299302
_cell_length_c   10.14771772
_cell_angle_alpha   90.00000000
_cell_angle_beta   90.00000000
_cell_angle_gamma   90.00000000
_symmetry_Int_Tables_number   1
_chemical_formula_structural   Te2S(O2F3)2
_chemical_formula_sum   'Te8 S4 O16 F24'
_cell_volume   835.10670796
_cell_formula_units_Z   4
loop_
 _symmetry_equiv_pos_site_id
 _symmetry_equiv_pos_as_xyz
  1  'x, y, z'
loop_
 _atom_site_type_symbol
 _atom_site_label
 _atom_site_symmetry_multiplicity
 _atom_site_fract_x
 _atom_site_fract_y
 _atom_site_fract_z
 _atom_site_occupancy
  Te  Te0  1  0.043364  0.141818  0.045106  1
  Te  Te1  1  0.554088  0.834606  0.083688  1
  Te  Te2  1  0.445912  0.334606  0.416312  1
  Te  Te3  1  0.543364  0.358182  0.954894  1
  Te  Te4  1  0.945912  0.165394  0.583688  1
  Te  Te5  1  0.054088  0.665394  0.916312  1
  Te  Te6  1  0.956636  0.641818  0.454894  1
  Te  Te7  1  0.456636  0.858182  0.545106  1
  S  S8  1  0.831504  0.951410  0.292475  1
  S  S9  1  0.331504  0.548590  0.707525  1
  S  S10  1  0.168496  0.451410  0.207525  1
  S  S11  1  0.668496  0.048590  0.792475  1
  O  O12  1  0.550428  0.159597  0.826149  1
  O  O13  1  0.362523  0.488457  0.841904  1
  O  O14  1  0.137477  0.511543  0.341904  1
  O  O15  1  0.449572  0.659597  0.673851  1
  O  O16  1  0.683999  0.878563  0.286957  1
  O  O17  1  0.829129  0.070198  0.391942  1
  O  O18  1  0.670871  0.929802  0.891942  1
  O  O19  1  0.816001  0.121437  0.786957  1
  O  O20  1  0.170871  0.570198  0.108058  1
  O  O21  1  0.050428  0.340403  0.173851  1
  O  O22  1  0.637477  0.988457  0.658096  1
  O  O23  1  0.949572  0.840403  0.326149  1
  O  O24  1  0.862523  0.011543  0.158096  1
  O  O25  1  0.183999  0.621437  0.713043  1
  O  O26  1  0.316001  0.378563  0.213043  1
  O  O27  1  0.329129  0.429802  0.608058  1
  F  F28  1  0.500596  0.533460  0.392527  1
  F  F29  1  0.340766  0.939028  0.680353  1
  F  F30  1  0.892023  0.687895  0.034942  1
  F  F31  1  0.000596  0.966540  0.607473  1
  F  F32  1  0.107977  0.187895  0.465058  1
  F  F33  1  0.499404  0.033460  0.107473  1
  F  F34  1  0.574448  0.546060  0.048285  1
  F  F35  1  0.925552  0.453940  0.548285  1
  F  F36  1  0.999404  0.466540  0.892527  1
  F  F37  1  0.392023  0.812105  0.965058  1
  F  F38  1  0.724348  0.292120  0.032504  1
  F  F39  1  0.918171  0.719779  0.782604  1
  F  F40  1  0.840766  0.560972  0.319647  1
  F  F41  1  0.425552  0.046060  0.451715  1
  F  F42  1  0.607977  0.312105  0.534942  1
  F  F43  1  0.581829  0.280221  0.282604  1
  F  F44  1  0.418171  0.780221  0.217396  1
  F  F45  1  0.081829  0.219779  0.717396  1
  F  F46  1  0.224348  0.207880  0.967496  1
  F  F47  1  0.275652  0.792120  0.467496  1
  F  F48  1  0.659234  0.439028  0.819647  1
  F  F49  1  0.159234  0.060972  0.180353  1
  F  F50  1  0.074448  0.953940  0.951715  1
  F  F51  1  0.775652  0.707880  0.532504  1
