# generated using pymatgen
data_Li4Mn3Cl10
_symmetry_space_group_name_H-M   'P 1'
_cell_length_a   7.45668988
_cell_length_b   7.45668988
_cell_length_c   30.75064154
_cell_angle_alpha   83.21404613
_cell_angle_beta   96.78595387
_cell_angle_gamma   119.46748963
_symmetry_Int_Tables_number   1
_chemical_formula_structural   Li4Mn3Cl10
_chemical_formula_sum   'Li16 Mn12 Cl40'
_cell_volume   1474.61849609
_cell_formula_units_Z   4
loop_
 _symmetry_equiv_pos_site_id
 _symmetry_equiv_pos_as_xyz
  1  'x, y, z'
loop_
 _atom_site_type_symbol
 _atom_site_label
 _atom_site_symmetry_multiplicity
 _atom_site_fract_x
 _atom_site_fract_y
 _atom_site_fract_z
 _atom_site_occupancy
  Li  Li0  1  0.306665  0.693335  0.900922  1
  Li  Li1  1  0.031452  0.968548  0.572581  1
  Li  Li2  1  0.901497  0.098503  0.700157  1
  Li  Li3  1  0.767280  0.232720  0.824791  1
  Li  Li4  1  0.631612  0.368388  0.372897  1
  Li  Li5  1  0.699589  0.300411  0.600072  1
  Li  Li6  1  0.499944  0.500056  0.500052  1
  Li  Li7  1  0.368967  0.631033  0.627617  1
  Li  Li8  1  0.232205  0.767795  0.174343  1
  Li  Li9  1  0.300186  0.699814  0.400099  1
  Li  Li10  1  0.100136  0.899864  0.300230  1
  Li  Li11  1  0.968373  0.031627  0.427171  1
  Li  Li12  1  0.900121  0.099879  0.201195  1
  Li  Li13  1  0.704926  0.295074  0.100753  1
  Li  Li14  1  0.568292  0.431708  0.226697  1
  Li  Li15  1  0.166311  0.833689  0.023494  1
  Mn  Mn16  1  0.498962  0.501038  0.997084  1
  Mn  Mn17  1  0.902810  0.601280  0.699842  1
  Mn  Mn18  1  0.099352  0.900648  0.796485  1
  Mn  Mn19  1  0.788945  0.693668  0.900716  1
  Mn  Mn20  1  0.306332  0.211055  0.900716  1
  Mn  Mn21  1  0.499850  0.000044  0.499951  1
  Mn  Mn22  1  0.999956  0.500150  0.499951  1
  Mn  Mn23  1  0.398720  0.097190  0.699842  1
  Mn  Mn24  1  0.099850  0.399882  0.300139  1
  Mn  Mn25  1  0.600118  0.900150  0.300139  1
  Mn  Mn26  1  0.703916  0.809329  0.101021  1
  Mn  Mn27  1  0.190671  0.296084  0.101021  1
  Cl  Cl28  1  0.644872  0.355128  0.948924  1
  Cl  Cl29  1  0.173419  0.356075  0.949256  1
  Cl  Cl30  1  0.456812  0.543188  0.855031  1
  Cl  Cl31  1  0.643925  0.826581  0.949256  1
  Cl  Cl32  1  0.243091  0.756909  0.747704  1
  Cl  Cl33  1  0.960638  0.575621  0.851037  1
  Cl  Cl34  1  0.053437  0.946563  0.652462  1
  Cl  Cl35  1  0.777851  0.755643  0.748045  1
  Cl  Cl36  1  0.424379  0.039362  0.851037  1
  Cl  Cl37  1  0.145471  0.854529  0.944623  1
  Cl  Cl38  1  0.244357  0.222149  0.748045  1
  Cl  Cl39  1  0.957429  0.042571  0.851223  1
  Cl  Cl40  1  0.842776  0.157224  0.547777  1
  Cl  Cl41  1  0.556657  0.971360  0.652665  1
  Cl  Cl42  1  0.371611  0.156929  0.547451  1
  Cl  Cl43  1  0.747707  0.252293  0.746071  1
  Cl  Cl44  1  0.653503  0.346497  0.453202  1
  Cl  Cl45  1  0.028640  0.443343  0.652665  1
  Cl  Cl46  1  0.843071  0.628389  0.547451  1
  Cl  Cl47  1  0.557343  0.442657  0.652784  1
  Cl  Cl48  1  0.443110  0.556890  0.347770  1
  Cl  Cl49  1  0.156598  0.371738  0.452403  1
  Cl  Cl50  1  0.346190  0.653810  0.546800  1
  Cl  Cl51  1  0.253418  0.746582  0.253563  1
  Cl  Cl52  1  0.971069  0.556901  0.347485  1
  Cl  Cl53  1  0.628262  0.843402  0.452403  1
  Cl  Cl54  1  0.443099  0.028931  0.347485  1
  Cl  Cl55  1  0.156954  0.843046  0.452013  1
  Cl  Cl56  1  0.044967  0.955033  0.148697  1
  Cl  Cl57  1  0.756545  0.771351  0.252190  1
  Cl  Cl58  1  0.228649  0.243455  0.252190  1
  Cl  Cl59  1  0.946432  0.053568  0.346652  1
  Cl  Cl60  1  0.856843  0.143157  0.056003  1
  Cl  Cl61  1  0.568215  0.957589  0.148429  1
  Cl  Cl62  1  0.042411  0.431785  0.148429  1
  Cl  Cl63  1  0.756701  0.243299  0.251943  1
  Cl  Cl64  1  0.360030  0.174615  0.051145  1
  Cl  Cl65  1  0.825385  0.639970  0.051145  1
  Cl  Cl66  1  0.544243  0.455757  0.145453  1
  Cl  Cl67  1  0.356853  0.643147  0.051115  1
