# generated using pymatgen
data_Er2CdSe4
_symmetry_space_group_name_H-M   'P 1'
_cell_length_a   8.31615299
_cell_length_b   8.31615299
_cell_length_c   40.66348909
_cell_angle_alpha   90.00000000
_cell_angle_beta   90.00000000
_cell_angle_gamma   120.00000000
_symmetry_Int_Tables_number   1
_chemical_formula_structural   Er2CdSe4
_chemical_formula_sum   'Er24 Cd12 Se48'
_cell_volume   2435.45557859
_cell_formula_units_Z   12
loop_
 _symmetry_equiv_pos_site_id
 _symmetry_equiv_pos_as_xyz
  1  'x, y, z'
loop_
 _atom_site_type_symbol
 _atom_site_label
 _atom_site_symmetry_multiplicity
 _atom_site_fract_x
 _atom_site_fract_y
 _atom_site_fract_z
 _atom_site_occupancy
  Er  Er0  1  0.333333  0.666667  0.999369  1
  Er  Er1  1  0.163815  0.327631  0.103822  1
  Er  Er2  1  0.672369  0.836185  0.103822  1
  Er  Er3  1  0.163815  0.836185  0.103822  1
  Er  Er4  1  0.497986  0.995971  0.270788  1
  Er  Er5  1  0.004029  0.502014  0.270788  1
  Er  Er6  1  0.666667  0.333333  0.165589  1
  Er  Er7  1  0.833337  0.666675  0.437467  1
  Er  Er8  1  0.497986  0.502014  0.270788  1
  Er  Er9  1  0.333325  0.166663  0.437467  1
  Er  Er10  1  0.666667  0.333333  0.353937  1
  Er  Er11  1  0.833337  0.166663  0.437467  1
  Er  Er12  1  0.166648  0.333295  0.604141  1
  Er  Er13  1  0.000000  0.000000  0.520795  1
  Er  Er14  1  0.666705  0.833352  0.604141  1
  Er  Er15  1  0.166648  0.833352  0.604141  1
  Er  Er16  1  0.499998  0.999995  0.770768  1
  Er  Er17  1  0.333333  0.666667  0.687443  1
  Er  Er18  1  0.000005  0.500002  0.770768  1
  Er  Er19  1  0.499998  0.500002  0.770768  1
  Er  Er20  1  0.832628  0.665257  0.937221  1
  Er  Er21  1  0.666667  0.333333  0.853881  1
  Er  Er22  1  0.334743  0.167372  0.937221  1
  Er  Er23  1  0.832628  0.167372  0.937221  1
  Cd  Cd24  1  0.666667  0.333333  0.042722  1
  Cd  Cd25  1  0.000000  0.000000  0.209762  1
  Cd  Cd26  1  0.000000  0.000000  0.022625  1
  Cd  Cd27  1  0.333333  0.666667  0.375330  1
  Cd  Cd28  1  0.333333  0.666667  0.189049  1
  Cd  Cd29  1  0.333333  0.666667  0.499932  1
  Cd  Cd30  1  0.666667  0.333333  0.541689  1
  Cd  Cd31  1  0.000000  0.000000  0.333088  1
  Cd  Cd32  1  0.000000  0.000000  0.833236  1
  Cd  Cd33  1  0.000000  0.000000  0.708311  1
  Cd  Cd34  1  0.333333  0.666667  0.874759  1
  Cd  Cd35  1  0.666667  0.333333  0.666556  1
  Se  Se36  1  0.842668  0.157332  0.063859  1
  Se  Se37  1  0.314664  0.157332  0.063859  1
  Se  Se38  1  0.000000  0.000000  0.142479  1
  Se  Se39  1  0.842668  0.685336  0.063859  1
  Se  Se40  1  0.489141  0.978281  0.144060  1
  Se  Se41  1  0.176223  0.823777  0.230780  1
  Se  Se42  1  0.021719  0.510859  0.144060  1
  Se  Se43  1  0.333333  0.666667  0.066264  1
  Se  Se44  1  0.647554  0.823777  0.230780  1
  Se  Se45  1  0.333333  0.666667  0.309100  1
  Se  Se46  1  0.489141  0.510859  0.144060  1
  Se  Se47  1  0.176223  0.352446  0.230780  1
  Se  Se48  1  0.510162  0.489838  0.397159  1
  Se  Se49  1  0.822907  0.645815  0.311170  1
  Se  Se50  1  0.354185  0.177093  0.311170  1
  Se  Se51  1  0.666667  0.333333  0.232832  1
  Se  Se52  1  0.979677  0.489838  0.397159  1
  Se  Se53  1  0.666667  0.333333  0.475383  1
  Se  Se54  1  0.822907  0.177093  0.311170  1
  Se  Se55  1  0.510162  0.020323  0.397159  1
  Se  Se56  1  0.156497  0.312994  0.477947  1
  Se  Se57  1  0.843453  0.156547  0.563808  1
  Se  Se58  1  0.687006  0.843503  0.477947  1
  Se  Se59  1  0.000000  0.000000  0.399598  1
  Se  Se60  1  0.313094  0.156547  0.563808  1
  Se  Se61  1  0.000000  0.000000  0.642058  1
  Se  Se62  1  0.156497  0.843503  0.477947  1
  Se  Se63  1  0.843453  0.686906  0.563808  1
  Se  Se64  1  0.489832  0.979664  0.644614  1
  Se  Se65  1  0.176791  0.823209  0.730494  1
  Se  Se66  1  0.333333  0.666667  0.566325  1
  Se  Se67  1  0.646419  0.823209  0.730494  1
  Se  Se68  1  0.020336  0.510168  0.644614  1
  Se  Se69  1  0.333333  0.666667  0.808685  1
  Se  Se70  1  0.489832  0.510168  0.644614  1
  Se  Se71  1  0.176791  0.353581  0.730494  1
  Se  Se72  1  0.823195  0.646391  0.811273  1
  Se  Se73  1  0.510052  0.489948  0.896939  1
  Se  Se74  1  0.666667  0.333333  0.732998  1
  Se  Se75  1  0.353609  0.176805  0.811273  1
  Se  Se76  1  0.979896  0.489948  0.896939  1
  Se  Se77  1  0.666667  0.333333  0.975395  1
  Se  Se78  1  0.823195  0.176805  0.811273  1
  Se  Se79  1  0.510052  0.020104  0.896939  1
  Se  Se80  1  0.156375  0.312749  0.977416  1
  Se  Se81  1  0.687251  0.843625  0.977416  1
  Se  Se82  1  0.000000  0.000000  0.899628  1
  Se  Se83  1  0.156375  0.843625  0.977416  1
