# generated using pymatgen
data_CrHg3(PbO4)2
_symmetry_space_group_name_H-M   'P 1'
_cell_length_a   6.57620630
_cell_length_b   22.39420622
_cell_length_c   7.19657052
_cell_angle_alpha   90.00000000
_cell_angle_beta   109.51668320
_cell_angle_gamma   90.00000000
_symmetry_Int_Tables_number   1
_chemical_formula_structural   CrHg3(PbO4)2
_chemical_formula_sum   'Cr4 Hg12 Pb8 O32'
_cell_volume   998.93777828
_cell_formula_units_Z   4
loop_
 _symmetry_equiv_pos_site_id
 _symmetry_equiv_pos_as_xyz
  1  'x, y, z'
loop_
 _atom_site_type_symbol
 _atom_site_label
 _atom_site_symmetry_multiplicity
 _atom_site_fract_x
 _atom_site_fract_y
 _atom_site_fract_z
 _atom_site_occupancy
  Cr  Cr0  1  0.414764  0.388596  0.135401  1
  Cr  Cr1  1  0.585236  0.888596  0.364599  1
  Cr  Cr2  1  0.414764  0.111404  0.635401  1
  Cr  Cr3  1  0.585236  0.611404  0.864599  1
  Hg  Hg4  1  0.495069  0.055953  0.174844  1
  Hg  Hg5  1  0.640642  0.717902  0.399290  1
  Hg  Hg6  1  0.504931  0.944047  0.825156  1
  Hg  Hg7  1  0.359358  0.217902  0.100710  1
  Hg  Hg8  1  0.073750  0.861914  0.871550  1
  Hg  Hg9  1  0.073750  0.638086  0.371550  1
  Hg  Hg10  1  0.359358  0.282098  0.600710  1
  Hg  Hg11  1  0.640642  0.782098  0.899290  1
  Hg  Hg12  1  0.926250  0.138086  0.128450  1
  Hg  Hg13  1  0.504931  0.555953  0.325156  1
  Hg  Hg14  1  0.926250  0.361914  0.628450  1
  Hg  Hg15  1  0.495069  0.444047  0.674844  1
  Pb  Pb16  1  0.028515  0.521749  0.759364  1
  Pb  Pb17  1  0.166463  0.798568  0.427471  1
  Pb  Pb18  1  0.028515  0.978251  0.259364  1
  Pb  Pb19  1  0.971485  0.021749  0.740636  1
  Pb  Pb20  1  0.833537  0.298568  0.072529  1
  Pb  Pb21  1  0.833537  0.201432  0.572529  1
  Pb  Pb22  1  0.971485  0.478251  0.240636  1
  Pb  Pb23  1  0.166463  0.701432  0.927471  1
  O  O24  1  0.316400  0.456440  0.059412  1
  O  O25  1  0.733474  0.642409  0.743415  1
  O  O26  1  0.316400  0.043560  0.559412  1
  O  O27  1  0.172137  0.041724  0.078903  1
  O  O28  1  0.683600  0.956440  0.440588  1
  O  O29  1  0.266526  0.357591  0.256585  1
  O  O30  1  0.172137  0.458276  0.578903  1
  O  O31  1  0.326011  0.894618  0.219879  1
  O  O32  1  0.733474  0.857591  0.243415  1
  O  O33  1  0.683600  0.543560  0.940588  1
  O  O34  1  0.587544  0.845107  0.555846  1
  O  O35  1  0.971048  0.785885  0.990698  1
  O  O36  1  0.673989  0.105382  0.780121  1
  O  O37  1  0.685654  0.224293  0.208311  1
  O  O38  1  0.266526  0.142409  0.756585  1
  O  O39  1  0.412456  0.345107  0.944154  1
  O  O40  1  0.412456  0.154893  0.444154  1
  O  O41  1  0.971048  0.714115  0.490698  1
  O  O42  1  0.314346  0.775707  0.791689  1
  O  O43  1  0.326011  0.605382  0.719879  1
  O  O44  1  0.823208  0.067490  0.268288  1
  O  O45  1  0.176792  0.567490  0.231712  1
  O  O46  1  0.823208  0.432510  0.768288  1
  O  O47  1  0.028952  0.285885  0.509302  1
  O  O48  1  0.176792  0.932510  0.731712  1
  O  O49  1  0.827863  0.958276  0.921097  1
  O  O50  1  0.587544  0.654893  0.055846  1
  O  O51  1  0.314346  0.724293  0.291689  1
  O  O52  1  0.028952  0.214115  0.009302  1
  O  O53  1  0.827863  0.541724  0.421097  1
  O  O54  1  0.673989  0.394618  0.280121  1
  O  O55  1  0.685654  0.275707  0.708311  1
