# generated using pymatgen
data_Rb3MnO3
_symmetry_space_group_name_H-M   'P 1'
_cell_length_a   7.04484436
_cell_length_b   12.06770965
_cell_length_c   7.17349120
_cell_angle_alpha   90.00000000
_cell_angle_beta   98.27023992
_cell_angle_gamma   90.00000000
_symmetry_Int_Tables_number   1
_chemical_formula_structural   Rb3MnO3
_chemical_formula_sum   'Rb12 Mn4 O12'
_cell_volume   603.51322411
_cell_formula_units_Z   4
loop_
 _symmetry_equiv_pos_site_id
 _symmetry_equiv_pos_as_xyz
  1  'x, y, z'
loop_
 _atom_site_type_symbol
 _atom_site_label
 _atom_site_symmetry_multiplicity
 _atom_site_fract_x
 _atom_site_fract_y
 _atom_site_fract_z
 _atom_site_occupancy
  Rb  Rb0  1  0.492878  0.272308  0.926392  1
  Rb  Rb1  1  0.507122  0.727692  0.073608  1
  Rb  Rb2  1  0.968810  0.710073  0.493725  1
  Rb  Rb3  1  0.968810  0.789927  0.993725  1
  Rb  Rb4  1  0.031190  0.289927  0.506275  1
  Rb  Rb5  1  0.157903  0.989768  0.358131  1
  Rb  Rb6  1  0.157903  0.510232  0.858131  1
  Rb  Rb7  1  0.842097  0.489768  0.141869  1
  Rb  Rb8  1  0.031190  0.210073  0.006275  1
  Rb  Rb9  1  0.842097  0.010232  0.641869  1
  Rb  Rb10  1  0.492878  0.227692  0.426392  1
  Rb  Rb11  1  0.507122  0.772308  0.573608  1
  Mn  Mn12  1  0.342072  0.996348  0.843425  1
  Mn  Mn13  1  0.657928  0.003652  0.156575  1
  Mn  Mn14  1  0.657928  0.496348  0.656575  1
  Mn  Mn15  1  0.342072  0.503652  0.343425  1
  O  O16  1  0.227066  0.383396  0.198978  1
  O  O17  1  0.601554  0.929236  0.907005  1
  O  O18  1  0.200100  0.624995  0.226801  1
  O  O19  1  0.799900  0.375005  0.773199  1
  O  O20  1  0.799900  0.124995  0.273199  1
  O  O21  1  0.398446  0.429236  0.592995  1
  O  O22  1  0.601554  0.570764  0.407005  1
  O  O23  1  0.772934  0.883396  0.301022  1
  O  O24  1  0.772934  0.616604  0.801022  1
  O  O25  1  0.227066  0.116604  0.698978  1
  O  O26  1  0.200100  0.875005  0.726801  1
  O  O27  1  0.398446  0.070764  0.092995  1
