# generated using pymatgen
data_Na4Si3(SnO6)2
_symmetry_space_group_name_H-M   'P 1'
_cell_length_a   9.10055837
_cell_length_b   9.10055837
_cell_length_c   9.10055837
_cell_angle_alpha   60.44764813
_cell_angle_beta   60.44764813
_cell_angle_gamma   60.44764813
_symmetry_Int_Tables_number   1
_chemical_formula_structural   Na4Si3(SnO6)2
_chemical_formula_sum   'Na8 Si6 Sn4 O24'
_cell_volume   538.34687805
_cell_formula_units_Z   2
loop_
 _symmetry_equiv_pos_site_id
 _symmetry_equiv_pos_as_xyz
  1  'x, y, z'
loop_
 _atom_site_type_symbol
 _atom_site_label
 _atom_site_symmetry_multiplicity
 _atom_site_fract_x
 _atom_site_fract_y
 _atom_site_fract_z
 _atom_site_occupancy
  Na  Na0  1  0.000000  0.000000  0.000000  1
  Na  Na1  1  0.883176  0.616824  0.250000  1
  Na  Na2  1  0.250000  0.883176  0.616824  1
  Na  Na3  1  0.616824  0.250000  0.883176  1
  Na  Na4  1  0.383176  0.750000  0.116824  1
  Na  Na5  1  0.500000  0.500000  0.500000  1
  Na  Na6  1  0.750000  0.116824  0.383176  1
  Na  Na7  1  0.116824  0.383176  0.750000  1
  Si  Si8  1  0.955691  0.250000  0.544309  1
  Si  Si9  1  0.455691  0.044309  0.750000  1
  Si  Si10  1  0.044309  0.750000  0.455691  1
  Si  Si11  1  0.250000  0.544309  0.955691  1
  Si  Si12  1  0.750000  0.455691  0.044309  1
  Si  Si13  1  0.544309  0.955691  0.250000  1
  Sn  Sn14  1  0.353365  0.353365  0.353365  1
  Sn  Sn15  1  0.853365  0.853365  0.853365  1
  Sn  Sn16  1  0.146635  0.146635  0.146635  1
  Sn  Sn17  1  0.646635  0.646635  0.646635  1
  O  O18  1  0.480060  0.869793  0.719157  1
  O  O19  1  0.064288  0.922061  0.269748  1
  O  O20  1  0.730252  0.935712  0.077939  1
  O  O21  1  0.780843  0.630207  0.019940  1
  O  O22  1  0.980060  0.219157  0.369793  1
  O  O23  1  0.369793  0.980060  0.219157  1
  O  O24  1  0.019940  0.780843  0.630207  1
  O  O25  1  0.630207  0.019940  0.780843  1
  O  O26  1  0.435712  0.230252  0.577939  1
  O  O27  1  0.230252  0.577939  0.435712  1
  O  O28  1  0.269748  0.064288  0.922061  1
  O  O29  1  0.519940  0.130207  0.280843  1
  O  O30  1  0.422061  0.564288  0.769748  1
  O  O31  1  0.922061  0.269748  0.064288  1
  O  O32  1  0.564288  0.769748  0.422061  1
  O  O33  1  0.869793  0.719157  0.480060  1
  O  O34  1  0.719157  0.480060  0.869793  1
  O  O35  1  0.935712  0.077939  0.730252  1
  O  O36  1  0.769748  0.422061  0.564288  1
  O  O37  1  0.577939  0.435712  0.230252  1
  O  O38  1  0.077939  0.730252  0.935712  1
  O  O39  1  0.280843  0.519940  0.130207  1
  O  O40  1  0.130207  0.280843  0.519940  1
  O  O41  1  0.219157  0.369793  0.980060  1
