# generated using pymatgen
data_CsPH3O4F
_symmetry_space_group_name_H-M   'P 1'
_cell_length_a   7.97026377
_cell_length_b   9.59874681
_cell_length_c   15.12581096
_cell_angle_alpha   90.00000000
_cell_angle_beta   90.00000000
_cell_angle_gamma   90.00000000
_symmetry_Int_Tables_number   1
_chemical_formula_structural   CsPH3O4F
_chemical_formula_sum   'Cs8 P8 H24 O32 F8'
_cell_volume   1157.19326917
_cell_formula_units_Z   8
loop_
 _symmetry_equiv_pos_site_id
 _symmetry_equiv_pos_as_xyz
  1  'x, y, z'
loop_
 _atom_site_type_symbol
 _atom_site_label
 _atom_site_symmetry_multiplicity
 _atom_site_fract_x
 _atom_site_fract_y
 _atom_site_fract_z
 _atom_site_occupancy
  Cs  Cs0  1  0.704153  0.570090  0.335160  1
  Cs  Cs1  1  0.795847  0.429910  0.835160  1
  Cs  Cs2  1  0.204153  0.570090  0.164840  1
  Cs  Cs3  1  0.704153  0.929910  0.835160  1
  Cs  Cs4  1  0.295847  0.070090  0.164840  1
  Cs  Cs5  1  0.795847  0.070090  0.335160  1
  Cs  Cs6  1  0.295847  0.429910  0.664840  1
  Cs  Cs7  1  0.204153  0.929910  0.664840  1
  P  P8  1  0.809320  0.201805  0.061231  1
  P  P9  1  0.309320  0.201805  0.438769  1
  P  P10  1  0.190680  0.798195  0.938769  1
  P  P11  1  0.809320  0.298195  0.561231  1
  P  P12  1  0.190680  0.701805  0.438769  1
  P  P13  1  0.690680  0.701805  0.061231  1
  P  P14  1  0.309320  0.298195  0.938769  1
  P  P15  1  0.690680  0.798195  0.561231  1
  H  H16  1  0.722716  0.516458  0.573036  1
  H  H17  1  0.554444  0.798703  0.197577  1
  H  H18  1  0.777284  0.016458  0.573036  1
  H  H19  1  0.722716  0.983542  0.073036  1
  H  H20  1  0.445556  0.298703  0.302423  1
  H  H21  1  0.554444  0.701297  0.697577  1
  H  H22  1  0.017775  0.337061  0.463623  1
  H  H23  1  0.445556  0.201297  0.802423  1
  H  H24  1  0.277284  0.016458  0.926964  1
  H  H25  1  0.054444  0.798703  0.302423  1
  H  H26  1  0.945556  0.201297  0.697577  1
  H  H27  1  0.017775  0.162939  0.963623  1
  H  H28  1  0.222716  0.516458  0.926964  1
  H  H29  1  0.945556  0.298703  0.197577  1
  H  H30  1  0.982225  0.837061  0.036377  1
  H  H31  1  0.777284  0.483542  0.073036  1
  H  H32  1  0.222716  0.983542  0.426964  1
  H  H33  1  0.982225  0.662939  0.536377  1
  H  H34  1  0.482225  0.837061  0.463623  1
  H  H35  1  0.054444  0.701297  0.802423  1
  H  H36  1  0.482225  0.662939  0.963623  1
  H  H37  1  0.517775  0.162939  0.536377  1
  H  H38  1  0.277284  0.483542  0.426964  1
  H  H39  1  0.517775  0.337061  0.036377  1
  O  O40  1  0.322556  0.917286  0.917142  1
  O  O41  1  0.322556  0.582714  0.417142  1
  O  O42  1  0.888933  0.342773  0.469500  1
  O  O43  1  0.052391  0.789817  0.868867  1
  O  O44  1  0.208007  0.163818  0.949168  1
  O  O45  1  0.552391  0.789817  0.631133  1
  O  O46  1  0.708007  0.163818  0.550832  1
  O  O47  1  0.208007  0.336182  0.449168  1
  O  O48  1  0.177444  0.417286  0.917142  1
  O  O49  1  0.111067  0.842773  0.030500  1
  O  O50  1  0.822556  0.582714  0.082858  1
  O  O51  1  0.677444  0.082714  0.082858  1
  O  O52  1  0.677444  0.417286  0.582858  1
  O  O53  1  0.888933  0.157227  0.969500  1
  O  O54  1  0.791993  0.663818  0.550832  1
  O  O55  1  0.447609  0.210183  0.368867  1
  O  O56  1  0.611067  0.657227  0.969500  1
  O  O57  1  0.291993  0.836182  0.449168  1
  O  O58  1  0.111067  0.657227  0.530500  1
  O  O59  1  0.947609  0.210183  0.131133  1
  O  O60  1  0.177444  0.082714  0.417142  1
  O  O61  1  0.052391  0.710183  0.368867  1
  O  O62  1  0.611067  0.842773  0.469500  1
  O  O63  1  0.947609  0.289817  0.631133  1
  O  O64  1  0.552391  0.710183  0.131133  1
  O  O65  1  0.388933  0.157227  0.530500  1
  O  O66  1  0.447609  0.289817  0.868867  1
  O  O67  1  0.291993  0.663818  0.949168  1
  O  O68  1  0.791993  0.836182  0.050832  1
  O  O69  1  0.822556  0.917286  0.582858  1
  O  O70  1  0.388933  0.342773  0.030500  1
  O  O71  1  0.708007  0.336182  0.050832  1
  F  F72  1  0.046574  0.635307  0.746367  1
  F  F73  1  0.546574  0.864693  0.253633  1
  F  F74  1  0.953426  0.135307  0.753633  1
  F  F75  1  0.453426  0.364693  0.246367  1
  F  F76  1  0.546574  0.635307  0.753633  1
  F  F77  1  0.953426  0.364693  0.253633  1
  F  F78  1  0.453426  0.135307  0.746367  1
  F  F79  1  0.046574  0.864693  0.246367  1
