# generated using pymatgen
data_Fe2BO4
_symmetry_space_group_name_H-M   'P 1'
_cell_length_a   6.46005741
_cell_length_b   9.53457071
_cell_length_c   9.39016370
_cell_angle_alpha   90.00000000
_cell_angle_beta   90.28312959
_cell_angle_gamma   90.00000000
_symmetry_Int_Tables_number   1
_chemical_formula_structural   Fe2BO4
_chemical_formula_sum   'Fe16 B8 O32'
_cell_volume   578.36949982
_cell_formula_units_Z   8
loop_
 _symmetry_equiv_pos_site_id
 _symmetry_equiv_pos_as_xyz
  1  'x, y, z'
loop_
 _atom_site_type_symbol
 _atom_site_label
 _atom_site_symmetry_multiplicity
 _atom_site_fract_x
 _atom_site_fract_y
 _atom_site_fract_z
 _atom_site_occupancy
  Fe  Fe0  1  0.666431  0.553163  0.491287  1
  Fe  Fe1  1  0.666431  0.446837  0.991287  1
  Fe  Fe2  1  0.416043  0.315821  0.269423  1
  Fe  Fe3  1  0.416043  0.684179  0.769423  1
  Fe  Fe4  1  0.167885  0.183920  0.505045  1
  Fe  Fe5  1  0.167885  0.816080  0.005045  1
  Fe  Fe6  1  0.915361  0.055323  0.786045  1
  Fe  Fe7  1  0.915361  0.944677  0.286045  1
  Fe  Fe8  1  0.165738  0.439419  0.994042  1
  Fe  Fe9  1  0.165738  0.560581  0.494042  1
  Fe  Fe10  1  0.913575  0.319395  0.275532  1
  Fe  Fe11  1  0.913575  0.680605  0.775532  1
  Fe  Fe12  1  0.662641  0.180428  0.510350  1
  Fe  Fe13  1  0.662641  0.819572  0.010350  1
  Fe  Fe14  1  0.414874  0.058792  0.788088  1
  Fe  Fe15  1  0.414874  0.941208  0.288088  1
  B  B16  1  0.148919  0.874049  0.554821  1
  B  B17  1  0.148919  0.125951  0.054821  1
  B  B18  1  0.683663  0.872344  0.555725  1
  B  B19  1  0.683663  0.127656  0.055725  1
  B  B20  1  0.908609  0.626910  0.226858  1
  B  B21  1  0.908609  0.373090  0.726858  1
  B  B22  1  0.421475  0.625974  0.223272  1
  B  B23  1  0.421475  0.374026  0.723272  1
  O  O24  1  0.902922  0.501761  0.148330  1
  O  O25  1  0.902922  0.498239  0.648330  1
  O  O26  1  0.431810  0.619225  0.369599  1
  O  O27  1  0.431810  0.380775  0.869599  1
  O  O28  1  0.678852  0.371683  0.398955  1
  O  O29  1  0.678852  0.628317  0.898955  1
  O  O30  1  0.150872  0.254731  0.124165  1
  O  O31  1  0.150872  0.745269  0.624165  1
  O  O32  1  0.400136  0.243586  0.657424  1
  O  O33  1  0.400136  0.756414  0.157424  1
  O  O34  1  0.927066  0.133072  0.375613  1
  O  O35  1  0.927066  0.866928  0.875613  1
  O  O36  1  0.147635  0.120594  0.908714  1
  O  O37  1  0.147635  0.879406  0.408714  1
  O  O38  1  0.685684  0.993058  0.640045  1
  O  O39  1  0.685684  0.006942  0.140045  1
  O  O40  1  0.432285  0.502655  0.142042  1
  O  O41  1  0.432285  0.497345  0.642042  1
  O  O42  1  0.899697  0.620602  0.372163  1
  O  O43  1  0.899697  0.379398  0.872163  1
  O  O44  1  0.151311  0.366159  0.403179  1
  O  O45  1  0.151311  0.633841  0.903179  1
  O  O46  1  0.681688  0.259964  0.119739  1
  O  O47  1  0.681688  0.740036  0.619739  1
  O  O48  1  0.922840  0.242706  0.658748  1
  O  O49  1  0.922840  0.757294  0.158748  1
  O  O50  1  0.404373  0.131280  0.386110  1
  O  O51  1  0.404373  0.868720  0.886110  1
  O  O52  1  0.683428  0.116077  0.909599  1
  O  O53  1  0.683428  0.883923  0.409599  1
  O  O54  1  0.147067  0.001062  0.631717  1
  O  O55  1  0.147067  0.998938  0.131717  1
