# generated using pymatgen
data_Tb(IO3)3
_symmetry_space_group_name_H-M   'P 1'
_cell_length_a   8.82671232
_cell_length_b   6.11634671
_cell_length_c   16.77722862
_cell_angle_alpha   90.00000000
_cell_angle_beta   114.75023728
_cell_angle_gamma   90.00000000
_symmetry_Int_Tables_number   1
_chemical_formula_structural   Tb(IO3)3
_chemical_formula_sum   'Tb4 I12 O36'
_cell_volume   822.55469300
_cell_formula_units_Z   4
loop_
 _symmetry_equiv_pos_site_id
 _symmetry_equiv_pos_as_xyz
  1  'x, y, z'
loop_
 _atom_site_type_symbol
 _atom_site_label
 _atom_site_symmetry_multiplicity
 _atom_site_fract_x
 _atom_site_fract_y
 _atom_site_fract_z
 _atom_site_occupancy
  Tb  Tb0  1  0.853419  0.785829  0.896287  1
  Tb  Tb1  1  0.853419  0.714171  0.396287  1
  Tb  Tb2  1  0.146581  0.285829  0.603713  1
  Tb  Tb3  1  0.146581  0.214171  0.103713  1
  I  I4  1  0.355404  0.643460  0.520217  1
  I  I5  1  0.072176  0.187182  0.357209  1
  I  I6  1  0.927824  0.812818  0.642791  1
  I  I7  1  0.927824  0.687182  0.142791  1
  I  I8  1  0.418357  0.906286  0.302194  1
  I  I9  1  0.581643  0.093714  0.697806  1
  I  I10  1  0.072176  0.312818  0.857209  1
  I  I11  1  0.581643  0.406286  0.197806  1
  I  I12  1  0.644596  0.356540  0.479783  1
  I  I13  1  0.355404  0.856540  0.020217  1
  I  I14  1  0.418357  0.593714  0.802194  1
  I  I15  1  0.644596  0.143460  0.979783  1
  O  O16  1  0.339183  0.916954  0.387493  1
  O  O17  1  0.887445  0.623436  0.029476  1
  O  O18  1  0.392656  0.028244  0.117070  1
  O  O19  1  0.392656  0.471756  0.617070  1
  O  O20  1  0.904007  0.106245  0.829811  1
  O  O21  1  0.095993  0.893755  0.170189  1
  O  O22  1  0.940164  0.944992  0.311403  1
  O  O23  1  0.607344  0.971756  0.882930  1
  O  O24  1  0.660817  0.416954  0.112507  1
  O  O25  1  0.660817  0.083046  0.612507  1
  O  O26  1  0.645386  0.926342  0.058147  1
  O  O27  1  0.095993  0.606245  0.670189  1
  O  O28  1  0.873056  0.380340  0.513709  1
  O  O29  1  0.354614  0.426342  0.441853  1
  O  O30  1  0.112555  0.123436  0.470524  1
  O  O31  1  0.059836  0.444992  0.188597  1
  O  O32  1  0.059836  0.055008  0.688597  1
  O  O33  1  0.904007  0.393755  0.329811  1
  O  O34  1  0.645386  0.573658  0.558147  1
  O  O35  1  0.636912  0.509708  0.866323  1
  O  O36  1  0.607344  0.528244  0.382930  1
  O  O37  1  0.354614  0.073658  0.941853  1
  O  O38  1  0.363088  0.009708  0.633677  1
  O  O39  1  0.339183  0.583046  0.887493  1
  O  O40  1  0.655305  0.822066  0.744752  1
  O  O41  1  0.126944  0.619660  0.486291  1
  O  O42  1  0.940164  0.555008  0.811403  1
  O  O43  1  0.887445  0.876564  0.529476  1
  O  O44  1  0.873056  0.119660  0.013709  1
  O  O45  1  0.126944  0.880340  0.986291  1
  O  O46  1  0.344695  0.322066  0.755248  1
  O  O47  1  0.344695  0.177934  0.255248  1
  O  O48  1  0.363088  0.490292  0.133677  1
  O  O49  1  0.112555  0.376564  0.970524  1
  O  O50  1  0.636912  0.990292  0.366323  1
  O  O51  1  0.655305  0.677934  0.244752  1
