# generated using pymatgen
data_MgCrO4
_symmetry_space_group_name_H-M   'P 1'
_cell_length_a   6.84406269
_cell_length_b   6.84406269
_cell_length_c   6.84151102
_cell_angle_alpha   79.91160288
_cell_angle_beta   100.08839712
_cell_angle_gamma   94.66796684
_symmetry_Int_Tables_number   1
_chemical_formula_structural   MgCrO4
_chemical_formula_sum   'Mg4 Cr4 O16'
_cell_volume   310.20637396
_cell_formula_units_Z   4
loop_
 _symmetry_equiv_pos_site_id
 _symmetry_equiv_pos_as_xyz
  1  'x, y, z'
loop_
 _atom_site_type_symbol
 _atom_site_label
 _atom_site_symmetry_multiplicity
 _atom_site_fract_x
 _atom_site_fract_y
 _atom_site_fract_z
 _atom_site_occupancy
  Mg  Mg0  1  0.818105  0.818105  0.500000  1
  Mg  Mg1  1  0.181895  0.181895  0.500000  1
  Mg  Mg2  1  0.203299  0.796701  0.866060  1
  Mg  Mg3  1  0.796701  0.203299  0.133940  1
  Cr  Cr4  1  0.743845  0.743845  0.000000  1
  Cr  Cr5  1  0.256155  0.256155  0.000000  1
  Cr  Cr6  1  0.725527  0.274473  0.588246  1
  Cr  Cr7  1  0.274473  0.725527  0.411754  1
  O  O8  1  0.142325  0.857675  0.539547  1
  O  O9  1  0.857675  0.142325  0.460453  1
  O  O10  1  0.788139  0.211861  0.832442  1
  O  O11  1  0.211861  0.788139  0.167558  1
  O  O12  1  0.512214  0.778523  0.897126  1
  O  O13  1  0.778523  0.512214  0.102874  1
  O  O14  1  0.487786  0.221477  0.102874  1
  O  O15  1  0.221476  0.487786  0.897126  1
  O  O16  1  0.201205  0.112355  0.816300  1
  O  O17  1  0.112355  0.201205  0.183700  1
  O  O18  1  0.798795  0.887645  0.183700  1
  O  O19  1  0.887645  0.798795  0.816300  1
  O  O20  1  0.488905  0.216235  0.523432  1
  O  O21  1  0.216235  0.488905  0.476568  1
  O  O22  1  0.511095  0.783765  0.476568  1
  O  O23  1  0.783765  0.511095  0.523432  1
