# generated using pymatgen
data_Fe2PH2CO7
_symmetry_space_group_name_H-M   'P 1'
_cell_length_a   8.12545086
_cell_length_b   4.90288614
_cell_length_c   15.82057041
_cell_angle_alpha   90.00000000
_cell_angle_beta   115.68111696
_cell_angle_gamma   90.00000000
_symmetry_Int_Tables_number   1
_chemical_formula_structural   Fe2PH2CO7
_chemical_formula_sum   'Fe8 P4 H8 C4 O28'
_cell_volume   568.00503330
_cell_formula_units_Z   4
loop_
 _symmetry_equiv_pos_site_id
 _symmetry_equiv_pos_as_xyz
  1  'x, y, z'
loop_
 _atom_site_type_symbol
 _atom_site_label
 _atom_site_symmetry_multiplicity
 _atom_site_fract_x
 _atom_site_fract_y
 _atom_site_fract_z
 _atom_site_occupancy
  Fe  Fe0  1  0.066295  0.958946  0.859392  1
  Fe  Fe1  1  0.933705  0.458946  0.640608  1
  Fe  Fe2  1  0.933705  0.041054  0.140608  1
  Fe  Fe3  1  0.066295  0.541054  0.359392  1
  Fe  Fe4  1  0.393437  0.467416  0.804031  1
  Fe  Fe5  1  0.606563  0.967416  0.695969  1
  Fe  Fe6  1  0.606563  0.532584  0.195969  1
  Fe  Fe7  1  0.393437  0.032584  0.304031  1
  P  P8  1  0.193100  0.020859  0.692217  1
  P  P9  1  0.806900  0.520859  0.807783  1
  P  P10  1  0.806900  0.979141  0.307783  1
  P  P11  1  0.193100  0.479141  0.192217  1
  H  H12  1  0.138530  0.244412  0.021997  1
  H  H13  1  0.861470  0.744412  0.478003  1
  H  H14  1  0.861470  0.755588  0.978003  1
  H  H15  1  0.138530  0.255588  0.521997  1
  H  H16  1  0.286866  0.011995  0.032456  1
  H  H17  1  0.713134  0.511995  0.467544  1
  H  H18  1  0.713134  0.988005  0.967544  1
  H  H19  1  0.286866  0.488005  0.532456  1
  C  C20  1  0.568379  0.382454  0.008461  1
  C  C21  1  0.431621  0.882454  0.491539  1
  C  C22  1  0.431621  0.617546  0.991539  1
  C  C23  1  0.568379  0.117546  0.508461  1
  O  O24  1  0.946886  0.641445  0.901552  1
  O  O25  1  0.053114  0.141445  0.598448  1
  O  O26  1  0.053114  0.358555  0.098448  1
  O  O27  1  0.946886  0.858555  0.401552  1
  O  O28  1  0.814456  0.206009  0.804238  1
  O  O29  1  0.185544  0.706009  0.695762  1
  O  O30  1  0.185544  0.793991  0.195762  1
  O  O31  1  0.814456  0.293991  0.304238  1
  O  O32  1  0.203255  0.149914  0.989135  1
  O  O33  1  0.796745  0.649914  0.510865  1
  O  O34  1  0.796745  0.850086  0.010865  1
  O  O35  1  0.203255  0.350086  0.489135  1
  O  O36  1  0.149292  0.158981  0.770591  1
  O  O37  1  0.850708  0.658981  0.729409  1
  O  O38  1  0.850708  0.841019  0.229409  1
  O  O39  1  0.149292  0.341019  0.270591  1
  O  O40  1  0.331626  0.683088  0.906259  1
  O  O41  1  0.668374  0.183088  0.593741  1
  O  O42  1  0.668374  0.316912  0.093741  1
  O  O43  1  0.331626  0.816912  0.406259  1
  O  O44  1  0.390369  0.122929  0.716087  1
  O  O45  1  0.609631  0.622929  0.783913  1
  O  O46  1  0.609631  0.877071  0.283913  1
  O  O47  1  0.390369  0.377071  0.216087  1
  O  O48  1  0.569399  0.270959  0.936814  1
  O  O49  1  0.430601  0.770959  0.563186  1
  O  O50  1  0.430601  0.729041  0.063186  1
  O  O51  1  0.569399  0.229041  0.436814  1
