# generated using pymatgen
data_CaBi2B2O7
_symmetry_space_group_name_H-M   'P 1'
_cell_length_a   5.56287020
_cell_length_b   8.98368869
_cell_length_c   12.76516991
_cell_angle_alpha   90.00000000
_cell_angle_beta   90.00000000
_cell_angle_gamma   90.00000000
_symmetry_Int_Tables_number   1
_chemical_formula_structural   CaBi2B2O7
_chemical_formula_sum   'Ca4 Bi8 B8 O28'
_cell_volume   637.94056745
_cell_formula_units_Z   4
loop_
 _symmetry_equiv_pos_site_id
 _symmetry_equiv_pos_as_xyz
  1  'x, y, z'
loop_
 _atom_site_type_symbol
 _atom_site_label
 _atom_site_symmetry_multiplicity
 _atom_site_fract_x
 _atom_site_fract_y
 _atom_site_fract_z
 _atom_site_occupancy
  Ca  Ca0  1  0.553926  0.825733  0.750000  1
  Ca  Ca1  1  0.946074  0.325733  0.750000  1
  Ca  Ca2  1  0.053926  0.674267  0.250000  1
  Ca  Ca3  1  0.446074  0.174267  0.250000  1
  Bi  Bi4  1  0.066442  0.667616  0.908354  1
  Bi  Bi5  1  0.566442  0.832384  0.408354  1
  Bi  Bi6  1  0.933558  0.332384  0.408354  1
  Bi  Bi7  1  0.433558  0.167616  0.591646  1
  Bi  Bi8  1  0.566442  0.832384  0.091646  1
  Bi  Bi9  1  0.066442  0.667616  0.591646  1
  Bi  Bi10  1  0.433558  0.167616  0.908354  1
  Bi  Bi11  1  0.933558  0.332384  0.091646  1
  B  B12  1  0.484963  0.476206  0.879911  1
  B  B13  1  0.515037  0.523794  0.120089  1
  B  B14  1  0.015037  0.976206  0.879911  1
  B  B15  1  0.515037  0.523794  0.379911  1
  B  B16  1  0.484963  0.476206  0.620089  1
  B  B17  1  0.015037  0.976206  0.620089  1
  B  B18  1  0.984963  0.023794  0.120089  1
  B  B19  1  0.984963  0.023794  0.379911  1
  O  O20  1  0.770096  0.107484  0.378711  1
  O  O21  1  0.229904  0.892516  0.621289  1
  O  O22  1  0.270096  0.392516  0.621289  1
  O  O23  1  0.804157  0.898170  0.889238  1
  O  O24  1  0.035934  0.372617  0.250000  1
  O  O25  1  0.229904  0.892516  0.878711  1
  O  O26  1  0.695843  0.398170  0.610762  1
  O  O27  1  0.729904  0.607484  0.121289  1
  O  O28  1  0.037038  0.128552  0.624573  1
  O  O29  1  0.962962  0.871448  0.124573  1
  O  O30  1  0.537038  0.371448  0.124573  1
  O  O31  1  0.462962  0.628552  0.875427  1
  O  O32  1  0.195843  0.101830  0.110762  1
  O  O33  1  0.695843  0.398170  0.889238  1
  O  O34  1  0.462962  0.628552  0.624573  1
  O  O35  1  0.535934  0.127383  0.750000  1
  O  O36  1  0.195843  0.101830  0.389238  1
  O  O37  1  0.304157  0.601830  0.389238  1
  O  O38  1  0.729904  0.607484  0.378711  1
  O  O39  1  0.464066  0.872617  0.250000  1
  O  O40  1  0.964066  0.627383  0.750000  1
  O  O41  1  0.770096  0.107484  0.121289  1
  O  O42  1  0.537038  0.371448  0.375427  1
  O  O43  1  0.304157  0.601830  0.110762  1
  O  O44  1  0.804157  0.898170  0.610762  1
  O  O45  1  0.962962  0.871448  0.375427  1
  O  O46  1  0.270096  0.392516  0.878711  1
  O  O47  1  0.037038  0.128552  0.875427  1
