# generated using pymatgen
data_Li8Bi2PdO10
_symmetry_space_group_name_H-M   'P 1'
_cell_length_a   5.35718198
_cell_length_b   5.35718198
_cell_length_c   11.27159041
_cell_angle_alpha   75.53644116
_cell_angle_beta   104.46355884
_cell_angle_gamma   132.87026140
_symmetry_Int_Tables_number   1
_chemical_formula_structural   Li8Bi2PdO10
_chemical_formula_sum   'Li8 Bi2 Pd1 O10'
_cell_volume   228.11162452
_cell_formula_units_Z   1
loop_
 _symmetry_equiv_pos_site_id
 _symmetry_equiv_pos_as_xyz
  1  'x, y, z'
loop_
 _atom_site_type_symbol
 _atom_site_label
 _atom_site_symmetry_multiplicity
 _atom_site_fract_x
 _atom_site_fract_y
 _atom_site_fract_z
 _atom_site_occupancy
  Li  Li0  1  0.620050  0.379950  0.461599  1
  Li  Li1  1  0.252929  0.747071  0.905928  1
  Li  Li2  1  0.086092  0.913908  0.614892  1
  Li  Li3  1  0.913908  0.086092  0.385108  1
  Li  Li4  1  0.747071  0.252929  0.094072  1
  Li  Li5  1  0.379950  0.620050  0.538401  1
  Li  Li6  1  0.552160  0.447840  0.805214  1
  Li  Li7  1  0.447840  0.552160  0.194786  1
  Bi  Bi8  1  0.181454  0.818546  0.280048  1
  Bi  Bi9  1  0.818546  0.181454  0.719952  1
  Pd  Pd10  1  0.000000  0.000000  0.000000  1
  O  O11  1  0.961663  0.038337  0.167058  1
  O  O12  1  0.673830  0.326170  0.258243  1
  O  O13  1  0.326170  0.673830  0.741757  1
  O  O14  1  0.399712  0.600288  0.358721  1
  O  O15  1  0.600288  0.399712  0.641279  1
  O  O16  1  0.210699  0.789301  0.091492  1
  O  O17  1  0.038337  0.961663  0.832942  1
  O  O18  1  0.127917  0.872083  0.445792  1
  O  O19  1  0.872083  0.127917  0.554208  1
  O  O20  1  0.789301  0.210699  0.908508  1
