# generated using pymatgen
data_Co3P2(H2O5)2
_symmetry_space_group_name_H-M   'P 1'
_cell_length_a   7.47549379
_cell_length_b   7.56681731
_cell_length_c   7.61066707
_cell_angle_alpha   90.00000000
_cell_angle_beta   117.81229654
_cell_angle_gamma   90.00000000
_symmetry_Int_Tables_number   1
_chemical_formula_structural   Co3P2(H2O5)2
_chemical_formula_sum   'Co6 P4 H8 O20'
_cell_volume   380.77137979
_cell_formula_units_Z   2
loop_
 _symmetry_equiv_pos_site_id
 _symmetry_equiv_pos_as_xyz
  1  'x, y, z'
loop_
 _atom_site_type_symbol
 _atom_site_label
 _atom_site_symmetry_multiplicity
 _atom_site_fract_x
 _atom_site_fract_y
 _atom_site_fract_z
 _atom_site_occupancy
  Co  Co0  1  0.000000  0.000000  0.500000  1
  Co  Co1  1  0.500000  0.500000  0.500000  1
  Co  Co2  1  0.019566  0.725412  0.246514  1
  Co  Co3  1  0.480434  0.225412  0.753486  1
  Co  Co4  1  0.980434  0.274588  0.753486  1
  Co  Co5  1  0.519566  0.774588  0.246514  1
  P  P6  1  0.237398  0.618253  0.736238  1
  P  P7  1  0.262602  0.118253  0.263762  1
  P  P8  1  0.762602  0.381747  0.263762  1
  P  P9  1  0.737398  0.881747  0.736238  1
  H  H10  1  0.473303  0.828074  0.868132  1
  H  H11  1  0.026697  0.328074  0.131868  1
  H  H12  1  0.526697  0.171926  0.131868  1
  H  H13  1  0.973303  0.671926  0.868132  1
  H  H14  1  0.236289  0.554797  0.131397  1
  H  H15  1  0.263711  0.054797  0.868603  1
  H  H16  1  0.763711  0.445203  0.868603  1
  H  H17  1  0.736289  0.945203  0.131397  1
  O  O18  1  0.359177  0.484895  0.683957  1
  O  O19  1  0.140823  0.984895  0.316043  1
  O  O20  1  0.640823  0.515105  0.316043  1
  O  O21  1  0.859177  0.015105  0.683957  1
  O  O22  1  0.114338  0.529217  0.827804  1
  O  O23  1  0.385662  0.029217  0.172196  1
  O  O24  1  0.885662  0.470783  0.172196  1
  O  O25  1  0.614338  0.970783  0.827804  1
  O  O26  1  0.108207  0.736125  0.557995  1
  O  O27  1  0.391793  0.236125  0.442005  1
  O  O28  1  0.891793  0.263875  0.442005  1
  O  O29  1  0.608207  0.763875  0.557995  1
  O  O30  1  0.393587  0.745894  0.912003  1
  O  O31  1  0.106413  0.245894  0.087997  1
  O  O32  1  0.606413  0.254106  0.087997  1
  O  O33  1  0.893587  0.754106  0.912003  1
  O  O34  1  0.276651  0.630092  0.248647  1
  O  O35  1  0.223349  0.130092  0.751353  1
  O  O36  1  0.723349  0.369908  0.751353  1
  O  O37  1  0.776651  0.869908  0.248647  1
