# generated using pymatgen
data_Na2CaP2O7
_symmetry_space_group_name_H-M   'P 1'
_cell_length_a   5.46674923
_cell_length_b   7.17975892
_cell_length_c   8.92877436
_cell_angle_alpha   69.39385949
_cell_angle_beta   89.12618543
_cell_angle_gamma   88.90205279
_symmetry_Int_Tables_number   1
_chemical_formula_structural   Na2CaP2O7
_chemical_formula_sum   'Na4 Ca2 P4 O14'
_cell_volume   327.95869591
_cell_formula_units_Z   2
loop_
 _symmetry_equiv_pos_site_id
 _symmetry_equiv_pos_as_xyz
  1  'x, y, z'
loop_
 _atom_site_type_symbol
 _atom_site_label
 _atom_site_symmetry_multiplicity
 _atom_site_fract_x
 _atom_site_fract_y
 _atom_site_fract_z
 _atom_site_occupancy
  Na  Na0  1  0.234279  0.861006  0.548923  1
  Na  Na1  1  0.733880  0.210833  0.018621  1
  Na  Na2  1  0.765721  0.138994  0.451077  1
  Na  Na3  1  0.266120  0.789167  0.981379  1
  Ca  Ca4  1  0.231411  0.247289  0.720333  1
  Ca  Ca5  1  0.768589  0.752711  0.279667  1
  P  P6  1  0.247588  0.117083  0.174435  1
  P  P7  1  0.752412  0.882917  0.825565  1
  P  P8  1  0.294032  0.431418  0.309519  1
  P  P9  1  0.705968  0.568582  0.690481  1
  O  O10  1  0.542659  0.996710  0.717191  1
  O  O11  1  0.723125  0.872702  0.999218  1
  O  O12  1  0.159565  0.632335  0.247639  1
  O  O13  1  0.728553  0.648572  0.842418  1
  O  O14  1  0.008262  0.948017  0.756491  1
  O  O15  1  0.430987  0.548526  0.669801  1
  O  O16  1  0.826607  0.724022  0.545134  1
  O  O17  1  0.569013  0.451474  0.330199  1
  O  O18  1  0.840435  0.367665  0.752361  1
  O  O19  1  0.991738  0.051983  0.243509  1
  O  O20  1  0.271447  0.351428  0.157582  1
  O  O21  1  0.276875  0.127298  0.000782  1
  O  O22  1  0.457341  0.003290  0.282809  1
  O  O23  1  0.173393  0.275978  0.454866  1
