# generated using pymatgen
data_MgGeH12(OF)6
_symmetry_space_group_name_H-M   'P 1'
_cell_length_a   6.67695303
_cell_length_b   9.74186026
_cell_length_c   8.56176548
_cell_angle_alpha   90.00000000
_cell_angle_beta   100.30178453
_cell_angle_gamma   90.00000000
_symmetry_Int_Tables_number   1
_chemical_formula_structural   MgGeH12(OF)6
_chemical_formula_sum   'Mg2 Ge2 H24 O12 F12'
_cell_volume   547.93045805
_cell_formula_units_Z   2
loop_
 _symmetry_equiv_pos_site_id
 _symmetry_equiv_pos_as_xyz
  1  'x, y, z'
loop_
 _atom_site_type_symbol
 _atom_site_label
 _atom_site_symmetry_multiplicity
 _atom_site_fract_x
 _atom_site_fract_y
 _atom_site_fract_z
 _atom_site_occupancy
  Mg  Mg0  1  0.000000  0.000000  0.000000  1
  Mg  Mg1  1  0.000000  0.500000  0.500000  1
  Ge  Ge2  1  0.500000  0.000000  0.500000  1
  Ge  Ge3  1  0.500000  0.500000  0.000000  1
  H  H4  1  0.249590  0.771718  0.033862  1
  H  H5  1  0.750410  0.271718  0.466138  1
  H  H6  1  0.750410  0.228282  0.966138  1
  H  H7  1  0.249590  0.728282  0.533862  1
  H  H8  1  0.363650  0.889329  0.143514  1
  H  H9  1  0.636350  0.389329  0.356486  1
  H  H10  1  0.636350  0.110671  0.856486  1
  H  H11  1  0.363650  0.610671  0.643514  1
  H  H12  1  0.255903  0.226589  0.027839  1
  H  H13  1  0.744097  0.726589  0.472161  1
  H  H14  1  0.744097  0.773411  0.972161  1
  H  H15  1  0.255903  0.273411  0.527839  1
  H  H16  1  0.252309  0.169786  0.201022  1
  H  H17  1  0.747691  0.669786  0.298978  1
  H  H18  1  0.747691  0.830214  0.798978  1
  H  H19  1  0.252309  0.330214  0.701022  1
  H  H20  1  0.036184  0.940760  0.317534  1
  H  H21  1  0.963816  0.440760  0.182466  1
  H  H22  1  0.963816  0.059240  0.682466  1
  H  H23  1  0.036184  0.559240  0.817534  1
  H  H24  1  0.801248  0.971870  0.258879  1
  H  H25  1  0.198752  0.471870  0.241121  1
  H  H26  1  0.198752  0.028130  0.741121  1
  H  H27  1  0.801248  0.528130  0.758879  1
  O  O28  1  0.249014  0.870264  0.057348  1
  O  O29  1  0.750986  0.370264  0.442652  1
  O  O30  1  0.750986  0.129736  0.942652  1
  O  O31  1  0.249014  0.629736  0.557348  1
  O  O32  1  0.183769  0.165019  0.089757  1
  O  O33  1  0.816231  0.665019  0.410243  1
  O  O34  1  0.816231  0.834981  0.910243  1
  O  O35  1  0.183769  0.334981  0.589757  1
  O  O36  1  0.934452  0.969025  0.225948  1
  O  O37  1  0.065548  0.469025  0.274052  1
  O  O38  1  0.065548  0.030975  0.774052  1
  O  O39  1  0.934452  0.530975  0.725948  1
  F  F40  1  0.550294  0.944718  0.305488  1
  F  F41  1  0.449706  0.444718  0.194512  1
  F  F42  1  0.449706  0.055282  0.694512  1
  F  F43  1  0.550294  0.555282  0.805488  1
  F  F44  1  0.258869  0.904565  0.467372  1
  F  F45  1  0.741131  0.404565  0.032628  1
  F  F46  1  0.741131  0.095435  0.532628  1
  F  F47  1  0.258869  0.595435  0.967372  1
  F  F48  1  0.366857  0.153297  0.408357  1
  F  F49  1  0.633143  0.653297  0.091643  1
  F  F50  1  0.633143  0.846703  0.591643  1
  F  F51  1  0.366857  0.346703  0.908357  1
