# generated using pymatgen
data_GaPO4
_symmetry_space_group_name_H-M   'P 1'
_cell_length_a   5.00549660
_cell_length_b   5.00549660
_cell_length_c   7.00209805
_cell_angle_alpha   90.00000000
_cell_angle_beta   90.00000000
_cell_angle_gamma   90.09094200
_symmetry_Int_Tables_number   1
_chemical_formula_structural   GaPO4
_chemical_formula_sum   'Ga2 P2 O8'
_cell_volume   175.43731938
_cell_formula_units_Z   2
loop_
 _symmetry_equiv_pos_site_id
 _symmetry_equiv_pos_as_xyz
  1  'x, y, z'
loop_
 _atom_site_type_symbol
 _atom_site_label
 _atom_site_symmetry_multiplicity
 _atom_site_fract_x
 _atom_site_fract_y
 _atom_site_fract_z
 _atom_site_occupancy
  Ga  Ga0  1  0.812869  0.812869  0.000000  1
  Ga  Ga1  1  0.187131  0.187131  0.500000  1
  P  P2  1  0.683613  0.316387  0.750000  1
  P  P3  1  0.316387  0.683613  0.250000  1
  O  O4  1  0.226077  0.833633  0.431837  1
  O  O5  1  0.773923  0.166367  0.931837  1
  O  O6  1  0.166367  0.773923  0.068163  1
  O  O7  1  0.617799  0.732775  0.215116  1
  O  O8  1  0.833633  0.226077  0.568163  1
  O  O9  1  0.732775  0.617799  0.784884  1
  O  O10  1  0.267225  0.382201  0.284884  1
  O  O11  1  0.382201  0.267225  0.715116  1
