# generated using pymatgen
data_Ba2Zn2ClF7
_symmetry_space_group_name_H-M   'P 1'
_cell_length_a   7.83134500
_cell_length_b   5.89017971
_cell_length_c   9.05903069
_cell_angle_alpha   90.00000000
_cell_angle_beta   106.81011263
_cell_angle_gamma   90.00000000
_symmetry_Int_Tables_number   1
_chemical_formula_structural   Ba2Zn2ClF7
_chemical_formula_sum   'Ba4 Zn4 Cl2 F14'
_cell_volume   400.01878539
_cell_formula_units_Z   2
loop_
 _symmetry_equiv_pos_site_id
 _symmetry_equiv_pos_as_xyz
  1  'x, y, z'
loop_
 _atom_site_type_symbol
 _atom_site_label
 _atom_site_symmetry_multiplicity
 _atom_site_fract_x
 _atom_site_fract_y
 _atom_site_fract_z
 _atom_site_occupancy
  Ba  Ba0  1  0.332473  0.750000  0.587374  1
  Ba  Ba1  1  0.696209  0.250000  0.925620  1
  Ba  Ba2  1  0.303791  0.750000  0.074380  1
  Ba  Ba3  1  0.667527  0.250000  0.412626  1
  Zn  Zn4  1  0.182351  0.250000  0.825418  1
  Zn  Zn5  1  0.827289  0.750000  0.733905  1
  Zn  Zn6  1  0.817649  0.750000  0.174582  1
  Zn  Zn7  1  0.172711  0.250000  0.266095  1
  Cl  Cl8  1  0.117919  0.250000  0.529730  1
  Cl  Cl9  1  0.882081  0.750000  0.470270  1
  F  F10  1  0.005069  0.998620  0.828303  1
  F  F11  1  0.361584  0.497927  0.345491  1
  F  F12  1  0.253942  0.250000  0.066258  1
  F  F13  1  0.005069  0.501380  0.828303  1
  F  F14  1  0.746058  0.750000  0.933742  1
  F  F15  1  0.994931  0.001380  0.171697  1
  F  F16  1  0.361584  0.002073  0.345491  1
  F  F17  1  0.370503  0.493221  0.839252  1
  F  F18  1  0.638416  0.502073  0.654509  1
  F  F19  1  0.638416  0.997927  0.654509  1
  F  F20  1  0.629497  0.506779  0.160748  1
  F  F21  1  0.370503  0.006779  0.839252  1
  F  F22  1  0.629497  0.993221  0.160748  1
  F  F23  1  0.994931  0.498620  0.171697  1
