# generated using pymatgen
data_MnTl2As2S5
_symmetry_space_group_name_H-M   'P 1'
_cell_length_a   8.74238522
_cell_length_b   8.74238522
_cell_length_c   17.07858830
_cell_angle_alpha   90.00000000
_cell_angle_beta   90.00000000
_cell_angle_gamma   127.60798098
_symmetry_Int_Tables_number   1
_chemical_formula_structural   MnTl2As2S5
_chemical_formula_sum   'Mn4 Tl8 As8 S20'
_cell_volume   1034.06832000
_cell_formula_units_Z   4
loop_
 _symmetry_equiv_pos_site_id
 _symmetry_equiv_pos_as_xyz
  1  'x, y, z'
loop_
 _atom_site_type_symbol
 _atom_site_label
 _atom_site_symmetry_multiplicity
 _atom_site_fract_x
 _atom_site_fract_y
 _atom_site_fract_z
 _atom_site_occupancy
  Mn  Mn0  1  0.602974  0.102974  0.250000  1
  Mn  Mn1  1  0.397026  0.897026  0.750000  1
  Mn  Mn2  1  0.102974  0.602974  0.250000  1
  Mn  Mn3  1  0.897026  0.397026  0.750000  1
  Tl  Tl4  1  0.149443  0.850557  0.000000  1
  Tl  Tl5  1  0.649443  0.350557  0.500000  1
  Tl  Tl6  1  0.411950  0.411950  0.319086  1
  Tl  Tl7  1  0.850557  0.149443  0.000000  1
  Tl  Tl8  1  0.588050  0.588050  0.680914  1
  Tl  Tl9  1  0.350557  0.649443  0.500000  1
  Tl  Tl10  1  0.088050  0.088050  0.819086  1
  Tl  Tl11  1  0.911950  0.911950  0.180914  1
  As  As12  1  0.915072  0.148567  0.392832  1
  As  As13  1  0.851433  0.084928  0.607168  1
  As  As14  1  0.584928  0.351433  0.892832  1
  As  As15  1  0.351433  0.584928  0.892832  1
  As  As16  1  0.084928  0.851433  0.607168  1
  As  As17  1  0.415072  0.648567  0.107168  1
  As  As18  1  0.648567  0.415072  0.107168  1
  As  As19  1  0.148567  0.915072  0.392832  1
  S  S20  1  0.548574  0.109580  0.103725  1
  S  S21  1  0.969586  0.244632  0.264743  1
  S  S22  1  0.755368  0.030414  0.735257  1
  S  S23  1  0.344683  0.344683  0.119549  1
  S  S24  1  0.609580  0.048574  0.396275  1
  S  S25  1  0.255368  0.530414  0.764743  1
  S  S26  1  0.844683  0.844683  0.380451  1
  S  S27  1  0.890420  0.451426  0.896275  1
  S  S28  1  0.109580  0.548574  0.103725  1
  S  S29  1  0.655317  0.655317  0.880451  1
  S  S30  1  0.390420  0.951426  0.603725  1
  S  S31  1  0.469586  0.744632  0.235257  1
  S  S32  1  0.155317  0.155317  0.619549  1
  S  S33  1  0.530414  0.255368  0.764743  1
  S  S34  1  0.244632  0.969586  0.264743  1
  S  S35  1  0.951426  0.390420  0.603725  1
  S  S36  1  0.451426  0.890420  0.896275  1
  S  S37  1  0.048574  0.609580  0.396275  1
  S  S38  1  0.030414  0.755368  0.735257  1
  S  S39  1  0.744632  0.469586  0.235257  1
