# generated using pymatgen
data_Ba3Zr6BeCl18
_symmetry_space_group_name_H-M   'P 1'
_cell_length_a   18.72374918
_cell_length_b   18.72374918
_cell_length_c   18.72374918
_cell_angle_alpha   30.52020655
_cell_angle_beta   30.52020655
_cell_angle_gamma   30.52020655
_symmetry_Int_Tables_number   1
_chemical_formula_structural   Ba3Zr6BeCl18
_chemical_formula_sum   'Ba6 Zr12 Be2 Cl36'
_cell_volume   1500.72281351
_cell_formula_units_Z   2
loop_
 _symmetry_equiv_pos_site_id
 _symmetry_equiv_pos_as_xyz
  1  'x, y, z'
loop_
 _atom_site_type_symbol
 _atom_site_label
 _atom_site_symmetry_multiplicity
 _atom_site_fract_x
 _atom_site_fract_y
 _atom_site_fract_z
 _atom_site_occupancy
  Ba  Ba0  1  0.888607  0.888607  0.888607  1
  Ba  Ba1  1  0.388607  0.388607  0.388607  1
  Ba  Ba2  1  0.111393  0.111393  0.111393  1
  Ba  Ba3  1  0.750000  0.750000  0.750000  1
  Ba  Ba4  1  0.611393  0.611393  0.611393  1
  Ba  Ba5  1  0.250000  0.250000  0.250000  1
  Zr  Zr6  1  0.838222  0.008432  0.228570  1
  Zr  Zr7  1  0.228570  0.838222  0.008432  1
  Zr  Zr8  1  0.338222  0.728570  0.508432  1
  Zr  Zr9  1  0.161778  0.991568  0.771430  1
  Zr  Zr10  1  0.508432  0.338222  0.728570  1
  Zr  Zr11  1  0.008432  0.228570  0.838222  1
  Zr  Zr12  1  0.771430  0.161778  0.991568  1
  Zr  Zr13  1  0.271430  0.491568  0.661778  1
  Zr  Zr14  1  0.991568  0.771430  0.161778  1
  Zr  Zr15  1  0.728570  0.508432  0.338222  1
  Zr  Zr16  1  0.491568  0.661778  0.271430  1
  Zr  Zr17  1  0.661778  0.271430  0.491568  1
  Be  Be18  1  0.500000  0.500000  0.500000  1
  Be  Be19  1  0.000000  0.000000  0.000000  1
  Cl  Cl20  1  0.754405  0.341496  0.574625  1
  Cl  Cl21  1  0.135761  0.994053  0.527861  1
  Cl  Cl22  1  0.574625  0.754405  0.341496  1
  Cl  Cl23  1  0.027861  0.494053  0.635761  1
  Cl  Cl24  1  0.307398  0.925198  0.264296  1
  Cl  Cl25  1  0.527861  0.135761  0.994053  1
  Cl  Cl26  1  0.764296  0.425198  0.807398  1
  Cl  Cl27  1  0.074625  0.841496  0.254405  1
  Cl  Cl28  1  0.074802  0.735704  0.692602  1
  Cl  Cl29  1  0.472139  0.864239  0.005947  1
  Cl  Cl30  1  0.994053  0.527861  0.135761  1
  Cl  Cl31  1  0.364239  0.972139  0.505947  1
  Cl  Cl32  1  0.807398  0.764296  0.425198  1
  Cl  Cl33  1  0.264296  0.307398  0.925198  1
  Cl  Cl34  1  0.745595  0.925375  0.158504  1
  Cl  Cl35  1  0.254405  0.074625  0.841496  1
  Cl  Cl36  1  0.692602  0.074802  0.735704  1
  Cl  Cl37  1  0.425375  0.245595  0.658504  1
  Cl  Cl38  1  0.925375  0.158504  0.745595  1
  Cl  Cl39  1  0.245595  0.658504  0.425375  1
  Cl  Cl40  1  0.158504  0.745595  0.925375  1
  Cl  Cl41  1  0.235704  0.574802  0.192602  1
  Cl  Cl42  1  0.841496  0.254405  0.074625  1
  Cl  Cl43  1  0.574802  0.192602  0.235704  1
  Cl  Cl44  1  0.505947  0.364239  0.972139  1
  Cl  Cl45  1  0.192602  0.235704  0.574802  1
  Cl  Cl46  1  0.864239  0.005947  0.472139  1
  Cl  Cl47  1  0.494053  0.635761  0.027861  1
  Cl  Cl48  1  0.658504  0.425375  0.245595  1
  Cl  Cl49  1  0.735704  0.692602  0.074802  1
  Cl  Cl50  1  0.925198  0.264296  0.307398  1
  Cl  Cl51  1  0.425198  0.807398  0.764296  1
  Cl  Cl52  1  0.972139  0.505947  0.364239  1
  Cl  Cl53  1  0.341496  0.574625  0.754405  1
  Cl  Cl54  1  0.005947  0.472139  0.864239  1
  Cl  Cl55  1  0.635761  0.027861  0.494053  1
