# generated using pymatgen
data_ZnS
_symmetry_space_group_name_H-M   'P 1'
_cell_length_a   3.85165987
_cell_length_b   3.85165987
_cell_length_c   44.09850911
_cell_angle_alpha   90.00000000
_cell_angle_beta   90.00000000
_cell_angle_gamma   120.00000000
_symmetry_Int_Tables_number   1
_chemical_formula_structural   ZnS
_chemical_formula_sum   'Zn14 S14'
_cell_volume   566.56585349
_cell_formula_units_Z   14
loop_
 _symmetry_equiv_pos_site_id
 _symmetry_equiv_pos_as_xyz
  1  'x, y, z'
loop_
 _atom_site_type_symbol
 _atom_site_label
 _atom_site_symmetry_multiplicity
 _atom_site_fract_x
 _atom_site_fract_y
 _atom_site_fract_z
 _atom_site_occupancy
  Zn  Zn0  1  0.000000  0.000000  0.142875  1
  Zn  Zn1  1  0.666667  0.333333  0.071462  1
  Zn  Zn2  1  0.000000  0.000000  0.571440  1
  Zn  Zn3  1  0.333333  0.666667  0.214306  1
  Zn  Zn4  1  0.333333  0.666667  0.785726  1
  Zn  Zn5  1  0.666667  0.333333  0.642887  1
  Zn  Zn6  1  0.666667  0.333333  0.428602  1
  Zn  Zn7  1  0.000000  0.000000  0.857174  1
  Zn  Zn8  1  0.666667  0.333333  0.928579  1
  Zn  Zn9  1  0.000000  0.000000  0.714325  1
  Zn  Zn10  1  0.666667  0.333333  0.285725  1
  Zn  Zn11  1  0.000000  0.000000  0.357153  1
  Zn  Zn12  1  0.333333  0.666667  0.000011  1
  Zn  Zn13  1  0.333333  0.666667  0.500016  1
  S  S14  1  0.333333  0.666667  0.553551  1
  S  S15  1  0.666667  0.333333  0.482120  1
  S  S16  1  0.000000  0.000000  0.196412  1
  S  S17  1  0.666667  0.333333  0.339227  1
  S  S18  1  0.000000  0.000000  0.910691  1
  S  S19  1  0.333333  0.666667  0.839311  1
  S  S20  1  0.000000  0.000000  0.767802  1
  S  S21  1  0.333333  0.666667  0.267840  1
  S  S22  1  0.666667  0.333333  0.696480  1
  S  S23  1  0.000000  0.000000  0.410738  1
  S  S24  1  0.333333  0.666667  0.053597  1
  S  S25  1  0.000000  0.000000  0.624947  1
  S  S26  1  0.666667  0.333333  0.982082  1
  S  S27  1  0.666667  0.333333  0.124980  1
