# generated using pymatgen
data_ZnSb2(XeF4)6
_symmetry_space_group_name_H-M   'P 1'
_cell_length_a   9.73446878
_cell_length_b   9.73446878
_cell_length_c   9.73446878
_cell_angle_alpha   64.27022058
_cell_angle_beta   64.27022058
_cell_angle_gamma   64.27022058
_symmetry_Int_Tables_number   1
_chemical_formula_structural   ZnSb2(XeF4)6
_chemical_formula_sum   'Zn1 Sb2 Xe6 F24'
_cell_volume   713.46637575
_cell_formula_units_Z   1
loop_
 _symmetry_equiv_pos_site_id
 _symmetry_equiv_pos_as_xyz
  1  'x, y, z'
loop_
 _atom_site_type_symbol
 _atom_site_label
 _atom_site_symmetry_multiplicity
 _atom_site_fract_x
 _atom_site_fract_y
 _atom_site_fract_z
 _atom_site_occupancy
  Zn  Zn0  1  0.000000  0.000000  0.000000  1
  Sb  Sb1  1  0.747327  0.747327  0.747327  1
  Sb  Sb2  1  0.252673  0.252673  0.252673  1
  Xe  Xe3  1  0.299489  0.219607  0.733461  1
  Xe  Xe4  1  0.733461  0.299489  0.219607  1
  Xe  Xe5  1  0.700511  0.780393  0.266539  1
  Xe  Xe6  1  0.266539  0.700511  0.780393  1
  Xe  Xe7  1  0.219607  0.733461  0.299489  1
  Xe  Xe8  1  0.780393  0.266539  0.700511  1
  F  F9  1  0.118804  0.939694  0.792225  1
  F  F10  1  0.409215  0.129424  0.366762  1
  F  F11  1  0.792225  0.118804  0.939694  1
  F  F12  1  0.870576  0.633238  0.590785  1
  F  F13  1  0.620966  0.865958  0.899059  1
  F  F14  1  0.366762  0.409215  0.129424  1
  F  F15  1  0.590785  0.870576  0.633238  1
  F  F16  1  0.593054  0.521296  0.235935  1
  F  F17  1  0.060306  0.207775  0.881196  1
  F  F18  1  0.406946  0.478704  0.764065  1
  F  F19  1  0.881196  0.060306  0.207775  1
  F  F20  1  0.939694  0.792225  0.118804  1
  F  F21  1  0.478704  0.764065  0.406946  1
  F  F22  1  0.379034  0.134042  0.100941  1
  F  F23  1  0.100941  0.379034  0.134042  1
  F  F24  1  0.865958  0.899059  0.620966  1
  F  F25  1  0.129424  0.366762  0.409215  1
  F  F26  1  0.134042  0.100941  0.379034  1
  F  F27  1  0.899059  0.620966  0.865958  1
  F  F28  1  0.521296  0.235935  0.593054  1
  F  F29  1  0.633238  0.590785  0.870576  1
  F  F30  1  0.207775  0.881196  0.060306  1
  F  F31  1  0.235935  0.593054  0.521296  1
  F  F32  1  0.764065  0.406946  0.478704  1
