# generated using pymatgen
data_CsCO2
_symmetry_space_group_name_H-M   'P 1'
_cell_length_a   6.72319683
_cell_length_b   11.19055246
_cell_length_c   8.74454592
_cell_angle_alpha   90.00000000
_cell_angle_beta   96.93688082
_cell_angle_gamma   90.00000000
_symmetry_Int_Tables_number   1
_chemical_formula_structural   CsCO2
_chemical_formula_sum   'Cs8 C8 O16'
_cell_volume   653.09115670
_cell_formula_units_Z   8
loop_
 _symmetry_equiv_pos_site_id
 _symmetry_equiv_pos_as_xyz
  1  'x, y, z'
loop_
 _atom_site_type_symbol
 _atom_site_label
 _atom_site_symmetry_multiplicity
 _atom_site_fract_x
 _atom_site_fract_y
 _atom_site_fract_z
 _atom_site_occupancy
  Cs  Cs0  1  0.285441  0.795865  0.482435  1
  Cs  Cs1  1  0.285441  0.704135  0.982435  1
  Cs  Cs2  1  0.714559  0.204135  0.517565  1
  Cs  Cs3  1  0.770596  0.912541  0.168656  1
  Cs  Cs4  1  0.770596  0.587459  0.668656  1
  Cs  Cs5  1  0.714559  0.295865  0.017565  1
  Cs  Cs6  1  0.229404  0.087459  0.831344  1
  Cs  Cs7  1  0.229404  0.412541  0.331344  1
  C  C8  1  0.833152  0.890246  0.666977  1
  C  C9  1  0.690518  0.942671  0.774479  1
  C  C10  1  0.833152  0.609754  0.166977  1
  C  C11  1  0.166848  0.109754  0.333023  1
  C  C12  1  0.309482  0.442671  0.725521  1
  C  C13  1  0.166848  0.390246  0.833023  1
  C  C14  1  0.309482  0.057329  0.225521  1
  C  C15  1  0.690518  0.557329  0.274479  1
  O  O16  1  0.273219  0.951839  0.173536  1
  O  O17  1  0.273219  0.548161  0.673536  1
  O  O18  1  0.726781  0.451839  0.326464  1
  O  O19  1  0.726781  0.048161  0.826464  1
  O  O20  1  0.775889  0.891154  0.523110  1
  O  O21  1  0.547653  0.624346  0.305619  1
  O  O22  1  0.997735  0.847454  0.732839  1
  O  O23  1  0.002265  0.152546  0.267161  1
  O  O24  1  0.452347  0.124346  0.194381  1
  O  O25  1  0.224111  0.391154  0.976890  1
  O  O26  1  0.775889  0.608846  0.023110  1
  O  O27  1  0.224111  0.108846  0.476890  1
  O  O28  1  0.997735  0.652546  0.232839  1
  O  O29  1  0.452347  0.375654  0.694381  1
  O  O30  1  0.002265  0.347454  0.767161  1
  O  O31  1  0.547653  0.875654  0.805619  1
