# generated using pymatgen
data_RbH4SNO4
_symmetry_space_group_name_H-M   'P 1'
_cell_length_a   6.22972211
_cell_length_b   7.75987515
_cell_length_c   10.85850885
_cell_angle_alpha   90.00000000
_cell_angle_beta   90.00000000
_cell_angle_gamma   90.00000000
_symmetry_Int_Tables_number   1
_chemical_formula_structural   RbH4SNO4
_chemical_formula_sum   'Rb4 H16 S4 N4 O16'
_cell_volume   524.92057754
_cell_formula_units_Z   4
loop_
 _symmetry_equiv_pos_site_id
 _symmetry_equiv_pos_as_xyz
  1  'x, y, z'
loop_
 _atom_site_type_symbol
 _atom_site_label
 _atom_site_symmetry_multiplicity
 _atom_site_fract_x
 _atom_site_fract_y
 _atom_site_fract_z
 _atom_site_occupancy
  Rb  Rb0  1  0.750000  0.823261  0.395172  1
  Rb  Rb1  1  0.250000  0.676739  0.895172  1
  Rb  Rb2  1  0.750000  0.323261  0.104828  1
  Rb  Rb3  1  0.250000  0.176739  0.604828  1
  H  H4  1  0.750000  0.033618  0.708510  1
  H  H5  1  0.383691  0.878386  0.171855  1
  H  H6  1  0.250000  0.966382  0.291490  1
  H  H7  1  0.250000  0.069994  0.151634  1
  H  H8  1  0.883691  0.121614  0.828145  1
  H  H9  1  0.883691  0.621614  0.671855  1
  H  H10  1  0.616309  0.621614  0.671855  1
  H  H11  1  0.383691  0.378386  0.328145  1
  H  H12  1  0.750000  0.430006  0.651634  1
  H  H13  1  0.116309  0.878386  0.171855  1
  H  H14  1  0.750000  0.930006  0.848366  1
  H  H15  1  0.250000  0.466382  0.208510  1
  H  H16  1  0.616309  0.121614  0.828145  1
  H  H17  1  0.116309  0.378386  0.328145  1
  H  H18  1  0.750000  0.533618  0.791490  1
  H  H19  1  0.250000  0.569994  0.348366  1
  S  S20  1  0.250000  0.226316  0.931704  1
  S  S21  1  0.750000  0.273684  0.431704  1
  S  S22  1  0.250000  0.726316  0.568296  1
  S  S23  1  0.750000  0.773684  0.068296  1
  N  N24  1  0.250000  0.950963  0.197571  1
  N  N25  1  0.750000  0.549037  0.697571  1
  N  N26  1  0.750000  0.049037  0.802429  1
  N  N27  1  0.250000  0.450963  0.302429  1
  O  O28  1  0.750000  0.237370  0.568068  1
  O  O29  1  0.946626  0.693690  0.124307  1
  O  O30  1  0.250000  0.538515  0.591972  1
  O  O31  1  0.946626  0.193690  0.375693  1
  O  O32  1  0.553374  0.693690  0.124307  1
  O  O33  1  0.446626  0.806310  0.624307  1
  O  O34  1  0.250000  0.038515  0.908028  1
  O  O35  1  0.553374  0.193690  0.375693  1
  O  O36  1  0.750000  0.737370  0.931932  1
  O  O37  1  0.750000  0.461485  0.408028  1
  O  O38  1  0.053374  0.306310  0.875693  1
  O  O39  1  0.250000  0.262630  0.068068  1
  O  O40  1  0.750000  0.961485  0.091972  1
  O  O41  1  0.446626  0.306310  0.875693  1
  O  O42  1  0.250000  0.762630  0.431932  1
  O  O43  1  0.053374  0.806310  0.624307  1
