# generated using pymatgen
data_K4Fe2O5
_symmetry_space_group_name_H-M   'P 1'
_cell_length_a   6.52259167
_cell_length_b   6.03190448
_cell_length_c   10.15559245
_cell_angle_alpha   90.00000000
_cell_angle_beta   103.66300243
_cell_angle_gamma   90.00000000
_symmetry_Int_Tables_number   1
_chemical_formula_structural   K4Fe2O5
_chemical_formula_sum   'K8 Fe4 O10'
_cell_volume   388.25131990
_cell_formula_units_Z   2
loop_
 _symmetry_equiv_pos_site_id
 _symmetry_equiv_pos_as_xyz
  1  'x, y, z'
loop_
 _atom_site_type_symbol
 _atom_site_label
 _atom_site_symmetry_multiplicity
 _atom_site_fract_x
 _atom_site_fract_y
 _atom_site_fract_z
 _atom_site_occupancy
  K  K0  1  0.733120  0.878562  0.482812  1
  K  K1  1  0.903059  0.089831  0.162053  1
  K  K2  1  0.266880  0.121438  0.517188  1
  K  K3  1  0.903059  0.410169  0.662053  1
  K  K4  1  0.096941  0.910169  0.837947  1
  K  K5  1  0.266880  0.378562  0.017188  1
  K  K6  1  0.733120  0.621438  0.982812  1
  K  K7  1  0.096941  0.589831  0.337947  1
  Fe  Fe8  1  0.593018  0.114228  0.844559  1
  Fe  Fe9  1  0.593018  0.385772  0.344559  1
  Fe  Fe10  1  0.406982  0.614228  0.655441  1
  Fe  Fe11  1  0.406982  0.885772  0.155441  1
  O  O12  1  0.396887  0.146201  0.270017  1
  O  O13  1  0.603113  0.853799  0.729983  1
  O  O14  1  0.861490  0.265608  0.401103  1
  O  O15  1  0.396887  0.353799  0.770017  1
  O  O16  1  0.138510  0.765608  0.098897  1
  O  O17  1  0.500000  0.500000  0.500000  1
  O  O18  1  0.138510  0.734392  0.598897  1
  O  O19  1  0.603113  0.646201  0.229983  1
  O  O20  1  0.500000  0.000000  0.000000  1
  O  O21  1  0.861490  0.234392  0.901103  1
