# generated using pymatgen
data_Ho11Te16ClO48
_symmetry_space_group_name_H-M   'P 1'
_cell_length_a   5.56676924
_cell_length_b   11.99040333
_cell_length_c   18.62240176
_cell_angle_alpha   100.67495429
_cell_angle_beta   95.89006713
_cell_angle_gamma   99.81543566
_symmetry_Int_Tables_number   1
_chemical_formula_structural   Ho11Te16ClO48
_chemical_formula_sum   'Ho11 Te16 Cl1 O48'
_cell_volume   1191.99757345
_cell_formula_units_Z   1
loop_
 _symmetry_equiv_pos_site_id
 _symmetry_equiv_pos_as_xyz
  1  'x, y, z'
loop_
 _atom_site_type_symbol
 _atom_site_label
 _atom_site_symmetry_multiplicity
 _atom_site_fract_x
 _atom_site_fract_y
 _atom_site_fract_z
 _atom_site_occupancy
  Ho  Ho0  1  0.131421  0.569710  0.729376  1
  Ho  Ho1  1  0.083398  0.886222  0.186278  1
  Ho  Ho2  1  0.916602  0.113778  0.813722  1
  Ho  Ho3  1  0.868579  0.430290  0.270624  1
  Ho  Ho4  1  0.718661  0.784768  0.705554  1
  Ho  Ho5  1  0.283302  0.103759  0.477814  1
  Ho  Ho6  1  0.281339  0.215232  0.294446  1
  Ho  Ho7  1  0.000000  0.000000  0.000000  1
  Ho  Ho8  1  0.557090  0.680707  0.222491  1
  Ho  Ho9  1  0.716698  0.896241  0.522186  1
  Ho  Ho10  1  0.442910  0.319293  0.777509  1
  Te  Te11  1  0.790329  0.208987  0.618271  1
  Te  Te12  1  0.491879  0.804667  0.049924  1
  Te  Te13  1  0.165150  0.683390  0.563972  1
  Te  Te14  1  0.069440  0.448249  0.890198  1
  Te  Te15  1  0.646885  0.113540  0.165310  1
  Te  Te16  1  0.794455  0.993724  0.338993  1
  Te  Te17  1  0.205545  0.006276  0.661007  1
  Te  Te18  1  0.228782  0.325707  0.118867  1
  Te  Te19  1  0.834850  0.316610  0.436028  1
  Te  Te20  1  0.771218  0.674293  0.881133  1
  Te  Te21  1  0.209671  0.791013  0.381729  1
  Te  Te22  1  0.508121  0.195333  0.950076  1
  Te  Te23  1  0.353115  0.886460  0.834690  1
  Te  Te24  1  0.509909  0.554723  0.392266  1
  Te  Te25  1  0.490091  0.445277  0.607734  1
  Te  Te26  1  0.930560  0.551751  0.109802  1
  Cl  Cl27  1  0.500000  0.500000  0.000000  1
  O  O28  1  0.470948  0.731987  0.433700  1
  O  O29  1  0.184319  0.162138  0.078821  1
  O  O30  1  0.871904  0.924702  0.647915  1
  O  O31  1  0.308817  0.393564  0.680924  1
  O  O32  1  0.377823  0.781524  0.139798  1
  O  O33  1  0.147496  0.291333  0.854242  1
  O  O34  1  0.109757  0.312321  0.210673  1
  O  O35  1  0.443558  0.603026  0.656460  1
  O  O36  1  0.600064  0.256715  0.221104  1
  O  O37  1  0.658748  0.198564  0.709080  1
  O  O38  1  0.910295  0.076860  0.225090  1
  O  O39  1  0.341252  0.801436  0.290920  1
  O  O40  1  0.089705  0.923140  0.774910  1
  O  O41  1  0.070194  0.648357  0.928340  1
  O  O42  1  0.691183  0.606436  0.319076  1
  O  O43  1  0.815681  0.837862  0.921179  1
  O  O44  1  0.929806  0.351643  0.071660  1
  O  O45  1  0.396660  0.934608  0.437263  1
  O  O46  1  0.150215  0.141951  0.726467  1
  O  O47  1  0.852504  0.708667  0.145758  1
  O  O48  1  0.622177  0.218476  0.860202  1
  O  O49  1  0.697766  0.081030  0.957606  1
  O  O50  1  0.291177  0.494986  0.824408  1
  O  O51  1  0.019786  0.231491  0.488304  1
  O  O52  1  0.813303  0.454100  0.653515  1
  O  O53  1  0.529052  0.268013  0.566300  1
  O  O54  1  0.554261  0.195907  0.399924  1
  O  O55  1  0.604965  0.959845  0.787115  1
  O  O56  1  0.900651  0.948699  0.428487  1
  O  O57  1  0.445739  0.804093  0.600076  1
  O  O58  1  0.849785  0.858049  0.273533  1
  O  O59  1  0.128096  0.075298  0.352085  1
  O  O60  1  0.186697  0.545900  0.346485  1
  O  O61  1  0.099349  0.051301  0.571513  1
  O  O62  1  0.708823  0.505014  0.175592  1
  O  O63  1  0.201045  0.085508  0.911668  1
  O  O64  1  0.203373  0.552912  0.182503  1
  O  O65  1  0.603340  0.065392  0.562737  1
  O  O66  1  0.395035  0.040155  0.212885  1
  O  O67  1  0.556442  0.396974  0.343540  1
  O  O68  1  0.798955  0.914492  0.088332  1
  O  O69  1  0.001957  0.308860  0.351423  1
  O  O70  1  0.796627  0.447088  0.817497  1
  O  O71  1  0.302234  0.918970  0.042394  1
  O  O72  1  0.399936  0.743285  0.778896  1
  O  O73  1  0.980214  0.768509  0.511696  1
  O  O74  1  0.998043  0.691140  0.648577  1
  O  O75  1  0.890243  0.687679  0.789327  1
