# generated using pymatgen
data_Na3AlH6
_symmetry_space_group_name_H-M   'P 1'
_cell_length_a   5.46783545
_cell_length_b   9.22359659
_cell_length_c   17.77279793
_cell_angle_alpha   90.00000000
_cell_angle_beta   90.00000000
_cell_angle_gamma   90.00000000
_symmetry_Int_Tables_number   1
_chemical_formula_structural   Na3AlH6
_chemical_formula_sum   'Na24 Al8 H48'
_cell_volume   896.33744478
_cell_formula_units_Z   8
loop_
 _symmetry_equiv_pos_site_id
 _symmetry_equiv_pos_as_xyz
  1  'x, y, z'
loop_
 _atom_site_type_symbol
 _atom_site_label
 _atom_site_symmetry_multiplicity
 _atom_site_fract_x
 _atom_site_fract_y
 _atom_site_fract_z
 _atom_site_occupancy
  Na  Na0  1  0.302231  0.089230  0.347239  1
  Na  Na1  1  0.745431  0.582786  0.948306  1
  Na  Na2  1  0.189591  0.749208  0.835361  1
  Na  Na3  1  0.254569  0.417214  0.051694  1
  Na  Na4  1  0.810409  0.250792  0.335361  1
  Na  Na5  1  0.302231  0.410770  0.652761  1
  Na  Na6  1  0.254569  0.082786  0.948306  1
  Na  Na7  1  0.697769  0.910770  0.847239  1
  Na  Na8  1  0.810409  0.250792  0.164639  1
  Na  Na9  1  0.697769  0.589230  0.152761  1
  Na  Na10  1  0.745431  0.917214  0.051694  1
  Na  Na11  1  0.697769  0.589230  0.347239  1
  Na  Na12  1  0.810409  0.249208  0.835361  1
  Na  Na13  1  0.810409  0.249208  0.664639  1
  Na  Na14  1  0.189591  0.750792  0.164639  1
  Na  Na15  1  0.254569  0.082786  0.551694  1
  Na  Na16  1  0.697769  0.910770  0.652761  1
  Na  Na17  1  0.745431  0.917214  0.448306  1
  Na  Na18  1  0.302231  0.089230  0.152761  1
  Na  Na19  1  0.254569  0.417214  0.448306  1
  Na  Na20  1  0.302231  0.410770  0.847239  1
  Na  Na21  1  0.189591  0.749208  0.664639  1
  Na  Na22  1  0.745431  0.582786  0.551694  1
  Na  Na23  1  0.189591  0.750792  0.335361  1
  Al  Al24  1  0.783161  0.250000  0.000000  1
  Al  Al25  1  0.783161  0.250000  0.500000  1
  Al  Al26  1  0.741935  0.577261  0.750000  1
  Al  Al27  1  0.216839  0.750000  0.500000  1
  Al  Al28  1  0.741935  0.922739  0.250000  1
  Al  Al29  1  0.258065  0.077261  0.750000  1
  Al  Al30  1  0.216839  0.750000  0.000000  1
  Al  Al31  1  0.258065  0.422739  0.250000  1
  H  H32  1  0.978063  0.812235  0.560756  1
  H  H33  1  0.220943  0.588406  0.949784  1
  H  H34  1  0.950261  0.971525  0.178718  1
  H  H35  1  0.049739  0.471525  0.321282  1
  H  H36  1  0.779057  0.411594  0.449784  1
  H  H37  1  0.440160  0.673314  0.438699  1
  H  H38  1  0.220943  0.911594  0.449784  1
  H  H39  1  0.135554  0.242362  0.250000  1
  H  H40  1  0.021937  0.312235  0.939244  1
  H  H41  1  0.617474  0.101092  0.250000  1
  H  H42  1  0.021937  0.187765  0.439244  1
  H  H43  1  0.950261  0.528475  0.821282  1
  H  H44  1  0.382526  0.898908  0.750000  1
  H  H45  1  0.465091  0.374824  0.178049  1
  H  H46  1  0.779057  0.088406  0.550216  1
  H  H47  1  0.465091  0.125176  0.678049  1
  H  H48  1  0.465091  0.125176  0.821951  1
  H  H49  1  0.534909  0.625176  0.821951  1
  H  H50  1  0.049739  0.028475  0.821282  1
  H  H51  1  0.864446  0.757638  0.750000  1
  H  H52  1  0.864446  0.742362  0.250000  1
  H  H53  1  0.559840  0.326686  0.561301  1
  H  H54  1  0.440160  0.673314  0.061301  1
  H  H55  1  0.978063  0.687765  0.060756  1
  H  H56  1  0.950261  0.971525  0.321282  1
  H  H57  1  0.559840  0.326686  0.938699  1
  H  H58  1  0.135554  0.257638  0.750000  1
  H  H59  1  0.617474  0.398908  0.750000  1
  H  H60  1  0.978063  0.687765  0.439244  1
  H  H61  1  0.440160  0.826686  0.938699  1
  H  H62  1  0.559840  0.173314  0.061301  1
  H  H63  1  0.534909  0.874824  0.321951  1
  H  H64  1  0.049739  0.028475  0.678718  1
  H  H65  1  0.534909  0.625176  0.678049  1
  H  H66  1  0.534909  0.874824  0.178049  1
  H  H67  1  0.779057  0.088406  0.949784  1
  H  H68  1  0.950261  0.528475  0.678718  1
  H  H69  1  0.440160  0.826686  0.561301  1
  H  H70  1  0.021937  0.312235  0.560756  1
  H  H71  1  0.382526  0.601092  0.250000  1
  H  H72  1  0.021937  0.187765  0.060756  1
  H  H73  1  0.220943  0.911594  0.050216  1
  H  H74  1  0.779057  0.411594  0.050216  1
  H  H75  1  0.049739  0.471525  0.178718  1
  H  H76  1  0.559840  0.173314  0.438699  1
  H  H77  1  0.465091  0.374824  0.321951  1
  H  H78  1  0.220943  0.588406  0.550216  1
  H  H79  1  0.978063  0.812235  0.939244  1
