# generated using pymatgen
data_P2W2O11
_symmetry_space_group_name_H-M   'P 1'
_cell_length_a   6.43166142
_cell_length_b   7.79377840
_cell_length_c   7.96098718
_cell_angle_alpha   90.00000000
_cell_angle_beta   90.00000000
_cell_angle_gamma   90.00000000
_symmetry_Int_Tables_number   1
_chemical_formula_structural   P2W2O11
_chemical_formula_sum   'P4 W4 O22'
_cell_volume   399.05995751
_cell_formula_units_Z   2
loop_
 _symmetry_equiv_pos_site_id
 _symmetry_equiv_pos_as_xyz
  1  'x, y, z'
loop_
 _atom_site_type_symbol
 _atom_site_label
 _atom_site_symmetry_multiplicity
 _atom_site_fract_x
 _atom_site_fract_y
 _atom_site_fract_z
 _atom_site_occupancy
  P  P0  1  0.500000  0.616320  0.252601  1
  P  P1  1  0.000000  0.116320  0.247399  1
  P  P2  1  0.000000  0.883680  0.752601  1
  P  P3  1  0.500000  0.383680  0.747399  1
  W  W4  1  0.500000  0.815400  0.842214  1
  W  W5  1  0.500000  0.184600  0.157786  1
  W  W6  1  0.000000  0.315400  0.657786  1
  W  W7  1  0.000000  0.684600  0.342214  1
  O  O8  1  0.309948  0.688084  0.351399  1
  O  O9  1  0.809948  0.811916  0.851399  1
  O  O10  1  0.309948  0.311916  0.648601  1
  O  O11  1  0.500000  0.330092  0.929920  1
  O  O12  1  0.500000  0.065820  0.340773  1
  O  O13  1  0.809948  0.188084  0.148601  1
  O  O14  1  0.690052  0.688084  0.351399  1
  O  O15  1  0.000000  0.830092  0.570080  1
  O  O16  1  0.000000  0.169908  0.429920  1
  O  O17  1  0.500000  0.416772  0.267433  1
  O  O18  1  0.690052  0.311916  0.648601  1
  O  O19  1  0.500000  0.934180  0.659227  1
  O  O20  1  0.190052  0.811916  0.851399  1
  O  O21  1  0.000000  0.565820  0.159227  1
  O  O22  1  0.500000  0.583228  0.732567  1
  O  O23  1  0.000000  0.916772  0.232567  1
  O  O24  1  0.000000  0.434180  0.840773  1
  O  O25  1  0.500000  0.669908  0.070080  1
  O  O26  1  0.000000  0.083228  0.767433  1
  O  O27  1  0.000000  0.500000  0.500000  1
  O  O28  1  0.190052  0.188084  0.148601  1
  O  O29  1  0.500000  0.000000  0.000000  1
