# generated using pymatgen
data_CdBiS2Cl
_symmetry_space_group_name_H-M   'P 1'
_cell_length_a   4.00969240
_cell_length_b   9.67063512
_cell_length_c   12.79138899
_cell_angle_alpha   90.00000000
_cell_angle_beta   90.00000000
_cell_angle_gamma   90.00000000
_symmetry_Int_Tables_number   1
_chemical_formula_structural   CdBiS2Cl
_chemical_formula_sum   'Cd4 Bi4 S8 Cl4'
_cell_volume   496.00238057
_cell_formula_units_Z   4
loop_
 _symmetry_equiv_pos_site_id
 _symmetry_equiv_pos_as_xyz
  1  'x, y, z'
loop_
 _atom_site_type_symbol
 _atom_site_label
 _atom_site_symmetry_multiplicity
 _atom_site_fract_x
 _atom_site_fract_y
 _atom_site_fract_z
 _atom_site_occupancy
  Cd  Cd0  1  0.750000  0.496090  0.736341  1
  Cd  Cd1  1  0.250000  0.503910  0.263659  1
  Cd  Cd2  1  0.750000  0.996090  0.763659  1
  Cd  Cd3  1  0.250000  0.003910  0.236341  1
  Bi  Bi4  1  0.250000  0.306447  0.972700  1
  Bi  Bi5  1  0.250000  0.806447  0.527300  1
  Bi  Bi6  1  0.750000  0.193553  0.472700  1
  Bi  Bi7  1  0.750000  0.693553  0.027300  1
  S  S8  1  0.750000  0.252803  0.832372  1
  S  S9  1  0.250000  0.247197  0.332372  1
  S  S10  1  0.750000  0.947299  0.388099  1
  S  S11  1  0.250000  0.052701  0.611901  1
  S  S12  1  0.750000  0.752803  0.667628  1
  S  S13  1  0.750000  0.447299  0.111901  1
  S  S14  1  0.250000  0.552701  0.888099  1
  S  S15  1  0.250000  0.747197  0.167628  1
  Cl  Cl16  1  0.750000  0.573761  0.393774  1
  Cl  Cl17  1  0.750000  0.073761  0.106226  1
  Cl  Cl18  1  0.250000  0.426239  0.606226  1
  Cl  Cl19  1  0.250000  0.926239  0.893774  1
