# generated using pymatgen
data_RbIn(MoO4)2
_symmetry_space_group_name_H-M   'P 1'
_cell_length_a   5.95956136
_cell_length_b   9.12396235
_cell_length_c   15.63512240
_cell_angle_alpha   90.00000000
_cell_angle_beta   90.00000000
_cell_angle_gamma   90.00000000
_symmetry_Int_Tables_number   1
_chemical_formula_structural   RbIn(MoO4)2
_chemical_formula_sum   'Rb4 In4 Mo8 O32'
_cell_volume   850.15686410
_cell_formula_units_Z   4
loop_
 _symmetry_equiv_pos_site_id
 _symmetry_equiv_pos_as_xyz
  1  'x, y, z'
loop_
 _atom_site_type_symbol
 _atom_site_label
 _atom_site_symmetry_multiplicity
 _atom_site_fract_x
 _atom_site_fract_y
 _atom_site_fract_z
 _atom_site_occupancy
  Rb  Rb0  1  0.750000  0.449990  0.875755  1
  Rb  Rb1  1  0.250000  0.550010  0.124245  1
  Rb  Rb2  1  0.250000  0.949990  0.624245  1
  Rb  Rb3  1  0.750000  0.050010  0.375755  1
  In  In4  1  0.250000  0.812126  0.886043  1
  In  In5  1  0.750000  0.187874  0.113957  1
  In  In6  1  0.750000  0.312126  0.613957  1
  In  In7  1  0.250000  0.687874  0.386043  1
  Mo  Mo8  1  0.250000  0.508719  0.716290  1
  Mo  Mo9  1  0.750000  0.491281  0.283710  1
  Mo  Mo10  1  0.750000  0.008719  0.783710  1
  Mo  Mo11  1  0.250000  0.991281  0.216290  1
  Mo  Mo12  1  0.250000  0.211565  0.968957  1
  Mo  Mo13  1  0.750000  0.788435  0.031043  1
  Mo  Mo14  1  0.750000  0.711565  0.531043  1
  Mo  Mo15  1  0.250000  0.288435  0.468957  1
  O  O16  1  0.750000  0.140022  0.864280  1
  O  O17  1  0.250000  0.859978  0.135720  1
  O  O18  1  0.250000  0.640022  0.635720  1
  O  O19  1  0.750000  0.359978  0.364280  1
  O  O20  1  0.002113  0.898984  0.797178  1
  O  O21  1  0.502113  0.101016  0.202822  1
  O  O22  1  0.997887  0.398984  0.702822  1
  O  O23  1  0.497887  0.601016  0.297178  1
  O  O24  1  0.997887  0.101016  0.202822  1
  O  O25  1  0.497887  0.898984  0.797178  1
  O  O26  1  0.002113  0.601016  0.297178  1
  O  O27  1  0.502113  0.398984  0.702822  1
  O  O28  1  0.250000  0.604639  0.818542  1
  O  O29  1  0.750000  0.395361  0.181458  1
  O  O30  1  0.750000  0.104639  0.681458  1
  O  O31  1  0.250000  0.895361  0.318542  1
  O  O32  1  0.250000  0.299273  0.869691  1
  O  O33  1  0.750000  0.700727  0.130309  1
  O  O34  1  0.750000  0.799273  0.630309  1
  O  O35  1  0.250000  0.200727  0.369691  1
  O  O36  1  0.250000  0.016247  0.956749  1
  O  O37  1  0.750000  0.983753  0.043251  1
  O  O38  1  0.750000  0.516247  0.543251  1
  O  O39  1  0.250000  0.483753  0.456749  1
  O  O40  1  0.505948  0.723033  0.971223  1
  O  O41  1  0.005948  0.276967  0.028777  1
  O  O42  1  0.494052  0.223033  0.528777  1
  O  O43  1  0.994052  0.776967  0.471223  1
  O  O44  1  0.494052  0.276967  0.028777  1
  O  O45  1  0.994052  0.723033  0.971223  1
  O  O46  1  0.505948  0.776967  0.471223  1
  O  O47  1  0.005948  0.223033  0.528777  1
