# generated using pymatgen
data_Ca3Ta4(O6F)2
_symmetry_space_group_name_H-M   'P 1'
_cell_length_a   10.53827726
_cell_length_b   10.53827726
_cell_length_c   10.53827726
_cell_angle_alpha   90.00000000
_cell_angle_beta   90.00000000
_cell_angle_gamma   90.00000000
_symmetry_Int_Tables_number   1
_chemical_formula_structural   Ca3Ta4(O6F)2
_chemical_formula_sum   'Ca12 Ta16 O48 F8'
_cell_volume   1170.33141201
_cell_formula_units_Z   4
loop_
 _symmetry_equiv_pos_site_id
 _symmetry_equiv_pos_as_xyz
  1  'x, y, z'
loop_
 _atom_site_type_symbol
 _atom_site_label
 _atom_site_symmetry_multiplicity
 _atom_site_fract_x
 _atom_site_fract_y
 _atom_site_fract_z
 _atom_site_occupancy
  Ca  Ca0  1  0.387029  0.375000  0.637029  1
  Ca  Ca1  1  0.637029  0.387029  0.375000  1
  Ca  Ca2  1  0.612971  0.875000  0.862971  1
  Ca  Ca3  1  0.375000  0.637029  0.387029  1
  Ca  Ca4  1  0.875000  0.862971  0.612971  1
  Ca  Ca5  1  0.125000  0.362971  0.887029  1
  Ca  Ca6  1  0.862971  0.612971  0.875000  1
  Ca  Ca7  1  0.887029  0.125000  0.362971  1
  Ca  Ca8  1  0.625000  0.137029  0.112971  1
  Ca  Ca9  1  0.137029  0.112971  0.625000  1
  Ca  Ca10  1  0.112971  0.625000  0.137029  1
  Ca  Ca11  1  0.362971  0.887029  0.125000  1
  Ta  Ta12  1  0.876306  0.373694  0.625000  1
  Ta  Ta13  1  0.373694  0.625000  0.876306  1
  Ta  Ta14  1  0.125000  0.125000  0.125000  1
  Ta  Ta15  1  0.123694  0.873694  0.875000  1
  Ta  Ta16  1  0.873694  0.875000  0.123694  1
  Ta  Ta17  1  0.875000  0.123694  0.873694  1
  Ta  Ta18  1  0.125000  0.623694  0.626306  1
  Ta  Ta19  1  0.375000  0.875000  0.625000  1
  Ta  Ta20  1  0.126306  0.375000  0.376306  1
  Ta  Ta21  1  0.376306  0.126306  0.375000  1
  Ta  Ta22  1  0.623694  0.626306  0.125000  1
  Ta  Ta23  1  0.626306  0.125000  0.623694  1
  Ta  Ta24  1  0.375000  0.376306  0.126306  1
  Ta  Ta25  1  0.625000  0.375000  0.875000  1
  Ta  Ta26  1  0.625000  0.876306  0.373694  1
  Ta  Ta27  1  0.875000  0.625000  0.375000  1
  O  O28  1  0.242127  0.259671  0.062614  1
  O  O29  1  0.757872  0.759671  0.437386  1
  O  O30  1  0.303851  0.501610  0.004299  1
  O  O31  1  0.990329  0.007873  0.187386  1
  O  O32  1  0.742128  0.240329  0.937386  1
  O  O33  1  0.495701  0.696149  0.001610  1
  O  O34  1  0.498390  0.504299  0.196149  1
  O  O35  1  0.812614  0.490329  0.492127  1
  O  O36  1  0.509671  0.992128  0.687386  1
  O  O37  1  0.490329  0.492127  0.812614  1
  O  O38  1  0.257873  0.740329  0.562614  1
  O  O39  1  0.312614  0.009671  0.507872  1
  O  O40  1  0.696149  0.001610  0.495701  1
  O  O41  1  0.992128  0.687386  0.509671  1
  O  O42  1  0.001610  0.495701  0.696149  1
  O  O43  1  0.240329  0.937386  0.742128  1
  O  O44  1  0.803851  0.998390  0.995701  1
  O  O45  1  0.504299  0.196149  0.498390  1
  O  O46  1  0.248390  0.553851  0.754299  1
  O  O47  1  0.004299  0.303851  0.501610  1
  O  O48  1  0.196149  0.498390  0.504299  1
  O  O49  1  0.501610  0.004299  0.303851  1
  O  O50  1  0.245701  0.748390  0.946149  1
  O  O51  1  0.937386  0.742128  0.240329  1
  O  O52  1  0.437386  0.757872  0.759671  1
  O  O53  1  0.053851  0.745701  0.751610  1
  O  O54  1  0.751610  0.053851  0.745701  1
  O  O55  1  0.492127  0.812614  0.490329  1
  O  O56  1  0.759671  0.437386  0.757872  1
  O  O57  1  0.740329  0.562614  0.257873  1
  O  O58  1  0.995701  0.803851  0.998390  1
  O  O59  1  0.553851  0.754299  0.248390  1
  O  O60  1  0.687386  0.509671  0.992128  1
  O  O61  1  0.254299  0.251610  0.446149  1
  O  O62  1  0.187386  0.990329  0.007873  1
  O  O63  1  0.754299  0.248390  0.553851  1
  O  O64  1  0.009671  0.507872  0.312614  1
  O  O65  1  0.562614  0.257873  0.740329  1
  O  O66  1  0.507872  0.312614  0.009671  1
  O  O67  1  0.259671  0.062614  0.242127  1
  O  O68  1  0.251610  0.446149  0.254299  1
  O  O69  1  0.446149  0.254299  0.251610  1
  O  O70  1  0.745701  0.751610  0.053851  1
  O  O71  1  0.748390  0.946149  0.245701  1
  O  O72  1  0.946149  0.245701  0.748390  1
  O  O73  1  0.062614  0.242127  0.259671  1
  O  O74  1  0.007873  0.187386  0.990329  1
  O  O75  1  0.998390  0.995701  0.803851  1
  F  F76  1  0.988104  0.011896  0.511896  1
  F  F77  1  0.011896  0.511896  0.988104  1
  F  F78  1  0.238104  0.261896  0.738104  1
  F  F79  1  0.511896  0.988104  0.011896  1
  F  F80  1  0.738104  0.238104  0.261896  1
  F  F81  1  0.488104  0.488104  0.488104  1
  F  F82  1  0.261896  0.738104  0.238104  1
  F  F83  1  0.761896  0.761896  0.761896  1
