# generated using pymatgen
data_NbP4(S2Cl)5
_symmetry_space_group_name_H-M   'P 1'
_cell_length_a   10.30219385
_cell_length_b   11.72848916
_cell_length_c   12.32645106
_cell_angle_alpha   70.66984245
_cell_angle_beta   67.72385810
_cell_angle_gamma   67.63666459
_symmetry_Int_Tables_number   1
_chemical_formula_structural   NbP4(S2Cl)5
_chemical_formula_sum   'Nb2 P8 S20 Cl10'
_cell_volume   1243.85006281
_cell_formula_units_Z   2
loop_
 _symmetry_equiv_pos_site_id
 _symmetry_equiv_pos_as_xyz
  1  'x, y, z'
loop_
 _atom_site_type_symbol
 _atom_site_label
 _atom_site_symmetry_multiplicity
 _atom_site_fract_x
 _atom_site_fract_y
 _atom_site_fract_z
 _atom_site_occupancy
  Nb  Nb0  1  0.957913  0.871463  0.656141  1
  Nb  Nb1  1  0.042087  0.128537  0.343859  1
  P  P2  1  0.304977  0.349355  0.836675  1
  P  P3  1  0.377576  0.271259  0.567906  1
  P  P4  1  0.700559  0.944243  0.163497  1
  P  P5  1  0.695023  0.650645  0.163325  1
  P  P6  1  0.299441  0.055757  0.836503  1
  P  P7  1  0.024798  0.324086  0.763073  1
  P  P8  1  0.975202  0.675914  0.236927  1
  P  P9  1  0.622424  0.728741  0.432094  1
  S  S10  1  0.657099  0.120177  0.085243  1
  S  S11  1  0.073491  0.129746  0.848210  1
  S  S12  1  0.848613  0.654795  0.419682  1
  S  S13  1  0.575096  0.922852  0.346540  1
  S  S14  1  0.180261  0.608324  0.226026  1
  S  S15  1  0.921163  0.577589  0.151186  1
  S  S16  1  0.819739  0.391676  0.773974  1
  S  S17  1  0.424904  0.077148  0.653460  1
  S  S18  1  0.342901  0.879823  0.914757  1
  S  S19  1  0.926509  0.870254  0.151790  1
  S  S20  1  0.509433  0.709359  0.598388  1
  S  S21  1  0.647603  0.844855  0.078241  1
  S  S22  1  0.351628  0.439151  0.915400  1
  S  S23  1  0.078837  0.422411  0.848814  1
  S  S24  1  0.648372  0.560849  0.084600  1
  S  S25  1  0.490567  0.290641  0.401612  1
  S  S26  1  0.430679  0.370016  0.653746  1
  S  S27  1  0.151387  0.345205  0.580318  1
  S  S28  1  0.352397  0.155145  0.921759  1
  S  S29  1  0.569321  0.629984  0.346254  1
  Cl  Cl30  1  0.800091  0.048221  0.734606  1
  Cl  Cl31  1  0.132277  0.011540  0.532249  1
  Cl  Cl32  1  0.216656  0.232005  0.268751  1
  Cl  Cl33  1  0.873921  0.275600  0.458080  1
  Cl  Cl34  1  0.924467  0.205991  0.198455  1
  Cl  Cl35  1  0.126079  0.724400  0.541920  1
  Cl  Cl36  1  0.199909  0.951779  0.265394  1
  Cl  Cl37  1  0.867723  0.988460  0.467751  1
  Cl  Cl38  1  0.075533  0.794009  0.801545  1
  Cl  Cl39  1  0.783344  0.767995  0.731249  1
