# generated using pymatgen
data_Ba2Li3NbN4
_symmetry_space_group_name_H-M   'P 1'
_cell_length_a   6.36165016
_cell_length_b   6.36165016
_cell_length_c   11.14004049
_cell_angle_alpha   64.48057687
_cell_angle_beta   115.51942313
_cell_angle_gamma   126.60776063
_symmetry_Int_Tables_number   1
_chemical_formula_structural   Ba2Li3NbN4
_chemical_formula_sum   'Ba4 Li6 Nb2 N8'
_cell_volume   317.05030727
_cell_formula_units_Z   2
loop_
 _symmetry_equiv_pos_site_id
 _symmetry_equiv_pos_as_xyz
  1  'x, y, z'
loop_
 _atom_site_type_symbol
 _atom_site_label
 _atom_site_symmetry_multiplicity
 _atom_site_fract_x
 _atom_site_fract_y
 _atom_site_fract_z
 _atom_site_occupancy
  Ba  Ba0  1  0.439085  0.133320  0.111906  1
  Ba  Ba1  1  0.866680  0.560915  0.611906  1
  Ba  Ba2  1  0.560915  0.866680  0.888094  1
  Ba  Ba3  1  0.133320  0.439085  0.388094  1
  Li  Li4  1  0.973452  0.622209  0.041429  1
  Li  Li5  1  0.622209  0.973452  0.458571  1
  Li  Li6  1  0.115559  0.115559  0.250000  1
  Li  Li7  1  0.377791  0.026548  0.541429  1
  Li  Li8  1  0.884441  0.884441  0.750000  1
  Li  Li9  1  0.026548  0.377791  0.958571  1
  Nb  Nb10  1  0.362192  0.362192  0.750000  1
  Nb  Nb11  1  0.637808  0.637808  0.250000  1
  N  N12  1  0.568301  0.291936  0.387885  1
  N  N13  1  0.708064  0.431699  0.887885  1
  N  N14  1  0.235950  0.081038  0.661931  1
  N  N15  1  0.431699  0.708064  0.612115  1
  N  N16  1  0.918962  0.764050  0.161931  1
  N  N17  1  0.764050  0.918962  0.338069  1
  N  N18  1  0.081038  0.235950  0.838069  1
  N  N19  1  0.291936  0.568301  0.112115  1
