# generated using pymatgen
data_K2Nd(PO3)5
_symmetry_space_group_name_H-M   'P 1'
_cell_length_a   7.25722293
_cell_length_b   7.25722293
_cell_length_c   13.40959957
_cell_angle_alpha   89.59597591
_cell_angle_beta   90.40402409
_cell_angle_gamma   71.89860215
_symmetry_Int_Tables_number   1
_chemical_formula_structural   K2Nd(PO3)5
_chemical_formula_sum   'K4 Nd2 P10 O30'
_cell_volume   671.24529194
_cell_formula_units_Z   2
loop_
 _symmetry_equiv_pos_site_id
 _symmetry_equiv_pos_as_xyz
  1  'x, y, z'
loop_
 _atom_site_type_symbol
 _atom_site_label
 _atom_site_symmetry_multiplicity
 _atom_site_fract_x
 _atom_site_fract_y
 _atom_site_fract_z
 _atom_site_occupancy
  K  K0  1  0.795034  0.441011  0.056677  1
  K  K1  1  0.312210  0.299304  0.254139  1
  K  K2  1  0.558989  0.204966  0.556677  1
  K  K3  1  0.700696  0.687790  0.754139  1
  Nd  Nd4  1  0.903992  0.904172  0.250395  1
  Nd  Nd5  1  0.095828  0.096008  0.750395  1
  P  P6  1  0.003129  0.390704  0.509903  1
  P  P7  1  0.236154  0.613572  0.058968  1
  P  P8  1  0.770741  0.437760  0.325975  1
  P  P9  1  0.964924  0.814775  0.529865  1
  P  P10  1  0.386428  0.763846  0.558968  1
  P  P11  1  0.444886  0.803641  0.341334  1
  P  P12  1  0.196359  0.555114  0.841334  1
  P  P13  1  0.185225  0.035076  0.029865  1
  P  P14  1  0.562240  0.229259  0.825975  1
  P  P15  1  0.609296  0.996871  0.009903  1
  O  O16  1  0.157529  0.762772  0.810608  1
  O  O17  1  0.912154  0.917561  0.627582  1
  O  O18  1  0.082439  0.087846  0.127582  1
  O  O19  1  0.544345  0.569350  0.333958  1
  O  O20  1  0.629759  0.174390  0.939643  1
  O  O21  1  0.271192  0.805634  0.016502  1
  O  O22  1  0.187421  0.345944  0.453251  1
  O  O23  1  0.654056  0.812579  0.953251  1
  O  O24  1  0.237228  0.842471  0.310608  1
  O  O25  1  0.740684  0.232528  0.770512  1
  O  O26  1  0.068807  0.659056  0.130414  1
  O  O27  1  0.087958  0.438243  0.788375  1
  O  O28  1  0.430650  0.455655  0.833958  1
  O  O29  1  0.992519  0.279186  0.602891  1
  O  O30  1  0.522908  0.574919  0.592848  1
  O  O31  1  0.464044  0.844240  0.458734  1
  O  O32  1  0.425081  0.477092  0.092848  1
  O  O33  1  0.888936  0.559581  0.287369  1
  O  O34  1  0.561757  0.912042  0.288375  1
  O  O35  1  0.080364  0.123762  0.935404  1
  O  O36  1  0.383329  0.087514  0.039855  1
  O  O37  1  0.825610  0.370241  0.439643  1
  O  O38  1  0.720814  0.007481  0.102891  1
  O  O39  1  0.194366  0.728808  0.516502  1
  O  O40  1  0.155760  0.535956  0.958734  1
  O  O41  1  0.912486  0.616671  0.539855  1
  O  O42  1  0.876238  0.919636  0.435404  1
  O  O43  1  0.340944  0.931193  0.630414  1
  O  O44  1  0.440419  0.111064  0.787369  1
  O  O45  1  0.767472  0.259316  0.270512  1
