# generated using pymatgen
data_CsClO4
_symmetry_space_group_name_H-M   'P 1'
_cell_length_a   5.73152915
_cell_length_b   5.73152915
_cell_length_c   5.73152915
_cell_angle_alpha   60.00000000
_cell_angle_beta   60.00000000
_cell_angle_gamma   60.00000000
_symmetry_Int_Tables_number   1
_chemical_formula_structural   CsClO4
_chemical_formula_sum   'Cs1 Cl1 O4'
_cell_volume   133.13631064
_cell_formula_units_Z   1
loop_
 _symmetry_equiv_pos_site_id
 _symmetry_equiv_pos_as_xyz
  1  'x, y, z'
loop_
 _atom_site_type_symbol
 _atom_site_label
 _atom_site_symmetry_multiplicity
 _atom_site_fract_x
 _atom_site_fract_y
 _atom_site_fract_z
 _atom_site_occupancy
  Cs  Cs0  1  0.500000  0.500000  0.500000  1
  Cl  Cl1  1  1.000000  1.000000  1.000000  1
  O  O2  1  0.313248  0.895584  0.895584  1
  O  O3  1  0.895584  0.895584  0.313248  1
  O  O4  1  0.895584  0.895584  0.895584  1
  O  O5  1  0.895584  0.313248  0.895584  1
