# generated using pymatgen
data_Ta9Pb12O20F29
_symmetry_space_group_name_H-M   'P 1'
_cell_length_a   16.63961068
_cell_length_b   16.63961068
_cell_length_c   16.63961068
_cell_angle_alpha   90.79881311
_cell_angle_beta   90.79881311
_cell_angle_gamma   166.43807980
_symmetry_Int_Tables_number   1
_chemical_formula_structural   Ta9Pb12O20F29
_chemical_formula_sum   'Ta9 Pb12 O20 F29'
_cell_volume   1072.79419406
_cell_formula_units_Z   1
loop_
 _symmetry_equiv_pos_site_id
 _symmetry_equiv_pos_as_xyz
  1  'x, y, z'
loop_
 _atom_site_type_symbol
 _atom_site_label
 _atom_site_symmetry_multiplicity
 _atom_site_fract_x
 _atom_site_fract_y
 _atom_site_fract_z
 _atom_site_occupancy
  Ta  Ta0  1  0.899103  0.869821  0.768924  1
  Ta  Ta1  1  0.130179  0.899103  0.029283  1
  Ta  Ta2  1  0.231754  0.028186  0.259939  1
  Ta  Ta3  1  0.100897  0.130179  0.231076  1
  Ta  Ta4  1  0.869821  0.100897  0.970717  1
  Ta  Ta5  1  0.028186  0.768246  0.796432  1
  Ta  Ta6  1  0.000000  0.000000  0.000000  1
  Ta  Ta7  1  0.768246  0.971814  0.740061  1
  Ta  Ta8  1  0.971814  0.231754  0.203568  1
  Pb  Pb9  1  0.210612  0.601879  0.812491  1
  Pb  Pb10  1  0.672300  0.254042  0.926343  1
  Pb  Pb11  1  0.398121  0.210612  0.608734  1
  Pb  Pb12  1  0.601879  0.789388  0.391266  1
  Pb  Pb13  1  0.101538  0.452475  0.554013  1
  Pb  Pb14  1  0.452475  0.898462  0.350937  1
  Pb  Pb15  1  0.327700  0.745958  0.073657  1
  Pb  Pb16  1  0.745958  0.672300  0.418258  1
  Pb  Pb17  1  0.789388  0.398121  0.187509  1
  Pb  Pb18  1  0.254042  0.327700  0.581742  1
  Pb  Pb19  1  0.898462  0.547525  0.445987  1
  Pb  Pb20  1  0.547525  0.101538  0.649063  1
  O  O21  1  0.956645  0.807071  0.763715  1
  O  O22  1  0.255997  0.470113  0.726111  1
  O  O23  1  0.047440  0.068294  0.115734  1
  O  O24  1  0.363702  0.606609  0.970311  1
  O  O25  1  0.931706  0.047440  0.979146  1
  O  O26  1  0.068294  0.952560  0.020854  1
  O  O27  1  0.636298  0.393391  0.029689  1
  O  O28  1  0.952560  0.931706  0.884266  1
  O  O29  1  0.807071  0.043355  0.850426  1
  O  O30  1  0.043355  0.192929  0.236285  1
  O  O31  1  0.192929  0.956645  0.149574  1
  O  O32  1  0.830032  0.920207  0.750239  1
  O  O33  1  0.470113  0.744003  0.214116  1
  O  O34  1  0.920207  0.169968  0.090175  1
  O  O35  1  0.744003  0.529887  0.273890  1
  O  O36  1  0.079793  0.830032  0.909825  1
  O  O37  1  0.393391  0.363702  0.757092  1
  O  O38  1  0.529887  0.255997  0.785884  1
  O  O39  1  0.169968  0.079793  0.249761  1
  O  O40  1  0.606609  0.636298  0.242908  1
  F  F41  1  0.162676  0.195881  0.358557  1
  F  F42  1  0.422265  0.114094  0.536359  1
  F  F43  1  0.307603  0.979847  0.287449  1
  F  F44  1  0.577735  0.885906  0.463641  1
  F  F45  1  0.900952  0.286406  0.187359  1
  F  F46  1  0.329311  0.852327  0.181638  1
  F  F47  1  0.147673  0.329311  0.476984  1
  F  F48  1  0.224115  0.714945  0.939061  1
  F  F49  1  0.996013  0.566225  0.562238  1
  F  F50  1  0.714945  0.775885  0.490830  1
  F  F51  1  0.114094  0.577735  0.691829  1
  F  F52  1  0.837324  0.804119  0.641443  1
  F  F53  1  0.670689  0.147673  0.818362  1
  F  F54  1  0.713594  0.900952  0.614546  1
  F  F55  1  0.852327  0.670689  0.523016  1
  F  F56  1  0.692397  0.020153  0.712551  1
  F  F57  1  0.775885  0.285055  0.060939  1
  F  F58  1  0.286406  0.099048  0.385454  1
  F  F59  1  0.566225  0.003987  0.570212  1
  F  F60  1  0.500000  0.500000  0.000000  1
  F  F61  1  0.804119  0.162676  0.966796  1
  F  F62  1  0.885906  0.422265  0.308171  1
  F  F63  1  0.020153  0.307603  0.327756  1
  F  F64  1  0.285055  0.224115  0.509170  1
  F  F65  1  0.979847  0.692397  0.672244  1
  F  F66  1  0.433775  0.996013  0.429788  1
  F  F67  1  0.003987  0.433775  0.437762  1
  F  F68  1  0.099048  0.713594  0.812641  1
  F  F69  1  0.195881  0.837324  0.033204  1
