# generated using pymatgen
data_KLi4NbO5
_symmetry_space_group_name_H-M   'P 1'
_cell_length_a   5.86811398
_cell_length_b   5.98982521
_cell_length_c   8.33581372
_cell_angle_alpha   88.40455064
_cell_angle_beta   100.96041186
_cell_angle_gamma   119.15100761
_symmetry_Int_Tables_number   1
_chemical_formula_structural   KLi4NbO5
_chemical_formula_sum   'K2 Li8 Nb2 O10'
_cell_volume   250.49870309
_cell_formula_units_Z   2
loop_
 _symmetry_equiv_pos_site_id
 _symmetry_equiv_pos_as_xyz
  1  'x, y, z'
loop_
 _atom_site_type_symbol
 _atom_site_label
 _atom_site_symmetry_multiplicity
 _atom_site_fract_x
 _atom_site_fract_y
 _atom_site_fract_z
 _atom_site_occupancy
  K  K0  1  0.615074  0.762353  0.416298  1
  K  K1  1  0.384926  0.237647  0.583702  1
  Li  Li2  1  0.340257  0.000606  0.880101  1
  Li  Li3  1  0.659743  0.999394  0.119899  1
  Li  Li4  1  0.597412  0.391426  0.086770  1
  Li  Li5  1  0.883059  0.332170  0.388358  1
  Li  Li6  1  0.090985  0.395862  0.104855  1
  Li  Li7  1  0.402588  0.608574  0.913230  1
  Li  Li8  1  0.116941  0.667830  0.611642  1
  Li  Li9  1  0.909015  0.604138  0.895145  1
  Nb  Nb10  1  0.142488  0.937389  0.198307  1
  Nb  Nb11  1  0.857512  0.062611  0.801693  1
  O  O12  1  0.780001  0.764559  0.032025  1
  O  O13  1  0.518955  0.182812  0.276991  1
  O  O14  1  0.219999  0.235441  0.967975  1
  O  O15  1  0.260018  0.756000  0.052442  1
  O  O16  1  0.481045  0.817188  0.723009  1
  O  O17  1  0.928461  0.294091  0.634586  1
  O  O18  1  0.021825  0.159544  0.280438  1
  O  O19  1  0.739982  0.244000  0.947558  1
  O  O20  1  0.071539  0.705909  0.365414  1
  O  O21  1  0.978175  0.840456  0.719562  1
