# generated using pymatgen
data_Ba5Ta2Cl2O9
_symmetry_space_group_name_H-M   'P 1'
_cell_length_a   6.04537093
_cell_length_b   6.04537093
_cell_length_c   25.09960989
_cell_angle_alpha   90.00000000
_cell_angle_beta   90.00000000
_cell_angle_gamma   120.00000000
_symmetry_Int_Tables_number   1
_chemical_formula_structural   Ba5Ta2Cl2O9
_chemical_formula_sum   'Ba10 Ta4 Cl4 O18'
_cell_volume   794.40781908
_cell_formula_units_Z   2
loop_
 _symmetry_equiv_pos_site_id
 _symmetry_equiv_pos_as_xyz
  1  'x, y, z'
loop_
 _atom_site_type_symbol
 _atom_site_label
 _atom_site_symmetry_multiplicity
 _atom_site_fract_x
 _atom_site_fract_y
 _atom_site_fract_z
 _atom_site_occupancy
  Ba  Ba0  1  0.333333  0.666667  0.418286  1
  Ba  Ba1  1  0.333333  0.666667  0.081714  1
  Ba  Ba2  1  0.333333  0.666667  0.827867  1
  Ba  Ba3  1  0.666667  0.333333  0.581714  1
  Ba  Ba4  1  0.666667  0.333333  0.918286  1
  Ba  Ba5  1  0.666667  0.333333  0.327867  1
  Ba  Ba6  1  0.666667  0.333333  0.172133  1
  Ba  Ba7  1  0.333333  0.666667  0.250000  1
  Ba  Ba8  1  0.666667  0.333333  0.750000  1
  Ba  Ba9  1  0.333333  0.666667  0.672133  1
  Ta  Ta10  1  0.000000  0.000000  0.810411  1
  Ta  Ta11  1  0.000000  0.000000  0.310411  1
  Ta  Ta12  1  0.000000  0.000000  0.189589  1
  Ta  Ta13  1  0.000000  0.000000  0.689589  1
  Cl  Cl14  1  0.333333  0.666667  0.546711  1
  Cl  Cl15  1  0.333333  0.666667  0.953289  1
  Cl  Cl16  1  0.666667  0.333333  0.046711  1
  Cl  Cl17  1  0.666667  0.333333  0.453289  1
  O  O18  1  0.161921  0.323842  0.155033  1
  O  O19  1  0.704336  0.852168  0.750000  1
  O  O20  1  0.838079  0.676158  0.655033  1
  O  O21  1  0.852168  0.147832  0.250000  1
  O  O22  1  0.161921  0.838079  0.344967  1
  O  O23  1  0.161921  0.838079  0.155033  1
  O  O24  1  0.838079  0.161921  0.655033  1
  O  O25  1  0.323842  0.161921  0.655033  1
  O  O26  1  0.838079  0.161921  0.844967  1
  O  O27  1  0.852168  0.704336  0.250000  1
  O  O28  1  0.295664  0.147832  0.250000  1
  O  O29  1  0.323842  0.161921  0.844967  1
  O  O30  1  0.147832  0.295664  0.750000  1
  O  O31  1  0.838079  0.676158  0.844967  1
  O  O32  1  0.161921  0.323842  0.344967  1
  O  O33  1  0.676158  0.838079  0.155033  1
  O  O34  1  0.147832  0.852168  0.750000  1
  O  O35  1  0.676158  0.838079  0.344967  1
