# generated using pymatgen
data_IOF3
_symmetry_space_group_name_H-M   'P 1'
_cell_length_a   5.77672795
_cell_length_b   5.80389782
_cell_length_c   10.62560353
_cell_angle_alpha   90.00000000
_cell_angle_beta   90.00000000
_cell_angle_gamma   90.00000000
_symmetry_Int_Tables_number   1
_chemical_formula_structural   IOF3
_chemical_formula_sum   'I4 O4 F12'
_cell_volume   356.25033416
_cell_formula_units_Z   4
loop_
 _symmetry_equiv_pos_site_id
 _symmetry_equiv_pos_as_xyz
  1  'x, y, z'
loop_
 _atom_site_type_symbol
 _atom_site_label
 _atom_site_symmetry_multiplicity
 _atom_site_fract_x
 _atom_site_fract_y
 _atom_site_fract_z
 _atom_site_occupancy
  I  I0  1  0.677948  0.429755  0.900845  1
  I  I1  1  0.177948  0.070245  0.099155  1
  I  I2  1  0.322052  0.929755  0.599155  1
  I  I3  1  0.822052  0.570245  0.400845  1
  O  O4  1  0.824617  0.191854  0.968818  1
  O  O5  1  0.675383  0.808146  0.468818  1
  O  O6  1  0.175383  0.691854  0.531182  1
  O  O7  1  0.324617  0.308146  0.031182  1
  F  F8  1  0.855647  0.653113  0.999140  1
  F  F9  1  0.603514  0.503445  0.273657  1
  F  F10  1  0.644353  0.346887  0.499140  1
  F  F11  1  0.039852  0.269789  0.229887  1
  F  F12  1  0.460148  0.730211  0.729887  1
  F  F13  1  0.960148  0.769789  0.270113  1
  F  F14  1  0.396486  0.003445  0.226343  1
  F  F15  1  0.355647  0.846887  0.000860  1
  F  F16  1  0.539852  0.230211  0.770113  1
  F  F17  1  0.103514  0.996555  0.726343  1
  F  F18  1  0.144353  0.153113  0.500860  1
  F  F19  1  0.896486  0.496555  0.773657  1
