# generated using pymatgen
data_Pb2CO4
_symmetry_space_group_name_H-M   'P 1'
_cell_length_a   5.25264411
_cell_length_b   9.49909698
_cell_length_c   9.50266167
_cell_angle_alpha   90.00000000
_cell_angle_beta   90.00000000
_cell_angle_gamma   90.00000000
_symmetry_Int_Tables_number   1
_chemical_formula_structural   Pb2CO4
_chemical_formula_sum   'Pb8 C4 O16'
_cell_volume   474.13887515
_cell_formula_units_Z   4
loop_
 _symmetry_equiv_pos_site_id
 _symmetry_equiv_pos_as_xyz
  1  'x, y, z'
loop_
 _atom_site_type_symbol
 _atom_site_label
 _atom_site_symmetry_multiplicity
 _atom_site_fract_x
 _atom_site_fract_y
 _atom_site_fract_z
 _atom_site_occupancy
  Pb  Pb0  1  0.012087  0.545383  0.587592  1
  Pb  Pb1  1  0.512087  0.954617  0.412408  1
  Pb  Pb2  1  0.987913  0.045383  0.912408  1
  Pb  Pb3  1  0.487913  0.454617  0.087592  1
  Pb  Pb4  1  0.950443  0.244612  0.350094  1
  Pb  Pb5  1  0.450443  0.255388  0.649906  1
  Pb  Pb6  1  0.049557  0.744612  0.149906  1
  Pb  Pb7  1  0.549557  0.755388  0.850094  1
  C  C8  1  0.989903  0.494244  0.902684  1
  C  C9  1  0.489903  0.005756  0.097316  1
  C  C10  1  0.010097  0.994244  0.597316  1
  C  C11  1  0.510097  0.505756  0.402684  1
  O  O12  1  0.204844  0.486902  0.837436  1
  O  O13  1  0.704844  0.013098  0.162564  1
  O  O14  1  0.795156  0.986902  0.662564  1
  O  O15  1  0.295156  0.513098  0.337436  1
  O  O16  1  0.721969  0.490889  0.332904  1
  O  O17  1  0.221969  0.009111  0.667096  1
  O  O18  1  0.278031  0.990889  0.167096  1
  O  O19  1  0.778031  0.509111  0.832904  1
  O  O20  1  0.017919  0.986497  0.459457  1
  O  O21  1  0.517919  0.513503  0.540543  1
  O  O22  1  0.982081  0.486497  0.040543  1
  O  O23  1  0.482081  0.013503  0.959457  1
  O  O24  1  0.045039  0.314280  0.570910  1
  O  O25  1  0.545039  0.185720  0.429090  1
  O  O26  1  0.954961  0.814280  0.929090  1
  O  O27  1  0.454961  0.685720  0.070910  1
