# generated using pymatgen
data_BaSb2F12
_symmetry_space_group_name_H-M   'P 1'
_cell_length_a   5.73964093
_cell_length_b   5.74598100
_cell_length_c   9.43677097
_cell_angle_alpha   97.50524450
_cell_angle_beta   95.16078336
_cell_angle_gamma   118.41949995
_symmetry_Int_Tables_number   1
_chemical_formula_structural   BaSb2F12
_chemical_formula_sum   'Ba1 Sb2 F12'
_cell_volume   267.21056955
_cell_formula_units_Z   1
loop_
 _symmetry_equiv_pos_site_id
 _symmetry_equiv_pos_as_xyz
  1  'x, y, z'
loop_
 _atom_site_type_symbol
 _atom_site_label
 _atom_site_symmetry_multiplicity
 _atom_site_fract_x
 _atom_site_fract_y
 _atom_site_fract_z
 _atom_site_occupancy
  Ba  Ba0  1  0.987890  0.963801  0.924938  1
  Sb  Sb1  1  0.220259  0.499491  0.589463  1
  Sb  Sb2  1  0.376459  0.694269  0.138908  1
  F  F3  1  0.233656  0.903333  0.225141  1
  F  F4  1  0.554201  0.672038  0.731338  1
  F  F5  1  0.042573  0.517773  0.994694  1
  F  F6  1  0.206564  0.381476  0.220600  1
  F  F7  1  0.490295  0.488105  0.009319  1
  F  F8  1  0.334090  0.270537  0.496116  1
  F  F9  1  0.722189  0.865108  0.252535  1
  F  F10  1  0.124297  0.730171  0.712698  1
  F  F11  1  0.882429  0.344115  0.467898  1
  F  F12  1  0.066788  0.244276  0.717967  1
  F  F13  1  0.390910  0.775566  0.483084  1
  F  F14  1  0.515399  0.959942  0.013299  1
