# generated using pymatgen
data_Tb2Mo4O15
_symmetry_space_group_name_H-M   'P 1'
_cell_length_a   6.95517323
_cell_length_b   9.74701022
_cell_length_c   10.83996385
_cell_angle_alpha   90.00000000
_cell_angle_beta   105.00047242
_cell_angle_gamma   90.00000000
_symmetry_Int_Tables_number   1
_chemical_formula_structural   Tb2Mo4O15
_chemical_formula_sum   'Tb4 Mo8 O30'
_cell_volume   709.82293121
_cell_formula_units_Z   2
loop_
 _symmetry_equiv_pos_site_id
 _symmetry_equiv_pos_as_xyz
  1  'x, y, z'
loop_
 _atom_site_type_symbol
 _atom_site_label
 _atom_site_symmetry_multiplicity
 _atom_site_fract_x
 _atom_site_fract_y
 _atom_site_fract_z
 _atom_site_occupancy
  Tb  Tb0  1  0.206779  0.523527  0.274657  1
  Tb  Tb1  1  0.793221  0.023527  0.225343  1
  Tb  Tb2  1  0.793221  0.476473  0.725343  1
  Tb  Tb3  1  0.206779  0.976473  0.774657  1
  Mo  Mo4  1  0.080394  0.257145  0.509955  1
  Mo  Mo5  1  0.919606  0.757145  0.990045  1
  Mo  Mo6  1  0.919606  0.742855  0.490045  1
  Mo  Mo7  1  0.080394  0.242855  0.009955  1
  Mo  Mo8  1  0.383037  0.905761  0.344495  1
  Mo  Mo9  1  0.616963  0.405761  0.155505  1
  Mo  Mo10  1  0.616963  0.094239  0.655505  1
  Mo  Mo11  1  0.383037  0.594239  0.844495  1
  O  O12  1  0.885617  0.166274  0.399662  1
  O  O13  1  0.114383  0.666274  0.100338  1
  O  O14  1  0.114383  0.833726  0.600338  1
  O  O15  1  0.885617  0.333726  0.899662  1
  O  O16  1  0.455841  0.972991  0.210936  1
  O  O17  1  0.544159  0.472991  0.289064  1
  O  O18  1  0.544159  0.027009  0.789064  1
  O  O19  1  0.455841  0.527009  0.710936  1
  O  O20  1  0.972610  0.372426  0.600781  1
  O  O21  1  0.027390  0.872426  0.899219  1
  O  O22  1  0.027390  0.627574  0.399219  1
  O  O23  1  0.972610  0.127574  0.100781  1
  O  O24  1  0.500000  0.500000  0.000000  1
  O  O25  1  0.500000  0.000000  0.500000  1
  O  O26  1  0.241205  0.363577  0.116533  1
  O  O27  1  0.758795  0.863577  0.383467  1
  O  O28  1  0.758795  0.636423  0.883467  1
  O  O29  1  0.241205  0.136423  0.616533  1
  O  O30  1  0.385523  0.776037  0.849343  1
  O  O31  1  0.614477  0.276037  0.650657  1
  O  O32  1  0.614477  0.223963  0.150657  1
  O  O33  1  0.385523  0.723963  0.349343  1
  O  O34  1  0.218663  0.149858  0.919032  1
  O  O35  1  0.781337  0.649858  0.580968  1
  O  O36  1  0.781337  0.850142  0.080968  1
  O  O37  1  0.218663  0.350142  0.419032  1
  O  O38  1  0.127159  0.551864  0.815095  1
  O  O39  1  0.872841  0.051864  0.684905  1
  O  O40  1  0.872841  0.448136  0.184905  1
  O  O41  1  0.127159  0.948136  0.315095  1
