# generated using pymatgen
data_Nd4Al2O9
_symmetry_space_group_name_H-M   'P 1'
_cell_length_a   7.79194796
_cell_length_b   10.95350314
_cell_length_c   11.45141545
_cell_angle_alpha   90.00000000
_cell_angle_beta   109.35986278
_cell_angle_gamma   90.00000000
_symmetry_Int_Tables_number   1
_chemical_formula_structural   Nd4Al2O9
_chemical_formula_sum   'Nd16 Al8 O36'
_cell_volume   922.10312513
_cell_formula_units_Z   4
loop_
 _symmetry_equiv_pos_site_id
 _symmetry_equiv_pos_as_xyz
  1  'x, y, z'
loop_
 _atom_site_type_symbol
 _atom_site_label
 _atom_site_symmetry_multiplicity
 _atom_site_fract_x
 _atom_site_fract_y
 _atom_site_fract_z
 _atom_site_occupancy
  Nd  Nd0  1  0.334144  0.375747  0.929444  1
  Nd  Nd1  1  0.523943  0.398941  0.288072  1
  Nd  Nd2  1  0.476057  0.898941  0.211928  1
  Nd  Nd3  1  0.164383  0.623083  0.086854  1
  Nd  Nd4  1  0.974158  0.913861  0.189849  1
  Nd  Nd5  1  0.523943  0.101059  0.788072  1
  Nd  Nd6  1  0.665856  0.875747  0.570556  1
  Nd  Nd7  1  0.025842  0.086139  0.810151  1
  Nd  Nd8  1  0.476057  0.601059  0.711928  1
  Nd  Nd9  1  0.835617  0.123083  0.413146  1
  Nd  Nd10  1  0.974158  0.586139  0.689849  1
  Nd  Nd11  1  0.334144  0.124253  0.429444  1
  Nd  Nd12  1  0.164383  0.876917  0.586854  1
  Nd  Nd13  1  0.665856  0.624253  0.070556  1
  Nd  Nd14  1  0.835617  0.376917  0.913146  1
  Nd  Nd15  1  0.025842  0.413861  0.310151  1
  Al  Al16  1  0.651771  0.188957  0.119115  1
  Al  Al17  1  0.776442  0.809035  0.870983  1
  Al  Al18  1  0.348229  0.811043  0.880885  1
  Al  Al19  1  0.223558  0.190965  0.129017  1
  Al  Al20  1  0.776442  0.690965  0.370983  1
  Al  Al21  1  0.651771  0.311043  0.619115  1
  Al  Al22  1  0.348229  0.688957  0.380885  1
  Al  Al23  1  0.223558  0.309035  0.629017  1
  O  O24  1  0.567705  0.008921  0.396594  1
  O  O25  1  0.076337  0.996431  0.393669  1
  O  O26  1  0.640947  0.272353  0.467656  1
  O  O27  1  0.782691  0.221892  0.746923  1
  O  O28  1  0.565604  0.741813  0.382598  1
  O  O29  1  0.923663  0.003569  0.606331  1
  O  O30  1  0.217309  0.721892  0.753077  1
  O  O31  1  0.359053  0.772353  0.032344  1
  O  O32  1  0.298606  0.537016  0.326594  1
  O  O33  1  0.079530  0.266356  0.481122  1
  O  O34  1  0.434396  0.258187  0.617402  1
  O  O35  1  0.218082  0.035364  0.165919  1
  O  O36  1  0.434396  0.241813  0.117402  1
  O  O37  1  0.567705  0.491079  0.896594  1
  O  O38  1  0.781918  0.535364  0.334081  1
  O  O39  1  0.359053  0.727647  0.532344  1
  O  O40  1  0.565604  0.758187  0.882598  1
  O  O41  1  0.768178  0.724279  0.736298  1
  O  O42  1  0.231822  0.224279  0.763702  1
  O  O43  1  0.920470  0.766356  0.018878  1
  O  O44  1  0.217309  0.778108  0.253077  1
  O  O45  1  0.640947  0.227647  0.967656  1
  O  O46  1  0.923663  0.496431  0.106331  1
  O  O47  1  0.432295  0.991079  0.603406  1
  O  O48  1  0.701394  0.037016  0.173406  1
  O  O49  1  0.920470  0.733644  0.518878  1
  O  O50  1  0.432295  0.508921  0.103406  1
  O  O51  1  0.701394  0.462984  0.673406  1
  O  O52  1  0.782691  0.278108  0.246923  1
  O  O53  1  0.781918  0.964636  0.834081  1
  O  O54  1  0.076337  0.503569  0.893669  1
  O  O55  1  0.079530  0.233644  0.981122  1
  O  O56  1  0.218082  0.464636  0.665919  1
  O  O57  1  0.768178  0.775721  0.236298  1
  O  O58  1  0.298606  0.962984  0.826594  1
  O  O59  1  0.231822  0.275721  0.263702  1
