# generated using pymatgen
data_SrLi4Ca(SiO4)2
_symmetry_space_group_name_H-M   'P 1'
_cell_length_a   5.03492751
_cell_length_b   10.03938185
_cell_length_c   14.22996973
_cell_angle_alpha   90.00000000
_cell_angle_beta   90.00000000
_cell_angle_gamma   90.00000000
_symmetry_Int_Tables_number   1
_chemical_formula_structural   SrLi4Ca(SiO4)2
_chemical_formula_sum   'Sr4 Li16 Ca4 Si8 O32'
_cell_volume   719.29024673
_cell_formula_units_Z   4
loop_
 _symmetry_equiv_pos_site_id
 _symmetry_equiv_pos_as_xyz
  1  'x, y, z'
loop_
 _atom_site_type_symbol
 _atom_site_label
 _atom_site_symmetry_multiplicity
 _atom_site_fract_x
 _atom_site_fract_y
 _atom_site_fract_z
 _atom_site_occupancy
  Sr  Sr0  1  0.055407  0.268266  0.250000  1
  Sr  Sr1  1  0.944593  0.731734  0.750000  1
  Sr  Sr2  1  0.055407  0.231734  0.750000  1
  Sr  Sr3  1  0.944593  0.768266  0.250000  1
  Li  Li4  1  0.517460  0.224602  0.872281  1
  Li  Li5  1  0.958833  0.996744  0.627590  1
  Li  Li6  1  0.041167  0.003256  0.127590  1
  Li  Li7  1  0.482540  0.724602  0.872281  1
  Li  Li8  1  0.041167  0.003256  0.372410  1
  Li  Li9  1  0.517460  0.275398  0.127719  1
  Li  Li10  1  0.958833  0.503256  0.372410  1
  Li  Li11  1  0.958833  0.996744  0.872410  1
  Li  Li12  1  0.517460  0.224602  0.627719  1
  Li  Li13  1  0.958833  0.503256  0.127590  1
  Li  Li14  1  0.482540  0.724602  0.627719  1
  Li  Li15  1  0.041167  0.496744  0.872410  1
  Li  Li16  1  0.517460  0.275398  0.372281  1
  Li  Li17  1  0.482540  0.775398  0.372281  1
  Li  Li18  1  0.482540  0.775398  0.127719  1
  Li  Li19  1  0.041167  0.496744  0.627590  1
  Ca  Ca20  1  0.500000  0.000000  0.500000  1
  Ca  Ca21  1  0.500000  0.500000  0.000000  1
  Ca  Ca22  1  0.500000  0.000000  0.000000  1
  Ca  Ca23  1  0.500000  0.500000  0.500000  1
  Si  Si24  1  0.474059  0.975767  0.750000  1
  Si  Si25  1  0.525941  0.475767  0.750000  1
  Si  Si26  1  0.474059  0.524233  0.250000  1
  Si  Si27  1  0.525941  0.024233  0.250000  1
  Si  Si28  1  0.982599  0.750000  0.000000  1
  Si  Si29  1  0.017401  0.250000  0.500000  1
  Si  Si30  1  0.982599  0.750000  0.500000  1
  Si  Si31  1  0.017401  0.250000  0.000000  1
  O  O32  1  0.665257  0.545053  0.655575  1
  O  O33  1  0.581495  0.312376  0.750000  1
  O  O34  1  0.210463  0.335165  0.572849  1
  O  O35  1  0.210463  0.164835  0.072849  1
  O  O36  1  0.334743  0.045053  0.655575  1
  O  O37  1  0.334743  0.454947  0.344425  1
  O  O38  1  0.665257  0.954947  0.155575  1
  O  O39  1  0.789537  0.835165  0.572849  1
  O  O40  1  0.178586  0.650369  0.560904  1
  O  O41  1  0.797473  0.499919  0.250000  1
  O  O42  1  0.797473  0.000081  0.750000  1
  O  O43  1  0.821414  0.150369  0.560904  1
  O  O44  1  0.178586  0.849631  0.060904  1
  O  O45  1  0.665257  0.545053  0.844425  1
  O  O46  1  0.581495  0.187624  0.250000  1
  O  O47  1  0.665257  0.954947  0.344425  1
  O  O48  1  0.178586  0.849631  0.439096  1
  O  O49  1  0.202527  0.500081  0.750000  1
  O  O50  1  0.821414  0.349631  0.060904  1
  O  O51  1  0.821414  0.150369  0.939096  1
  O  O52  1  0.202527  0.999919  0.250000  1
  O  O53  1  0.178586  0.650369  0.939096  1
  O  O54  1  0.210463  0.164835  0.427151  1
  O  O55  1  0.789537  0.835165  0.927151  1
  O  O56  1  0.334743  0.045053  0.844425  1
  O  O57  1  0.334743  0.454947  0.155575  1
  O  O58  1  0.418505  0.687624  0.250000  1
  O  O59  1  0.210463  0.335165  0.927151  1
  O  O60  1  0.418505  0.812376  0.750000  1
  O  O61  1  0.789537  0.664835  0.427151  1
  O  O62  1  0.789537  0.664835  0.072849  1
  O  O63  1  0.821414  0.349631  0.439096  1
