# generated using pymatgen
data_ScNbO4
_symmetry_space_group_name_H-M   'P 1'
_cell_length_a   4.86455757
_cell_length_b   5.78052657
_cell_length_c   5.15218718
_cell_angle_alpha   90.00000000
_cell_angle_beta   90.92355408
_cell_angle_gamma   90.00000000
_symmetry_Int_Tables_number   1
_chemical_formula_structural   ScNbO4
_chemical_formula_sum   'Sc2 Nb2 O8'
_cell_volume   144.85915894
_cell_formula_units_Z   2
loop_
 _symmetry_equiv_pos_site_id
 _symmetry_equiv_pos_as_xyz
  1  'x, y, z'
loop_
 _atom_site_type_symbol
 _atom_site_label
 _atom_site_symmetry_multiplicity
 _atom_site_fract_x
 _atom_site_fract_y
 _atom_site_fract_z
 _atom_site_occupancy
  Sc  Sc0  1  0.500000  0.681195  0.250000  1
  Sc  Sc1  1  0.500000  0.318805  0.750000  1
  Nb  Nb2  1  0.000000  0.816145  0.750000  1
  Nb  Nb3  1  0.000000  0.183855  0.250000  1
  O  O4  1  0.219367  0.892337  0.435895  1
  O  O5  1  0.780633  0.892337  0.064105  1
  O  O6  1  0.219367  0.107663  0.935895  1
  O  O7  1  0.734465  0.385134  0.092599  1
  O  O8  1  0.265535  0.614866  0.907401  1
  O  O9  1  0.780633  0.107663  0.564105  1
  O  O10  1  0.734465  0.614866  0.592599  1
  O  O11  1  0.265535  0.385134  0.407401  1
