# generated using pymatgen
data_ZnS
_symmetry_space_group_name_H-M   'P 1'
_cell_length_a   3.85146258
_cell_length_b   3.85146258
_cell_length_c   75.53898428
_cell_angle_alpha   90.00000000
_cell_angle_beta   90.00000000
_cell_angle_gamma   120.00000000
_symmetry_Int_Tables_number   1
_chemical_formula_structural   ZnS
_chemical_formula_sum   'Zn24 S24'
_cell_volume   970.40525350
_cell_formula_units_Z   24
loop_
 _symmetry_equiv_pos_site_id
 _symmetry_equiv_pos_as_xyz
  1  'x, y, z'
loop_
 _atom_site_type_symbol
 _atom_site_label
 _atom_site_symmetry_multiplicity
 _atom_site_fract_x
 _atom_site_fract_y
 _atom_site_fract_z
 _atom_site_occupancy
  Zn  Zn0  1  0.000000  0.000000  0.708307  1
  Zn  Zn1  1  0.666667  0.333333  0.791668  1
  Zn  Zn2  1  0.000000  0.000000  0.333315  1
  Zn  Zn3  1  0.333333  0.666667  0.416659  1
  Zn  Zn4  1  0.000000  0.000000  0.083327  1
  Zn  Zn5  1  0.333333  0.666667  0.666642  1
  Zn  Zn6  1  0.000000  0.000000  0.583353  1
  Zn  Zn7  1  0.000000  0.000000  0.208348  1
  Zn  Zn8  1  0.333333  0.666667  0.541684  1
  Zn  Zn9  1  0.666667  0.333333  0.041686  1
  Zn  Zn10  1  0.000000  0.000000  0.458329  1
  Zn  Zn11  1  0.333333  0.666667  0.125000  1
  Zn  Zn12  1  0.666667  0.333333  0.166681  1
  Zn  Zn13  1  0.666667  0.333333  0.291646  1
  Zn  Zn14  1  0.333333  0.666667  0.750001  1
  Zn  Zn15  1  0.000000  0.000000  0.833333  1
  Zn  Zn16  1  0.666667  0.333333  0.375004  1
  Zn  Zn17  1  0.666667  0.333333  0.500005  1
  Zn  Zn18  1  0.666667  0.333333  0.958339  1
  Zn  Zn19  1  0.333333  0.666667  0.875021  1
  Zn  Zn20  1  0.000000  0.000000  0.916713  1
  Zn  Zn21  1  0.333333  0.666667  0.000008  1
  Zn  Zn22  1  0.666667  0.333333  0.625009  1
  Zn  Zn23  1  0.333333  0.666667  0.250005  1
  S  S24  1  0.333333  0.666667  0.697859  1
  S  S25  1  0.666667  0.333333  0.531255  1
  S  S26  1  0.666667  0.333333  0.197928  1
  S  S27  1  0.000000  0.000000  0.864560  1
  S  S28  1  0.666667  0.333333  0.322866  1
  S  S29  1  0.333333  0.666667  0.572931  1
  S  S30  1  0.666667  0.333333  0.406237  1
  S  S31  1  0.333333  0.666667  0.781236  1
  S  S32  1  0.666667  0.333333  0.656242  1
  S  S33  1  0.666667  0.333333  0.989557  1
  S  S34  1  0.000000  0.000000  0.114571  1
  S  S35  1  0.000000  0.000000  0.739585  1
  S  S36  1  0.333333  0.666667  0.031282  1
  S  S37  1  0.000000  0.000000  0.947936  1
  S  S38  1  0.333333  0.666667  0.156250  1
  S  S39  1  0.000000  0.000000  0.489577  1
  S  S40  1  0.000000  0.000000  0.614594  1
  S  S41  1  0.666667  0.333333  0.822912  1
  S  S42  1  0.333333  0.666667  0.281242  1
  S  S43  1  0.000000  0.000000  0.364593  1
  S  S44  1  0.666667  0.333333  0.072912  1
  S  S45  1  0.333333  0.666667  0.447905  1
  S  S46  1  0.000000  0.000000  0.239589  1
  S  S47  1  0.333333  0.666667  0.906299  1
