# generated using pymatgen
data_K2CrSO7
_symmetry_space_group_name_H-M   'P 1'
_cell_length_a   7.53030040
_cell_length_b   7.52305371
_cell_length_c   15.02335137
_cell_angle_alpha   90.00000000
_cell_angle_beta   118.61678037
_cell_angle_gamma   90.00000000
_symmetry_Int_Tables_number   1
_chemical_formula_structural   K2CrSO7
_chemical_formula_sum   'K8 Cr4 S4 O28'
_cell_volume   747.11939620
_cell_formula_units_Z   4
loop_
 _symmetry_equiv_pos_site_id
 _symmetry_equiv_pos_as_xyz
  1  'x, y, z'
loop_
 _atom_site_type_symbol
 _atom_site_label
 _atom_site_symmetry_multiplicity
 _atom_site_fract_x
 _atom_site_fract_y
 _atom_site_fract_z
 _atom_site_occupancy
  K  K0  1  0.023813  0.880578  0.155928  1
  K  K1  1  0.541704  0.707382  0.364160  1
  K  K2  1  0.976187  0.380578  0.344072  1
  K  K3  1  0.541704  0.792618  0.864160  1
  K  K4  1  0.458296  0.292618  0.635840  1
  K  K5  1  0.458296  0.207382  0.135840  1
  K  K6  1  0.976187  0.119422  0.844072  1
  K  K7  1  0.023813  0.619422  0.655928  1
  Cr  Cr8  1  0.092614  0.831339  0.419508  1
  Cr  Cr9  1  0.907386  0.168661  0.580492  1
  Cr  Cr10  1  0.907386  0.331339  0.080492  1
  Cr  Cr11  1  0.092614  0.668661  0.919508  1
  S  S12  1  0.497152  0.208848  0.383538  1
  S  S13  1  0.502848  0.708848  0.116462  1
  S  S14  1  0.502848  0.791152  0.616462  1
  S  S15  1  0.497152  0.291152  0.883538  1
  O  O16  1  0.844034  0.215473  0.153158  1
  O  O17  1  0.627057  0.574396  0.190738  1
  O  O18  1  0.322869  0.592061  0.030401  1
  O  O19  1  0.593455  0.332846  0.343926  1
  O  O20  1  0.961617  0.703040  0.454482  1
  O  O21  1  0.155966  0.715473  0.346842  1
  O  O22  1  0.372943  0.074396  0.309262  1
  O  O23  1  0.038383  0.296960  0.545518  1
  O  O24  1  0.961215  0.496555  0.858793  1
  O  O25  1  0.322869  0.907939  0.530401  1
  O  O26  1  0.603697  0.799294  0.066630  1
  O  O27  1  0.372943  0.425604  0.809262  1
  O  O28  1  0.396303  0.299294  0.433370  1
  O  O29  1  0.593455  0.167154  0.843926  1
  O  O30  1  0.961617  0.796960  0.954482  1
  O  O31  1  0.396303  0.200706  0.933370  1
  O  O32  1  0.038785  0.503445  0.141207  1
  O  O33  1  0.677131  0.407939  0.969599  1
  O  O34  1  0.038785  0.996555  0.641207  1
  O  O35  1  0.406545  0.832846  0.156074  1
  O  O36  1  0.155966  0.784527  0.846842  1
  O  O37  1  0.603697  0.700706  0.566630  1
  O  O38  1  0.961215  0.003445  0.358793  1
  O  O39  1  0.627057  0.925604  0.690738  1
  O  O40  1  0.677131  0.092061  0.469599  1
  O  O41  1  0.038383  0.203040  0.045518  1
  O  O42  1  0.406545  0.667154  0.656074  1
  O  O43  1  0.844034  0.284527  0.653158  1
