# generated using pymatgen
data_Pb2S(O2F)2
_symmetry_space_group_name_H-M   'P 1'
_cell_length_a   7.61560368
_cell_length_b   7.61560368
_cell_length_c   8.75000371
_cell_angle_alpha   72.83522031
_cell_angle_beta   107.16477969
_cell_angle_gamma   145.65326154
_symmetry_Int_Tables_number   1
_chemical_formula_structural   Pb2S(O2F)2
_chemical_formula_sum   'Pb4 S2 O8 F4'
_cell_volume   272.31689017
_cell_formula_units_Z   2
loop_
 _symmetry_equiv_pos_site_id
 _symmetry_equiv_pos_as_xyz
  1  'x, y, z'
loop_
 _atom_site_type_symbol
 _atom_site_label
 _atom_site_symmetry_multiplicity
 _atom_site_fract_x
 _atom_site_fract_y
 _atom_site_fract_z
 _atom_site_occupancy
  Pb  Pb0  1  0.649704  0.341175  0.076001  1
  Pb  Pb1  1  0.350296  0.658825  0.923999  1
  Pb  Pb2  1  0.341175  0.649704  0.423999  1
  Pb  Pb3  1  0.658825  0.350296  0.576001  1
  S  S4  1  0.048692  0.048692  0.250000  1
  S  S5  1  0.951308  0.951308  0.750000  1
  O  O6  1  0.223877  0.045325  0.793682  1
  O  O7  1  0.753307  0.756117  0.609962  1
  O  O8  1  0.756117  0.753307  0.890038  1
  O  O9  1  0.045325  0.223877  0.706318  1
  O  O10  1  0.776123  0.954675  0.206318  1
  O  O11  1  0.954675  0.776123  0.293682  1
  O  O12  1  0.243883  0.246693  0.109962  1
  O  O13  1  0.246693  0.243883  0.390038  1
  F  F14  1  0.775900  0.270022  0.876687  1
  F  F15  1  0.270022  0.775900  0.623313  1
  F  F16  1  0.224100  0.729978  0.123313  1
  F  F17  1  0.729978  0.224100  0.376687  1
