# generated using pymatgen
data_K2Zn6O7
_symmetry_space_group_name_H-M   'P 1'
_cell_length_a   11.03669482
_cell_length_b   11.03669482
_cell_length_c   3.37145057
_cell_angle_alpha   90.00000000
_cell_angle_beta   90.00000000
_cell_angle_gamma   90.00000000
_symmetry_Int_Tables_number   1
_chemical_formula_structural   K2Zn6O7
_chemical_formula_sum   'K4 Zn12 O14'
_cell_volume   410.67178364
_cell_formula_units_Z   2
loop_
 _symmetry_equiv_pos_site_id
 _symmetry_equiv_pos_as_xyz
  1  'x, y, z'
loop_
 _atom_site_type_symbol
 _atom_site_label
 _atom_site_symmetry_multiplicity
 _atom_site_fract_x
 _atom_site_fract_y
 _atom_site_fract_z
 _atom_site_occupancy
  K  K0  1  0.359653  0.359653  0.500000  1
  K  K1  1  0.859653  0.140347  0.000000  1
  K  K2  1  0.140347  0.859653  0.000000  1
  K  K3  1  0.640347  0.640347  0.500000  1
  Zn  Zn4  1  0.087450  0.348347  0.000000  1
  Zn  Zn5  1  0.848347  0.412550  0.500000  1
  Zn  Zn6  1  0.151653  0.587450  0.500000  1
  Zn  Zn7  1  0.912550  0.651653  0.000000  1
  Zn  Zn8  1  0.587450  0.151653  0.500000  1
  Zn  Zn9  1  0.412550  0.848347  0.500000  1
  Zn  Zn10  1  0.651653  0.912550  0.000000  1
  Zn  Zn11  1  0.348347  0.087450  0.000000  1
  Zn  Zn12  1  0.121186  0.121186  0.500000  1
  Zn  Zn13  1  0.621186  0.378814  0.000000  1
  Zn  Zn14  1  0.378814  0.621186  0.000000  1
  Zn  Zn15  1  0.878814  0.878814  0.500000  1
  O  O16  1  0.996179  0.312562  0.500000  1
  O  O17  1  0.812562  0.503821  0.000000  1
  O  O18  1  0.187438  0.496179  0.000000  1
  O  O19  1  0.003821  0.687438  0.500000  1
  O  O20  1  0.496179  0.187438  0.000000  1
  O  O21  1  0.503821  0.812562  0.000000  1
  O  O22  1  0.687438  0.003821  0.500000  1
  O  O23  1  0.312562  0.996179  0.500000  1
  O  O24  1  0.191815  0.191815  0.000000  1
  O  O25  1  0.691815  0.308185  0.500000  1
  O  O26  1  0.308185  0.691815  0.500000  1
  O  O27  1  0.808185  0.808185  0.000000  1
  O  O28  1  0.000000  0.000000  0.500000  1
  O  O29  1  0.500000  0.500000  0.000000  1
