# generated using pymatgen
data_DyP5O14
_symmetry_space_group_name_H-M   'P 1'
_cell_length_a   9.18432904
_cell_length_b   9.18432904
_cell_length_c   12.60306570
_cell_angle_alpha   88.89835749
_cell_angle_beta   91.10164251
_cell_angle_gamma   90.48803613
_symmetry_Int_Tables_number   1
_chemical_formula_structural   DyP5O14
_chemical_formula_sum   'Dy4 P20 O56'
_cell_volume   1062.66426767
_cell_formula_units_Z   4
loop_
 _symmetry_equiv_pos_site_id
 _symmetry_equiv_pos_as_xyz
  1  'x, y, z'
loop_
 _atom_site_type_symbol
 _atom_site_label
 _atom_site_symmetry_multiplicity
 _atom_site_fract_x
 _atom_site_fract_y
 _atom_site_fract_z
 _atom_site_occupancy
  Dy  Dy0  1  0.478566  0.478566  0.750000  1
  Dy  Dy1  1  0.031989  0.031989  0.750000  1
  Dy  Dy2  1  0.521434  0.521434  0.250000  1
  Dy  Dy3  1  0.968011  0.968011  0.250000  1
  P  P4  1  0.386579  0.678329  0.499872  1
  P  P5  1  0.321671  0.613421  0.999872  1
  P  P6  1  0.520027  0.816251  0.895135  1
  P  P7  1  0.825229  0.873051  0.966854  1
  P  P8  1  0.873051  0.825229  0.533146  1
  P  P9  1  0.570999  0.927540  0.241746  1
  P  P10  1  0.816251  0.520027  0.604865  1
  P  P11  1  0.072460  0.429001  0.741746  1
  P  P12  1  0.613421  0.321671  0.500128  1
  P  P13  1  0.479973  0.183749  0.104865  1
  P  P14  1  0.318453  0.954537  0.390647  1
  P  P15  1  0.954537  0.318453  0.109353  1
  P  P16  1  0.183749  0.479973  0.395135  1
  P  P17  1  0.678329  0.386579  0.000128  1
  P  P18  1  0.681547  0.045463  0.609353  1
  P  P19  1  0.174771  0.126949  0.033146  1
  P  P20  1  0.045463  0.681547  0.890647  1
  P  P21  1  0.429001  0.072460  0.758254  1
  P  P22  1  0.927540  0.570999  0.258254  1
  P  P23  1  0.126949  0.174771  0.466854  1
  O  O24  1  0.359419  0.512064  0.913649  1
  O  O25  1  0.079085  0.128795  0.573968  1
  O  O26  1  0.174967  0.345660  0.475522  1
  O  O27  1  0.720164  0.980136  0.268969  1
  O  O28  1  0.898355  0.201260  0.179390  1
  O  O29  1  0.201260  0.898355  0.320610  1
  O  O30  1  0.283868  0.461756  0.306463  1
  O  O31  1  0.227519  0.459991  0.718527  1
  O  O32  1  0.654340  0.825033  0.975522  1
  O  O33  1  0.980136  0.720164  0.231031  1
  O  O34  1  0.345660  0.174967  0.024478  1
  O  O35  1  0.128795  0.079085  0.926032  1
  O  O36  1  0.512064  0.359419  0.586351  1
  O  O37  1  0.469107  0.986072  0.336796  1
  O  O38  1  0.986072  0.469107  0.163204  1
  O  O39  1  0.389692  0.777198  0.971261  1
  O  O40  1  0.610308  0.222802  0.028739  1
  O  O41  1  0.013928  0.530893  0.836796  1
  O  O42  1  0.350541  0.579283  0.113453  1
  O  O43  1  0.153953  0.035607  0.131108  1
  O  O44  1  0.579283  0.350541  0.386547  1
  O  O45  1  0.540009  0.772481  0.218527  1
  O  O46  1  0.538244  0.716132  0.806463  1
  O  O47  1  0.147925  0.648848  0.990836  1
  O  O48  1  0.777198  0.389692  0.528739  1
  O  O49  1  0.716132  0.538244  0.693537  1
  O  O50  1  0.648848  0.147925  0.509164  1
  O  O51  1  0.019588  0.505519  0.361295  1
  O  O52  1  0.852075  0.351152  0.009164  1
  O  O53  1  0.494481  0.980412  0.861295  1
  O  O54  1  0.019864  0.279836  0.768969  1
  O  O55  1  0.920915  0.871205  0.426032  1
  O  O56  1  0.101645  0.798740  0.820610  1
  O  O57  1  0.035607  0.153953  0.368892  1
  O  O58  1  0.649459  0.420717  0.886547  1
  O  O59  1  0.289533  0.105295  0.444896  1
  O  O60  1  0.964393  0.846047  0.631108  1
  O  O61  1  0.351152  0.852075  0.490836  1
  O  O62  1  0.487936  0.640581  0.413649  1
  O  O63  1  0.980412  0.494481  0.638705  1
  O  O64  1  0.505519  0.019588  0.138705  1
  O  O65  1  0.461756  0.283868  0.193537  1
  O  O66  1  0.279836  0.019864  0.731031  1
  O  O67  1  0.894705  0.710467  0.944896  1
  O  O68  1  0.530893  0.013928  0.663204  1
  O  O69  1  0.871205  0.920915  0.073968  1
  O  O70  1  0.772481  0.540009  0.281473  1
  O  O71  1  0.825033  0.654340  0.524478  1
  O  O72  1  0.846047  0.964393  0.868892  1
  O  O73  1  0.420717  0.649459  0.613453  1
  O  O74  1  0.105295  0.289533  0.055104  1
  O  O75  1  0.459991  0.227519  0.781473  1
  O  O76  1  0.640581  0.487936  0.086351  1
  O  O77  1  0.798740  0.101645  0.679390  1
  O  O78  1  0.710467  0.894705  0.555104  1
  O  O79  1  0.222802  0.610308  0.471261  1
