# generated using pymatgen
data_P4O7
_symmetry_space_group_name_H-M   'P 1'
_cell_length_a   6.94230169
_cell_length_b   10.68806982
_cell_length_c   11.76533057
_cell_angle_alpha   90.00000000
_cell_angle_beta   117.81392666
_cell_angle_gamma   90.00000000
_symmetry_Int_Tables_number   1
_chemical_formula_structural   P4O7
_chemical_formula_sum   'P16 O28'
_cell_volume   772.12714473
_cell_formula_units_Z   4
loop_
 _symmetry_equiv_pos_site_id
 _symmetry_equiv_pos_as_xyz
  1  'x, y, z'
loop_
 _atom_site_type_symbol
 _atom_site_label
 _atom_site_symmetry_multiplicity
 _atom_site_fract_x
 _atom_site_fract_y
 _atom_site_fract_z
 _atom_site_occupancy
  P  P0  1  0.028740  0.327499  0.955648  1
  P  P1  1  0.144347  0.114883  0.836714  1
  P  P2  1  0.971260  0.827499  0.544352  1
  P  P3  1  0.971260  0.672501  0.044352  1
  P  P4  1  0.511406  0.709987  0.987725  1
  P  P5  1  0.488594  0.290013  0.012275  1
  P  P6  1  0.721066  0.616685  0.389253  1
  P  P7  1  0.855653  0.885117  0.163286  1
  P  P8  1  0.144347  0.385117  0.336714  1
  P  P9  1  0.511406  0.790013  0.487725  1
  P  P10  1  0.721066  0.883315  0.889253  1
  P  P11  1  0.855653  0.614883  0.663286  1
  P  P12  1  0.278934  0.116685  0.110747  1
  P  P13  1  0.278934  0.383315  0.610747  1
  P  P14  1  0.028740  0.172501  0.455648  1
  P  P15  1  0.488594  0.209987  0.512275  1
  O  O16  1  0.624212  0.694124  0.613215  1
  O  O17  1  0.801019  0.956909  0.022927  1
  O  O18  1  0.724123  0.876933  0.510153  1
  O  O19  1  0.313562  0.462652  0.719907  1
  O  O20  1  0.686438  0.962652  0.780093  1
  O  O21  1  0.509868  0.808550  0.873699  1
  O  O22  1  0.902308  0.723845  0.421900  1
  O  O23  1  0.902308  0.776155  0.921900  1
  O  O24  1  0.490132  0.308550  0.626301  1
  O  O25  1  0.980474  0.272962  0.338207  1
  O  O26  1  0.019526  0.727038  0.661793  1
  O  O27  1  0.490132  0.191450  0.126301  1
  O  O28  1  0.198981  0.043091  0.977073  1
  O  O29  1  0.097692  0.223845  0.078100  1
  O  O30  1  0.624212  0.805876  0.113215  1
  O  O31  1  0.313562  0.037348  0.219907  1
  O  O32  1  0.801019  0.543091  0.522927  1
  O  O33  1  0.980474  0.227038  0.838207  1
  O  O34  1  0.097692  0.276155  0.578100  1
  O  O35  1  0.375788  0.194124  0.886785  1
  O  O36  1  0.275877  0.376933  0.989847  1
  O  O37  1  0.509868  0.691450  0.373699  1
  O  O38  1  0.375788  0.305876  0.386785  1
  O  O39  1  0.019526  0.772962  0.161793  1
  O  O40  1  0.686438  0.537348  0.280093  1
  O  O41  1  0.275877  0.123067  0.489847  1
  O  O42  1  0.198981  0.456909  0.477073  1
  O  O43  1  0.724123  0.623067  0.010153  1
