# generated using pymatgen
data_K5Au(IO)2
_symmetry_space_group_name_H-M   'P 1'
_cell_length_a   5.60007327
_cell_length_b   7.34781313
_cell_length_c   14.26065560
_cell_angle_alpha   90.00000000
_cell_angle_beta   90.00000000
_cell_angle_gamma   90.00000000
_symmetry_Int_Tables_number   1
_chemical_formula_structural   K5Au(IO)2
_chemical_formula_sum   'K10 Au2 I4 O4'
_cell_volume   586.80161935
_cell_formula_units_Z   2
loop_
 _symmetry_equiv_pos_site_id
 _symmetry_equiv_pos_as_xyz
  1  'x, y, z'
loop_
 _atom_site_type_symbol
 _atom_site_label
 _atom_site_symmetry_multiplicity
 _atom_site_fract_x
 _atom_site_fract_y
 _atom_site_fract_z
 _atom_site_occupancy
  K  K0  1  0.500000  0.329960  0.601313  1
  K  K1  1  0.500000  0.170040  0.101313  1
  K  K2  1  0.000000  0.600423  0.738123  1
  K  K3  1  0.000000  0.500000  0.000000  1
  K  K4  1  0.500000  0.670040  0.398687  1
  K  K5  1  0.500000  0.829960  0.898687  1
  K  K6  1  0.000000  0.899577  0.238123  1
  K  K7  1  0.000000  0.399577  0.261877  1
  K  K8  1  0.000000  0.100423  0.761877  1
  K  K9  1  0.000000  0.000000  0.500000  1
  Au  Au10  1  0.000000  0.500000  0.500000  1
  Au  Au11  1  0.000000  0.000000  0.000000  1
  I  I12  1  0.500000  0.650064  0.145644  1
  I  I13  1  0.500000  0.349936  0.854356  1
  I  I14  1  0.500000  0.150064  0.354356  1
  I  I15  1  0.500000  0.849936  0.645644  1
  O  O16  1  0.000000  0.680666  0.389766  1
  O  O17  1  0.000000  0.819334  0.889766  1
  O  O18  1  0.000000  0.180666  0.110234  1
  O  O19  1  0.000000  0.319334  0.610234  1
