# generated using pymatgen
data_KSbMoO5
_symmetry_space_group_name_H-M   'P 1'
_cell_length_a   5.82924413
_cell_length_b   11.72167849
_cell_length_c   9.30583063
_cell_angle_alpha   90.00000000
_cell_angle_beta   107.90717829
_cell_angle_gamma   90.00000000
_symmetry_Int_Tables_number   1
_chemical_formula_structural   KSbMoO5
_chemical_formula_sum   'K4 Sb4 Mo4 O20'
_cell_volume   605.05031896
_cell_formula_units_Z   4
loop_
 _symmetry_equiv_pos_site_id
 _symmetry_equiv_pos_as_xyz
  1  'x, y, z'
loop_
 _atom_site_type_symbol
 _atom_site_label
 _atom_site_symmetry_multiplicity
 _atom_site_fract_x
 _atom_site_fract_y
 _atom_site_fract_z
 _atom_site_occupancy
  K  K0  1  0.456991  0.143970  0.892578  1
  K  K1  1  0.956991  0.356030  0.892578  1
  K  K2  1  0.543009  0.856030  0.107422  1
  K  K3  1  0.043009  0.643970  0.107422  1
  Sb  Sb4  1  0.784977  0.668736  0.463041  1
  Sb  Sb5  1  0.715023  0.168736  0.536959  1
  Sb  Sb6  1  0.284977  0.831264  0.463041  1
  Sb  Sb7  1  0.215023  0.331264  0.536959  1
  Mo  Mo8  1  0.927786  0.912979  0.783280  1
  Mo  Mo9  1  0.427786  0.587021  0.783280  1
  Mo  Mo10  1  0.572214  0.412979  0.216720  1
  Mo  Mo11  1  0.072214  0.087021  0.216720  1
  O  O12  1  0.964054  0.761839  0.351736  1
  O  O13  1  0.224240  0.947949  0.267341  1
  O  O14  1  0.826856  0.820868  0.616916  1
  O  O15  1  0.724240  0.552051  0.267341  1
  O  O16  1  0.757428  0.066788  0.168694  1
  O  O17  1  0.775760  0.052051  0.732659  1
  O  O18  1  0.035946  0.238161  0.648264  1
  O  O19  1  0.257428  0.433212  0.168694  1
  O  O20  1  0.861257  0.851773  0.939389  1
  O  O21  1  0.275760  0.447949  0.732659  1
  O  O22  1  0.638743  0.351773  0.060611  1
  O  O23  1  0.673144  0.320868  0.383084  1
  O  O24  1  0.242572  0.933212  0.831306  1
  O  O25  1  0.326856  0.679132  0.616916  1
  O  O26  1  0.464054  0.738161  0.351736  1
  O  O27  1  0.742572  0.566788  0.831306  1
  O  O28  1  0.361257  0.648227  0.939389  1
  O  O29  1  0.535946  0.261839  0.648264  1
  O  O30  1  0.138743  0.148227  0.060611  1
  O  O31  1  0.173144  0.179132  0.383084  1
