# generated using pymatgen
data_Rb2SrV4O12
_symmetry_space_group_name_H-M   'P 1'
_cell_length_a   11.29013725
_cell_length_b   11.29013725
_cell_length_c   5.59306770
_cell_angle_alpha   90.00000000
_cell_angle_beta   90.00000000
_cell_angle_gamma   90.00000000
_symmetry_Int_Tables_number   1
_chemical_formula_structural   Rb2SrV4O12
_chemical_formula_sum   'Rb4 Sr2 V8 O24'
_cell_volume   712.93267423
_cell_formula_units_Z   2
loop_
 _symmetry_equiv_pos_site_id
 _symmetry_equiv_pos_as_xyz
  1  'x, y, z'
loop_
 _atom_site_type_symbol
 _atom_site_label
 _atom_site_symmetry_multiplicity
 _atom_site_fract_x
 _atom_site_fract_y
 _atom_site_fract_z
 _atom_site_occupancy
  Rb  Rb0  1  0.750000  0.750000  0.500000  1
  Rb  Rb1  1  0.750000  0.250000  0.500000  1
  Rb  Rb2  1  0.250000  0.750000  0.500000  1
  Rb  Rb3  1  0.250000  0.250000  0.500000  1
  Sr  Sr4  1  0.000000  0.000000  0.500000  1
  Sr  Sr5  1  0.500000  0.500000  0.500000  1
  V  V6  1  0.000000  0.278215  0.000000  1
  V  V7  1  0.278215  0.000000  0.000000  1
  V  V8  1  0.721785  0.000000  0.000000  1
  V  V9  1  0.000000  0.721785  0.000000  1
  V  V10  1  0.500000  0.221785  0.000000  1
  V  V11  1  0.221785  0.500000  0.000000  1
  V  V12  1  0.778215  0.500000  0.000000  1
  V  V13  1  0.500000  0.778215  0.000000  1
  O  O14  1  0.129258  0.370742  0.941914  1
  O  O15  1  0.370742  0.870742  0.941914  1
  O  O16  1  0.629258  0.129258  0.941914  1
  O  O17  1  0.870742  0.629258  0.941914  1
  O  O18  1  0.870742  0.370742  0.058086  1
  O  O19  1  0.129258  0.629258  0.058086  1
  O  O20  1  0.370742  0.129258  0.058086  1
  O  O21  1  0.629258  0.870742  0.058086  1
  O  O22  1  0.805926  0.024950  0.242001  1
  O  O23  1  0.024950  0.194074  0.242001  1
  O  O24  1  0.975050  0.805926  0.242001  1
  O  O25  1  0.194074  0.975050  0.242001  1
  O  O26  1  0.194074  0.024950  0.757999  1
  O  O27  1  0.805926  0.975050  0.757999  1
  O  O28  1  0.024950  0.805926  0.757999  1
  O  O29  1  0.975050  0.194074  0.757999  1
  O  O30  1  0.694074  0.475050  0.757999  1
  O  O31  1  0.475050  0.305926  0.757999  1
  O  O32  1  0.524950  0.694074  0.757999  1
  O  O33  1  0.305926  0.524950  0.757999  1
  O  O34  1  0.305926  0.475050  0.242001  1
  O  O35  1  0.694074  0.524950  0.242001  1
  O  O36  1  0.475050  0.694074  0.242001  1
  O  O37  1  0.524950  0.305926  0.242001  1
