# generated using pymatgen
data_N2O5
_symmetry_space_group_name_H-M   'P 1'
_cell_length_a   5.53668931
_cell_length_b   5.53668931
_cell_length_c   6.71897819
_cell_angle_alpha   90.00000000
_cell_angle_beta   90.00000000
_cell_angle_gamma   120.00000000
_symmetry_Int_Tables_number   1
_chemical_formula_structural   N2O5
_chemical_formula_sum   'N4 O10'
_cell_volume   178.37507602
_cell_formula_units_Z   2
loop_
 _symmetry_equiv_pos_site_id
 _symmetry_equiv_pos_as_xyz
  1  'x, y, z'
loop_
 _atom_site_type_symbol
 _atom_site_label
 _atom_site_symmetry_multiplicity
 _atom_site_fract_x
 _atom_site_fract_y
 _atom_site_fract_z
 _atom_site_occupancy
  N  N0  1  0.666667  0.333333  0.250000  1
  N  N1  1  0.000000  0.000000  0.750000  1
  N  N2  1  0.333333  0.666667  0.750000  1
  N  N3  1  0.000000  0.000000  0.250000  1
  O  O4  1  0.333333  0.666667  0.580158  1
  O  O5  1  0.666667  0.333333  0.419842  1
  O  O6  1  0.867513  0.735026  0.750000  1
  O  O7  1  0.666667  0.333333  0.080158  1
  O  O8  1  0.264974  0.132487  0.750000  1
  O  O9  1  0.132487  0.264974  0.250000  1
  O  O10  1  0.132487  0.867513  0.250000  1
  O  O11  1  0.867513  0.132487  0.750000  1
  O  O12  1  0.333333  0.666667  0.919842  1
  O  O13  1  0.735026  0.867513  0.250000  1
