# generated using pymatgen
data_NbP4(SCl)5
_symmetry_space_group_name_H-M   'P 1'
_cell_length_a   7.27244712
_cell_length_b   13.95387287
_cell_length_c   18.74227847
_cell_angle_alpha   90.00000000
_cell_angle_beta   103.32895597
_cell_angle_gamma   90.00000000
_symmetry_Int_Tables_number   1
_chemical_formula_structural   NbP4(SCl)5
_chemical_formula_sum   'Nb4 P16 S20 Cl20'
_cell_volume   1850.71033601
_cell_formula_units_Z   4
loop_
 _symmetry_equiv_pos_site_id
 _symmetry_equiv_pos_as_xyz
  1  'x, y, z'
loop_
 _atom_site_type_symbol
 _atom_site_label
 _atom_site_symmetry_multiplicity
 _atom_site_fract_x
 _atom_site_fract_y
 _atom_site_fract_z
 _atom_site_occupancy
  Nb  Nb0  1  0.728520  0.693335  0.529701  1
  Nb  Nb1  1  0.728520  0.806665  0.029701  1
  Nb  Nb2  1  0.271480  0.306665  0.470299  1
  Nb  Nb3  1  0.271480  0.193335  0.970299  1
  P  P4  1  0.695695  0.640066  0.113969  1
  P  P5  1  0.583633  0.492339  0.808868  1
  P  P6  1  0.093123  0.947722  0.298015  1
  P  P7  1  0.093123  0.552278  0.798015  1
  P  P8  1  0.231278  0.328462  0.760354  1
  P  P9  1  0.416367  0.992339  0.691132  1
  P  P10  1  0.304305  0.140066  0.386031  1
  P  P11  1  0.583633  0.007661  0.308868  1
  P  P12  1  0.768722  0.671538  0.239646  1
  P  P13  1  0.416367  0.507661  0.191132  1
  P  P14  1  0.906877  0.052278  0.701985  1
  P  P15  1  0.906877  0.447722  0.201985  1
  P  P16  1  0.231278  0.171538  0.260354  1
  P  P17  1  0.768722  0.828462  0.739646  1
  P  P18  1  0.695695  0.859934  0.613969  1
  P  P19  1  0.304305  0.359934  0.886031  1
  S  S20  1  0.119498  0.027861  0.397423  1
  S  S21  1  0.880502  0.527861  0.102577  1
  S  S22  1  0.976917  0.935107  0.776235  1
  S  S23  1  0.420449  0.583456  0.092473  1
  S  S24  1  0.629988  0.399929  0.205317  1
  S  S25  1  0.516688  0.878321  0.765470  1
  S  S26  1  0.370012  0.899929  0.294683  1
  S  S27  1  0.516688  0.621679  0.265470  1
  S  S28  1  0.119498  0.472139  0.897423  1
  S  S29  1  0.880502  0.972139  0.602577  1
  S  S30  1  0.370012  0.600071  0.794683  1
  S  S31  1  0.483312  0.378321  0.734530  1
  S  S32  1  0.420449  0.916544  0.592473  1
  S  S33  1  0.023083  0.064893  0.223765  1
  S  S34  1  0.579551  0.083456  0.407527  1
  S  S35  1  0.023083  0.435107  0.723765  1
  S  S36  1  0.976917  0.564893  0.276235  1
  S  S37  1  0.629988  0.100071  0.705317  1
  S  S38  1  0.483312  0.121679  0.234530  1
  S  S39  1  0.579551  0.416544  0.907527  1
  Cl  Cl40  1  0.165698  0.197218  0.547938  1
  Cl  Cl41  1  0.389718  0.373312  0.374056  1
  Cl  Cl42  1  0.028890  0.702440  0.610427  1
  Cl  Cl43  1  0.610282  0.626688  0.625944  1
  Cl  Cl44  1  0.764912  0.554248  0.470130  1
  Cl  Cl45  1  0.764912  0.945752  0.970130  1
  Cl  Cl46  1  0.582854  0.268965  0.529931  1
  Cl  Cl47  1  0.971110  0.202440  0.889573  1
  Cl  Cl48  1  0.971110  0.297560  0.389573  1
  Cl  Cl49  1  0.028890  0.797560  0.110427  1
  Cl  Cl50  1  0.165698  0.302782  0.047938  1
  Cl  Cl51  1  0.235088  0.445752  0.529870  1
  Cl  Cl52  1  0.389718  0.126688  0.874056  1
  Cl  Cl53  1  0.417146  0.731035  0.470069  1
  Cl  Cl54  1  0.834302  0.802782  0.452062  1
  Cl  Cl55  1  0.582854  0.231035  0.029931  1
  Cl  Cl56  1  0.235088  0.054248  0.029870  1
  Cl  Cl57  1  0.610282  0.873312  0.125944  1
  Cl  Cl58  1  0.834302  0.697218  0.952062  1
  Cl  Cl59  1  0.417146  0.768965  0.970069  1
