# generated using pymatgen
data_LiV(IO4)2
_symmetry_space_group_name_H-M   'P 1'
_cell_length_a   10.09191662
_cell_length_b   5.31626914
_cell_length_c   13.81231679
_cell_angle_alpha   90.00000000
_cell_angle_beta   118.03347312
_cell_angle_gamma   90.00000000
_symmetry_Int_Tables_number   1
_chemical_formula_structural   LiV(IO4)2
_chemical_formula_sum   'Li4 V4 I8 O32'
_cell_volume   654.10439747
_cell_formula_units_Z   4
loop_
 _symmetry_equiv_pos_site_id
 _symmetry_equiv_pos_as_xyz
  1  'x, y, z'
loop_
 _atom_site_type_symbol
 _atom_site_label
 _atom_site_symmetry_multiplicity
 _atom_site_fract_x
 _atom_site_fract_y
 _atom_site_fract_z
 _atom_site_occupancy
  Li  Li0  1  0.763354  0.234437  0.563637  1
  Li  Li1  1  0.236646  0.734437  0.936363  1
  Li  Li2  1  0.236646  0.765563  0.436363  1
  Li  Li3  1  0.763354  0.265563  0.063637  1
  V  V4  1  0.267076  0.278026  0.049949  1
  V  V5  1  0.732924  0.778026  0.450051  1
  V  V6  1  0.267076  0.221974  0.549949  1
  V  V7  1  0.732924  0.721974  0.950051  1
  I  I8  1  0.924792  0.182517  0.830681  1
  I  I9  1  0.583433  0.694958  0.671275  1
  I  I10  1  0.583433  0.805042  0.171275  1
  I  I11  1  0.075208  0.682517  0.669319  1
  I  I12  1  0.924792  0.317483  0.330681  1
  I  I13  1  0.075208  0.817483  0.169319  1
  I  I14  1  0.416567  0.305042  0.328725  1
  I  I15  1  0.416567  0.194958  0.828725  1
  O  O16  1  0.606904  0.412822  0.421803  1
  O  O17  1  0.305549  0.919355  0.823412  1
  O  O18  1  0.074698  0.928406  0.293181  1
  O  O19  1  0.925302  0.428406  0.206819  1
  O  O20  1  0.305549  0.580645  0.323412  1
  O  O21  1  0.114865  0.443279  0.435650  1
  O  O22  1  0.573781  0.870906  0.302754  1
  O  O23  1  0.885135  0.556721  0.564350  1
  O  O24  1  0.885135  0.943279  0.064350  1
  O  O25  1  0.152519  0.980302  0.531311  1
  O  O26  1  0.642358  0.880124  0.518727  1
  O  O27  1  0.809832  0.922912  0.839584  1
  O  O28  1  0.606904  0.087178  0.921803  1
  O  O29  1  0.190168  0.422912  0.660416  1
  O  O30  1  0.393096  0.587178  0.578197  1
  O  O31  1  0.573781  0.629094  0.802754  1
  O  O32  1  0.694451  0.080645  0.176588  1
  O  O33  1  0.393096  0.912822  0.078197  1
  O  O34  1  0.426219  0.129094  0.697246  1
  O  O35  1  0.152519  0.519698  0.031311  1
  O  O36  1  0.426219  0.370906  0.197246  1
  O  O37  1  0.190168  0.077088  0.160416  1
  O  O38  1  0.074698  0.571594  0.793181  1
  O  O39  1  0.847481  0.019698  0.468689  1
  O  O40  1  0.642358  0.619876  0.018727  1
  O  O41  1  0.925302  0.071594  0.706819  1
  O  O42  1  0.114865  0.056721  0.935650  1
  O  O43  1  0.809832  0.577088  0.339584  1
  O  O44  1  0.847481  0.480302  0.968689  1
  O  O45  1  0.357642  0.119876  0.481273  1
  O  O46  1  0.694451  0.419355  0.676588  1
  O  O47  1  0.357642  0.380124  0.981273  1
