# generated using pymatgen
data_Ca2Nb2O7
_symmetry_space_group_name_H-M   'P 1'
_cell_length_a   5.55154016
_cell_length_b   7.77549713
_cell_length_c   27.00026492
_cell_angle_alpha   90.00000000
_cell_angle_beta   90.00000000
_cell_angle_gamma   90.00000000
_symmetry_Int_Tables_number   1
_chemical_formula_structural   Ca2Nb2O7
_chemical_formula_sum   'Ca16 Nb16 O56'
_cell_volume   1165.49301922
_cell_formula_units_Z   8
loop_
 _symmetry_equiv_pos_site_id
 _symmetry_equiv_pos_as_xyz
  1  'x, y, z'
loop_
 _atom_site_type_symbol
 _atom_site_label
 _atom_site_symmetry_multiplicity
 _atom_site_fract_x
 _atom_site_fract_y
 _atom_site_fract_z
 _atom_site_occupancy
  Ca  Ca0  1  0.245925  0.124671  0.792694  1
  Ca  Ca1  1  0.262666  0.623904  0.812047  1
  Ca  Ca2  1  0.262666  0.876096  0.312047  1
  Ca  Ca3  1  0.245925  0.375329  0.292694  1
  Ca  Ca4  1  0.239791  0.383355  0.049717  1
  Ca  Ca5  1  0.762666  0.376096  0.187953  1
  Ca  Ca6  1  0.762666  0.123904  0.687953  1
  Ca  Ca7  1  0.667811  0.376173  0.467264  1
  Ca  Ca8  1  0.667811  0.123827  0.967264  1
  Ca  Ca9  1  0.745925  0.875329  0.207306  1
  Ca  Ca10  1  0.745925  0.624671  0.707306  1
  Ca  Ca11  1  0.239791  0.116645  0.549717  1
  Ca  Ca12  1  0.739791  0.616645  0.950283  1
  Ca  Ca13  1  0.739791  0.883355  0.450283  1
  Ca  Ca14  1  0.167811  0.623827  0.532736  1
  Ca  Ca15  1  0.167811  0.876173  0.032736  1
  Nb  Nb16  1  0.229939  0.878572  0.911383  1
  Nb  Nb17  1  0.249364  0.621211  0.190930  1
  Nb  Nb18  1  0.725884  0.869472  0.587105  1
  Nb  Nb19  1  0.249364  0.878789  0.690930  1
  Nb  Nb20  1  0.749364  0.378789  0.809070  1
  Nb  Nb21  1  0.749364  0.121211  0.309070  1
  Nb  Nb22  1  0.229939  0.621428  0.411383  1
  Nb  Nb23  1  0.247815  0.128591  0.192328  1
  Nb  Nb24  1  0.747815  0.628591  0.307672  1
  Nb  Nb25  1  0.729939  0.121428  0.088617  1
  Nb  Nb26  1  0.747815  0.871409  0.807672  1
  Nb  Nb27  1  0.247815  0.371409  0.692328  1
  Nb  Nb28  1  0.729939  0.378572  0.588617  1
  Nb  Nb29  1  0.225884  0.130528  0.412895  1
  Nb  Nb30  1  0.725884  0.630528  0.087105  1
  Nb  Nb31  1  0.225884  0.369472  0.912895  1
  O  O32  1  0.834534  0.625073  0.596558  1
  O  O33  1  0.855063  0.875083  0.293088  1
  O  O34  1  0.573383  0.653296  0.160635  1
  O  O35  1  0.980739  0.578274  0.239230  1
  O  O36  1  0.355063  0.375083  0.206912  1
  O  O37  1  0.070974  0.903912  0.840239  1
  O  O38  1  0.980318  0.171945  0.239701  1
  O  O39  1  0.355063  0.124917  0.706912  1
  O  O40  1  0.855063  0.624917  0.793088  1
  O  O41  1  0.057121  0.314344  0.637802  1
  O  O42  1  0.060311  0.936427  0.636080  1
  O  O43  1  0.453066  0.654014  0.463265  1
  O  O44  1  0.431718  0.102118  0.469205  1
  O  O45  1  0.060311  0.563573  0.136080  1
  O  O46  1  0.953066  0.345986  0.536735  1
  O  O47  1  0.334534  0.125073  0.903442  1
  O  O48  1  0.480318  0.671945  0.260299  1
  O  O49  1  0.480318  0.828055  0.760299  1
  O  O50  1  0.570974  0.403912  0.659761  1
  O  O51  1  0.073383  0.346704  0.839365  1
  O  O52  1  0.834534  0.874927  0.096558  1
  O  O53  1  0.980739  0.921726  0.739230  1
  O  O54  1  0.953066  0.154014  0.036735  1
  O  O55  1  0.570974  0.096088  0.159761  1
  O  O56  1  0.681484  0.125308  0.805382  1
  O  O57  1  0.560311  0.063573  0.363920  1
  O  O58  1  0.461244  0.403906  0.547205  1
  O  O59  1  0.181484  0.874692  0.194618  1
  O  O60  1  0.453066  0.845986  0.963265  1
  O  O61  1  0.480739  0.421726  0.760770  1
  O  O62  1  0.434612  0.838506  0.556649  1
  O  O63  1  0.070974  0.596088  0.340239  1
  O  O64  1  0.480739  0.078274  0.260770  1
  O  O65  1  0.461244  0.096094  0.047205  1
  O  O66  1  0.661136  0.124008  0.598742  1
  O  O67  1  0.961244  0.903906  0.952795  1
  O  O68  1  0.934612  0.161494  0.443351  1
  O  O69  1  0.434612  0.661494  0.056649  1
  O  O70  1  0.934612  0.338506  0.943351  1
  O  O71  1  0.681484  0.374692  0.305382  1
  O  O72  1  0.181484  0.625308  0.694618  1
  O  O73  1  0.073383  0.153296  0.339365  1
  O  O74  1  0.557121  0.685656  0.362198  1
  O  O75  1  0.573383  0.846704  0.660635  1
  O  O76  1  0.661136  0.375992  0.098742  1
  O  O77  1  0.980318  0.328055  0.739701  1
  O  O78  1  0.931718  0.602118  0.030795  1
  O  O79  1  0.557121  0.814344  0.862198  1
  O  O80  1  0.560311  0.436427  0.863920  1
  O  O81  1  0.961244  0.596094  0.452795  1
  O  O82  1  0.161136  0.624008  0.901258  1
  O  O83  1  0.161136  0.875992  0.401258  1
  O  O84  1  0.334534  0.374927  0.403442  1
  O  O85  1  0.057121  0.185656  0.137802  1
  O  O86  1  0.931718  0.897882  0.530795  1
  O  O87  1  0.431718  0.397882  0.969205  1
