# generated using pymatgen
data_Nb2PbO6
_symmetry_space_group_name_H-M   'P 1'
_cell_length_a   7.33912815
_cell_length_b   7.33912815
_cell_length_c   7.33912815
_cell_angle_alpha   93.99041732
_cell_angle_beta   93.99041732
_cell_angle_gamma   93.99041732
_symmetry_Int_Tables_number   1
_chemical_formula_structural   Nb2PbO6
_chemical_formula_sum   'Nb6 Pb3 O18'
_cell_volume   392.28974698
_cell_formula_units_Z   3
loop_
 _symmetry_equiv_pos_site_id
 _symmetry_equiv_pos_as_xyz
  1  'x, y, z'
loop_
 _atom_site_type_symbol
 _atom_site_label
 _atom_site_symmetry_multiplicity
 _atom_site_fract_x
 _atom_site_fract_y
 _atom_site_fract_z
 _atom_site_occupancy
  Nb  Nb0  1  0.161963  0.814785  0.512877  1
  Nb  Nb1  1  0.512877  0.161963  0.814785  1
  Nb  Nb2  1  0.814785  0.512877  0.161963  1
  Nb  Nb3  1  0.161963  0.512877  0.814785  1
  Nb  Nb4  1  0.814785  0.161963  0.512877  1
  Nb  Nb5  1  0.512877  0.814785  0.161963  1
  Pb  Pb6  1  0.992199  0.992199  0.992199  1
  Pb  Pb7  1  0.649688  0.649688  0.649688  1
  Pb  Pb8  1  0.353657  0.353657  0.353657  1
  O  O9  1  0.510479  0.057852  0.057852  1
  O  O10  1  0.057852  0.510479  0.057852  1
  O  O11  1  0.057852  0.057852  0.510479  1
  O  O12  1  0.961369  0.677617  0.395947  1
  O  O13  1  0.395947  0.961369  0.677617  1
  O  O14  1  0.677617  0.395947  0.961369  1
  O  O15  1  0.961369  0.395947  0.677617  1
  O  O16  1  0.677617  0.961369  0.395947  1
  O  O17  1  0.395947  0.677617  0.961369  1
  O  O18  1  0.581507  0.581507  0.301647  1
  O  O19  1  0.301647  0.581507  0.581507  1
  O  O20  1  0.581507  0.301647  0.581507  1
  O  O21  1  0.067904  0.773052  0.773052  1
  O  O22  1  0.773052  0.067904  0.773052  1
  O  O23  1  0.773052  0.773052  0.067904  1
  O  O24  1  0.841252  0.304017  0.304017  1
  O  O25  1  0.304017  0.841252  0.304017  1
  O  O26  1  0.304017  0.304017  0.841252  1
