# generated using pymatgen
data_Pr3BWO9
_symmetry_space_group_name_H-M   'P 1'
_cell_length_a   8.84978606
_cell_length_b   8.84978606
_cell_length_c   5.63099896
_cell_angle_alpha   90.00000000
_cell_angle_beta   90.00000000
_cell_angle_gamma   120.00000000
_symmetry_Int_Tables_number   1
_chemical_formula_structural   Pr3BWO9
_chemical_formula_sum   'Pr6 B2 W2 O18'
_cell_volume   381.92810944
_cell_formula_units_Z   2
loop_
 _symmetry_equiv_pos_site_id
 _symmetry_equiv_pos_as_xyz
  1  'x, y, z'
loop_
 _atom_site_type_symbol
 _atom_site_label
 _atom_site_symmetry_multiplicity
 _atom_site_fract_x
 _atom_site_fract_y
 _atom_site_fract_z
 _atom_site_occupancy
  Pr  Pr0  1  0.724678  0.642841  0.201578  1
  Pr  Pr1  1  0.275322  0.357159  0.701578  1
  Pr  Pr2  1  0.642841  0.918163  0.701578  1
  Pr  Pr3  1  0.918163  0.275322  0.201578  1
  Pr  Pr4  1  0.357159  0.081837  0.201578  1
  Pr  Pr5  1  0.081837  0.724678  0.701578  1
  B  B6  1  0.000000  0.000000  0.864585  1
  B  B7  1  0.000000  0.000000  0.364585  1
  W  W8  1  0.666667  0.333333  0.744358  1
  W  W9  1  0.333333  0.666667  0.244358  1
  O  O10  1  0.872497  0.825634  0.856737  1
  O  O11  1  0.046863  0.872497  0.356737  1
  O  O12  1  0.174366  0.046863  0.856737  1
  O  O13  1  0.468387  0.264170  0.541482  1
  O  O14  1  0.863066  0.480039  0.966955  1
  O  O15  1  0.735830  0.204217  0.541482  1
  O  O16  1  0.127503  0.174366  0.356737  1
  O  O17  1  0.204217  0.468387  0.041482  1
  O  O18  1  0.480039  0.616974  0.466955  1
  O  O19  1  0.795783  0.531613  0.541482  1
  O  O20  1  0.616974  0.136934  0.966955  1
  O  O21  1  0.383026  0.863066  0.466955  1
  O  O22  1  0.825634  0.953137  0.356737  1
  O  O23  1  0.519961  0.383026  0.966955  1
  O  O24  1  0.953137  0.127503  0.856737  1
  O  O25  1  0.264170  0.795783  0.041482  1
  O  O26  1  0.531613  0.735830  0.041482  1
  O  O27  1  0.136934  0.519961  0.466955  1
