# generated using pymatgen
data_KMnF3
_symmetry_space_group_name_H-M   'P 1'
_cell_length_a   6.02760184
_cell_length_b   6.02760184
_cell_length_c   6.02760184
_cell_angle_alpha   120.40934642
_cell_angle_beta   120.40934642
_cell_angle_gamma   89.29244151
_symmetry_Int_Tables_number   1
_chemical_formula_structural   KMnF3
_chemical_formula_sum   'K2 Mn2 F6'
_cell_volume   153.88182543
_cell_formula_units_Z   2
loop_
 _symmetry_equiv_pos_site_id
 _symmetry_equiv_pos_as_xyz
  1  'x, y, z'
loop_
 _atom_site_type_symbol
 _atom_site_label
 _atom_site_symmetry_multiplicity
 _atom_site_fract_x
 _atom_site_fract_y
 _atom_site_fract_z
 _atom_site_occupancy
  K  K0  1  0.250000  0.750000  0.500000  1
  K  K1  1  0.750000  0.250000  0.500000  1
  Mn  Mn2  1  0.500000  0.500000  0.000000  1
  Mn  Mn3  1  0.000000  0.000000  0.000000  1
  F  F4  1  0.750000  0.750000  0.000000  1
  F  F5  1  0.250000  0.250000  0.000000  1
  F  F6  1  0.285748  0.785748  0.071497  1
  F  F7  1  0.785748  0.714252  0.500000  1
  F  F8  1  0.714252  0.214252  0.928503  1
  F  F9  1  0.214252  0.285748  0.500000  1
