# generated using pymatgen
data_RbIn3S5
_symmetry_space_group_name_H-M   'P 1'
_cell_length_a   12.57983524
_cell_length_b   3.84557535
_cell_length_c   15.60404698
_cell_angle_alpha   90.00000000
_cell_angle_beta   112.39779725
_cell_angle_gamma   90.00000000
_symmetry_Int_Tables_number   1
_chemical_formula_structural   RbIn3S5
_chemical_formula_sum   'Rb3 In9 S15'
_cell_volume   697.92531136
_cell_formula_units_Z   3
loop_
 _symmetry_equiv_pos_site_id
 _symmetry_equiv_pos_as_xyz
  1  'x, y, z'
loop_
 _atom_site_type_symbol
 _atom_site_label
 _atom_site_symmetry_multiplicity
 _atom_site_fract_x
 _atom_site_fract_y
 _atom_site_fract_z
 _atom_site_occupancy
  Rb  Rb0  1  0.500000  0.000000  0.000000  1
  Rb  Rb1  1  0.135466  0.500000  0.426452  1
  Rb  Rb2  1  0.864534  0.500000  0.573548  1
  In  In3  1  0.173585  0.500000  0.164589  1
  In  In4  1  0.826415  0.500000  0.835411  1
  In  In5  1  0.500000  0.500000  0.500000  1
  In  In6  1  0.477704  0.000000  0.286440  1
  In  In7  1  0.522296  0.000000  0.713560  1
  In  In8  1  0.772174  0.500000  0.269902  1
  In  In9  1  0.227826  0.500000  0.730098  1
  In  In10  1  0.882822  0.000000  0.069819  1
  In  In11  1  0.117178  0.000000  0.930181  1
  S  S12  1  0.267770  0.000000  0.101899  1
  S  S13  1  0.732230  0.000000  0.898101  1
  S  S14  1  0.555599  0.500000  0.211114  1
  S  S15  1  0.444401  0.500000  0.788886  1
  S  S16  1  0.066208  0.000000  0.217051  1
  S  S17  1  0.933792  0.000000  0.782949  1
  S  S18  1  0.615820  0.000000  0.457400  1
  S  S19  1  0.384180  0.000000  0.542600  1
  S  S20  1  0.767394  0.500000  0.106599  1
  S  S21  1  0.232606  0.500000  0.893401  1
  S  S22  1  0.870054  0.000000  0.369014  1
  S  S23  1  0.129946  0.000000  0.630986  1
  S  S24  1  0.355520  0.500000  0.320637  1
  S  S25  1  0.644480  0.500000  0.679363  1
  S  S26  1  0.000000  0.500000  0.000000  1
