# generated using pymatgen
data_KSbF6
_symmetry_space_group_name_H-M   'P 1'
_cell_length_a   5.27285832
_cell_length_b   5.27285832
_cell_length_c   10.25370911
_cell_angle_alpha   90.00000000
_cell_angle_beta   90.00000000
_cell_angle_gamma   90.00000000
_symmetry_Int_Tables_number   1
_chemical_formula_structural   KSbF6
_chemical_formula_sum   'K2 Sb2 F12'
_cell_volume   285.08423186
_cell_formula_units_Z   2
loop_
 _symmetry_equiv_pos_site_id
 _symmetry_equiv_pos_as_xyz
  1  'x, y, z'
loop_
 _atom_site_type_symbol
 _atom_site_label
 _atom_site_symmetry_multiplicity
 _atom_site_fract_x
 _atom_site_fract_y
 _atom_site_fract_z
 _atom_site_occupancy
  K  K0  1  0.500000  0.500000  0.750000  1
  K  K1  1  0.500000  0.500000  0.250000  1
  Sb  Sb2  1  0.000000  0.000000  0.000000  1
  Sb  Sb3  1  0.000000  0.000000  0.500000  1
  F  F4  1  0.817237  0.182763  0.131814  1
  F  F5  1  0.817237  0.817237  0.368186  1
  F  F6  1  0.257949  0.742051  0.500000  1
  F  F7  1  0.182763  0.182763  0.368186  1
  F  F8  1  0.182763  0.817237  0.868186  1
  F  F9  1  0.817237  0.817237  0.631814  1
  F  F10  1  0.257949  0.257949  0.000000  1
  F  F11  1  0.742051  0.257949  0.500000  1
  F  F12  1  0.182763  0.182763  0.631814  1
  F  F13  1  0.182763  0.817237  0.131814  1
  F  F14  1  0.817237  0.182763  0.868186  1
  F  F15  1  0.742051  0.742051  0.000000  1
