# generated using pymatgen
data_Na2Mg5(PO4)4
_symmetry_space_group_name_H-M   'P 1'
_cell_length_a   5.22312068
_cell_length_b   8.01571639
_cell_length_c   8.21645399
_cell_angle_alpha   110.74557779
_cell_angle_beta   90.33867727
_cell_angle_gamma   101.93792680
_symmetry_Int_Tables_number   1
_chemical_formula_structural   Na2Mg5(PO4)4
_chemical_formula_sum   'Na2 Mg5 P4 O16'
_cell_volume   313.55632866
_cell_formula_units_Z   1
loop_
 _symmetry_equiv_pos_site_id
 _symmetry_equiv_pos_as_xyz
  1  'x, y, z'
loop_
 _atom_site_type_symbol
 _atom_site_label
 _atom_site_symmetry_multiplicity
 _atom_site_fract_x
 _atom_site_fract_y
 _atom_site_fract_z
 _atom_site_occupancy
  Na  Na0  1  0.437119  0.962067  0.705380  1
  Na  Na1  1  0.562881  0.037933  0.294620  1
  Mg  Mg2  1  0.093776  0.254906  0.780433  1
  Mg  Mg3  1  0.635470  0.408454  0.672018  1
  Mg  Mg4  1  0.906224  0.745094  0.219567  1
  Mg  Mg5  1  0.000000  0.000000  0.000000  1
  Mg  Mg6  1  0.364530  0.591546  0.327982  1
  P  P7  1  0.130776  0.212814  0.430005  1
  P  P8  1  0.869224  0.787186  0.569995  1
  P  P9  1  0.619637  0.301858  0.026943  1
  P  P10  1  0.380363  0.698142  0.973057  1
  O  O11  1  0.256510  0.829582  0.918057  1
  O  O12  1  0.325330  0.186121  0.562461  1
  O  O13  1  0.320423  0.216535  0.966709  1
  O  O14  1  0.679577  0.783465  0.033291  1
  O  O15  1  0.933276  0.969927  0.732965  1
  O  O16  1  0.066724  0.030073  0.267035  1
  O  O17  1  0.674670  0.813879  0.437539  1
  O  O18  1  0.743490  0.170418  0.081943  1
  O  O19  1  0.242386  0.673119  0.135582  1
  O  O20  1  0.342617  0.507850  0.825953  1
  O  O21  1  0.757614  0.326881  0.864418  1
  O  O22  1  0.657383  0.492150  0.174047  1
  O  O23  1  0.114987  0.752453  0.469926  1
  O  O24  1  0.266692  0.368784  0.376453  1
  O  O25  1  0.885013  0.247547  0.530074  1
  O  O26  1  0.733308  0.631216  0.623547  1
