# generated using pymatgen
data_Na9ZrP4ClO16
_symmetry_space_group_name_H-M   'P 1'
_cell_length_a   5.44039736
_cell_length_b   9.16774810
_cell_length_c   9.26593530
_cell_angle_alpha   111.07897754
_cell_angle_beta   91.87785100
_cell_angle_gamma   90.30470132
_symmetry_Int_Tables_number   1
_chemical_formula_structural   Na9ZrP4ClO16
_chemical_formula_sum   'Na9 Zr1 P4 Cl1 O16'
_cell_volume   430.92101850
_cell_formula_units_Z   1
loop_
 _symmetry_equiv_pos_site_id
 _symmetry_equiv_pos_as_xyz
  1  'x, y, z'
loop_
 _atom_site_type_symbol
 _atom_site_label
 _atom_site_symmetry_multiplicity
 _atom_site_fract_x
 _atom_site_fract_y
 _atom_site_fract_z
 _atom_site_occupancy
  Na  Na0  1  0.534877  0.646083  0.396261  1
  Na  Na1  1  0.418231  0.982326  0.364034  1
  Na  Na2  1  0.514495  0.504667  0.986771  1
  Na  Na3  1  0.050546  0.830535  0.572364  1
  Na  Na4  1  0.454443  0.363563  0.590450  1
  Na  Na5  1  0.920802  0.178743  0.409745  1
  Na  Na6  1  0.969043  0.574811  0.827639  1
  Na  Na7  1  0.053452  0.440284  0.157939  1
  Na  Na8  1  0.525333  0.083641  0.765884  1
  Zr  Zr9  1  0.011669  0.001980  0.996670  1
  P  P10  1  0.531240  0.244975  0.183008  1
  P  P11  1  0.962742  0.791033  0.240322  1
  P  P12  1  0.484580  0.765747  0.797316  1
  P  P13  1  0.032112  0.213372  0.740587  1
  Cl  Cl14  1  0.003084  0.501501  0.495049  1
  O  O15  1  0.773180  0.852537  0.368122  1
  O  O16  1  0.797936  0.199018  0.118954  1
  O  O17  1  0.514678  0.215325  0.335022  1
  O  O18  1  0.031487  0.938451  0.192059  1
  O  O19  1  0.224023  0.808830  0.871480  1
  O  O20  1  0.687586  0.874709  0.911460  1
  O  O21  1  0.202421  0.749037  0.308993  1
  O  O22  1  0.867674  0.652039  0.098082  1
  O  O23  1  0.535113  0.596968  0.780171  1
  O  O24  1  0.480455  0.804241  0.649267  1
  O  O25  1  0.774752  0.255180  0.693725  1
  O  O26  1  0.199627  0.147360  0.599168  1
  O  O27  1  0.158879  0.353080  0.869586  1
  O  O28  1  0.338304  0.136252  0.060485  1
  O  O29  1  0.992237  0.071337  0.800007  1
  O  O30  1  0.487999  0.413374  0.194380  1
