# generated using pymatgen
data_ScBiO3
_symmetry_space_group_name_H-M   'P 1'
_cell_length_a   5.79571265
_cell_length_b   5.79571265
_cell_length_c   10.14954106
_cell_angle_alpha   73.78835511
_cell_angle_beta   106.21164489
_cell_angle_gamma   118.87257785
_symmetry_Int_Tables_number   1
_chemical_formula_structural   ScBiO3
_chemical_formula_sum   'Sc4 Bi4 O12'
_cell_volume   282.41897273
_cell_formula_units_Z   4
loop_
 _symmetry_equiv_pos_site_id
 _symmetry_equiv_pos_as_xyz
  1  'x, y, z'
loop_
 _atom_site_type_symbol
 _atom_site_label
 _atom_site_symmetry_multiplicity
 _atom_site_fract_x
 _atom_site_fract_y
 _atom_site_fract_z
 _atom_site_occupancy
  Sc  Sc0  1  0.504721  0.985970  0.499014  1
  Sc  Sc1  1  0.256555  0.240537  0.749367  1
  Sc  Sc2  1  0.014030  0.495279  0.999014  1
  Sc  Sc3  1  0.759463  0.743445  0.249367  1
  Bi  Bi4  1  0.959443  0.679368  0.633263  1
  Bi  Bi5  1  0.320632  0.040557  0.133263  1
  Bi  Bi6  1  0.054383  0.313234  0.367187  1
  Bi  Bi7  1  0.686766  0.945617  0.867187  1
  O  O8  1  0.307037  0.611920  0.629827  1
  O  O9  1  0.181597  0.856415  0.335579  1
  O  O10  1  0.743827  0.884613  0.418124  1
  O  O11  1  0.274432  0.097711  0.578849  1
  O  O12  1  0.905334  0.171768  0.164895  1
  O  O13  1  0.641084  0.309676  0.861895  1
  O  O14  1  0.143585  0.818403  0.835579  1
  O  O15  1  0.690324  0.358916  0.361895  1
  O  O16  1  0.902289  0.725568  0.078849  1
  O  O17  1  0.388080  0.692963  0.129827  1
  O  O18  1  0.828232  0.094666  0.664895  1
  O  O19  1  0.115387  0.256173  0.918124  1
