# generated using pymatgen
data_CsAlF4
_symmetry_space_group_name_H-M   'P 1'
_cell_length_a   9.63109548
_cell_length_b   9.63109548
_cell_length_c   3.77101834
_cell_angle_alpha   90.00000000
_cell_angle_beta   90.00000000
_cell_angle_gamma   120.00000000
_symmetry_Int_Tables_number   1
_chemical_formula_structural   CsAlF4
_chemical_formula_sum   'Cs3 Al3 F12'
_cell_volume   302.92886166
_cell_formula_units_Z   3
loop_
 _symmetry_equiv_pos_site_id
 _symmetry_equiv_pos_as_xyz
  1  'x, y, z'
loop_
 _atom_site_type_symbol
 _atom_site_label
 _atom_site_symmetry_multiplicity
 _atom_site_fract_x
 _atom_site_fract_y
 _atom_site_fract_z
 _atom_site_occupancy
  Cs  Cs0  1  0.000000  0.568684  0.500000  1
  Cs  Cs1  1  0.431316  0.431316  0.500000  1
  Cs  Cs2  1  0.568684  0.000000  0.500000  1
  Al  Al3  1  0.216449  0.000000  0.000000  1
  Al  Al4  1  0.783551  0.783551  0.000000  1
  Al  Al5  1  0.000000  0.216449  0.000000  1
  F  F6  1  0.207927  0.000000  0.500000  1
  F  F7  1  0.000000  0.207927  0.500000  1
  F  F8  1  0.419686  0.156514  0.000000  1
  F  F9  1  0.000000  0.845563  0.000000  1
  F  F10  1  0.845563  0.000000  0.000000  1
  F  F11  1  0.156514  0.419686  0.000000  1
  F  F12  1  0.736828  0.580314  0.000000  1
  F  F13  1  0.843486  0.263172  0.000000  1
  F  F14  1  0.792073  0.792073  0.500000  1
  F  F15  1  0.580314  0.736828  0.000000  1
  F  F16  1  0.263172  0.843486  0.000000  1
  F  F17  1  0.154437  0.154437  0.000000  1
