# generated using pymatgen
data_CaAl12Si4O27
_symmetry_space_group_name_H-M   'P 1'
_cell_length_a   7.30868086
_cell_length_b   7.30868086
_cell_length_c   8.69798438
_cell_angle_alpha   90.00000000
_cell_angle_beta   90.00000000
_cell_angle_gamma   120.00000000
_symmetry_Int_Tables_number   1
_chemical_formula_structural   CaAl12Si4O27
_chemical_formula_sum   'Ca1 Al12 Si4 O27'
_cell_volume   402.37153726
_cell_formula_units_Z   1
loop_
 _symmetry_equiv_pos_site_id
 _symmetry_equiv_pos_as_xyz
  1  'x, y, z'
loop_
 _atom_site_type_symbol
 _atom_site_label
 _atom_site_symmetry_multiplicity
 _atom_site_fract_x
 _atom_site_fract_y
 _atom_site_fract_z
 _atom_site_occupancy
  Ca  Ca0  1  0.000000  0.000000  0.000000  1
  Al  Al1  1  0.949752  0.742921  0.353153  1
  Al  Al2  1  0.452956  0.367357  0.865018  1
  Al  Al3  1  0.206831  0.949752  0.646847  1
  Al  Al4  1  0.367357  0.914401  0.134982  1
  Al  Al5  1  0.547044  0.632643  0.134982  1
  Al  Al6  1  0.742921  0.793169  0.646847  1
  Al  Al7  1  0.085599  0.452956  0.134982  1
  Al  Al8  1  0.914401  0.547044  0.865018  1
  Al  Al9  1  0.257079  0.206831  0.353153  1
  Al  Al10  1  0.632643  0.085599  0.865018  1
  Al  Al11  1  0.793169  0.050248  0.353153  1
  Al  Al12  1  0.050248  0.257079  0.646847  1
  Si  Si13  1  0.666667  0.333333  0.553580  1
  Si  Si14  1  0.333333  0.666667  0.446420  1
  Si  Si15  1  0.333333  0.666667  0.859031  1
  Si  Si16  1  0.666667  0.333333  0.140969  1
  O  O17  1  0.456882  0.154992  0.000546  1
  O  O18  1  0.301890  0.456882  0.999454  1
  O  O19  1  0.612351  0.103942  0.237993  1
  O  O20  1  0.845008  0.301890  0.000546  1
  O  O21  1  0.579383  0.834280  0.491875  1
  O  O22  1  0.103942  0.491591  0.762007  1
  O  O23  1  0.165720  0.745104  0.491875  1
  O  O24  1  0.254896  0.420617  0.491875  1
  O  O25  1  0.834280  0.254896  0.508125  1
  O  O26  1  0.420617  0.165720  0.508125  1
  O  O27  1  0.225048  0.180135  0.758718  1
  O  O28  1  0.745104  0.579383  0.508125  1
  O  O29  1  0.955088  0.774952  0.758718  1
  O  O30  1  0.819865  0.044912  0.758718  1
  O  O31  1  0.180135  0.955088  0.241282  1
  O  O32  1  0.491591  0.387649  0.237993  1
  O  O33  1  0.543118  0.845008  0.999454  1
  O  O34  1  0.774952  0.819865  0.241282  1
  O  O35  1  0.698110  0.543118  0.000546  1
  O  O36  1  0.508409  0.612351  0.762007  1
  O  O37  1  0.387649  0.896058  0.762007  1
  O  O38  1  0.896058  0.508409  0.237993  1
  O  O39  1  0.333333  0.666667  0.249283  1
  O  O40  1  0.666667  0.333333  0.750717  1
  O  O41  1  0.154992  0.698110  0.999454  1
  O  O42  1  0.044912  0.225048  0.241282  1
  O  O43  1  0.000000  0.000000  0.500000  1
