# generated using pymatgen
data_Tm3B5O12
_symmetry_space_group_name_H-M   'P 1'
_cell_length_a   4.61753280
_cell_length_b   12.53803746
_cell_length_c   12.84399511
_cell_angle_alpha   90.00000000
_cell_angle_beta   90.00000000
_cell_angle_gamma   90.00000000
_symmetry_Int_Tables_number   1
_chemical_formula_structural   Tm3B5O12
_chemical_formula_sum   'Tm12 B20 O48'
_cell_volume   743.60051807
_cell_formula_units_Z   4
loop_
 _symmetry_equiv_pos_site_id
 _symmetry_equiv_pos_as_xyz
  1  'x, y, z'
loop_
 _atom_site_type_symbol
 _atom_site_label
 _atom_site_symmetry_multiplicity
 _atom_site_fract_x
 _atom_site_fract_y
 _atom_site_fract_z
 _atom_site_occupancy
  Tm  Tm0  1  0.999282  0.807146  0.864605  1
  Tm  Tm1  1  0.000000  0.000000  0.632164  1
  Tm  Tm2  1  0.000718  0.192854  0.135395  1
  Tm  Tm3  1  0.999282  0.807146  0.135395  1
  Tm  Tm4  1  0.000000  0.500000  0.132164  1
  Tm  Tm5  1  0.999282  0.692854  0.364605  1
  Tm  Tm6  1  0.000718  0.307146  0.364605  1
  Tm  Tm7  1  0.000718  0.192854  0.864605  1
  Tm  Tm8  1  0.000000  0.000000  0.367836  1
  Tm  Tm9  1  0.000000  0.500000  0.867836  1
  Tm  Tm10  1  0.000718  0.307146  0.635395  1
  Tm  Tm11  1  0.999282  0.692854  0.635395  1
  B  B12  1  0.500000  0.000000  0.161781  1
  B  B13  1  0.529622  0.151292  0.298172  1
  B  B14  1  0.470378  0.651292  0.798172  1
  B  B15  1  0.470378  0.848708  0.701828  1
  B  B16  1  0.456347  0.374106  0.500000  1
  B  B17  1  0.500000  0.500000  0.661781  1
  B  B18  1  0.543653  0.625894  0.500000  1
  B  B19  1  0.543653  0.874106  0.000000  1
  B  B20  1  0.540224  0.849935  0.500000  1
  B  B21  1  0.529622  0.348708  0.201828  1
  B  B22  1  0.500000  0.500000  0.338219  1
  B  B23  1  0.500000  0.000000  0.838219  1
  B  B24  1  0.459776  0.349935  0.000000  1
  B  B25  1  0.540224  0.650065  0.000000  1
  B  B26  1  0.529622  0.348708  0.798172  1
  B  B27  1  0.470378  0.651292  0.201828  1
  B  B28  1  0.459776  0.150065  0.500000  1
  B  B29  1  0.470378  0.848708  0.298172  1
  B  B30  1  0.529622  0.151292  0.701828  1
  B  B31  1  0.456347  0.125894  0.000000  1
  O  O32  1  0.310334  0.935268  0.766490  1
  O  O33  1  0.689666  0.064732  0.766490  1
  O  O34  1  0.334379  0.426055  0.403952  1
  O  O35  1  0.758575  0.360355  0.500000  1
  O  O36  1  0.241425  0.639645  0.500000  1
  O  O37  1  0.343066  0.854644  0.594882  1
  O  O38  1  0.656934  0.145356  0.594882  1
  O  O39  1  0.698147  0.762320  0.000000  1
  O  O40  1  0.219404  0.348071  0.795711  1
  O  O41  1  0.656934  0.354644  0.094882  1
  O  O42  1  0.301853  0.237680  0.000000  1
  O  O43  1  0.310334  0.564732  0.266490  1
  O  O44  1  0.689666  0.435268  0.733510  1
  O  O45  1  0.343066  0.854644  0.405118  1
  O  O46  1  0.780596  0.651929  0.204289  1
  O  O47  1  0.658153  0.250000  0.750000  1
  O  O48  1  0.334379  0.426055  0.596048  1
  O  O49  1  0.310334  0.564732  0.733510  1
  O  O50  1  0.343066  0.645356  0.094882  1
  O  O51  1  0.219404  0.151929  0.704289  1
  O  O52  1  0.656934  0.354644  0.905118  1
  O  O53  1  0.341847  0.750000  0.750000  1
  O  O54  1  0.219404  0.151929  0.295711  1
  O  O55  1  0.665621  0.926055  0.096048  1
  O  O56  1  0.656934  0.145356  0.405118  1
  O  O57  1  0.658153  0.250000  0.250000  1
  O  O58  1  0.665621  0.573945  0.403952  1
  O  O59  1  0.758575  0.139645  0.000000  1
  O  O60  1  0.689666  0.064732  0.233510  1
  O  O61  1  0.698147  0.737680  0.500000  1
  O  O62  1  0.343066  0.645356  0.905118  1
  O  O63  1  0.238788  0.070915  0.500000  1
  O  O64  1  0.665621  0.573945  0.596048  1
  O  O65  1  0.241425  0.860355  0.000000  1
  O  O66  1  0.780596  0.848071  0.295711  1
  O  O67  1  0.665621  0.926055  0.903952  1
  O  O68  1  0.780596  0.651929  0.795711  1
  O  O69  1  0.301853  0.262320  0.500000  1
  O  O70  1  0.761212  0.570915  0.000000  1
  O  O71  1  0.310334  0.935268  0.233510  1
  O  O72  1  0.334379  0.073945  0.096048  1
  O  O73  1  0.761212  0.929085  0.500000  1
  O  O74  1  0.238788  0.429085  0.000000  1
  O  O75  1  0.341847  0.750000  0.250000  1
  O  O76  1  0.219404  0.348071  0.204289  1
  O  O77  1  0.780596  0.848071  0.704289  1
  O  O78  1  0.689666  0.435268  0.266490  1
  O  O79  1  0.334379  0.073945  0.903952  1
