# generated using pymatgen
data_LiSi2N3
_symmetry_space_group_name_H-M   'P 1'
_cell_length_a   5.34706883
_cell_length_b   5.34706883
_cell_length_c   4.81172791
_cell_angle_alpha   90.00000000
_cell_angle_beta   90.00000000
_cell_angle_gamma   120.25033855
_symmetry_Int_Tables_number   1
_chemical_formula_structural   LiSi2N3
_chemical_formula_sum   'Li2 Si4 N6'
_cell_volume   118.83986891
_cell_formula_units_Z   2
loop_
 _symmetry_equiv_pos_site_id
 _symmetry_equiv_pos_as_xyz
  1  'x, y, z'
loop_
 _atom_site_type_symbol
 _atom_site_label
 _atom_site_symmetry_multiplicity
 _atom_site_fract_x
 _atom_site_fract_y
 _atom_site_fract_z
 _atom_site_occupancy
  Li  Li0  1  0.659467  0.659467  0.999226  1
  Li  Li1  1  0.340533  0.340533  0.499226  1
  Si  Si2  1  0.328943  0.997479  0.986943  1
  Si  Si3  1  0.671057  0.002521  0.486943  1
  Si  Si4  1  0.002521  0.671057  0.486943  1
  Si  Si5  1  0.997479  0.328943  0.986943  1
  N  N6  1  0.337729  0.940949  0.625426  1
  N  N7  1  0.662271  0.059051  0.125426  1
  N  N8  1  0.274321  0.274321  0.065758  1
  N  N9  1  0.725679  0.725679  0.565758  1
  N  N10  1  0.940949  0.337729  0.625426  1
  N  N11  1  0.059051  0.662271  0.125426  1
