# generated using pymatgen
data_Sr3Y2(BO3)4
_symmetry_space_group_name_H-M   'P 1'
_cell_length_a   7.41225613
_cell_length_b   8.74786804
_cell_length_c   16.33863912
_cell_angle_alpha   90.00000000
_cell_angle_beta   90.00000000
_cell_angle_gamma   90.00000000
_symmetry_Int_Tables_number   1
_chemical_formula_structural   Sr3Y2(BO3)4
_chemical_formula_sum   'Sr12 Y8 B16 O48'
_cell_volume   1059.42086374
_cell_formula_units_Z   4
loop_
 _symmetry_equiv_pos_site_id
 _symmetry_equiv_pos_as_xyz
  1  'x, y, z'
loop_
 _atom_site_type_symbol
 _atom_site_label
 _atom_site_symmetry_multiplicity
 _atom_site_fract_x
 _atom_site_fract_y
 _atom_site_fract_z
 _atom_site_occupancy
  Sr  Sr0  1  0.028080  0.664155  0.225350  1
  Sr  Sr1  1  0.308565  0.651354  0.681551  1
  Sr  Sr2  1  0.691435  0.348646  0.181551  1
  Sr  Sr3  1  0.827137  0.851876  0.430334  1
  Sr  Sr4  1  0.672863  0.351876  0.930334  1
  Sr  Sr5  1  0.172863  0.148124  0.930334  1
  Sr  Sr6  1  0.327137  0.648124  0.430334  1
  Sr  Sr7  1  0.808565  0.848646  0.681551  1
  Sr  Sr8  1  0.191435  0.151354  0.181551  1
  Sr  Sr9  1  0.471920  0.164155  0.725350  1
  Sr  Sr10  1  0.971920  0.335845  0.725350  1
  Sr  Sr11  1  0.528080  0.835845  0.225350  1
  Y  Y12  1  0.494975  0.176394  0.390308  1
  Y  Y13  1  0.683557  0.471358  0.557470  1
  Y  Y14  1  0.183557  0.028642  0.557470  1
  Y  Y15  1  0.505025  0.823606  0.890308  1
  Y  Y16  1  0.005025  0.676394  0.890308  1
  Y  Y17  1  0.994975  0.323606  0.390308  1
  Y  Y18  1  0.316443  0.528642  0.057470  1
  Y  Y19  1  0.816443  0.971358  0.057470  1
  B  B20  1  0.169924  0.955643  0.356048  1
  B  B21  1  0.658633  0.565950  0.765964  1
  B  B22  1  0.486426  0.125575  0.051809  1
  B  B23  1  0.830076  0.044357  0.856048  1
  B  B24  1  0.013574  0.625575  0.551809  1
  B  B25  1  0.289021  0.346595  0.553717  1
  B  B26  1  0.841367  0.065950  0.265964  1
  B  B27  1  0.710978  0.653405  0.053717  1
  B  B28  1  0.669924  0.544357  0.356048  1
  B  B29  1  0.986426  0.374425  0.051809  1
  B  B30  1  0.341367  0.434050  0.265964  1
  B  B31  1  0.513574  0.874425  0.551809  1
  B  B32  1  0.789022  0.153405  0.553717  1
  B  B33  1  0.158633  0.934050  0.765964  1
  B  B34  1  0.210979  0.846595  0.053717  1
  B  B35  1  0.330076  0.455643  0.856048  1
  O  O36  1  0.585781  0.452456  0.414846  1
  O  O37  1  0.888142  0.193463  0.847035  1
  O  O38  1  0.887510  0.972037  0.201818  1
  O  O39  1  0.461702  0.955216  0.481416  1
  O  O40  1  0.202768  0.467963  0.320419  1
  O  O41  1  0.702768  0.032037  0.320419  1
  O  O42  1  0.961702  0.544784  0.481416  1
  O  O43  1  0.555406  0.073906  0.125783  1
  O  O44  1  0.944594  0.573906  0.625783  1
  O  O45  1  0.388142  0.306537  0.847035  1
  O  O46  1  0.612490  0.472037  0.701818  1
  O  O47  1  0.126730  0.985367  0.059222  1
  O  O48  1  0.689235  0.988206  0.809397  1
  O  O49  1  0.268005  0.767122  0.121679  1
  O  O50  1  0.914219  0.952456  0.914846  1
  O  O51  1  0.431189  0.294971  0.273196  1
  O  O52  1  0.387510  0.527963  0.201818  1
  O  O53  1  0.263795  0.272406  0.478432  1
  O  O54  1  0.112490  0.027963  0.701818  1
  O  O55  1  0.373270  0.485367  0.559222  1
  O  O56  1  0.931189  0.205029  0.273196  1
  O  O57  1  0.231995  0.267122  0.621679  1
  O  O58  1  0.768005  0.732878  0.121679  1
  O  O59  1  0.085781  0.047544  0.414846  1
  O  O60  1  0.414219  0.547544  0.914846  1
  O  O61  1  0.611858  0.693463  0.347035  1
  O  O62  1  0.189235  0.511794  0.809397  1
  O  O63  1  0.383045  0.258165  0.048007  1
  O  O64  1  0.731995  0.232878  0.621679  1
  O  O65  1  0.444594  0.926094  0.625783  1
  O  O66  1  0.873270  0.014633  0.559222  1
  O  O67  1  0.797232  0.532037  0.820419  1
  O  O68  1  0.736205  0.727594  0.978432  1
  O  O69  1  0.297232  0.967963  0.820419  1
  O  O70  1  0.111858  0.806537  0.347035  1
  O  O71  1  0.568811  0.705029  0.773196  1
  O  O72  1  0.116955  0.758165  0.548007  1
  O  O73  1  0.538298  0.044784  0.981416  1
  O  O74  1  0.055406  0.426094  0.125783  1
  O  O75  1  0.068811  0.794971  0.773196  1
  O  O76  1  0.038298  0.455216  0.981416  1
  O  O77  1  0.626730  0.514633  0.059222  1
  O  O78  1  0.763795  0.227594  0.478432  1
  O  O79  1  0.616955  0.741835  0.548007  1
  O  O80  1  0.883045  0.241835  0.048007  1
  O  O81  1  0.310765  0.011794  0.309397  1
  O  O82  1  0.810765  0.488206  0.309397  1
  O  O83  1  0.236205  0.772406  0.978432  1
