# generated using pymatgen
data_CsAl(SiO3)2
_symmetry_space_group_name_H-M   'P 1'
_cell_length_a   12.07489355
_cell_length_b   12.07489355
_cell_length_c   12.07489355
_cell_angle_alpha   109.72552640
_cell_angle_beta   109.72552640
_cell_angle_gamma   108.96379761
_symmetry_Int_Tables_number   1
_chemical_formula_structural   CsAl(SiO3)2
_chemical_formula_sum   'Cs8 Al8 Si16 O48'
_cell_volume   1355.19727989
_cell_formula_units_Z   8
loop_
 _symmetry_equiv_pos_site_id
 _symmetry_equiv_pos_as_xyz
  1  'x, y, z'
loop_
 _atom_site_type_symbol
 _atom_site_label
 _atom_site_symmetry_multiplicity
 _atom_site_fract_x
 _atom_site_fract_y
 _atom_site_fract_z
 _atom_site_occupancy
  Cs  Cs0  1  0.627263  0.872737  0.000000  1
  Cs  Cs1  1  0.872737  0.627263  0.000000  1
  Cs  Cs2  1  0.372737  0.372737  0.245474  1
  Cs  Cs3  1  0.377263  0.877263  0.254526  1
  Cs  Cs4  1  0.877263  0.622737  0.500000  1
  Cs  Cs5  1  0.122737  0.377263  0.500000  1
  Cs  Cs6  1  0.127263  0.127263  0.754526  1
  Cs  Cs7  1  0.622737  0.122737  0.745474  1
  Al  Al8  1  0.087457  0.412543  0.000000  1
  Al  Al9  1  0.337457  0.162543  0.500000  1
  Al  Al10  1  0.587457  0.587457  0.674914  1
  Al  Al11  1  0.837457  0.337457  0.174914  1
  Al  Al12  1  0.412543  0.087457  0.000000  1
  Al  Al13  1  0.162543  0.662543  0.825086  1
  Al  Al14  1  0.912543  0.912543  0.325086  1
  Al  Al15  1  0.662543  0.837457  0.500000  1
  Si  Si16  1  0.949168  0.159974  0.031897  1
  Si  Si17  1  0.840026  0.871923  0.789194  1
  Si  Si18  1  0.621923  0.332729  0.531897  1
  Si  Si19  1  0.300832  0.832729  0.710806  1
  Si  Si20  1  0.128077  0.917271  0.968103  1
  Si  Si21  1  0.582729  0.371923  0.031897  1
  Si  Si22  1  0.909974  0.378077  0.710806  1
  Si  Si23  1  0.628077  0.659974  0.210806  1
  Si  Si24  1  0.121923  0.590026  0.289194  1
  Si  Si25  1  0.667271  0.199168  0.289194  1
  Si  Si26  1  0.082729  0.050832  0.210806  1
  Si  Si27  1  0.340026  0.550832  0.968103  1
  Si  Si28  1  0.409974  0.699168  0.531897  1
  Si  Si29  1  0.167271  0.878077  0.468103  1
  Si  Si30  1  0.800832  0.090026  0.468103  1
  Si  Si31  1  0.449168  0.417271  0.789194  1
  O  O32  1  0.047264  0.150976  0.158361  1
  O  O33  1  0.702736  0.099024  0.341639  1
  O  O34  1  0.901457  0.043391  0.432683  1
  O  O35  1  0.611097  0.507385  0.158361  1
  O  O36  1  0.256845  0.043839  0.996120  1
  O  O37  1  0.239275  0.452281  0.996120  1
  O  O38  1  0.401457  0.968774  0.858066  1
  O  O39  1  0.992615  0.888903  0.841639  1
  O  O40  1  0.493155  0.206161  0.503880  1
  O  O41  1  0.349024  0.452736  0.841639  1
  O  O42  1  0.702281  0.989275  0.496120  1
  O  O43  1  0.639292  0.706609  0.358066  1
  O  O44  1  0.031226  0.889292  0.432683  1
  O  O45  1  0.138903  0.742615  0.341639  1
  O  O46  1  0.456609  0.598543  0.567317  1
  O  O47  1  0.111097  0.952736  0.103712  1
  O  O48  1  0.547264  0.388903  0.896288  1
  O  O49  1  0.638903  0.297264  0.396288  1
  O  O50  1  0.610708  0.468774  0.567317  1
  O  O51  1  0.848543  0.206609  0.067317  1
  O  O52  1  0.139292  0.781226  0.932683  1
  O  O53  1  0.547719  0.543839  0.786994  1
  O  O54  1  0.756845  0.760725  0.213006  1
  O  O55  1  0.510725  0.797719  0.503880  1
  O  O56  1  0.956161  0.952281  0.213006  1
  O  O57  1  0.793391  0.860708  0.641934  1
  O  O58  1  0.110708  0.543391  0.141934  1
  O  O59  1  0.757385  0.361097  0.658361  1
  O  O60  1  0.010725  0.506845  0.713006  1
  O  O61  1  0.257385  0.599024  0.396288  1
  O  O62  1  0.293391  0.651457  0.932683  1
  O  O63  1  0.348543  0.281226  0.641934  1
  O  O64  1  0.718774  0.360708  0.067317  1
  O  O65  1  0.293839  0.006845  0.496120  1
  O  O66  1  0.531226  0.098543  0.141934  1
  O  O67  1  0.218774  0.151457  0.358066  1
  O  O68  1  0.047719  0.260725  0.003880  1
  O  O69  1  0.849024  0.007385  0.896288  1
  O  O70  1  0.400976  0.797264  0.658361  1
  O  O71  1  0.202281  0.706161  0.713006  1
  O  O72  1  0.739275  0.743155  0.786994  1
  O  O73  1  0.492615  0.650976  0.103712  1
  O  O74  1  0.956609  0.389292  0.858066  1
  O  O75  1  0.202736  0.861097  0.603712  1
  O  O76  1  0.900976  0.242615  0.603712  1
  O  O77  1  0.456161  0.243155  0.003880  1
  O  O78  1  0.793839  0.297719  0.286994  1
  O  O79  1  0.993155  0.489275  0.286994  1
