# generated using pymatgen
data_RbVH6SO9
_symmetry_space_group_name_H-M   'P 1'
_cell_length_a   6.30048487
_cell_length_b   10.12859152
_cell_length_c   6.77649225
_cell_angle_alpha   90.00000000
_cell_angle_beta   108.05059187
_cell_angle_gamma   90.00000000
_symmetry_Int_Tables_number   1
_chemical_formula_structural   RbVH6SO9
_chemical_formula_sum   'Rb2 V2 H12 S2 O18'
_cell_volume   411.15872834
_cell_formula_units_Z   2
loop_
 _symmetry_equiv_pos_site_id
 _symmetry_equiv_pos_as_xyz
  1  'x, y, z'
loop_
 _atom_site_type_symbol
 _atom_site_label
 _atom_site_symmetry_multiplicity
 _atom_site_fract_x
 _atom_site_fract_y
 _atom_site_fract_z
 _atom_site_occupancy
  Rb  Rb0  1  0.696462  0.651495  0.185365  1
  Rb  Rb1  1  0.303538  0.151495  0.814635  1
  V  V2  1  0.383304  0.498709  0.616882  1
  V  V3  1  0.616696  0.998709  0.383118  1
  H  H4  1  0.190222  0.578399  0.179469  1
  H  H5  1  0.772160  0.209384  0.691540  1
  H  H6  1  0.970237  0.853819  0.695603  1
  H  H7  1  0.227840  0.709384  0.308460  1
  H  H8  1  0.029763  0.353819  0.304397  1
  H  H9  1  0.809778  0.078399  0.820531  1
  H  H10  1  0.879193  0.350585  0.072845  1
  H  H11  1  0.310673  0.761295  0.737084  1
  H  H12  1  0.471287  0.261268  0.342984  1
  H  H13  1  0.120807  0.850585  0.927155  1
  H  H14  1  0.528713  0.761268  0.657016  1
  H  H15  1  0.689327  0.261295  0.262916  1
  S  S16  1  0.077769  0.997823  0.267245  1
  S  S17  1  0.922231  0.497823  0.732755  1
  O  O18  1  0.934332  0.040960  0.399119  1
  O  O19  1  0.689485  0.531367  0.591464  1
  O  O20  1  0.538560  0.939463  0.145264  1
  O  O21  1  0.461440  0.439463  0.854736  1
  O  O22  1  0.976717  0.575244  0.924082  1
  O  O23  1  0.065668  0.540960  0.600881  1
  O  O24  1  0.677453  0.863902  0.536718  1
  O  O25  1  0.058707  0.854671  0.226859  1
  O  O26  1  0.284906  0.618290  0.310240  1
  O  O27  1  0.941293  0.354671  0.773141  1
  O  O28  1  0.322547  0.363902  0.463282  1
  O  O29  1  0.872702  0.360485  0.214596  1
  O  O30  1  0.310515  0.031367  0.408536  1
  O  O31  1  0.436629  0.705141  0.719600  1
  O  O32  1  0.023283  0.075244  0.075918  1
  O  O33  1  0.715094  0.118290  0.689760  1
  O  O34  1  0.127298  0.860485  0.785404  1
  O  O35  1  0.563371  0.205141  0.280400  1
