# generated using pymatgen
data_PrZr2F11
_symmetry_space_group_name_H-M   'P 1'
_cell_length_a   8.51402687
_cell_length_b   8.51402687
_cell_length_c   8.51402687
_cell_angle_alpha   124.70846200
_cell_angle_beta   106.37376540
_cell_angle_gamma   98.55141663
_symmetry_Int_Tables_number   1
_chemical_formula_structural   PrZr2F11
_chemical_formula_sum   'Pr2 Zr4 F22'
_cell_volume   447.80661335
_cell_formula_units_Z   2
loop_
 _symmetry_equiv_pos_site_id
 _symmetry_equiv_pos_as_xyz
  1  'x, y, z'
loop_
 _atom_site_type_symbol
 _atom_site_label
 _atom_site_symmetry_multiplicity
 _atom_site_fract_x
 _atom_site_fract_y
 _atom_site_fract_z
 _atom_site_occupancy
  Pr  Pr0  1  0.750000  0.750000  0.000000  1
  Pr  Pr1  1  0.250000  0.250000  0.000000  1
  Zr  Zr2  1  0.319351  0.133576  0.452928  1
  Zr  Zr3  1  0.680649  0.866424  0.547072  1
  Zr  Zr4  1  0.819351  0.366424  0.185775  1
  Zr  Zr5  1  0.180649  0.633576  0.814225  1
  F  F6  1  0.821430  0.534806  0.082657  1
  F  F7  1  0.219638  0.370385  0.590023  1
  F  F8  1  0.452149  0.738773  0.917343  1
  F  F9  1  0.446228  0.605710  0.311903  1
  F  F10  1  0.719638  0.129615  0.849254  1
  F  F11  1  0.293807  0.134325  0.688097  1
  F  F12  1  0.047851  0.965194  0.286624  1
  F  F13  1  0.946228  0.634325  0.840518  1
  F  F14  1  0.280362  0.870385  0.150746  1
  F  F15  1  0.793807  0.105710  0.159482  1
  F  F16  1  0.952149  0.034806  0.713376  1
  F  F17  1  0.206193  0.894290  0.840518  1
  F  F18  1  0.053772  0.365675  0.159482  1
  F  F19  1  0.547851  0.261227  0.082657  1
  F  F20  1  0.500000  1.000000  0.500000  1
  F  F21  1  0.321430  0.238773  0.286624  1
  F  F22  1  0.706193  0.865675  0.311903  1
  F  F23  1  0.178570  0.465194  0.917343  1
  F  F24  1  0.678570  0.761227  0.713376  1
  F  F25  1  0.780362  0.629615  0.409977  1
  F  F26  1  0.553772  0.394290  0.688097  1
  F  F27  1  1.000000  0.500000  0.500000  1
