# generated using pymatgen
data_Li8Bi2(MoO4)7
_symmetry_space_group_name_H-M   'P 1'
_cell_length_a   15.44339014
_cell_length_b   15.44339014
_cell_length_c   15.44339014
_cell_angle_alpha   91.73865219
_cell_angle_beta   91.73865219
_cell_angle_gamma   159.93748794
_symmetry_Int_Tables_number   1
_chemical_formula_structural   Li8Bi2(MoO4)7
_chemical_formula_sum   'Li16 Bi4 Mo14 O56'
_cell_volume   1244.19620462
_cell_formula_units_Z   2
loop_
 _symmetry_equiv_pos_site_id
 _symmetry_equiv_pos_as_xyz
  1  'x, y, z'
loop_
 _atom_site_type_symbol
 _atom_site_label
 _atom_site_symmetry_multiplicity
 _atom_site_fract_x
 _atom_site_fract_y
 _atom_site_fract_z
 _atom_site_occupancy
  Li  Li0  1  0.915419  0.915533  0.495660  1
  Li  Li1  1  0.119737  0.563763  0.695907  1
  Li  Li2  1  0.746151  0.503888  0.244687  1
  Li  Li3  1  0.129143  0.435922  0.555249  1
  Li  Li4  1  0.498537  0.253849  0.757737  1
  Li  Li5  1  0.426107  0.870857  0.306779  1
  Li  Li6  1  0.576171  0.880263  0.444027  1
  Li  Li7  1  0.496112  0.740800  0.242263  1
  Li  Li8  1  0.867856  0.423829  0.304093  1
  Li  Li9  1  0.419873  0.419759  0.504340  1
  Li  Li10  1  0.436237  0.132144  0.555973  1
  Li  Li11  1  0.564078  0.119327  0.693221  1
  Li  Li12  1  0.259200  0.501463  0.755313  1
  Li  Li13  1  0.880673  0.573893  0.444751  1
  Li  Li14  1  0.580241  0.084581  0.000115  1
  Li  Li15  1  0.084467  0.580127  0.999885  1
  Bi  Bi16  1  0.139580  0.998461  0.140589  1
  Bi  Bi17  1  0.001008  0.860420  0.858881  1
  Bi  Bi18  1  0.001539  0.142127  0.141119  1
  Bi  Bi19  1  0.857873  0.998992  0.859411  1
  Mo  Mo20  1  0.109713  0.730440  0.812081  1
  Mo  Mo21  1  0.298243  0.919134  0.189053  1
  Mo  Mo22  1  0.080866  0.269918  0.379109  1
  Mo  Mo23  1  0.702367  0.890287  0.620727  1
  Mo  Mo24  1  0.631489  0.630297  0.260891  1
  Mo  Mo25  1  0.369703  0.630594  0.001192  1
  Mo  Mo26  1  0.629402  0.368511  0.998808  1
  Mo  Mo27  1  0.500000  0.500000  0.000000  1
  Mo  Mo28  1  0.269560  0.081640  0.379273  1
  Mo  Mo29  1  0.369406  0.370598  0.739109  1
  Mo  Mo30  1  0.890809  0.701757  0.620891  1
  Mo  Mo31  1  0.750000  0.250000  0.500000  1
  Mo  Mo32  1  0.730082  0.109191  0.810947  1
  Mo  Mo33  1  0.918360  0.297633  0.187919  1
  O  O34  1  0.654772  0.745324  0.560814  1
  O  O35  1  0.605939  0.605218  0.372656  1
  O  O36  1  0.406104  0.655503  0.643243  1
  O  O37  1  0.337778  0.244968  0.998716  1
  O  O38  1  0.394782  0.767438  0.000720  1
  O  O39  1  0.319078  0.318955  0.188427  1
  O  O40  1  0.115078  0.947084  0.722601  1
  O  O41  1  0.390092  0.147699  0.898473  1
  O  O42  1  0.885273  0.608028  0.832266  1
  O  O43  1  0.340734  0.900092  0.092224  1
  O  O44  1  0.751490  0.659266  0.559358  1
  O  O45  1  0.807868  0.248510  0.907776  1
  O  O46  1  0.146118  0.388756  0.902245  1
  O  O47  1  0.187371  0.740544  0.261218  1
  O  O48  1  0.524183  0.268449  0.449126  1
  O  O49  1  0.873669  0.440664  0.430374  1
  O  O50  1  0.906041  0.345228  0.090552  1
  O  O51  1  0.756128  0.853882  0.242639  1
  O  O52  1  0.224483  0.392477  0.277399  1
  O  O53  1  0.607523  0.884922  0.832006  1
  O  O54  1  0.681045  0.869472  0.000123  1
  O  O55  1  0.596386  0.241837  0.246218  1
  O  O56  1  0.852301  0.750773  0.242393  1
  O  O57  1  0.479326  0.926153  0.738782  1
  O  O58  1  0.486511  0.243872  0.097755  1
  O  O59  1  0.010289  0.443295  0.569626  1
  O  O60  1  0.755032  0.753748  0.092810  1
  O  O61  1  0.130528  0.130652  0.811573  1
  O  O62  1  0.508380  0.609908  0.757607  1
  O  O63  1  0.237140  0.593896  0.249399  1
  O  O64  1  0.259456  0.520674  0.446827  1
  O  O65  1  0.184511  0.093959  0.439186  1
  O  O66  1  0.649832  0.403614  0.645451  1
  O  O67  1  0.766717  0.394061  0.999280  1
  O  O68  1  0.869348  0.680922  0.999877  1
  O  O69  1  0.758163  0.004381  0.354549  1
  O  O70  1  0.995619  0.350168  0.753782  1
  O  O71  1  0.559336  0.989711  0.433005  1
  O  O72  1  0.946993  0.114727  0.722755  1
  O  O73  1  0.924943  0.475817  0.744266  1
  O  O74  1  0.246252  0.339062  0.001284  1
  O  O75  1  0.073847  0.812629  0.553173  1
  O  O76  1  0.660938  0.662222  0.907190  1
  O  O77  1  0.052916  0.775517  0.167994  1
  O  O78  1  0.391972  0.224238  0.277245  1
  O  O79  1  0.012259  0.762860  0.356757  1
  O  O80  1  0.232562  0.233283  0.627344  1
  O  O81  1  0.819323  0.075057  0.550874  1
  O  O82  1  0.731551  0.180677  0.255734  1
  O  O83  1  0.249227  0.491620  0.101527  1
  O  O84  1  0.556705  0.126331  0.566995  1
  O  O85  1  0.775762  0.053007  0.167734  1
  O  O86  1  0.611244  0.513489  0.757361  1
  O  O87  1  0.099908  0.192132  0.440642  1
  O  O88  1  0.344497  0.987741  0.750601  1
  O  O89  1  0.254676  0.815489  0.909448  1
