# generated using pymatgen
data_CsReCl4
_symmetry_space_group_name_H-M   'P 1'
_cell_length_a   10.19301803
_cell_length_b   10.19301803
_cell_length_c   10.96821318
_cell_angle_alpha   90.00000000
_cell_angle_beta   90.00000000
_cell_angle_gamma   90.34769430
_symmetry_Int_Tables_number   1
_chemical_formula_structural   CsReCl4
_chemical_formula_sum   'Cs6 Re6 Cl24'
_cell_volume   1139.55022409
_cell_formula_units_Z   6
loop_
 _symmetry_equiv_pos_site_id
 _symmetry_equiv_pos_as_xyz
  1  'x, y, z'
loop_
 _atom_site_type_symbol
 _atom_site_label
 _atom_site_symmetry_multiplicity
 _atom_site_fract_x
 _atom_site_fract_y
 _atom_site_fract_z
 _atom_site_occupancy
  Cs  Cs0  1  0.442074  0.803075  0.250000  1
  Cs  Cs1  1  0.299016  0.483445  0.750000  1
  Cs  Cs2  1  0.483445  0.299016  0.250000  1
  Cs  Cs3  1  0.000894  0.000894  0.000000  1
  Cs  Cs4  1  0.803075  0.442074  0.750000  1
  Cs  Cs5  1  0.000894  0.000894  0.500000  1
  Re  Re6  1  0.448208  0.013651  0.637126  1
  Re  Re7  1  0.013651  0.448208  0.362874  1
  Re  Re8  1  0.920736  0.635819  0.250000  1
  Re  Re9  1  0.013651  0.448208  0.137126  1
  Re  Re10  1  0.635819  0.920736  0.750000  1
  Re  Re11  1  0.448208  0.013651  0.862874  1
  Cl  Cl12  1  0.226915  0.526602  0.101604  1
  Cl  Cl13  1  0.573639  0.699997  0.750000  1
  Cl  Cl14  1  0.821550  0.329279  0.397611  1
  Cl  Cl15  1  0.335914  0.065614  0.070863  1
  Cl  Cl16  1  0.922980  0.634395  0.028216  1
  Cl  Cl17  1  0.103208  0.775269  0.250000  1
  Cl  Cl18  1  0.526602  0.226915  0.601604  1
  Cl  Cl19  1  0.065614  0.335914  0.570863  1
  Cl  Cl20  1  0.329279  0.821550  0.602389  1
  Cl  Cl21  1  0.699997  0.573639  0.250000  1
  Cl  Cl22  1  0.634395  0.922980  0.528216  1
  Cl  Cl23  1  0.104206  0.264234  0.250000  1
  Cl  Cl24  1  0.634395  0.922980  0.971784  1
  Cl  Cl25  1  0.526602  0.226915  0.898396  1
  Cl  Cl26  1  0.922980  0.634395  0.471784  1
  Cl  Cl27  1  0.808749  0.865928  0.250000  1
  Cl  Cl28  1  0.335914  0.065614  0.429137  1
  Cl  Cl29  1  0.821550  0.329279  0.102389  1
  Cl  Cl30  1  0.775269  0.103208  0.750000  1
  Cl  Cl31  1  0.329279  0.821550  0.897611  1
  Cl  Cl32  1  0.226915  0.526602  0.398396  1
  Cl  Cl33  1  0.065614  0.335914  0.929137  1
  Cl  Cl34  1  0.264234  0.104206  0.750000  1
  Cl  Cl35  1  0.865928  0.808749  0.750000  1
