# generated using pymatgen
data_PtCl2
_symmetry_space_group_name_H-M   'P 1'
_cell_length_a   3.45125976
_cell_length_b   4.38436523
_cell_length_c   11.38683686
_cell_angle_alpha   90.00000000
_cell_angle_beta   90.00000000
_cell_angle_gamma   90.00000000
_symmetry_Int_Tables_number   1
_chemical_formula_structural   PtCl2
_chemical_formula_sum   'Pt2 Cl4'
_cell_volume   172.30087037
_cell_formula_units_Z   2
loop_
 _symmetry_equiv_pos_site_id
 _symmetry_equiv_pos_as_xyz
  1  'x, y, z'
loop_
 _atom_site_type_symbol
 _atom_site_label
 _atom_site_symmetry_multiplicity
 _atom_site_fract_x
 _atom_site_fract_y
 _atom_site_fract_z
 _atom_site_occupancy
  Pt  Pt0  1  0.000000  0.000000  0.000000  1
  Pt  Pt1  1  0.500000  0.500000  0.500000  1
  Cl  Cl2  1  0.500000  0.850653  0.876086  1
  Cl  Cl3  1  0.000000  0.350653  0.623914  1
  Cl  Cl4  1  0.500000  0.149347  0.123914  1
  Cl  Cl5  1  0.000000  0.649347  0.376086  1
