# generated using pymatgen
data_CsSmCdSe3
_symmetry_space_group_name_H-M   'P 1'
_cell_length_a   8.47050704
_cell_length_b   8.47050704
_cell_length_c   11.38591916
_cell_angle_alpha   90.00000000
_cell_angle_beta   90.00000000
_cell_angle_gamma   150.15336225
_symmetry_Int_Tables_number   1
_chemical_formula_structural   CsSmCdSe3
_chemical_formula_sum   'Cs2 Sm2 Cd2 Se6'
_cell_volume   406.57177315
_cell_formula_units_Z   2
loop_
 _symmetry_equiv_pos_site_id
 _symmetry_equiv_pos_as_xyz
  1  'x, y, z'
loop_
 _atom_site_type_symbol
 _atom_site_label
 _atom_site_symmetry_multiplicity
 _atom_site_fract_x
 _atom_site_fract_y
 _atom_site_fract_z
 _atom_site_occupancy
  Cs  Cs0  1  0.256853  0.743147  0.750000  1
  Cs  Cs1  1  0.743147  0.256853  0.250000  1
  Sm  Sm2  1  0.000000  0.000000  0.000000  1
  Sm  Sm3  1  0.000000  0.000000  0.500000  1
  Cd  Cd4  1  0.540387  0.459613  0.750000  1
  Cd  Cd5  1  0.459613  0.540387  0.250000  1
  Se  Se6  1  0.619059  0.380941  0.951041  1
  Se  Se7  1  0.380941  0.619059  0.048959  1
  Se  Se8  1  0.380941  0.619059  0.451041  1
  Se  Se9  1  0.619059  0.380941  0.548959  1
  Se  Se10  1  0.940377  0.059623  0.750000  1
  Se  Se11  1  0.059623  0.940377  0.250000  1
