# generated using pymatgen
data_Mg(GaO2)2
_symmetry_space_group_name_H-M   'P 1'
_cell_length_a   5.93022973
_cell_length_b   5.93022973
_cell_length_c   28.98331335
_cell_angle_alpha   89.87551771
_cell_angle_beta   90.12448229
_cell_angle_gamma   119.43655308
_symmetry_Int_Tables_number   1
_chemical_formula_structural   Mg(GaO2)2
_chemical_formula_sum   'Mg12 Ga24 O48'
_cell_volume   887.68362618
_cell_formula_units_Z   12
loop_
 _symmetry_equiv_pos_site_id
 _symmetry_equiv_pos_as_xyz
  1  'x, y, z'
loop_
 _atom_site_type_symbol
 _atom_site_label
 _atom_site_symmetry_multiplicity
 _atom_site_fract_x
 _atom_site_fract_y
 _atom_site_fract_z
 _atom_site_occupancy
  Mg  Mg0  1  0.005381  0.994619  0.999140  1
  Mg  Mg1  1  0.339037  0.660963  0.168116  1
  Mg  Mg2  1  0.835539  0.164461  0.104364  1
  Mg  Mg3  1  0.167488  0.832512  0.271706  1
  Mg  Mg4  1  0.499962  0.500038  0.437717  1
  Mg  Mg5  1  0.333062  0.666938  0.354535  1
  Mg  Mg6  1  0.833357  0.166643  0.604156  1
  Mg  Mg7  1  0.666616  0.333384  0.520878  1
  Mg  Mg8  1  0.166755  0.833245  0.770704  1
  Mg  Mg9  1  0.999968  0.000032  0.687454  1
  Mg  Mg10  1  0.501195  0.498805  0.936880  1
  Mg  Mg11  1  0.333087  0.666913  0.854220  1
  Ga  Ga12  1  0.326412  0.673588  0.041129  1
  Ga  Ga13  1  0.659502  0.340498  0.207757  1
  Ga  Ga14  1  0.666520  0.333480  0.018715  1
  Ga  Ga15  1  0.673663  0.326337  0.333162  1
  Ga  Ga16  1  0.324228  0.162692  0.104439  1
  Ga  Ga17  1  0.837308  0.675772  0.104439  1
  Ga  Ga18  1  0.662334  0.831431  0.271967  1
  Ga  Ga19  1  0.999502  0.000498  0.185613  1
  Ga  Ga20  1  0.993170  0.006830  0.376929  1
  Ga  Ga21  1  0.006846  0.993154  0.498470  1
  Ga  Ga22  1  0.168569  0.337666  0.271967  1
  Ga  Ga23  1  0.326634  0.673366  0.543416  1
  Ga  Ga24  1  0.340003  0.659997  0.664941  1
  Ga  Ga25  1  0.000162  0.499923  0.437810  1
  Ga  Ga26  1  0.500077  0.999838  0.437810  1
  Ga  Ga27  1  0.673219  0.326781  0.830821  1
  Ga  Ga28  1  0.659931  0.340069  0.709895  1
  Ga  Ga29  1  0.333292  0.166621  0.604160  1
  Ga  Ga30  1  0.833379  0.666708  0.604160  1
  Ga  Ga31  1  0.666267  0.833156  0.770694  1
  Ga  Ga32  1  0.993247  0.006753  0.876412  1
  Ga  Ga33  1  0.166844  0.333733  0.770694  1
  Ga  Ga34  1  0.995573  0.497876  0.936939  1
  Ga  Ga35  1  0.502124  0.004427  0.936939  1
  O  O36  1  0.505474  0.021864  0.063073  1
  O  O37  1  0.662474  0.337526  0.142168  1
  O  O38  1  0.978136  0.494526  0.063073  1
  O  O39  1  0.506923  0.493077  0.063322  1
  O  O40  1  0.156697  0.843303  0.144505  1
  O  O41  1  0.839271  0.689009  0.229746  1
  O  O42  1  0.006040  0.993960  0.067083  1
  O  O43  1  0.995004  0.004996  0.309579  1
  O  O44  1  0.695868  0.839833  0.145048  1
  O  O45  1  0.310991  0.160729  0.229746  1
  O  O46  1  0.840450  0.159550  0.229853  1
  O  O47  1  0.160167  0.304132  0.145048  1
  O  O48  1  0.167915  0.350700  0.397878  1
  O  O49  1  0.497444  0.502556  0.311280  1
  O  O50  1  0.340006  0.659994  0.236596  1
  O  O51  1  0.329400  0.670600  0.476778  1
  O  O52  1  0.013787  0.500345  0.311244  1
  O  O53  1  0.649300  0.832085  0.397878  1
  O  O54  1  0.499655  0.986213  0.311244  1
  O  O55  1  0.171603  0.828397  0.397987  1
  O  O56  1  0.501166  0.017334  0.564542  1
  O  O57  1  0.828436  0.171564  0.477196  1
  O  O58  1  0.670884  0.329116  0.399220  1
  O  O59  1  0.662721  0.337279  0.643372  1
  O  O60  1  0.350539  0.167608  0.477282  1
  O  O61  1  0.982666  0.498834  0.564542  1
  O  O62  1  0.832392  0.649461  0.477282  1
  O  O63  1  0.505181  0.494819  0.564660  1
  O  O64  1  0.161438  0.838562  0.643663  1
  O  O65  1  0.834401  0.683962  0.731133  1
  O  O66  1  0.004007  0.995993  0.565002  1
  O  O67  1  0.996084  0.003916  0.809972  1
  O  O68  1  0.684052  0.834464  0.643778  1
  O  O69  1  0.316038  0.165599  0.731133  1
  O  O70  1  0.165536  0.315948  0.643778  1
  O  O71  1  0.838457  0.161543  0.731258  1
  O  O72  1  0.494237  0.505763  0.810037  1
  O  O73  1  0.166971  0.349793  0.897991  1
  O  O74  1  0.337220  0.662780  0.731356  1
  O  O75  1  0.330019  0.669981  0.976005  1
  O  O76  1  0.018261  0.501550  0.810200  1
  O  O77  1  0.650207  0.833029  0.897991  1
  O  O78  1  0.498450  0.981739  0.810200  1
  O  O79  1  0.171053  0.828947  0.898304  1
  O  O80  1  0.820779  0.179221  0.976725  1
  O  O81  1  0.366590  0.174502  0.977388  1
  O  O82  1  0.669864  0.330136  0.896326  1
  O  O83  1  0.825498  0.633410  0.977388  1
