# generated using pymatgen
data_Ni5Se4(BrO6)2
_symmetry_space_group_name_H-M   'P 1'
_cell_length_a   6.51749121
_cell_length_b   7.74109840
_cell_length_c   7.82567004
_cell_angle_alpha   67.91878308
_cell_angle_beta   73.93840503
_cell_angle_gamma   81.56163787
_symmetry_Int_Tables_number   1
_chemical_formula_structural   Ni5Se4(BrO6)2
_chemical_formula_sum   'Ni5 Se4 Br2 O12'
_cell_volume   351.17848260
_cell_formula_units_Z   1
loop_
 _symmetry_equiv_pos_site_id
 _symmetry_equiv_pos_as_xyz
  1  'x, y, z'
loop_
 _atom_site_type_symbol
 _atom_site_label
 _atom_site_symmetry_multiplicity
 _atom_site_fract_x
 _atom_site_fract_y
 _atom_site_fract_z
 _atom_site_occupancy
  Ni  Ni0  1  0.370202  0.309215  0.577570  1
  Ni  Ni1  1  0.823520  0.874999  0.649053  1
  Ni  Ni2  1  0.500000  0.000000  0.000000  1
  Ni  Ni3  1  0.629798  0.690785  0.422430  1
  Ni  Ni4  1  0.176480  0.125001  0.350947  1
  Se  Se5  1  0.841411  0.306427  0.688978  1
  Se  Se6  1  0.158589  0.693573  0.311022  1
  Se  Se7  1  0.293833  0.837805  0.769880  1
  Se  Se8  1  0.706167  0.162195  0.230120  1
  Br  Br9  1  0.703428  0.665495  0.016809  1
  Br  Br10  1  0.296572  0.334505  0.983191  1
  O  O11  1  0.078326  0.300927  0.519958  1
  O  O12  1  0.858813  0.093362  0.394367  1
  O  O13  1  0.340839  0.044838  0.789282  1
  O  O14  1  0.457695  0.200793  0.368105  1
  O  O15  1  0.659757  0.405551  0.547866  1
  O  O16  1  0.921674  0.699073  0.480042  1
  O  O17  1  0.768208  0.076646  0.785931  1
  O  O18  1  0.659161  0.955162  0.210718  1
  O  O19  1  0.231792  0.923354  0.214069  1
  O  O20  1  0.340243  0.594449  0.452134  1
  O  O21  1  0.542305  0.799207  0.631895  1
  O  O22  1  0.141187  0.906638  0.605633  1
