# generated using pymatgen
data_NaV(SO4)2
_symmetry_space_group_name_H-M   'P 1'
_cell_length_a   4.87440024
_cell_length_b   4.87440024
_cell_length_c   7.25690923
_cell_angle_alpha   89.39650914
_cell_angle_beta   90.60349086
_cell_angle_gamma   115.13658021
_symmetry_Int_Tables_number   1
_chemical_formula_structural   NaV(SO4)2
_chemical_formula_sum   'Na1 V1 S2 O8'
_cell_volume   156.08159831
_cell_formula_units_Z   1
loop_
 _symmetry_equiv_pos_site_id
 _symmetry_equiv_pos_as_xyz
  1  'x, y, z'
loop_
 _atom_site_type_symbol
 _atom_site_label
 _atom_site_symmetry_multiplicity
 _atom_site_fract_x
 _atom_site_fract_y
 _atom_site_fract_z
 _atom_site_occupancy
  Na  Na0  1  1.000000  0.000000  0.500000  1
  V  V1  1  0.000000  0.000000  0.000000  1
  S  S2  1  0.641485  0.358515  0.778958  1
  S  S3  1  0.358515  0.641485  0.221042  1
  O  O4  1  0.699867  0.766111  0.202450  1
  O  O5  1  0.285361  0.714639  0.401486  1
  O  O6  1  0.758720  0.241280  0.935472  1
  O  O7  1  0.714639  0.285361  0.598514  1
  O  O8  1  0.233889  0.300133  0.202450  1
  O  O9  1  0.241280  0.758720  0.064528  1
  O  O10  1  0.300133  0.233889  0.797550  1
  O  O11  1  0.766111  0.699867  0.797550  1
