# generated using pymatgen
data_In4GeSe4
_symmetry_space_group_name_H-M   'P 1'
_cell_length_a   12.84671253
_cell_length_b   12.84671253
_cell_length_c   12.84671253
_cell_angle_alpha   90.00000000
_cell_angle_beta   90.00000000
_cell_angle_gamma   90.00000000
_symmetry_Int_Tables_number   1
_chemical_formula_structural   In4GeSe4
_chemical_formula_sum   'In32 Ge8 Se32'
_cell_volume   2120.19603580
_cell_formula_units_Z   8
loop_
 _symmetry_equiv_pos_site_id
 _symmetry_equiv_pos_as_xyz
  1  'x, y, z'
loop_
 _atom_site_type_symbol
 _atom_site_label
 _atom_site_symmetry_multiplicity
 _atom_site_fract_x
 _atom_site_fract_y
 _atom_site_fract_z
 _atom_site_occupancy
  In  In0  1  0.040081  0.059546  0.277746  1
  In  In1  1  0.040081  0.440454  0.777746  1
  In  In2  1  0.059546  0.277746  0.040081  1
  In  In3  1  0.059546  0.222254  0.540081  1
  In  In4  1  0.221398  0.721398  0.778602  1
  In  In5  1  0.221398  0.778602  0.278602  1
  In  In6  1  0.222254  0.959919  0.559546  1
  In  In7  1  0.222254  0.540081  0.059546  1
  In  In8  1  0.277746  0.040081  0.059546  1
  In  In9  1  0.277746  0.459919  0.559546  1
  In  In10  1  0.278602  0.221398  0.778602  1
  In  In11  1  0.278602  0.278602  0.278602  1
  In  In12  1  0.440454  0.722254  0.540081  1
  In  In13  1  0.440454  0.777746  0.040081  1
  In  In14  1  0.459919  0.559546  0.277746  1
  In  In15  1  0.459919  0.940454  0.777746  1
  In  In16  1  0.540081  0.059546  0.222254  1
  In  In17  1  0.540081  0.440454  0.722254  1
  In  In18  1  0.559546  0.222254  0.959919  1
  In  In19  1  0.559546  0.277746  0.459919  1
  In  In20  1  0.721398  0.721398  0.721398  1
  In  In21  1  0.721398  0.778602  0.221398  1
  In  In22  1  0.722254  0.959919  0.940454  1
  In  In23  1  0.722254  0.540081  0.440454  1
  In  In24  1  0.777746  0.459919  0.940454  1
  In  In25  1  0.777746  0.040081  0.440454  1
  In  In26  1  0.778602  0.221398  0.721398  1
  In  In27  1  0.778602  0.278602  0.221398  1
  In  In28  1  0.940454  0.722254  0.959919  1
  In  In29  1  0.940454  0.777746  0.459919  1
  In  In30  1  0.959919  0.940454  0.722254  1
  In  In31  1  0.959919  0.559546  0.222254  1
  Ge  Ge32  1  0.100827  0.899173  0.399173  1
  Ge  Ge33  1  0.100827  0.600827  0.899173  1
  Ge  Ge34  1  0.399173  0.399173  0.399173  1
  Ge  Ge35  1  0.399173  0.100827  0.899173  1
  Ge  Ge36  1  0.600827  0.899173  0.100827  1
  Ge  Ge37  1  0.600827  0.600827  0.600827  1
  Ge  Ge38  1  0.899173  0.100827  0.600827  1
  Ge  Ge39  1  0.899173  0.399173  0.100827  1
  Se  Se40  1  0.425047  0.574953  0.074953  1
  Se  Se41  1  0.574953  0.074953  0.425047  1
  Se  Se42  1  0.925047  0.925047  0.925047  1
  Se  Se43  1  0.925047  0.574953  0.425047  1
  Se  Se44  1  0.075078  0.257096  0.332115  1
  Se  Se45  1  0.075078  0.242904  0.832115  1
  Se  Se46  1  0.074953  0.425047  0.574953  1
  Se  Se47  1  0.074953  0.074953  0.074953  1
  Se  Se48  1  0.167885  0.924922  0.757096  1
  Se  Se49  1  0.167885  0.575078  0.257096  1
  Se  Se50  1  0.242904  0.667885  0.575078  1
  Se  Se51  1  0.242904  0.832115  0.075078  1
  Se  Se52  1  0.257096  0.167885  0.575078  1
  Se  Se53  1  0.257096  0.332115  0.075078  1
  Se  Se54  1  0.332115  0.075078  0.257096  1
  Se  Se55  1  0.332115  0.424922  0.757096  1
  Se  Se56  1  0.425047  0.925047  0.574953  1
  Se  Se57  1  0.424922  0.757096  0.332115  1
  Se  Se58  1  0.424922  0.742904  0.832115  1
  Se  Se59  1  0.575078  0.257096  0.167885  1
  Se  Se60  1  0.575078  0.242904  0.667885  1
  Se  Se61  1  0.574953  0.425047  0.925047  1
  Se  Se62  1  0.667885  0.575078  0.242904  1
  Se  Se63  1  0.667885  0.924922  0.742904  1
  Se  Se64  1  0.742904  0.667885  0.924922  1
  Se  Se65  1  0.742904  0.832115  0.424922  1
  Se  Se66  1  0.757096  0.167885  0.924922  1
  Se  Se67  1  0.757096  0.332115  0.424922  1
  Se  Se68  1  0.832115  0.424922  0.742904  1
  Se  Se69  1  0.832115  0.075078  0.242904  1
  Se  Se70  1  0.924922  0.742904  0.667885  1
  Se  Se71  1  0.924922  0.757096  0.167885  1
