# generated using pymatgen
data_BaTm2NiO5
_symmetry_space_group_name_H-M   'P 1'
_cell_length_a   5.67570687
_cell_length_b   7.01012246
_cell_length_c   12.24473649
_cell_angle_alpha   90.00000000
_cell_angle_beta   90.00000000
_cell_angle_gamma   90.00000000
_symmetry_Int_Tables_number   1
_chemical_formula_structural   BaTm2NiO5
_chemical_formula_sum   'Ba4 Tm8 Ni4 O20'
_cell_volume   487.18623114
_cell_formula_units_Z   4
loop_
 _symmetry_equiv_pos_site_id
 _symmetry_equiv_pos_as_xyz
  1  'x, y, z'
loop_
 _atom_site_type_symbol
 _atom_site_label
 _atom_site_symmetry_multiplicity
 _atom_site_fract_x
 _atom_site_fract_y
 _atom_site_fract_z
 _atom_site_occupancy
  Ba  Ba0  1  0.250000  0.924647  0.902053  1
  Ba  Ba1  1  0.750000  0.075353  0.097947  1
  Ba  Ba2  1  0.750000  0.424647  0.597947  1
  Ba  Ba3  1  0.250000  0.575353  0.402053  1
  Tm  Tm4  1  0.250000  0.119432  0.291505  1
  Tm  Tm5  1  0.750000  0.880568  0.708495  1
  Tm  Tm6  1  0.750000  0.619432  0.208495  1
  Tm  Tm7  1  0.250000  0.380568  0.791505  1
  Tm  Tm8  1  0.250000  0.398388  0.073770  1
  Tm  Tm9  1  0.750000  0.601612  0.926230  1
  Tm  Tm10  1  0.750000  0.898388  0.426230  1
  Tm  Tm11  1  0.250000  0.101612  0.573770  1
  Ni  Ni12  1  0.250000  0.697387  0.655750  1
  Ni  Ni13  1  0.750000  0.302613  0.344250  1
  Ni  Ni14  1  0.750000  0.197387  0.844250  1
  Ni  Ni15  1  0.250000  0.802613  0.155750  1
  O  O16  1  0.997825  0.164879  0.434210  1
  O  O17  1  0.497825  0.835121  0.565790  1
  O  O18  1  0.002175  0.664879  0.065790  1
  O  O19  1  0.502175  0.335121  0.934210  1
  O  O20  1  0.002175  0.835121  0.565790  1
  O  O21  1  0.502175  0.164879  0.434210  1
  O  O22  1  0.997825  0.335121  0.934210  1
  O  O23  1  0.497825  0.664879  0.065790  1
  O  O24  1  0.499594  0.361498  0.225278  1
  O  O25  1  0.999594  0.638502  0.774722  1
  O  O26  1  0.500406  0.861498  0.274722  1
  O  O27  1  0.000406  0.138502  0.725278  1
  O  O28  1  0.500406  0.638502  0.774722  1
  O  O29  1  0.000406  0.361498  0.225278  1
  O  O30  1  0.499594  0.138502  0.725278  1
  O  O31  1  0.999594  0.861498  0.274722  1
  O  O32  1  0.250000  0.075497  0.103582  1
  O  O33  1  0.750000  0.924503  0.896418  1
  O  O34  1  0.750000  0.575497  0.396418  1
  O  O35  1  0.250000  0.424503  0.603582  1
