# generated using pymatgen
data_Ga10GePb3O20
_symmetry_space_group_name_H-M   'P 1'
_cell_length_a   9.89376532
_cell_length_b   9.89376532
_cell_length_c   5.18017513
_cell_angle_alpha   74.96346230
_cell_angle_beta   105.03653770
_cell_angle_gamma   106.32645288
_symmetry_Int_Tables_number   1
_chemical_formula_structural   Ga10GePb3O20
_chemical_formula_sum   'Ga10 Ge1 Pb3 O20'
_cell_volume   460.34704019
_cell_formula_units_Z   1
loop_
 _symmetry_equiv_pos_site_id
 _symmetry_equiv_pos_as_xyz
  1  'x, y, z'
loop_
 _atom_site_type_symbol
 _atom_site_label
 _atom_site_symmetry_multiplicity
 _atom_site_fract_x
 _atom_site_fract_y
 _atom_site_fract_z
 _atom_site_occupancy
  Ga  Ga0  1  0.633979  0.633979  0.500000  1
  Ga  Ga1  1  0.366021  0.366021  0.500000  1
  Ga  Ga2  1  0.992597  0.279842  0.371967  1
  Ga  Ga3  1  0.279842  0.992597  0.628033  1
  Ga  Ga4  1  0.007403  0.720158  0.628033  1
  Ga  Ga5  1  0.720158  0.007403  0.371967  1
  Ga  Ga6  1  0.849490  0.578037  0.107580  1
  Ga  Ga7  1  0.578037  0.849490  0.892420  1
  Ga  Ga8  1  0.150510  0.421963  0.892420  1
  Ga  Ga9  1  0.421963  0.150510  0.107580  1
  Ge  Ge10  1  0.500000  0.500000  0.000000  1
  Pb  Pb11  1  0.000000  0.000000  0.000000  1
  Pb  Pb12  1  0.277607  0.722393  0.218408  1
  Pb  Pb13  1  0.722393  0.277607  0.781592  1
  O  O14  1  0.433569  0.566431  0.251544  1
  O  O15  1  0.566431  0.433569  0.748456  1
  O  O16  1  0.902818  0.097182  0.304465  1
  O  O17  1  0.097182  0.902818  0.695535  1
  O  O18  1  0.875943  0.396157  0.132026  1
  O  O19  1  0.396157  0.875943  0.867974  1
  O  O20  1  0.124057  0.603843  0.867974  1
  O  O21  1  0.603843  0.124057  0.132026  1
  O  O22  1  0.171921  0.338767  0.268100  1
  O  O23  1  0.338767  0.171921  0.731900  1
  O  O24  1  0.828079  0.661233  0.731900  1
  O  O25  1  0.661233  0.828079  0.268100  1
  O  O26  1  0.718072  0.991800  0.734662  1
  O  O27  1  0.991800  0.718072  0.265338  1
  O  O28  1  0.281928  0.008200  0.265338  1
  O  O29  1  0.008200  0.281928  0.734662  1
  O  O30  1  0.545298  0.683829  0.757609  1
  O  O31  1  0.683829  0.545298  0.242391  1
  O  O32  1  0.454702  0.316171  0.242391  1
  O  O33  1  0.316171  0.454702  0.757609  1
