# generated using pymatgen
data_Ba6Mn5O16
_symmetry_space_group_name_H-M   'P 1'
_cell_length_a   7.25447233
_cell_length_b   7.25447233
_cell_length_c   20.62065797
_cell_angle_alpha   90.00000000
_cell_angle_beta   90.00000000
_cell_angle_gamma   132.86143885
_symmetry_Int_Tables_number   1
_chemical_formula_structural   Ba6Mn5O16
_chemical_formula_sum   'Ba12 Mn10 O32'
_cell_volume   795.46058818
_cell_formula_units_Z   2
loop_
 _symmetry_equiv_pos_site_id
 _symmetry_equiv_pos_as_xyz
  1  'x, y, z'
loop_
 _atom_site_type_symbol
 _atom_site_label
 _atom_site_symmetry_multiplicity
 _atom_site_fract_x
 _atom_site_fract_y
 _atom_site_fract_z
 _atom_site_occupancy
  Ba  Ba0  1  0.355738  0.644262  0.977544  1
  Ba  Ba1  1  0.644262  0.355738  0.022456  1
  Ba  Ba2  1  0.144262  0.855738  0.477544  1
  Ba  Ba3  1  0.855738  0.144262  0.522456  1
  Ba  Ba4  1  0.087209  0.912791  0.678624  1
  Ba  Ba5  1  0.912791  0.087209  0.321376  1
  Ba  Ba6  1  0.412791  0.587209  0.178624  1
  Ba  Ba7  1  0.587209  0.412791  0.821376  1
  Ba  Ba8  1  0.379273  0.620727  0.664180  1
  Ba  Ba9  1  0.620727  0.379273  0.335820  1
  Ba  Ba10  1  0.120727  0.879273  0.164180  1
  Ba  Ba11  1  0.879273  0.120727  0.835820  1
  Mn  Mn12  1  0.122879  0.877121  0.906429  1
  Mn  Mn13  1  0.877121  0.122879  0.093571  1
  Mn  Mn14  1  0.377121  0.622879  0.406429  1
  Mn  Mn15  1  0.622879  0.377121  0.593571  1
  Mn  Mn16  1  0.000000  0.000000  0.000000  1
  Mn  Mn17  1  0.500000  0.500000  0.500000  1
  Mn  Mn18  1  0.249552  0.750448  0.810923  1
  Mn  Mn19  1  0.750448  0.249552  0.189077  1
  Mn  Mn20  1  0.250448  0.749552  0.310923  1
  Mn  Mn21  1  0.749552  0.250448  0.689077  1
  O  O22  1  0.489464  0.943587  0.383926  1
  O  O23  1  0.943587  0.489464  0.616074  1
  O  O24  1  0.010536  0.556413  0.883926  1
  O  O25  1  0.556413  0.010536  0.116074  1
  O  O26  1  0.510536  0.056413  0.616074  1
  O  O27  1  0.056413  0.510536  0.383926  1
  O  O28  1  0.989464  0.443587  0.116074  1
  O  O29  1  0.443587  0.989464  0.883926  1
  O  O30  1  0.758207  0.795585  0.068832  1
  O  O31  1  0.795585  0.758207  0.931168  1
  O  O32  1  0.741793  0.704415  0.568832  1
  O  O33  1  0.704415  0.741793  0.431168  1
  O  O34  1  0.241793  0.204415  0.931168  1
  O  O35  1  0.204415  0.241793  0.068832  1
  O  O36  1  0.258207  0.295585  0.431168  1
  O  O37  1  0.295585  0.258207  0.568832  1
  O  O38  1  0.146716  0.853284  0.000289  1
  O  O39  1  0.853284  0.146716  0.999711  1
  O  O40  1  0.353284  0.646716  0.500289  1
  O  O41  1  0.646716  0.353284  0.499711  1
  O  O42  1  0.089576  0.910424  0.816332  1
  O  O43  1  0.910424  0.089576  0.183668  1
  O  O44  1  0.488272  0.011728  0.750000  1
  O  O45  1  0.011728  0.488272  0.250000  1
  O  O46  1  0.511728  0.988272  0.250000  1
  O  O47  1  0.988272  0.511728  0.750000  1
  O  O48  1  0.887650  0.112350  0.686471  1
  O  O49  1  0.112350  0.887650  0.313529  1
  O  O50  1  0.612350  0.387650  0.186471  1
  O  O51  1  0.387650  0.612350  0.813529  1
  O  O52  1  0.589576  0.410424  0.683668  1
  O  O53  1  0.410424  0.589576  0.316332  1
