# generated using pymatgen
data_BiAuCl6
_symmetry_space_group_name_H-M   'P 1'
_cell_length_a   7.69230875
_cell_length_b   10.17242427
_cell_length_c   14.34466903
_cell_angle_alpha   103.90728863
_cell_angle_beta   96.28568132
_cell_angle_gamma   111.83069778
_symmetry_Int_Tables_number   1
_chemical_formula_structural   BiAuCl6
_chemical_formula_sum   'Bi4 Au4 Cl24'
_cell_volume   986.48323679
_cell_formula_units_Z   4
loop_
 _symmetry_equiv_pos_site_id
 _symmetry_equiv_pos_as_xyz
  1  'x, y, z'
loop_
 _atom_site_type_symbol
 _atom_site_label
 _atom_site_symmetry_multiplicity
 _atom_site_fract_x
 _atom_site_fract_y
 _atom_site_fract_z
 _atom_site_occupancy
  Bi  Bi0  1  0.596030  0.930541  0.620671  1
  Bi  Bi1  1  0.032021  0.684905  0.128374  1
  Bi  Bi2  1  0.403970  0.069459  0.379329  1
  Bi  Bi3  1  0.967979  0.315095  0.871626  1
  Au  Au4  1  0.294148  0.631115  0.765963  1
  Au  Au5  1  0.500000  0.500000  0.500000  1
  Au  Au6  1  0.705852  0.368885  0.234037  1
  Au  Au7  1  0.000000  0.000000  0.000000  1
  Cl  Cl8  1  0.775988  0.094783  0.966828  1
  Cl  Cl9  1  0.728391  0.158213  0.257411  1
  Cl  Cl10  1  0.271609  0.841787  0.742589  1
  Cl  Cl11  1  0.768506  0.800023  0.030128  1
  Cl  Cl12  1  0.613146  0.188584  0.741440  1
  Cl  Cl13  1  0.313726  0.416758  0.786784  1
  Cl  Cl14  1  0.686274  0.583242  0.213216  1
  Cl  Cl15  1  0.296855  0.620483  0.497275  1
  Cl  Cl16  1  0.231494  0.199977  0.969872  1
  Cl  Cl17  1  0.758629  0.723814  0.521726  1
  Cl  Cl18  1  0.224012  0.905217  0.033172  1
  Cl  Cl19  1  0.733785  0.049473  0.486311  1
  Cl  Cl20  1  0.609112  0.723953  0.749683  1
  Cl  Cl21  1  0.956684  0.055088  0.725189  1
  Cl  Cl22  1  0.241371  0.276186  0.478274  1
  Cl  Cl23  1  0.386854  0.811416  0.258560  1
  Cl  Cl24  1  0.976451  0.538060  0.781772  1
  Cl  Cl25  1  0.756989  0.434201  0.974846  1
  Cl  Cl26  1  0.243011  0.565799  0.025154  1
  Cl  Cl27  1  0.023549  0.461940  0.218228  1
  Cl  Cl28  1  0.390888  0.276047  0.250317  1
  Cl  Cl29  1  0.266215  0.950527  0.513689  1
  Cl  Cl30  1  0.703145  0.379517  0.502725  1
  Cl  Cl31  1  0.043316  0.944912  0.274811  1
