# generated using pymatgen
data_Ba9Nb2CN10O
_symmetry_space_group_name_H-M   'P 1'
_cell_length_a   8.10550248
_cell_length_b   9.76640923
_cell_length_c   12.78696910
_cell_angle_alpha   75.92934729
_cell_angle_beta   85.63340119
_cell_angle_gamma   87.79269078
_symmetry_Int_Tables_number   1
_chemical_formula_structural   Ba9Nb2CN10O
_chemical_formula_sum   'Ba18 Nb4 C2 N20 O2'
_cell_volume   978.80762682
_cell_formula_units_Z   2
loop_
 _symmetry_equiv_pos_site_id
 _symmetry_equiv_pos_as_xyz
  1  'x, y, z'
loop_
 _atom_site_type_symbol
 _atom_site_label
 _atom_site_symmetry_multiplicity
 _atom_site_fract_x
 _atom_site_fract_y
 _atom_site_fract_z
 _atom_site_occupancy
  Ba  Ba0  1  0.468765  0.620541  0.127867  1
  Ba  Ba1  1  0.499222  0.677750  0.579337  1
  Ba  Ba2  1  0.016474  0.070075  0.723320  1
  Ba  Ba3  1  0.983526  0.929925  0.276680  1
  Ba  Ba4  1  0.462001  0.929807  0.274049  1
  Ba  Ba5  1  0.011168  0.382807  0.892608  1
  Ba  Ba6  1  0.531235  0.379459  0.872133  1
  Ba  Ba7  1  0.733326  0.290839  0.158955  1
  Ba  Ba8  1  0.256465  0.014417  0.002485  1
  Ba  Ba9  1  0.500778  0.322250  0.420663  1
  Ba  Ba10  1  0.266674  0.709161  0.841045  1
  Ba  Ba11  1  0.537999  0.070193  0.725951  1
  Ba  Ba12  1  0.172200  0.580918  0.382427  1
  Ba  Ba13  1  0.827800  0.419082  0.617573  1
  Ba  Ba14  1  0.963963  0.761036  0.618673  1
  Ba  Ba15  1  0.743535  0.985583  0.997515  1
  Ba  Ba16  1  0.988832  0.617193  0.107392  1
  Ba  Ba17  1  0.036037  0.238964  0.381327  1
  Nb  Nb18  1  0.730117  0.635035  0.336505  1
  Nb  Nb19  1  0.269883  0.364965  0.663495  1
  Nb  Nb20  1  0.731251  0.703140  0.879523  1
  Nb  Nb21  1  0.268749  0.296860  0.120477  1
  C  C22  1  0.261129  0.939356  0.534318  1
  C  C23  1  0.738871  0.060644  0.465682  1
  N  N24  1  0.145461  0.326399  0.546242  1
  N  N25  1  0.805247  0.453863  0.301066  1
  N  N26  1  0.194753  0.546137  0.698934  1
  N  N27  1  0.457920  0.169358  0.084059  1
  N  N28  1  0.542080  0.830642  0.915941  1
  N  N29  1  0.697469  0.075956  0.371773  1
  N  N30  1  0.786173  0.054865  0.556941  1
  N  N31  1  0.213827  0.945135  0.443059  1
  N  N32  1  0.707496  0.633690  0.747531  1
  N  N33  1  0.262058  0.468170  0.001566  1
  N  N34  1  0.940064  0.807561  0.876121  1
  N  N35  1  0.737942  0.531830  0.998434  1
  N  N36  1  0.292504  0.366310  0.252469  1
  N  N37  1  0.506257  0.368203  0.621815  1
  N  N38  1  0.757911  0.794513  0.205338  1
  N  N39  1  0.242089  0.205487  0.794662  1
  N  N40  1  0.059936  0.192439  0.123879  1
  N  N41  1  0.302531  0.924044  0.628227  1
  N  N42  1  0.493743  0.631797  0.378185  1
  N  N43  1  0.854539  0.673601  0.453758  1
  O  O44  1  0.783346  0.200648  0.821362  1
  O  O45  1  0.216654  0.799352  0.178638  1
