# generated using pymatgen
data_Dy3CuSiSe7
_symmetry_space_group_name_H-M   'P 1'
_cell_length_a   10.34267346
_cell_length_b   10.34267346
_cell_length_c   6.01709163
_cell_angle_alpha   90.00000000
_cell_angle_beta   90.00000000
_cell_angle_gamma   120.00000000
_symmetry_Int_Tables_number   1
_chemical_formula_structural   Dy3CuSiSe7
_chemical_formula_sum   'Dy6 Cu2 Si2 Se14'
_cell_volume   557.42043205
_cell_formula_units_Z   2
loop_
 _symmetry_equiv_pos_site_id
 _symmetry_equiv_pos_as_xyz
  1  'x, y, z'
loop_
 _atom_site_type_symbol
 _atom_site_label
 _atom_site_symmetry_multiplicity
 _atom_site_fract_x
 _atom_site_fract_y
 _atom_site_fract_z
 _atom_site_occupancy
  Dy  Dy0  1  0.355600  0.223811  0.240392  1
  Dy  Dy1  1  0.131789  0.355600  0.740392  1
  Dy  Dy2  1  0.223811  0.868211  0.740392  1
  Dy  Dy3  1  0.868211  0.644400  0.240392  1
  Dy  Dy4  1  0.644400  0.776189  0.740392  1
  Dy  Dy5  1  0.776189  0.131789  0.240392  1
  Cu  Cu6  1  0.000000  0.000000  0.689623  1
  Cu  Cu7  1  0.000000  0.000000  0.189623  1
  Si  Si8  1  0.333333  0.666667  0.329108  1
  Si  Si9  1  0.666667  0.333333  0.829108  1
  Se  Se10  1  0.666667  0.333333  0.451285  1
  Se  Se11  1  0.899569  0.420442  0.984634  1
  Se  Se12  1  0.333333  0.666667  0.951285  1
  Se  Se13  1  0.901333  0.738462  0.710730  1
  Se  Se14  1  0.261538  0.162872  0.710730  1
  Se  Se15  1  0.162872  0.901333  0.210730  1
  Se  Se16  1  0.098667  0.261538  0.210730  1
  Se  Se17  1  0.100431  0.579558  0.484634  1
  Se  Se18  1  0.579558  0.479127  0.984634  1
  Se  Se19  1  0.420442  0.520873  0.484634  1
  Se  Se20  1  0.837128  0.098667  0.710730  1
  Se  Se21  1  0.738462  0.837128  0.210730  1
  Se  Se22  1  0.520873  0.100431  0.984634  1
  Se  Se23  1  0.479127  0.899569  0.484634  1
