# generated using pymatgen
data_RbLi(H2N)2
_symmetry_space_group_name_H-M   'P 1'
_cell_length_a   3.87830776
_cell_length_b   7.88232799
_cell_length_c   11.72569328
_cell_angle_alpha   90.00000000
_cell_angle_beta   90.00000000
_cell_angle_gamma   90.00000000
_symmetry_Int_Tables_number   1
_chemical_formula_structural   RbLi(H2N)2
_chemical_formula_sum   'Rb4 Li4 H16 N8'
_cell_volume   358.45554356
_cell_formula_units_Z   4
loop_
 _symmetry_equiv_pos_site_id
 _symmetry_equiv_pos_as_xyz
  1  'x, y, z'
loop_
 _atom_site_type_symbol
 _atom_site_label
 _atom_site_symmetry_multiplicity
 _atom_site_fract_x
 _atom_site_fract_y
 _atom_site_fract_z
 _atom_site_occupancy
  Rb  Rb0  1  0.750000  0.874508  0.741431  1
  Rb  Rb1  1  0.250000  0.125492  0.258569  1
  Rb  Rb2  1  0.750000  0.374508  0.758569  1
  Rb  Rb3  1  0.250000  0.625492  0.241431  1
  Li  Li4  1  0.750000  0.613446  0.002496  1
  Li  Li5  1  0.250000  0.386554  0.997504  1
  Li  Li6  1  0.750000  0.113446  0.497504  1
  Li  Li7  1  0.250000  0.886554  0.502496  1
  H  H8  1  0.750000  0.875163  0.324595  1
  H  H9  1  0.250000  0.124837  0.675405  1
  H  H10  1  0.750000  0.375163  0.175405  1
  H  H11  1  0.250000  0.624837  0.824595  1
  H  H12  1  0.750000  0.758113  0.437526  1
  H  H13  1  0.250000  0.241887  0.562474  1
  H  H14  1  0.750000  0.258113  0.062474  1
  H  H15  1  0.250000  0.741887  0.937526  1
  H  H16  1  0.954744  0.894746  0.073724  1
  H  H17  1  0.454744  0.105254  0.926276  1
  H  H18  1  0.545256  0.394746  0.426276  1
  H  H19  1  0.045256  0.605254  0.573724  1
  H  H20  1  0.045256  0.105254  0.926276  1
  H  H21  1  0.545256  0.894746  0.073724  1
  H  H22  1  0.454744  0.605254  0.573724  1
  H  H23  1  0.954744  0.394746  0.426276  1
  N  N24  1  0.750000  0.883290  0.412436  1
  N  N25  1  0.250000  0.116710  0.587564  1
  N  N26  1  0.750000  0.383290  0.087564  1
  N  N27  1  0.250000  0.616710  0.912436  1
  N  N28  1  0.750000  0.833690  0.112063  1
  N  N29  1  0.250000  0.166310  0.887937  1
  N  N30  1  0.750000  0.333690  0.387937  1
  N  N31  1  0.250000  0.666310  0.612063  1
