# generated using pymatgen
data_KLi(PO3)2
_symmetry_space_group_name_H-M   'P 1'
_cell_length_a   9.89274923
_cell_length_b   9.89274923
_cell_length_c   12.01527569
_cell_angle_alpha   89.80739259
_cell_angle_beta   90.19260741
_cell_angle_gamma   89.67843805
_symmetry_Int_Tables_number   1
_chemical_formula_structural   KLi(PO3)2
_chemical_formula_sum   'K8 Li8 P16 O48'
_cell_volume   1175.86094326
_cell_formula_units_Z   8
loop_
 _symmetry_equiv_pos_site_id
 _symmetry_equiv_pos_as_xyz
  1  'x, y, z'
loop_
 _atom_site_type_symbol
 _atom_site_label
 _atom_site_symmetry_multiplicity
 _atom_site_fract_x
 _atom_site_fract_y
 _atom_site_fract_z
 _atom_site_occupancy
  K  K0  1  0.778713  0.468890  0.044283  1
  K  K1  1  0.468890  0.778713  0.455717  1
  K  K2  1  0.998683  0.253513  0.528728  1
  K  K3  1  0.221287  0.531110  0.955717  1
  K  K4  1  0.531110  0.221287  0.544283  1
  K  K5  1  0.001317  0.746487  0.471272  1
  K  K6  1  0.253513  0.998683  0.971272  1
  K  K7  1  0.746487  0.001317  0.028728  1
  Li  Li8  1  0.611819  0.227898  0.872413  1
  Li  Li9  1  0.255982  0.117329  0.432155  1
  Li  Li10  1  0.117329  0.255982  0.067845  1
  Li  Li11  1  0.388181  0.772102  0.127587  1
  Li  Li12  1  0.227898  0.611819  0.627587  1
  Li  Li13  1  0.772102  0.388181  0.372413  1
  Li  Li14  1  0.882671  0.744018  0.932155  1
  Li  Li15  1  0.744018  0.882671  0.567845  1
  P  P16  1  0.480189  0.480189  0.750000  1
  P  P17  1  0.034326  0.034326  0.250000  1
  P  P18  1  0.551495  0.710523  0.901025  1
  P  P19  1  0.469359  0.051977  0.248220  1
  P  P20  1  0.710523  0.551495  0.598975  1
  P  P21  1  0.289477  0.448505  0.401025  1
  P  P22  1  0.530641  0.948023  0.751780  1
  P  P23  1  0.948023  0.530641  0.748220  1
  P  P24  1  0.247024  0.946127  0.663268  1
  P  P25  1  0.946127  0.247024  0.836732  1
  P  P26  1  0.519811  0.519811  0.250000  1
  P  P27  1  0.051977  0.469359  0.251780  1
  P  P28  1  0.053873  0.752976  0.163268  1
  P  P29  1  0.965674  0.965674  0.750000  1
  P  P30  1  0.752976  0.053873  0.336732  1
  P  P31  1  0.448505  0.289477  0.098975  1
  O  O32  1  0.052700  0.871031  0.257682  1
  O  O33  1  0.555021  0.548029  0.642911  1
  O  O34  1  0.947300  0.128969  0.742318  1
  O  O35  1  0.450023  0.210383  0.217768  1
  O  O36  1  0.580134  0.963796  0.634137  1
  O  O37  1  0.334480  0.520618  0.741194  1
  O  O38  1  0.549977  0.789617  0.782232  1
  O  O39  1  0.965842  0.416063  0.343930  1
  O  O40  1  0.086682  0.084502  0.140942  1
  O  O41  1  0.479382  0.665520  0.241194  1
  O  O42  1  0.034158  0.583937  0.656070  1
  O  O43  1  0.128969  0.947300  0.757682  1
  O  O44  1  0.444979  0.451971  0.357089  1
  O  O45  1  0.235433  0.067378  0.588957  1
  O  O46  1  0.741845  0.424642  0.535348  1
  O  O47  1  0.963796  0.580134  0.865863  1
  O  O48  1  0.036204  0.419866  0.134137  1
  O  O49  1  0.575358  0.258155  0.035348  1
  O  O50  1  0.258087  0.808846  0.611272  1
  O  O51  1  0.808846  0.258087  0.888728  1
  O  O52  1  0.915498  0.913318  0.640942  1
  O  O53  1  0.419866  0.036204  0.365863  1
  O  O54  1  0.067378  0.235433  0.911043  1
  O  O55  1  0.367656  0.968336  0.754375  1
  O  O56  1  0.451971  0.444979  0.142911  1
  O  O57  1  0.273410  0.314456  0.457901  1
  O  O58  1  0.632344  0.031664  0.245625  1
  O  O59  1  0.258155  0.575358  0.464652  1
  O  O60  1  0.084502  0.086682  0.359058  1
  O  O61  1  0.416063  0.965842  0.156070  1
  O  O62  1  0.685544  0.726590  0.957901  1
  O  O63  1  0.741913  0.191154  0.388728  1
  O  O64  1  0.913318  0.915498  0.859058  1
  O  O65  1  0.583937  0.034158  0.843930  1
  O  O66  1  0.314456  0.273410  0.042099  1
  O  O67  1  0.520618  0.334480  0.758806  1
  O  O68  1  0.968336  0.367656  0.745625  1
  O  O69  1  0.932622  0.764567  0.088957  1
  O  O70  1  0.210383  0.450023  0.282232  1
  O  O71  1  0.191154  0.741913  0.111272  1
  O  O72  1  0.548029  0.555021  0.857089  1
  O  O73  1  0.764567  0.932622  0.411043  1
  O  O74  1  0.424642  0.741845  0.964652  1
  O  O75  1  0.031664  0.632344  0.254375  1
  O  O76  1  0.871031  0.052700  0.242318  1
  O  O77  1  0.726590  0.685544  0.542099  1
  O  O78  1  0.665520  0.479382  0.258806  1
  O  O79  1  0.789617  0.549977  0.717768  1
