# generated using pymatgen
data_Lu2Te4O11
_symmetry_space_group_name_H-M   'P 1'
_cell_length_a   6.68131992
_cell_length_b   6.68131992
_cell_length_c   16.14976890
_cell_angle_alpha   75.76467356
_cell_angle_beta   104.23532644
_cell_angle_gamma   135.09014422
_symmetry_Int_Tables_number   1
_chemical_formula_structural   Lu2Te4O11
_chemical_formula_sum   'Lu4 Te8 O22'
_cell_volume   490.62145788
_cell_formula_units_Z   2
loop_
 _symmetry_equiv_pos_site_id
 _symmetry_equiv_pos_as_xyz
  1  'x, y, z'
loop_
 _atom_site_type_symbol
 _atom_site_label
 _atom_site_symmetry_multiplicity
 _atom_site_fract_x
 _atom_site_fract_y
 _atom_site_fract_z
 _atom_site_occupancy
  Lu  Lu0  1  0.631095  0.871049  0.963384  1
  Lu  Lu1  1  0.871049  0.631095  0.536616  1
  Lu  Lu2  1  0.368905  0.128951  0.036616  1
  Lu  Lu3  1  0.128951  0.368905  0.463384  1
  Te  Te4  1  0.590425  0.844065  0.624506  1
  Te  Te5  1  0.844065  0.590425  0.875494  1
  Te  Te6  1  0.409575  0.155935  0.375494  1
  Te  Te7  1  0.155935  0.409575  0.124506  1
  Te  Te8  1  0.157253  0.402509  0.802884  1
  Te  Te9  1  0.402509  0.157253  0.697116  1
  Te  Te10  1  0.842747  0.597491  0.197116  1
  Te  Te11  1  0.597491  0.842747  0.302884  1
  O  O12  1  0.686035  0.193017  0.626808  1
  O  O13  1  0.193017  0.686035  0.873192  1
  O  O14  1  0.313965  0.806983  0.373192  1
  O  O15  1  0.806983  0.313965  0.126808  1
  O  O16  1  0.242723  0.658397  0.550833  1
  O  O17  1  0.658397  0.242723  0.949167  1
  O  O18  1  0.757277  0.341603  0.449167  1
  O  O19  1  0.341603  0.757277  0.050833  1
  O  O20  1  0.830047  0.967368  0.543451  1
  O  O21  1  0.967368  0.830047  0.956549  1
  O  O22  1  0.169953  0.032632  0.456549  1
  O  O23  1  0.032632  0.169953  0.043451  1
  O  O24  1  0.451704  0.404220  0.593539  1
  O  O25  1  0.404220  0.451704  0.906461  1
  O  O26  1  0.548296  0.595780  0.406461  1
  O  O27  1  0.595780  0.548296  0.093539  1
  O  O28  1  0.087933  0.789935  0.664937  1
  O  O29  1  0.789935  0.087933  0.835063  1
  O  O30  1  0.912067  0.210065  0.335063  1
  O  O31  1  0.210065  0.912067  0.164937  1
  O  O32  1  0.143428  0.143428  0.750000  1
  O  O33  1  0.856572  0.856572  0.250000  1
