# generated using pymatgen
data_Li3BS3
_symmetry_space_group_name_H-M   'P 1'
_cell_length_a   6.20235166
_cell_length_b   8.18923153
_cell_length_c   10.15187720
_cell_angle_alpha   90.00000000
_cell_angle_beta   90.00000000
_cell_angle_gamma   90.00000000
_symmetry_Int_Tables_number   1
_chemical_formula_structural   Li3BS3
_chemical_formula_sum   'Li12 B4 S12'
_cell_volume   515.63915948
_cell_formula_units_Z   4
loop_
 _symmetry_equiv_pos_site_id
 _symmetry_equiv_pos_as_xyz
  1  'x, y, z'
loop_
 _atom_site_type_symbol
 _atom_site_label
 _atom_site_symmetry_multiplicity
 _atom_site_fract_x
 _atom_site_fract_y
 _atom_site_fract_z
 _atom_site_occupancy
  Li  Li0  1  0.606214  0.668543  0.990672  1
  Li  Li1  1  0.106214  0.831457  0.009328  1
  Li  Li2  1  0.893786  0.168543  0.509328  1
  Li  Li3  1  0.393786  0.331457  0.490672  1
  Li  Li4  1  0.393786  0.331457  0.009328  1
  Li  Li5  1  0.893786  0.168543  0.990672  1
  Li  Li6  1  0.106214  0.831457  0.490672  1
  Li  Li7  1  0.606214  0.668543  0.509328  1
  Li  Li8  1  0.546901  0.995327  0.750000  1
  Li  Li9  1  0.046901  0.504673  0.250000  1
  Li  Li10  1  0.953099  0.495327  0.750000  1
  Li  Li11  1  0.453099  0.004673  0.250000  1
  B  B12  1  0.883163  0.879604  0.250000  1
  B  B13  1  0.383163  0.620396  0.750000  1
  B  B14  1  0.616837  0.379604  0.250000  1
  B  B15  1  0.116837  0.120396  0.750000  1
  S  S16  1  0.742998  0.919990  0.094252  1
  S  S17  1  0.242998  0.580010  0.905748  1
  S  S18  1  0.757002  0.419990  0.405748  1
  S  S19  1  0.257002  0.080010  0.594252  1
  S  S20  1  0.257002  0.080010  0.905748  1
  S  S21  1  0.757002  0.419990  0.094252  1
  S  S22  1  0.242998  0.580010  0.594252  1
  S  S23  1  0.742998  0.919990  0.405748  1
  S  S24  1  0.841640  0.202515  0.750000  1
  S  S25  1  0.341640  0.297485  0.250000  1
  S  S26  1  0.658360  0.702515  0.750000  1
  S  S27  1  0.158360  0.797485  0.250000  1
