# generated using pymatgen
data_CsAu2F7
_symmetry_space_group_name_H-M   'P 1'
_cell_length_a   8.04181854
_cell_length_b   8.04181854
_cell_length_c   7.62319015
_cell_angle_alpha   66.56434360
_cell_angle_beta   113.43565640
_cell_angle_gamma   92.85017756
_symmetry_Int_Tables_number   1
_chemical_formula_structural   CsAu2F7
_chemical_formula_sum   'Cs2 Au4 F14'
_cell_volume   411.55679922
_cell_formula_units_Z   2
loop_
 _symmetry_equiv_pos_site_id
 _symmetry_equiv_pos_as_xyz
  1  'x, y, z'
loop_
 _atom_site_type_symbol
 _atom_site_label
 _atom_site_symmetry_multiplicity
 _atom_site_fract_x
 _atom_site_fract_y
 _atom_site_fract_z
 _atom_site_occupancy
  Cs  Cs0  1  0.308566  0.308566  0.250000  1
  Cs  Cs1  1  0.691434  0.691434  0.750000  1
  Au  Au2  1  0.715319  0.086808  0.143633  1
  Au  Au3  1  0.086808  0.715319  0.356367  1
  Au  Au4  1  0.284681  0.913192  0.856367  1
  Au  Au5  1  0.913192  0.284681  0.643633  1
  F  F6  1  0.185501  0.908447  0.448429  1
  F  F7  1  0.402451  0.667769  0.961401  1
  F  F8  1  0.091553  0.814499  0.948429  1
  F  F9  1  0.986791  0.520182  0.266353  1
  F  F10  1  0.908447  0.185502  0.051571  1
  F  F11  1  0.013209  0.479818  0.733647  1
  F  F12  1  0.822481  0.822481  0.250000  1
  F  F13  1  0.520182  0.986791  0.233647  1
  F  F14  1  0.479818  0.013209  0.766353  1
  F  F15  1  0.597549  0.332231  0.038599  1
  F  F16  1  0.814498  0.091553  0.551571  1
  F  F17  1  0.667769  0.402451  0.538599  1
  F  F18  1  0.177519  0.177519  0.750000  1
  F  F19  1  0.332231  0.597549  0.461401  1
