# generated using pymatgen
data_Er4Si3O11F2
_symmetry_space_group_name_H-M   'P 1'
_cell_length_a   6.49085738
_cell_length_b   6.62077996
_cell_length_c   13.28613729
_cell_angle_alpha   87.65828390
_cell_angle_beta   85.89311050
_cell_angle_gamma   60.85988046
_symmetry_Int_Tables_number   1
_chemical_formula_structural   Er4Si3O11F2
_chemical_formula_sum   'Er8 Si6 O22 F4'
_cell_volume   497.40702780
_cell_formula_units_Z   2
loop_
 _symmetry_equiv_pos_site_id
 _symmetry_equiv_pos_as_xyz
  1  'x, y, z'
loop_
 _atom_site_type_symbol
 _atom_site_label
 _atom_site_symmetry_multiplicity
 _atom_site_fract_x
 _atom_site_fract_y
 _atom_site_fract_z
 _atom_site_occupancy
  Er  Er0  1  0.780980  0.786934  0.471352  1
  Er  Er1  1  0.821773  0.307645  0.328972  1
  Er  Er2  1  0.939123  0.274498  0.026325  1
  Er  Er3  1  0.060877  0.725502  0.973675  1
  Er  Er4  1  0.675046  0.620903  0.796695  1
  Er  Er5  1  0.178227  0.692355  0.671028  1
  Er  Er6  1  0.219020  0.213066  0.528648  1
  Er  Er7  1  0.324954  0.379097  0.203305  1
  Si  Si8  1  0.492440  0.251534  0.935061  1
  Si  Si9  1  0.231844  0.153193  0.783068  1
  Si  Si10  1  0.507560  0.748466  0.064939  1
  Si  Si11  1  0.768156  0.846807  0.216932  1
  Si  Si12  1  0.732722  0.269246  0.579136  1
  Si  Si13  1  0.267278  0.730754  0.420864  1
  O  O14  1  0.796626  0.676181  0.313808  1
  O  O15  1  0.735399  0.662596  0.979404  1
  O  O16  1  0.012305  0.939957  0.387847  1
  O  O17  1  0.989242  0.285956  0.855146  1
  O  O18  1  0.407370  0.841247  0.479042  1
  O  O19  1  0.203374  0.323819  0.686192  1
  O  O20  1  0.533147  0.903760  0.152493  1
  O  O21  1  0.987695  0.060043  0.612153  1
  O  O22  1  0.466853  0.096240  0.847507  1
  O  O23  1  0.422779  0.545780  0.331638  1
  O  O24  1  0.010758  0.714044  0.144854  1
  O  O25  1  0.687828  0.113510  0.246516  1
  O  O26  1  0.264601  0.337404  0.020596  1
  O  O27  1  0.827008  0.406362  0.492055  1
  O  O28  1  0.172992  0.593638  0.507945  1
  O  O29  1  0.312172  0.886490  0.753484  1
  O  O30  1  0.592630  0.158753  0.520958  1
  O  O31  1  0.248901  0.905931  0.018877  1
  O  O32  1  0.555914  0.497789  0.112633  1
  O  O33  1  0.577221  0.454220  0.668362  1
  O  O34  1  0.444086  0.502211  0.887367  1
  O  O35  1  0.751099  0.094069  0.981123  1
  F  F36  1  0.035541  0.269312  0.185093  1
  F  F37  1  0.794941  0.741139  0.645625  1
  F  F38  1  0.964459  0.730688  0.814907  1
  F  F39  1  0.205059  0.258861  0.354375  1
