# generated using pymatgen
data_Ba3Mo2(P2O9)2
_symmetry_space_group_name_H-M   'P 1'
_cell_length_a   4.92679552
_cell_length_b   9.36587611
_cell_length_c   18.26557441
_cell_angle_alpha   88.30757133
_cell_angle_beta   88.20969701
_cell_angle_gamma   78.51835230
_symmetry_Int_Tables_number   1
_chemical_formula_structural   Ba3Mo2(P2O9)2
_chemical_formula_sum   'Ba6 Mo4 P8 O36'
_cell_volume   825.33858831
_cell_formula_units_Z   2
loop_
 _symmetry_equiv_pos_site_id
 _symmetry_equiv_pos_as_xyz
  1  'x, y, z'
loop_
 _atom_site_type_symbol
 _atom_site_label
 _atom_site_symmetry_multiplicity
 _atom_site_fract_x
 _atom_site_fract_y
 _atom_site_fract_z
 _atom_site_occupancy
  Ba  Ba0  1  0.773766  0.996794  0.748039  1
  Ba  Ba1  1  0.091652  0.404674  0.853726  1
  Ba  Ba2  1  0.908348  0.595326  0.146274  1
  Ba  Ba3  1  0.226234  0.003206  0.251961  1
  Ba  Ba4  1  0.537730  0.408739  0.346579  1
  Ba  Ba5  1  0.462270  0.591261  0.653421  1
  Mo  Mo6  1  0.307088  0.766354  0.447519  1
  Mo  Mo7  1  0.692912  0.233646  0.552481  1
  Mo  Mo8  1  0.170410  0.226301  0.051317  1
  Mo  Mo9  1  0.829590  0.773699  0.948683  1
  P  P10  1  0.239148  0.141045  0.434537  1
  P  P11  1  0.760852  0.858955  0.565463  1
  P  P12  1  0.299910  0.847350  0.069804  1
  P  P13  1  0.133878  0.287820  0.678558  1
  P  P14  1  0.700090  0.152650  0.930196  1
  P  P15  1  0.629695  0.265898  0.177205  1
  P  P16  1  0.370305  0.734102  0.822795  1
  P  P17  1  0.866122  0.712180  0.321442  1
  O  O18  1  0.930931  0.270617  0.145759  1
  O  O19  1  0.202244  0.406628  0.036815  1
  O  O20  1  0.307078  0.770981  0.145341  1
  O  O21  1  0.852051  0.992385  0.924322  1
  O  O22  1  0.692922  0.229019  0.854659  1
  O  O23  1  0.394662  0.158099  0.957961  1
  O  O24  1  0.725219  0.412659  0.534519  1
  O  O25  1  0.733422  0.814413  0.259807  1
  O  O26  1  0.657791  0.018343  0.590127  1
  O  O27  1  0.159261  0.762120  0.015225  1
  O  O28  1  0.511802  0.821285  0.876470  1
  O  O29  1  0.881011  0.223983  0.652606  1
  O  O30  1  0.342209  0.981657  0.409873  1
  O  O31  1  0.971940  0.555543  0.294212  1
  O  O32  1  0.118989  0.776017  0.347394  1
  O  O33  1  0.108381  0.235562  0.370173  1
  O  O34  1  0.840739  0.237880  0.984775  1
  O  O35  1  0.797756  0.593372  0.963185  1
  O  O36  1  0.051703  0.140091  0.503739  1
  O  O37  1  0.266578  0.185587  0.740193  1
  O  O38  1  0.670280  0.697942  0.388770  1
  O  O39  1  0.481580  0.424568  0.188443  1
  O  O40  1  0.518420  0.575432  0.811557  1
  O  O41  1  0.274781  0.587341  0.465481  1
  O  O42  1  0.147949  0.007615  0.075678  1
  O  O43  1  0.069069  0.729383  0.854241  1
  O  O44  1  0.891619  0.764438  0.629827  1
  O  O45  1  0.605338  0.841901  0.042039  1
  O  O46  1  0.329720  0.302058  0.611230  1
  O  O47  1  0.488198  0.178715  0.123530  1
  O  O48  1  0.499742  0.202549  0.457320  1
  O  O49  1  0.337393  0.822691  0.749884  1
  O  O50  1  0.662607  0.177309  0.250116  1
  O  O51  1  0.500258  0.797451  0.542680  1
  O  O52  1  0.028060  0.444457  0.705788  1
  O  O53  1  0.948297  0.859909  0.496261  1
