# generated using pymatgen
data_Y2H16S3O20
_symmetry_space_group_name_H-M   'P 1'
_cell_length_a   7.56117513
_cell_length_b   7.56117513
_cell_length_c   18.35007666
_cell_angle_alpha   78.84642457
_cell_angle_beta   101.15357543
_cell_angle_gamma   126.93442843
_symmetry_Int_Tables_number   1
_chemical_formula_structural   Y2H16S3O20
_chemical_formula_sum   'Y4 H32 S6 O40'
_cell_volume   818.73474876
_cell_formula_units_Z   2
loop_
 _symmetry_equiv_pos_site_id
 _symmetry_equiv_pos_as_xyz
  1  'x, y, z'
loop_
 _atom_site_type_symbol
 _atom_site_label
 _atom_site_symmetry_multiplicity
 _atom_site_fract_x
 _atom_site_fract_y
 _atom_site_fract_z
 _atom_site_occupancy
  Y  Y0  1  0.645490  0.310605  0.892761  1
  Y  Y1  1  0.310605  0.645490  0.607239  1
  Y  Y2  1  0.354510  0.689395  0.107239  1
  Y  Y3  1  0.689395  0.354510  0.392761  1
  H  H4  1  0.798866  0.787032  0.841083  1
  H  H5  1  0.787032  0.798866  0.658917  1
  H  H6  1  0.201134  0.212968  0.158917  1
  H  H7  1  0.212968  0.201134  0.341083  1
  H  H8  1  0.540035  0.648379  0.852389  1
  H  H9  1  0.648379  0.540035  0.647611  1
  H  H10  1  0.459965  0.351621  0.147611  1
  H  H11  1  0.351621  0.459965  0.352389  1
  H  H12  1  0.180233  0.164497  0.894375  1
  H  H13  1  0.164497  0.180233  0.605625  1
  H  H14  1  0.819767  0.835503  0.105625  1
  H  H15  1  0.835503  0.819767  0.394375  1
  H  H16  1  0.309788  0.333619  0.956005  1
  H  H17  1  0.333619  0.309788  0.543995  1
  H  H18  1  0.690212  0.666381  0.043995  1
  H  H19  1  0.666381  0.690212  0.456005  1
  H  H20  1  0.706439  0.253943  0.745302  1
  H  H21  1  0.253943  0.706439  0.754698  1
  H  H22  1  0.293561  0.746057  0.254698  1
  H  H23  1  0.746057  0.293561  0.245302  1
  H  H24  1  0.866487  0.207936  0.802985  1
  H  H25  1  0.207936  0.866487  0.697015  1
  H  H26  1  0.133513  0.792064  0.197015  1
  H  H27  1  0.792064  0.133513  0.302985  1
  H  H28  1  0.790954  0.039003  0.991906  1
  H  H29  1  0.039003  0.790954  0.508094  1
  H  H30  1  0.209046  0.960997  0.008094  1
  H  H31  1  0.960997  0.209046  0.491906  1
  H  H32  1  0.001354  0.291424  0.982622  1
  H  H33  1  0.291424  0.001354  0.517378  1
  H  H34  1  0.998646  0.708576  0.017378  1
  H  H35  1  0.708576  0.998646  0.482622  1
  S  S36  1  0.252825  0.689327  0.909460  1
  S  S37  1  0.689327  0.252825  0.590540  1
  S  S38  1  0.747175  0.310673  0.090540  1
  S  S39  1  0.310673  0.747175  0.409460  1
  S  S40  1  0.172572  0.172572  0.750000  1
  S  S41  1  0.827428  0.827428  0.250000  1
  O  O42  1  0.304144  0.629561  0.848417  1
  O  O43  1  0.629561  0.304144  0.651583  1
  O  O44  1  0.695856  0.370439  0.151583  1
  O  O45  1  0.370439  0.695856  0.348417  1
  O  O46  1  0.409513  0.929426  0.918325  1
  O  O47  1  0.929426  0.409513  0.581675  1
  O  O48  1  0.590487  0.070574  0.081675  1
  O  O49  1  0.070574  0.590487  0.418325  1
  O  O50  1  0.021869  0.624155  0.896023  1
  O  O51  1  0.624155  0.021869  0.603977  1
  O  O52  1  0.978131  0.375845  0.103977  1
  O  O53  1  0.375845  0.978131  0.396023  1
  O  O54  1  0.276193  0.565664  0.982256  1
  O  O55  1  0.565664  0.276193  0.517744  1
  O  O56  1  0.723807  0.434336  0.017744  1
  O  O57  1  0.434336  0.723807  0.482256  1
  O  O58  1  0.385097  0.215065  0.787774  1
  O  O59  1  0.215065  0.385097  0.712226  1
  O  O60  1  0.614903  0.784935  0.212226  1
  O  O61  1  0.784935  0.614903  0.287774  1
  O  O62  1  0.012416  0.080987  0.807001  1
  O  O63  1  0.080987  0.012416  0.692999  1
  O  O64  1  0.987584  0.919013  0.192999  1
  O  O65  1  0.919013  0.987584  0.307001  1
  O  O66  1  0.670279  0.641858  0.860265  1
  O  O67  1  0.641858  0.670279  0.639735  1
  O  O68  1  0.329721  0.358142  0.139735  1
  O  O69  1  0.358142  0.329721  0.360265  1
  O  O70  1  0.299593  0.214599  0.936830  1
  O  O71  1  0.214599  0.299593  0.563170  1
  O  O72  1  0.700407  0.785401  0.063170  1
  O  O73  1  0.785401  0.700407  0.436830  1
  O  O74  1  0.762851  0.248953  0.798601  1
  O  O75  1  0.248953  0.762851  0.701399  1
  O  O76  1  0.237149  0.751047  0.201399  1
  O  O77  1  0.751047  0.237149  0.298601  1
  O  O78  1  0.858548  0.176251  0.957240  1
  O  O79  1  0.176251  0.858548  0.542760  1
  O  O80  1  0.141452  0.823749  0.042760  1
  O  O81  1  0.823749  0.141452  0.457240  1
