# generated using pymatgen
data_KIO3
_symmetry_space_group_name_H-M   'P 1'
_cell_length_a   4.53224813
_cell_length_b   4.53224813
_cell_length_c   4.53224813
_cell_angle_alpha   88.69366726
_cell_angle_beta   88.69366726
_cell_angle_gamma   88.69366726
_symmetry_Int_Tables_number   1
_chemical_formula_structural   KIO3
_chemical_formula_sum   'K1 I1 O3'
_cell_volume   93.02664219
_cell_formula_units_Z   1
loop_
 _symmetry_equiv_pos_site_id
 _symmetry_equiv_pos_as_xyz
  1  'x, y, z'
loop_
 _atom_site_type_symbol
 _atom_site_label
 _atom_site_symmetry_multiplicity
 _atom_site_fract_x
 _atom_site_fract_y
 _atom_site_fract_z
 _atom_site_occupancy
  K  K0  1  0.992998  0.992998  0.992998  1
  I  I1  1  0.494937  0.494937  0.494937  1
  O  O2  1  0.454208  0.454208  0.898750  1
  O  O3  1  0.898750  0.454208  0.454208  1
  O  O4  1  0.454208  0.898750  0.454208  1
