# generated using pymatgen
data_K2ZrS4
_symmetry_space_group_name_H-M   'P 1'
_cell_length_a   6.80780559
_cell_length_b   9.57239338
_cell_length_c   23.55265335
_cell_angle_alpha   90.00000000
_cell_angle_beta   90.00000000
_cell_angle_gamma   90.00000000
_symmetry_Int_Tables_number   1
_chemical_formula_structural   K2ZrS4
_chemical_formula_sum   'K16 Zr8 S32'
_cell_volume   1534.85559981
_cell_formula_units_Z   8
loop_
 _symmetry_equiv_pos_site_id
 _symmetry_equiv_pos_as_xyz
  1  'x, y, z'
loop_
 _atom_site_type_symbol
 _atom_site_label
 _atom_site_symmetry_multiplicity
 _atom_site_fract_x
 _atom_site_fract_y
 _atom_site_fract_z
 _atom_site_occupancy
  K  K0  1  0.064970  0.069189  0.198316  1
  K  K1  1  0.564970  0.430811  0.198316  1
  K  K2  1  0.203319  0.857696  0.968726  1
  K  K3  1  0.203319  0.357696  0.531274  1
  K  K4  1  0.796681  0.642304  0.468726  1
  K  K5  1  0.564970  0.930811  0.301684  1
  K  K6  1  0.435030  0.069189  0.698316  1
  K  K7  1  0.435030  0.569189  0.801684  1
  K  K8  1  0.703319  0.142304  0.531274  1
  K  K9  1  0.935030  0.430811  0.698316  1
  K  K10  1  0.935030  0.930811  0.801684  1
  K  K11  1  0.064970  0.569189  0.301684  1
  K  K12  1  0.296681  0.357696  0.031274  1
  K  K13  1  0.703319  0.642304  0.968726  1
  K  K14  1  0.296681  0.857696  0.468726  1
  K  K15  1  0.796681  0.142304  0.031274  1
  Zr  Zr16  1  0.553156  0.828566  0.131442  1
  Zr  Zr17  1  0.446844  0.171434  0.868558  1
  Zr  Zr18  1  0.053156  0.671434  0.131442  1
  Zr  Zr19  1  0.946844  0.328566  0.868558  1
  Zr  Zr20  1  0.446844  0.671434  0.631442  1
  Zr  Zr21  1  0.946844  0.828566  0.631442  1
  Zr  Zr22  1  0.553156  0.328566  0.368558  1
  Zr  Zr23  1  0.053156  0.171434  0.368558  1
  S  S24  1  0.428873  0.910206  0.839438  1
  S  S25  1  0.428873  0.410206  0.660562  1
  S  S26  1  0.864020  0.332339  0.433758  1
  S  S27  1  0.610703  0.947961  0.910418  1
  S  S28  1  0.710827  0.230643  0.795767  1
  S  S29  1  0.889297  0.947961  0.410418  1
  S  S30  1  0.889297  0.447961  0.089582  1
  S  S31  1  0.210827  0.769357  0.704233  1
  S  S32  1  0.710827  0.730643  0.704233  1
  S  S33  1  0.864020  0.832339  0.066242  1
  S  S34  1  0.928873  0.089794  0.660562  1
  S  S35  1  0.389297  0.052039  0.089582  1
  S  S36  1  0.571127  0.089794  0.160562  1
  S  S37  1  0.135980  0.667661  0.566242  1
  S  S38  1  0.210827  0.269357  0.795767  1
  S  S39  1  0.789173  0.230643  0.295767  1
  S  S40  1  0.071127  0.910206  0.339438  1
  S  S41  1  0.110703  0.552039  0.910418  1
  S  S42  1  0.364020  0.667661  0.066242  1
  S  S43  1  0.635980  0.332339  0.933758  1
  S  S44  1  0.610703  0.447961  0.589582  1
  S  S45  1  0.389297  0.552039  0.410418  1
  S  S46  1  0.364020  0.167661  0.433758  1
  S  S47  1  0.789173  0.730643  0.204233  1
  S  S48  1  0.928873  0.589794  0.839438  1
  S  S49  1  0.289173  0.769357  0.204233  1
  S  S50  1  0.571127  0.589794  0.339438  1
  S  S51  1  0.289173  0.269357  0.295767  1
  S  S52  1  0.071127  0.410206  0.160562  1
  S  S53  1  0.635980  0.832339  0.566242  1
  S  S54  1  0.135980  0.167661  0.933758  1
  S  S55  1  0.110703  0.052039  0.589582  1
