# generated using pymatgen
data_MoF6
_symmetry_space_group_name_H-M   'P 1'
_cell_length_a   5.67938522
_cell_length_b   5.67938522
_cell_length_c   5.67938522
_cell_angle_alpha   109.47122063
_cell_angle_beta   109.47122063
_cell_angle_gamma   109.47122063
_symmetry_Int_Tables_number   1
_chemical_formula_structural   MoF6
_chemical_formula_sum   'Mo1 F6'
_cell_volume   141.02044765
_cell_formula_units_Z   1
loop_
 _symmetry_equiv_pos_site_id
 _symmetry_equiv_pos_as_xyz
  1  'x, y, z'
loop_
 _atom_site_type_symbol
 _atom_site_label
 _atom_site_symmetry_multiplicity
 _atom_site_fract_x
 _atom_site_fract_y
 _atom_site_fract_z
 _atom_site_occupancy
  Mo  Mo0  1  0.000000  0.000000  0.000000  1
  F  F1  1  1.000000  0.715107  0.715107  1
  F  F2  1  1.000000  0.284893  0.284893  1
  F  F3  1  0.284893  1.000000  0.284893  1
  F  F4  1  0.715107  1.000000  0.715107  1
  F  F5  1  0.715107  0.715107  0.000000  1
  F  F6  1  0.284893  0.284893  0.000000  1
