# generated using pymatgen
data_Cu(IO3)2
_symmetry_space_group_name_H-M   'P 1'
_cell_length_a   5.10454357
_cell_length_b   6.34412847
_cell_length_c   8.36550482
_cell_angle_alpha   90.00000000
_cell_angle_beta   92.29343989
_cell_angle_gamma   90.00000000
_symmetry_Int_Tables_number   1
_chemical_formula_structural   Cu(IO3)2
_chemical_formula_sum   'Cu2 I4 O12'
_cell_volume   270.69050414
_cell_formula_units_Z   2
loop_
 _symmetry_equiv_pos_site_id
 _symmetry_equiv_pos_as_xyz
  1  'x, y, z'
loop_
 _atom_site_type_symbol
 _atom_site_label
 _atom_site_symmetry_multiplicity
 _atom_site_fract_x
 _atom_site_fract_y
 _atom_site_fract_z
 _atom_site_occupancy
  Cu  Cu0  1  0.500000  0.500000  0.500000  1
  Cu  Cu1  1  0.500000  0.000000  0.500000  1
  I  I2  1  0.466656  0.250000  0.841657  1
  I  I3  1  0.961299  0.750000  0.758045  1
  I  I4  1  0.038701  0.250000  0.241955  1
  I  I5  1  0.533344  0.750000  0.158343  1
  O  O6  1  0.263788  0.030018  0.309227  1
  O  O7  1  0.736212  0.969982  0.690773  1
  O  O8  1  0.634474  0.750000  0.383133  1
  O  O9  1  0.365526  0.250000  0.616867  1
  O  O10  1  0.190640  0.750000  0.599771  1
  O  O11  1  0.747101  0.534027  0.099225  1
  O  O12  1  0.736212  0.530018  0.690773  1
  O  O13  1  0.747101  0.965973  0.099225  1
  O  O14  1  0.252899  0.465973  0.900775  1
  O  O15  1  0.252899  0.034027  0.900775  1
  O  O16  1  0.263788  0.469982  0.309227  1
  O  O17  1  0.809360  0.250000  0.400229  1
