# generated using pymatgen
data_K3V3(AsO7)2
_symmetry_space_group_name_H-M   'P 1'
_cell_length_a   7.95635766
_cell_length_b   10.34250324
_cell_length_c   16.67131792
_cell_angle_alpha   90.00000000
_cell_angle_beta   90.00000000
_cell_angle_gamma   90.00000000
_symmetry_Int_Tables_number   1
_chemical_formula_structural   K3V3(AsO7)2
_chemical_formula_sum   'K12 V12 As8 O56'
_cell_volume   1371.86032667
_cell_formula_units_Z   4
loop_
 _symmetry_equiv_pos_site_id
 _symmetry_equiv_pos_as_xyz
  1  'x, y, z'
loop_
 _atom_site_type_symbol
 _atom_site_label
 _atom_site_symmetry_multiplicity
 _atom_site_fract_x
 _atom_site_fract_y
 _atom_site_fract_z
 _atom_site_occupancy
  K  K0  1  0.418949  0.038909  0.389814  1
  K  K1  1  0.458613  0.348327  0.750000  1
  K  K2  1  0.581051  0.961091  0.610186  1
  K  K3  1  0.958613  0.151673  0.750000  1
  K  K4  1  0.418949  0.038909  0.110186  1
  K  K5  1  0.541387  0.651673  0.250000  1
  K  K6  1  0.581051  0.961091  0.889814  1
  K  K7  1  0.918949  0.461091  0.110186  1
  K  K8  1  0.081051  0.538909  0.889814  1
  K  K9  1  0.081051  0.538909  0.610186  1
  K  K10  1  0.918949  0.461091  0.389814  1
  K  K11  1  0.041387  0.848327  0.250000  1
  V  V12  1  0.798283  0.783892  0.442530  1
  V  V13  1  0.739675  0.727357  0.750000  1
  V  V14  1  0.201717  0.216108  0.942530  1
  V  V15  1  0.298283  0.716108  0.057470  1
  V  V16  1  0.760325  0.227357  0.250000  1
  V  V17  1  0.701717  0.283892  0.942530  1
  V  V18  1  0.239675  0.772643  0.750000  1
  V  V19  1  0.701717  0.283892  0.557470  1
  V  V20  1  0.260325  0.272643  0.250000  1
  V  V21  1  0.201717  0.216108  0.557470  1
  V  V22  1  0.298283  0.716108  0.442530  1
  V  V23  1  0.798283  0.783892  0.057470  1
  As  As24  1  0.609132  0.595842  0.925268  1
  As  As25  1  0.109132  0.904158  0.925268  1
  As  As26  1  0.890868  0.095842  0.425268  1
  As  As27  1  0.390868  0.404158  0.425268  1
  As  As28  1  0.109132  0.904158  0.574732  1
  As  As29  1  0.609132  0.595842  0.574732  1
  As  As30  1  0.390868  0.404158  0.074732  1
  As  As31  1  0.890868  0.095842  0.074732  1
  O  O32  1  0.086807  0.122351  0.463752  1
  O  O33  1  0.413193  0.622351  0.963752  1
  O  O34  1  0.586807  0.377649  0.463752  1
  O  O35  1  0.901965  0.626496  0.750000  1
  O  O36  1  0.780485  0.626912  0.514235  1
  O  O37  1  0.808588  0.703271  0.355708  1
  O  O38  1  0.098035  0.373504  0.250000  1
  O  O39  1  0.879142  0.204314  0.345395  1
  O  O40  1  0.413193  0.622351  0.536248  1
  O  O41  1  0.097442  0.675465  0.456056  1
  O  O42  1  0.120858  0.795686  0.654605  1
  O  O43  1  0.120858  0.795686  0.845395  1
  O  O44  1  0.780485  0.626912  0.985765  1
  O  O45  1  0.097442  0.675465  0.043944  1
  O  O46  1  0.401965  0.873504  0.750000  1
  O  O47  1  0.879142  0.204314  0.154605  1
  O  O48  1  0.698481  0.381059  0.250000  1
  O  O49  1  0.280485  0.873088  0.985765  1
  O  O50  1  0.124714  0.055441  0.616793  1
  O  O51  1  0.124714  0.055441  0.883207  1
  O  O52  1  0.808588  0.703271  0.144292  1
  O  O53  1  0.586807  0.377649  0.036248  1
  O  O54  1  0.801519  0.881059  0.750000  1
  O  O55  1  0.624714  0.444559  0.616793  1
  O  O56  1  0.301519  0.618941  0.750000  1
  O  O57  1  0.086807  0.122351  0.036248  1
  O  O58  1  0.913193  0.877649  0.963752  1
  O  O59  1  0.597442  0.824535  0.456056  1
  O  O60  1  0.624714  0.444559  0.883207  1
  O  O61  1  0.719515  0.126912  0.014235  1
  O  O62  1  0.308588  0.796729  0.144292  1
  O  O63  1  0.379142  0.295686  0.345395  1
  O  O64  1  0.902558  0.324535  0.956056  1
  O  O65  1  0.691412  0.203271  0.855708  1
  O  O66  1  0.198481  0.118941  0.250000  1
  O  O67  1  0.191412  0.296729  0.855708  1
  O  O68  1  0.375286  0.555441  0.116793  1
  O  O69  1  0.620858  0.704314  0.654605  1
  O  O70  1  0.219515  0.373088  0.485765  1
  O  O71  1  0.875286  0.944559  0.383207  1
  O  O72  1  0.402558  0.175465  0.956056  1
  O  O73  1  0.902558  0.324535  0.543944  1
  O  O74  1  0.875286  0.944559  0.116793  1
  O  O75  1  0.280485  0.873088  0.514235  1
  O  O76  1  0.219515  0.373088  0.014235  1
  O  O77  1  0.375286  0.555441  0.383207  1
  O  O78  1  0.913193  0.877649  0.536248  1
  O  O79  1  0.620858  0.704314  0.845395  1
  O  O80  1  0.379142  0.295686  0.154605  1
  O  O81  1  0.402558  0.175465  0.543944  1
  O  O82  1  0.308588  0.796729  0.355708  1
  O  O83  1  0.191412  0.296729  0.644292  1
  O  O84  1  0.719515  0.126912  0.485765  1
  O  O85  1  0.691412  0.203271  0.644292  1
  O  O86  1  0.598035  0.126496  0.250000  1
  O  O87  1  0.597442  0.824535  0.043944  1
