# generated using pymatgen
data_ErTaO4
_symmetry_space_group_name_H-M   'P 1'
_cell_length_a   6.51893145
_cell_length_b   6.51893145
_cell_length_c   5.08240145
_cell_angle_alpha   69.43927013
_cell_angle_beta   110.56072987
_cell_angle_gamma   64.97268475
_symmetry_Int_Tables_number   1
_chemical_formula_structural   ErTaO4
_chemical_formula_sum   'Er2 Ta2 O8'
_cell_volume   148.06908778
_cell_formula_units_Z   2
loop_
 _symmetry_equiv_pos_site_id
 _symmetry_equiv_pos_as_xyz
  1  'x, y, z'
loop_
 _atom_site_type_symbol
 _atom_site_label
 _atom_site_symmetry_multiplicity
 _atom_site_fract_x
 _atom_site_fract_y
 _atom_site_fract_z
 _atom_site_occupancy
  Er  Er0  1  0.631421  0.631421  0.250000  1
  Er  Er1  1  0.368579  0.368579  0.750000  1
  Ta  Ta2  1  0.102193  0.102193  0.250000  1
  Ta  Ta3  1  0.897807  0.897807  0.750000  1
  O  O4  1  0.277438  0.785741  0.715396  1
  O  O5  1  0.785741  0.277438  0.784604  1
  O  O6  1  0.722562  0.214259  0.284604  1
  O  O7  1  0.214259  0.722562  0.215396  1
  O  O8  1  0.051238  0.369055  0.340819  1
  O  O9  1  0.369055  0.051238  0.159181  1
  O  O10  1  0.948762  0.630945  0.659181  1
  O  O11  1  0.630945  0.948762  0.840819  1
