# generated using pymatgen
data_RbZr6CCl15
_symmetry_space_group_name_H-M   'P 1'
_cell_length_a   9.96992952
_cell_length_b   14.21674837
_cell_length_c   18.93029695
_cell_angle_alpha   90.00000000
_cell_angle_beta   90.00000000
_cell_angle_gamma   90.00000000
_symmetry_Int_Tables_number   1
_chemical_formula_structural   RbZr6CCl15
_chemical_formula_sum   'Rb4 Zr24 C4 Cl60'
_cell_volume   2683.17989694
_cell_formula_units_Z   4
loop_
 _symmetry_equiv_pos_site_id
 _symmetry_equiv_pos_as_xyz
  1  'x, y, z'
loop_
 _atom_site_type_symbol
 _atom_site_label
 _atom_site_symmetry_multiplicity
 _atom_site_fract_x
 _atom_site_fract_y
 _atom_site_fract_z
 _atom_site_occupancy
  Rb  Rb0  1  0.326061  0.747698  0.250000  1
  Rb  Rb1  1  0.673939  0.747698  0.750000  1
  Rb  Rb2  1  0.326061  0.252302  0.250000  1
  Rb  Rb3  1  0.673939  0.252302  0.750000  1
  Zr  Zr4  1  0.346337  0.614660  0.530092  1
  Zr  Zr5  1  0.609892  0.000000  0.250000  1
  Zr  Zr6  1  0.419627  0.500000  0.112482  1
  Zr  Zr7  1  0.346337  0.385340  0.530092  1
  Zr  Zr8  1  0.163747  0.114878  0.836344  1
  Zr  Zr9  1  0.836253  0.114878  0.163656  1
  Zr  Zr10  1  0.163747  0.885122  0.836344  1
  Zr  Zr11  1  0.163747  0.885122  0.663656  1
  Zr  Zr12  1  0.163747  0.114878  0.663656  1
  Zr  Zr13  1  0.653663  0.385340  0.030092  1
  Zr  Zr14  1  0.653663  0.385340  0.469908  1
  Zr  Zr15  1  0.836253  0.114878  0.336344  1
  Zr  Zr16  1  0.065083  0.000000  0.250000  1
  Zr  Zr17  1  0.419627  0.500000  0.387518  1
  Zr  Zr18  1  0.580373  0.500000  0.612482  1
  Zr  Zr19  1  0.390108  0.000000  0.750000  1
  Zr  Zr20  1  0.346337  0.614660  0.969908  1
  Zr  Zr21  1  0.934917  0.000000  0.750000  1
  Zr  Zr22  1  0.653663  0.614660  0.469908  1
  Zr  Zr23  1  0.580373  0.500000  0.887518  1
  Zr  Zr24  1  0.836253  0.885122  0.336344  1
  Zr  Zr25  1  0.836253  0.885122  0.163656  1
  Zr  Zr26  1  0.653663  0.614660  0.030092  1
  Zr  Zr27  1  0.346337  0.385340  0.969908  1
  C  C28  1  0.500000  0.500000  0.000000  1
  C  C29  1  0.837888  0.000000  0.250000  1
  C  C30  1  0.162112  0.000000  0.750000  1
  C  C31  1  0.500000  0.500000  0.500000  1
  Cl  Cl32  1  0.500000  0.751697  0.000000  1
  Cl  Cl33  1  0.419128  0.875116  0.844519  1
  Cl  Cl34  1  0.500000  0.751697  0.500000  1
  Cl  Cl35  1  0.092689  0.874679  0.154015  1
  Cl  Cl36  1  0.500000  0.248303  0.000000  1
  Cl  Cl37  1  0.663207  0.000000  0.750000  1
  Cl  Cl38  1  0.419128  0.124884  0.655481  1
  Cl  Cl39  1  0.336793  0.000000  0.250000  1
  Cl  Cl40  1  0.831387  0.250507  0.435121  1
  Cl  Cl41  1  0.579567  0.375594  0.158690  1
  Cl  Cl42  1  0.907311  0.874679  0.845985  1
  Cl  Cl43  1  0.420433  0.624406  0.658690  1
  Cl  Cl44  1  0.420433  0.624406  0.841310  1
  Cl  Cl45  1  0.837698  0.500000  0.434022  1
  Cl  Cl46  1  0.092689  0.125321  0.345985  1
  Cl  Cl47  1  0.420433  0.375594  0.841310  1
  Cl  Cl48  1  0.831387  0.749493  0.064879  1
  Cl  Cl49  1  0.420433  0.375594  0.658690  1
  Cl  Cl50  1  0.759359  0.626202  0.593451  1
  Cl  Cl51  1  0.155563  0.747873  0.750000  1
  Cl  Cl52  1  0.419128  0.875116  0.655481  1
  Cl  Cl53  1  0.907311  0.125321  0.845985  1
  Cl  Cl54  1  0.240641  0.626202  0.406549  1
  Cl  Cl55  1  0.500000  0.248303  0.500000  1
  Cl  Cl56  1  0.831387  0.749493  0.435121  1
  Cl  Cl57  1  0.580872  0.124884  0.155481  1
  Cl  Cl58  1  0.092689  0.125321  0.154015  1
  Cl  Cl59  1  0.837698  0.500000  0.065978  1
  Cl  Cl60  1  0.844437  0.252127  0.250000  1
  Cl  Cl61  1  0.579567  0.375594  0.341310  1
  Cl  Cl62  1  0.321619  0.500000  0.250000  1
  Cl  Cl63  1  0.831387  0.250507  0.064879  1
  Cl  Cl64  1  0.162302  0.500000  0.565978  1
  Cl  Cl65  1  0.092689  0.874679  0.345985  1
  Cl  Cl66  1  0.844437  0.747873  0.250000  1
  Cl  Cl67  1  0.162302  0.500000  0.934022  1
  Cl  Cl68  1  0.759359  0.373798  0.593451  1
  Cl  Cl69  1  0.836949  0.000000  0.060461  1
  Cl  Cl70  1  0.168613  0.749493  0.935121  1
  Cl  Cl71  1  0.168613  0.250507  0.564879  1
  Cl  Cl72  1  0.163051  0.000000  0.939539  1
  Cl  Cl73  1  0.579567  0.624406  0.158690  1
  Cl  Cl74  1  0.155563  0.252127  0.750000  1
  Cl  Cl75  1  0.580872  0.875116  0.155481  1
  Cl  Cl76  1  0.759359  0.626202  0.906549  1
  Cl  Cl77  1  0.240641  0.626202  0.093451  1
  Cl  Cl78  1  0.907311  0.874679  0.654015  1
  Cl  Cl79  1  0.240641  0.373798  0.406549  1
  Cl  Cl80  1  0.419128  0.124884  0.844519  1
  Cl  Cl81  1  0.163051  0.000000  0.560461  1
  Cl  Cl82  1  0.678381  0.500000  0.750000  1
  Cl  Cl83  1  0.907311  0.125321  0.654015  1
  Cl  Cl84  1  0.240641  0.373798  0.093451  1
  Cl  Cl85  1  0.580872  0.875116  0.344519  1
  Cl  Cl86  1  0.579567  0.624406  0.341310  1
  Cl  Cl87  1  0.168613  0.749493  0.564879  1
  Cl  Cl88  1  0.168613  0.250507  0.935121  1
  Cl  Cl89  1  0.836949  0.000000  0.439539  1
  Cl  Cl90  1  0.759359  0.373798  0.906549  1
  Cl  Cl91  1  0.580872  0.124884  0.344519  1
