# generated using pymatgen
data_RbNd(WO4)2
_symmetry_space_group_name_H-M   'P 1'
_cell_length_a   7.76133391
_cell_length_b   7.76133391
_cell_length_c   7.59294717
_cell_angle_alpha   62.74418163
_cell_angle_beta   117.25581837
_cell_angle_gamma   90.68735670
_symmetry_Int_Tables_number   1
_chemical_formula_structural   RbNd(WO4)2
_chemical_formula_sum   'Rb2 Nd2 W4 O16'
_cell_volume   349.96048345
_cell_formula_units_Z   2
loop_
 _symmetry_equiv_pos_site_id
 _symmetry_equiv_pos_as_xyz
  1  'x, y, z'
loop_
 _atom_site_type_symbol
 _atom_site_label
 _atom_site_symmetry_multiplicity
 _atom_site_fract_x
 _atom_site_fract_y
 _atom_site_fract_z
 _atom_site_occupancy
  Rb  Rb0  1  0.201755  0.201755  0.250000  1
  Rb  Rb1  1  0.798245  0.798245  0.750000  1
  Nd  Nd2  1  0.775256  0.775256  0.250000  1
  Nd  Nd3  1  0.224744  0.224744  0.750000  1
  W  W4  1  0.697127  0.312678  0.219305  1
  W  W5  1  0.687322  0.302873  0.719305  1
  W  W6  1  0.302873  0.687322  0.780695  1
  W  W7  1  0.312678  0.697127  0.280695  1
  O  O8  1  0.371987  0.412984  0.527908  1
  O  O9  1  0.052037  0.782397  0.191634  1
  O  O10  1  0.378838  0.932318  0.134564  1
  O  O11  1  0.067682  0.621162  0.634564  1
  O  O12  1  0.623377  0.251661  0.439416  1
  O  O13  1  0.251661  0.623377  0.060584  1
  O  O14  1  0.932318  0.378838  0.365436  1
  O  O15  1  0.628013  0.587016  0.472092  1
  O  O16  1  0.217603  0.947963  0.691634  1
  O  O17  1  0.947963  0.217603  0.808366  1
  O  O18  1  0.587015  0.628013  0.027908  1
  O  O19  1  0.621162  0.067682  0.865436  1
  O  O20  1  0.376623  0.748339  0.560584  1
  O  O21  1  0.748339  0.376623  0.939416  1
  O  O22  1  0.782397  0.052037  0.308366  1
  O  O23  1  0.412984  0.371987  0.972092  1
