# generated using pymatgen
data_SiO2
_symmetry_space_group_name_H-M   'P 1'
_cell_length_a   12.58035641
_cell_length_b   8.56299352
_cell_length_c   15.23153371
_cell_angle_alpha   90.00000000
_cell_angle_beta   105.92344003
_cell_angle_gamma   90.00000000
_symmetry_Int_Tables_number   1
_chemical_formula_structural   SiO2
_chemical_formula_sum   'Si28 O56'
_cell_volume   1577.86490387
_cell_formula_units_Z   28
loop_
 _symmetry_equiv_pos_site_id
 _symmetry_equiv_pos_as_xyz
  1  'x, y, z'
loop_
 _atom_site_type_symbol
 _atom_site_label
 _atom_site_symmetry_multiplicity
 _atom_site_fract_x
 _atom_site_fract_y
 _atom_site_fract_z
 _atom_site_occupancy
  Si  Si0  1  0.883253  0.816139  0.781629  1
  Si  Si1  1  0.095321  0.685455  0.405094  1
  Si  Si2  1  0.883253  0.183861  0.781629  1
  Si  Si3  1  0.095321  0.314545  0.405094  1
  Si  Si4  1  0.859576  0.184398  0.109679  1
  Si  Si5  1  0.512538  0.813015  0.901754  1
  Si  Si6  1  0.246613  0.685528  0.086905  1
  Si  Si7  1  0.140424  0.815602  0.890321  1
  Si  Si8  1  0.706780  0.317155  0.227585  1
  Si  Si9  1  0.904679  0.314545  0.594906  1
  Si  Si10  1  0.753387  0.314472  0.913095  1
  Si  Si11  1  0.512538  0.186985  0.901754  1
  Si  Si12  1  0.293220  0.682845  0.772415  1
  Si  Si13  1  0.116747  0.183861  0.218371  1
  Si  Si14  1  0.861595  0.816790  0.402241  1
  Si  Si15  1  0.861595  0.183210  0.402241  1
  Si  Si16  1  0.859576  0.815602  0.109679  1
  Si  Si17  1  0.138405  0.183210  0.597759  1
  Si  Si18  1  0.293220  0.317155  0.772415  1
  Si  Si19  1  0.487462  0.813015  0.098246  1
  Si  Si20  1  0.487462  0.186985  0.098246  1
  Si  Si21  1  0.753387  0.685528  0.913095  1
  Si  Si22  1  0.904679  0.685455  0.594906  1
  Si  Si23  1  0.706780  0.682845  0.227585  1
  Si  Si24  1  0.116747  0.816139  0.218371  1
  Si  Si25  1  0.140424  0.184398  0.890321  1
  Si  Si26  1  0.246613  0.314472  0.086905  1
  Si  Si27  1  0.138405  0.816790  0.597759  1
  O  O28  1  0.634371  0.771616  0.892496  1
  O  O29  1  0.838258  0.241420  0.004589  1
  O  O30  1  0.421418  0.273219  0.819986  1
  O  O31  1  0.365629  0.228384  0.107504  1
  O  O32  1  0.138610  0.760847  0.323688  1
  O  O33  1  0.634371  0.228384  0.892496  1
  O  O34  1  0.828717  0.000000  0.112603  1
  O  O35  1  0.195910  0.713893  0.172670  1
  O  O36  1  0.804090  0.713893  0.827330  1
  O  O37  1  0.492619  0.000000  0.893172  1
  O  O38  1  0.861390  0.239153  0.676312  1
  O  O39  1  0.988210  0.786225  0.163057  1
  O  O40  1  0.171283  0.000000  0.887397  1
  O  O41  1  0.715878  0.500000  0.255833  1
  O  O42  1  0.195910  0.286107  0.172670  1
  O  O43  1  0.249688  0.213480  0.679911  1
  O  O44  1  0.421418  0.726781  0.819986  1
  O  O45  1  0.500000  0.752278  0.000000  1
  O  O46  1  0.750312  0.213480  0.320089  1
  O  O47  1  0.578582  0.726781  0.180014  1
  O  O48  1  0.218694  0.715518  0.842534  1
  O  O49  1  0.160437  0.770386  0.500528  1
  O  O50  1  0.249688  0.786520  0.679911  1
  O  O51  1  0.160437  0.229614  0.500528  1
  O  O52  1  0.781306  0.715518  0.157466  1
  O  O53  1  0.781306  0.284482  0.157466  1
  O  O54  1  0.121713  0.500000  0.412307  1
  O  O55  1  0.838258  0.758580  0.004589  1
  O  O56  1  0.500000  0.247722  0.000000  1
  O  O57  1  0.737866  0.500000  0.926658  1
  O  O58  1  0.262134  0.500000  0.073342  1
  O  O59  1  0.804090  0.286107  0.827330  1
  O  O60  1  0.037917  0.288694  0.614877  1
  O  O61  1  0.962083  0.288694  0.385123  1
  O  O62  1  0.161742  0.241420  0.995411  1
  O  O63  1  0.852489  0.000000  0.784816  1
  O  O64  1  0.365629  0.771616  0.107504  1
  O  O65  1  0.578582  0.273219  0.180014  1
  O  O66  1  0.896263  0.000000  0.402947  1
  O  O67  1  0.161742  0.758580  0.995411  1
  O  O68  1  0.147511  0.000000  0.215184  1
  O  O69  1  0.750312  0.786520  0.320089  1
  O  O70  1  0.962083  0.711306  0.385123  1
  O  O71  1  0.138610  0.239153  0.323688  1
  O  O72  1  0.011790  0.786225  0.836943  1
  O  O73  1  0.011790  0.213775  0.836943  1
  O  O74  1  0.037917  0.711306  0.614877  1
  O  O75  1  0.284122  0.500000  0.744167  1
  O  O76  1  0.103737  0.000000  0.597053  1
  O  O77  1  0.878287  0.500000  0.587693  1
  O  O78  1  0.839563  0.229614  0.499472  1
  O  O79  1  0.988210  0.213775  0.163057  1
  O  O80  1  0.507381  0.000000  0.106828  1
  O  O81  1  0.218694  0.284482  0.842534  1
  O  O82  1  0.839563  0.770386  0.499472  1
  O  O83  1  0.861390  0.760847  0.676312  1
