# generated using pymatgen
data_Pr10Se14O
_symmetry_space_group_name_H-M   'P 1'
_cell_length_a   15.36423593
_cell_length_b   15.36423593
_cell_length_c   15.36423593
_cell_angle_alpha   117.81494971
_cell_angle_beta   117.81494971
_cell_angle_gamma   93.82820835
_symmetry_Int_Tables_number   1
_chemical_formula_structural   Pr10Se14O
_chemical_formula_sum   'Pr40 Se56 O4'
_cell_volume   2642.90891652
_cell_formula_units_Z   4
loop_
 _symmetry_equiv_pos_site_id
 _symmetry_equiv_pos_as_xyz
  1  'x, y, z'
loop_
 _atom_site_type_symbol
 _atom_site_label
 _atom_site_symmetry_multiplicity
 _atom_site_fract_x
 _atom_site_fract_y
 _atom_site_fract_z
 _atom_site_occupancy
  Pr  Pr0  1  0.444503  0.820076  0.633492  1
  Pr  Pr1  1  0.305497  0.429924  0.866508  1
  Pr  Pr2  1  0.063417  0.929924  0.124427  1
  Pr  Pr3  1  0.895557  0.802103  0.353021  1
  Pr  Pr4  1  0.563417  0.438989  0.133492  1
  Pr  Pr5  1  0.116535  0.116535  0.733071  1
  Pr  Pr6  1  0.854443  0.447897  0.146979  1
  Pr  Pr7  1  0.697897  0.604443  0.646979  1
  Pr  Pr8  1  0.449082  0.542536  0.646979  1
  Pr  Pr9  1  0.186583  0.811011  0.366508  1
  Pr  Pr10  1  0.616535  0.883465  0.000000  1
  Pr  Pr11  1  0.866535  0.633465  0.500000  1
  Pr  Pr12  1  0.800918  0.947897  0.593454  1
  Pr  Pr13  1  0.552103  0.699082  0.406546  1
  Pr  Pr14  1  0.883465  0.616535  0.000000  1
  Pr  Pr15  1  0.561011  0.694503  0.124427  1
  Pr  Pr16  1  0.133465  0.366535  0.500000  1
  Pr  Pr17  1  0.188989  0.555497  0.375573  1
  Pr  Pr18  1  0.354443  0.207464  0.406546  1
  Pr  Pr19  1  0.052103  0.645557  0.853021  1
  Pr  Pr20  1  0.197897  0.550918  0.093454  1
  Pr  Pr21  1  0.792536  0.199082  0.146979  1
  Pr  Pr22  1  0.949082  0.302103  0.906546  1
  Pr  Pr23  1  0.300918  0.707464  0.853021  1
  Pr  Pr24  1  0.957464  0.050918  0.353021  1
  Pr  Pr25  1  0.070076  0.194503  0.133492  1
  Pr  Pr26  1  0.679924  0.055497  0.366508  1
  Pr  Pr27  1  0.383465  0.383465  0.266929  1
  Pr  Pr28  1  0.570076  0.436583  0.875573  1
  Pr  Pr29  1  0.061011  0.936583  0.866508  1
  Pr  Pr30  1  0.395557  0.042536  0.093454  1
  Pr  Pr31  1  0.633465  0.133465  0.766929  1
  Pr  Pr32  1  0.366535  0.866535  0.233071  1
  Pr  Pr33  1  0.292536  0.145557  0.593454  1
  Pr  Pr34  1  0.457464  0.104443  0.906546  1
  Pr  Pr35  1  0.688989  0.313417  0.633492  1
  Pr  Pr36  1  0.686583  0.320076  0.375573  1
  Pr  Pr37  1  0.944503  0.311011  0.624427  1
  Pr  Pr38  1  0.805497  0.938989  0.875573  1
  Pr  Pr39  1  0.179924  0.813417  0.624427  1
  Se  Se40  1  0.850339  0.004339  0.109207  1
  Se  Se41  1  0.899661  0.245661  0.390793  1
  Se  Se42  1  0.625000  0.520215  0.395215  1
  Se  Se43  1  0.270215  0.375000  0.395215  1
  Se  Se44  1  0.395131  0.504339  0.153999  1
  Se  Se45  1  0.085345  0.726465  0.718452  1
  Se  Se46  1  0.125023  0.961199  0.521739  1
  Se  Se47  1  0.439460  0.603285  0.478261  1
  Se  Se48  1  0.008014  0.366893  0.281548  1
  Se  Se49  1  0.633107  0.914655  0.641120  1
  Se  Se50  1  0.211199  0.875023  0.021739  1
  Se  Se51  1  0.991132  0.645131  0.390793  1
  Se  Se52  1  0.125000  0.229785  0.604785  1
  Se  Se53  1  0.624977  0.288801  0.978261  1
  Se  Se54  1  0.616893  0.758014  0.781548  1
  Se  Se55  1  0.310540  0.646715  0.021739  1
  Se  Se56  1  0.495661  0.649661  0.890793  1
  Se  Se57  1  0.116893  0.335345  0.858880  1
  Se  Se58  1  0.854869  0.508868  0.609207  1
  Se  Se59  1  0.664655  0.523535  0.781548  1
  Se  Se60  1  0.758868  0.604869  0.109207  1
  Se  Se61  1  0.354869  0.745661  0.346001  1
  Se  Se62  1  0.711199  0.689460  0.336176  1
  Se  Se63  1  0.585345  0.866893  0.358880  1
  Se  Se64  1  0.625000  0.020215  0.895215  1
  Se  Se65  1  0.258868  0.149661  0.153999  1
  Se  Se66  1  0.895131  0.741132  0.890793  1
  Se  Se67  1  0.853285  0.189460  0.978261  1
  Se  Se68  1  0.995661  0.104869  0.846001  1
  Se  Se69  1  0.396715  0.874977  0.836176  1
  Se  Se70  1  0.254339  0.600339  0.609207  1
  Se  Se71  1  0.164655  0.383107  0.141120  1
  Se  Se72  1  0.976465  0.835345  0.218452  1
  Se  Se73  1  0.896715  0.060540  0.521739  1
  Se  Se74  1  0.625023  0.103285  0.163824  1
  Se  Se75  1  0.741986  0.883107  0.218452  1
  Se  Se76  1  0.770215  0.375000  0.895215  1
  Se  Se77  1  0.476465  0.258014  0.141120  1
  Se  Se78  1  0.241986  0.023535  0.858880  1
  Se  Se79  1  0.038801  0.560540  0.163824  1
  Se  Se80  1  0.399661  0.008868  0.653999  1
  Se  Se81  1  0.508014  0.226465  0.641120  1
  Se  Se82  1  0.353285  0.375023  0.663824  1
  Se  Se83  1  0.479785  0.875000  0.104785  1
  Se  Se84  1  0.939460  0.461199  0.836176  1
  Se  Se85  1  0.273535  0.991986  0.358880  1
  Se  Se86  1  0.350339  0.241132  0.846001  1
  Se  Se87  1  0.979785  0.875000  0.604785  1
  Se  Se88  1  0.133107  0.491986  0.718452  1
  Se  Se89  1  0.754339  0.145131  0.653999  1
  Se  Se90  1  0.124977  0.146715  0.336176  1
  Se  Se91  1  0.125000  0.729785  0.104785  1
  Se  Se92  1  0.538801  0.374977  0.478261  1
  Se  Se93  1  0.810540  0.788801  0.663824  1
  Se  Se94  1  0.491132  0.100339  0.346001  1
  Se  Se95  1  0.773535  0.414655  0.281548  1
  O  O96  1  0.000000  0.000000  0.000000  1
  O  O97  1  0.250000  0.750000  0.500000  1
  O  O98  1  0.500000  0.500000  0.000000  1
  O  O99  1  0.750000  0.250000  0.500000  1
