# generated using pymatgen
data_SrB4O7
_symmetry_space_group_name_H-M   'P 1'
_cell_length_a   4.28033789
_cell_length_b   4.47236558
_cell_length_c   10.83906031
_cell_angle_alpha   90.00000000
_cell_angle_beta   90.00000000
_cell_angle_gamma   90.00000000
_symmetry_Int_Tables_number   1
_chemical_formula_structural   SrB4O7
_chemical_formula_sum   'Sr2 B8 O14'
_cell_volume   207.49468791
_cell_formula_units_Z   2
loop_
 _symmetry_equiv_pos_site_id
 _symmetry_equiv_pos_as_xyz
  1  'x, y, z'
loop_
 _atom_site_type_symbol
 _atom_site_label
 _atom_site_symmetry_multiplicity
 _atom_site_fract_x
 _atom_site_fract_y
 _atom_site_fract_z
 _atom_site_occupancy
  Sr  Sr0  1  0.507212  0.288770  0.500000  1
  Sr  Sr1  1  0.007212  0.711230  0.000000  1
  B  B2  1  0.004839  0.322309  0.751083  1
  B  B3  1  0.504839  0.677691  0.748917  1
  B  B4  1  0.030735  0.825875  0.621688  1
  B  B5  1  0.530735  0.174125  0.878312  1
  B  B6  1  0.530735  0.174125  0.121688  1
  B  B7  1  0.030735  0.825875  0.378312  1
  B  B8  1  0.504839  0.677691  0.251083  1
  B  B9  1  0.004839  0.322309  0.248917  1
  O  O10  1  0.960952  0.142197  0.642113  1
  O  O11  1  0.865245  0.229459  0.135720  1
  O  O12  1  0.365245  0.770541  0.364280  1
  O  O13  1  0.365245  0.770541  0.635720  1
  O  O14  1  0.361196  0.369406  0.221069  1
  O  O15  1  0.861196  0.630594  0.278931  1
  O  O16  1  0.861196  0.630594  0.721069  1
  O  O17  1  0.361196  0.369406  0.778931  1
  O  O18  1  0.460952  0.857803  0.142113  1
  O  O19  1  0.960952  0.142197  0.357887  1
  O  O20  1  0.924853  0.731362  0.500000  1
  O  O21  1  0.424853  0.268638  0.000000  1
  O  O22  1  0.865245  0.229459  0.864280  1
  O  O23  1  0.460952  0.857803  0.857887  1
