# generated using pymatgen
data_CrO3
_symmetry_space_group_name_H-M   'P 1'
_cell_length_a   5.28561402
_cell_length_b   5.28561402
_cell_length_c   5.83320676
_cell_angle_alpha   90.00000000
_cell_angle_beta   90.00000000
_cell_angle_gamma   123.65870671
_symmetry_Int_Tables_number   1
_chemical_formula_structural   CrO3
_chemical_formula_sum   'Cr2 O6'
_cell_volume   135.64575925
_cell_formula_units_Z   2
loop_
 _symmetry_equiv_pos_site_id
 _symmetry_equiv_pos_as_xyz
  1  'x, y, z'
loop_
 _atom_site_type_symbol
 _atom_site_label
 _atom_site_symmetry_multiplicity
 _atom_site_fract_x
 _atom_site_fract_y
 _atom_site_fract_z
 _atom_site_occupancy
  Cr  Cr0  1  0.402018  0.579492  0.750000  1
  Cr  Cr1  1  0.579492  0.402018  0.250000  1
  O  O2  1  0.901926  0.716714  0.250000  1
  O  O3  1  0.631169  0.132049  0.250000  1
  O  O4  1  0.132049  0.631169  0.750000  1
  O  O5  1  0.716714  0.901926  0.750000  1
  O  O6  1  0.377166  0.377166  0.000000  1
  O  O7  1  0.377166  0.377166  0.500000  1
