# generated using pymatgen
data_SiO2
_symmetry_space_group_name_H-M   'P 1'
_cell_length_a   7.59365112
_cell_length_b   7.59365112
_cell_length_c   8.77770185
_cell_angle_alpha   90.00000000
_cell_angle_beta   90.00000000
_cell_angle_gamma   90.00000000
_symmetry_Int_Tables_number   1
_chemical_formula_structural   SiO2
_chemical_formula_sum   'Si12 O24'
_cell_volume   506.15333832
_cell_formula_units_Z   12
loop_
 _symmetry_equiv_pos_site_id
 _symmetry_equiv_pos_as_xyz
  1  'x, y, z'
loop_
 _atom_site_type_symbol
 _atom_site_label
 _atom_site_symmetry_multiplicity
 _atom_site_fract_x
 _atom_site_fract_y
 _atom_site_fract_z
 _atom_site_occupancy
  Si  Si0  1  0.915645  0.084355  0.250000  1
  Si  Si1  1  0.380301  0.825816  0.995877  1
  Si  Si2  1  0.825816  0.380301  0.004123  1
  Si  Si3  1  0.119699  0.325816  0.754123  1
  Si  Si4  1  0.880301  0.674184  0.254123  1
  Si  Si5  1  0.584355  0.584355  0.500000  1
  Si  Si6  1  0.674184  0.880301  0.745877  1
  Si  Si7  1  0.415645  0.415645  0.000000  1
  Si  Si8  1  0.174184  0.619699  0.504123  1
  Si  Si9  1  0.325816  0.119699  0.245877  1
  Si  Si10  1  0.619699  0.174184  0.495877  1
  Si  Si11  1  0.084355  0.915645  0.750000  1
  O  O12  1  0.375945  0.943978  0.149584  1
  O  O13  1  0.379762  0.615970  0.454070  1
  O  O14  1  0.796304  0.137216  0.396236  1
  O  O15  1  0.879762  0.884030  0.795930  1
  O  O16  1  0.624055  0.056022  0.649584  1
  O  O17  1  0.884030  0.879762  0.204070  1
  O  O18  1  0.203696  0.862784  0.896236  1
  O  O19  1  0.943978  0.375945  0.850416  1
  O  O20  1  0.875945  0.556022  0.100416  1
  O  O21  1  0.056022  0.624055  0.350416  1
  O  O22  1  0.120238  0.115970  0.295930  1
  O  O23  1  0.296304  0.362784  0.853764  1
  O  O24  1  0.124055  0.443978  0.600416  1
  O  O25  1  0.615970  0.379762  0.545930  1
  O  O26  1  0.443978  0.124055  0.399584  1
  O  O27  1  0.137216  0.796304  0.603764  1
  O  O28  1  0.637216  0.703696  0.646236  1
  O  O29  1  0.556022  0.875945  0.899584  1
  O  O30  1  0.115970  0.120238  0.704070  1
  O  O31  1  0.620238  0.384030  0.954070  1
  O  O32  1  0.703696  0.637216  0.353764  1
  O  O33  1  0.384030  0.620238  0.045930  1
  O  O34  1  0.362784  0.296304  0.146236  1
  O  O35  1  0.862784  0.203696  0.103764  1
