# generated using pymatgen
data_Zr(MoO4)2
_symmetry_space_group_name_H-M   'P 1'
_cell_length_a   7.08136332
_cell_length_b   7.08136332
_cell_length_c   7.61500810
_cell_angle_alpha   63.85632713
_cell_angle_beta   116.14367287
_cell_angle_gamma   110.46828413
_symmetry_Int_Tables_number   1
_chemical_formula_structural   Zr(MoO4)2
_chemical_formula_sum   'Zr2 Mo4 O16'
_cell_volume   301.93583932
_cell_formula_units_Z   2
loop_
 _symmetry_equiv_pos_site_id
 _symmetry_equiv_pos_as_xyz
  1  'x, y, z'
loop_
 _atom_site_type_symbol
 _atom_site_label
 _atom_site_symmetry_multiplicity
 _atom_site_fract_x
 _atom_site_fract_y
 _atom_site_fract_z
 _atom_site_occupancy
  Zr  Zr0  1  0.978995  0.978995  0.750000  1
  Zr  Zr1  1  0.021005  0.021005  0.250000  1
  Mo  Mo2  1  0.063472  0.494744  0.740703  1
  Mo  Mo3  1  0.494744  0.063472  0.759297  1
  Mo  Mo4  1  0.936528  0.505256  0.259297  1
  Mo  Mo5  1  0.505256  0.936528  0.240703  1
  O  O6  1  0.409201  0.666896  0.332145  1
  O  O7  1  0.949475  0.652112  0.788816  1
  O  O8  1  0.978060  0.792674  0.078047  1
  O  O9  1  0.347888  0.050525  0.288816  1
  O  O10  1  0.009397  0.316795  0.562384  1
  O  O11  1  0.207326  0.021940  0.578047  1
  O  O12  1  0.666896  0.409201  0.167855  1
  O  O13  1  0.316795  0.009397  0.937616  1
  O  O14  1  0.792674  0.978060  0.421953  1
  O  O15  1  0.683205  0.990603  0.062384  1
  O  O16  1  0.050525  0.347888  0.211184  1
  O  O17  1  0.021940  0.207326  0.921953  1
  O  O18  1  0.652112  0.949475  0.711184  1
  O  O19  1  0.333104  0.590799  0.832145  1
  O  O20  1  0.990603  0.683205  0.437616  1
  O  O21  1  0.590799  0.333104  0.667855  1
