# generated using pymatgen
data_Pr4S3NCl3
_symmetry_space_group_name_H-M   'P 1'
_cell_length_a   9.43712105
_cell_length_b   9.43712105
_cell_length_c   6.93573069
_cell_angle_alpha   90.00000000
_cell_angle_beta   90.00000000
_cell_angle_gamma   120.00000000
_symmetry_Int_Tables_number   1
_chemical_formula_structural   Pr4S3NCl3
_chemical_formula_sum   'Pr8 S6 N2 Cl6'
_cell_volume   534.93609733
_cell_formula_units_Z   2
loop_
 _symmetry_equiv_pos_site_id
 _symmetry_equiv_pos_as_xyz
  1  'x, y, z'
loop_
 _atom_site_type_symbol
 _atom_site_label
 _atom_site_symmetry_multiplicity
 _atom_site_fract_x
 _atom_site_fract_y
 _atom_site_fract_z
 _atom_site_occupancy
  Pr  Pr0  1  0.333333  0.666667  0.786676  1
  Pr  Pr1  1  0.798189  0.596377  0.752438  1
  Pr  Pr2  1  0.201811  0.403623  0.252438  1
  Pr  Pr3  1  0.403623  0.201811  0.752438  1
  Pr  Pr4  1  0.201811  0.798189  0.252438  1
  Pr  Pr5  1  0.596377  0.798189  0.252438  1
  Pr  Pr6  1  0.666667  0.333333  0.286676  1
  Pr  Pr7  1  0.798189  0.201811  0.752438  1
  S  S8  1  0.935669  0.467835  0.030713  1
  S  S9  1  0.467835  0.935669  0.530713  1
  S  S10  1  0.532165  0.467835  0.030713  1
  S  S11  1  0.467835  0.532165  0.530713  1
  S  S12  1  0.064331  0.532165  0.530713  1
  S  S13  1  0.532165  0.064331  0.030713  1
  N  N14  1  0.333333  0.666667  0.131732  1
  N  N15  1  0.666667  0.333333  0.631732  1
  Cl  Cl16  1  0.131280  0.262560  0.861533  1
  Cl  Cl17  1  0.131280  0.868720  0.861533  1
  Cl  Cl18  1  0.737440  0.868720  0.861533  1
  Cl  Cl19  1  0.868720  0.131280  0.361533  1
  Cl  Cl20  1  0.262560  0.131280  0.361533  1
  Cl  Cl21  1  0.868720  0.737440  0.361533  1
