# generated using pymatgen
data_LiMnPO4
_symmetry_space_group_name_H-M   'P 1'
_cell_length_a   8.72185720
_cell_length_b   8.72185720
_cell_length_c   8.72185720
_cell_angle_alpha   107.75587316
_cell_angle_beta   107.75587316
_cell_angle_gamma   107.75587316
_symmetry_Int_Tables_number   1
_chemical_formula_structural   LiMnPO4
_chemical_formula_sum   'Li6 Mn6 P6 O24'
_cell_volume   540.75364533
_cell_formula_units_Z   6
loop_
 _symmetry_equiv_pos_site_id
 _symmetry_equiv_pos_as_xyz
  1  'x, y, z'
loop_
 _atom_site_type_symbol
 _atom_site_label
 _atom_site_symmetry_multiplicity
 _atom_site_fract_x
 _atom_site_fract_y
 _atom_site_fract_z
 _atom_site_occupancy
  Li  Li0  1  0.721470  0.890984  0.129141  1
  Li  Li1  1  0.610199  0.427810  0.212825  1
  Li  Li2  1  0.212825  0.610199  0.427810  1
  Li  Li3  1  0.890984  0.129141  0.721470  1
  Li  Li4  1  0.427810  0.212825  0.610199  1
  Li  Li5  1  0.129141  0.721470  0.890984  1
  Mn  Mn6  1  0.229743  0.455163  0.054321  1
  Mn  Mn7  1  0.944270  0.769581  0.538315  1
  Mn  Mn8  1  0.455163  0.054321  0.229743  1
  Mn  Mn9  1  0.538315  0.944270  0.769581  1
  Mn  Mn10  1  0.054321  0.229743  0.455163  1
  Mn  Mn11  1  0.769581  0.538315  0.944270  1
  P  P12  1  0.872232  0.281099  0.098625  1
  P  P13  1  0.571111  0.790206  0.384984  1
  P  P14  1  0.098625  0.872232  0.281099  1
  P  P15  1  0.790206  0.384984  0.571111  1
  P  P16  1  0.384984  0.571111  0.790206  1
  P  P17  1  0.281099  0.098625  0.872232  1
  O  O18  1  0.969189  0.960931  0.294345  1
  O  O19  1  0.764710  0.393976  0.094765  1
  O  O20  1  0.743386  0.081155  0.033822  1
  O  O21  1  0.583787  0.897805  0.272713  1
  O  O22  1  0.356990  0.289952  0.023428  1
  O  O23  1  0.033822  0.743386  0.081155  1
  O  O24  1  0.683160  0.683445  0.362383  1
  O  O25  1  0.373817  0.654680  0.315663  1
  O  O26  1  0.654680  0.315663  0.373817  1
  O  O27  1  0.648282  0.921449  0.586505  1
  O  O28  1  0.094765  0.764710  0.393976  1
  O  O29  1  0.023428  0.356990  0.289952  1
  O  O30  1  0.921449  0.586505  0.648282  1
  O  O31  1  0.897805  0.272713  0.583787  1
  O  O32  1  0.289952  0.023428  0.356990  1
  O  O33  1  0.683445  0.362383  0.683160  1
  O  O34  1  0.362383  0.683160  0.683445  1
  O  O35  1  0.315663  0.373817  0.654680  1
  O  O36  1  0.586505  0.648282  0.921449  1
  O  O37  1  0.294345  0.969189  0.960931  1
  O  O38  1  0.960931  0.294345  0.969189  1
  O  O39  1  0.393976  0.094765  0.764710  1
  O  O40  1  0.272713  0.583787  0.897805  1
  O  O41  1  0.081155  0.033822  0.743386  1
