# generated using pymatgen
data_Zr(TeCl6)2
_symmetry_space_group_name_H-M   'P 1'
_cell_length_a   26.17692711
_cell_length_b   26.17692711
_cell_length_c   26.17692711
_cell_angle_alpha   25.96475839
_cell_angle_beta   25.96475839
_cell_angle_gamma   25.96475839
_symmetry_Int_Tables_number   1
_chemical_formula_structural   Zr(TeCl6)2
_chemical_formula_sum   'Zr6 Te12 Cl72'
_cell_volume   3028.57197997
_cell_formula_units_Z   6
loop_
 _symmetry_equiv_pos_site_id
 _symmetry_equiv_pos_as_xyz
  1  'x, y, z'
loop_
 _atom_site_type_symbol
 _atom_site_label
 _atom_site_symmetry_multiplicity
 _atom_site_fract_x
 _atom_site_fract_y
 _atom_site_fract_z
 _atom_site_occupancy
  Zr  Zr0  1  0.626222  0.626222  0.626222  1
  Zr  Zr1  1  0.873778  0.873778  0.873778  1
  Zr  Zr2  1  0.373778  0.373778  0.373778  1
  Zr  Zr3  1  0.250000  0.250000  0.250000  1
  Zr  Zr4  1  0.126222  0.126222  0.126222  1
  Zr  Zr5  1  0.750000  0.750000  0.750000  1
  Te  Te6  1  0.769204  0.130074  0.476848  1
  Te  Te7  1  0.523152  0.230796  0.869926  1
  Te  Te8  1  0.269204  0.976848  0.630074  1
  Te  Te9  1  0.369926  0.730796  0.023152  1
  Te  Te10  1  0.230796  0.869926  0.523152  1
  Te  Te11  1  0.730796  0.023152  0.369926  1
  Te  Te12  1  0.630074  0.269204  0.976848  1
  Te  Te13  1  0.869926  0.523152  0.230796  1
  Te  Te14  1  0.976848  0.630074  0.269204  1
  Te  Te15  1  0.130074  0.476848  0.769204  1
  Te  Te16  1  0.023152  0.369926  0.730796  1
  Te  Te17  1  0.476848  0.769204  0.130074  1
  Cl  Cl18  1  0.205721  0.888708  0.835904  1
  Cl  Cl19  1  0.426898  0.791003  0.465907  1
  Cl  Cl20  1  0.130212  0.130844  0.432212  1
  Cl  Cl21  1  0.200084  0.183706  0.546387  1
  Cl  Cl22  1  0.551730  0.536911  0.846108  1
  Cl  Cl23  1  0.211280  0.907158  0.202355  1
  Cl  Cl24  1  0.794279  0.111292  0.164096  1
  Cl  Cl25  1  0.448270  0.463089  0.153892  1
  Cl  Cl26  1  0.653892  0.963089  0.948270  1
  Cl  Cl27  1  0.153892  0.448270  0.463089  1
  Cl  Cl28  1  0.463089  0.153892  0.448270  1
  Cl  Cl29  1  0.630844  0.630212  0.932212  1
  Cl  Cl30  1  0.369156  0.369788  0.067788  1
  Cl  Cl31  1  0.388708  0.705721  0.335904  1
  Cl  Cl32  1  0.092842  0.797645  0.788720  1
  Cl  Cl33  1  0.907158  0.202355  0.211280  1
  Cl  Cl34  1  0.963089  0.948270  0.653892  1
  Cl  Cl35  1  0.335904  0.388708  0.705721  1
  Cl  Cl36  1  0.432212  0.130212  0.130844  1
  Cl  Cl37  1  0.791003  0.465907  0.426898  1
  Cl  Cl38  1  0.316294  0.299916  0.953613  1
  Cl  Cl39  1  0.683706  0.700084  0.046387  1
  Cl  Cl40  1  0.708997  0.073102  0.034093  1
  Cl  Cl41  1  0.034093  0.708997  0.073102  1
  Cl  Cl42  1  0.705721  0.335904  0.388708  1
  Cl  Cl43  1  0.183706  0.546387  0.200084  1
  Cl  Cl44  1  0.664096  0.611292  0.294279  1
  Cl  Cl45  1  0.465907  0.426898  0.791003  1
  Cl  Cl46  1  0.816294  0.453613  0.799916  1
  Cl  Cl47  1  0.407158  0.711280  0.702355  1
  Cl  Cl48  1  0.611292  0.294279  0.664096  1
  Cl  Cl49  1  0.869156  0.567788  0.869788  1
  Cl  Cl50  1  0.291003  0.926898  0.965907  1
  Cl  Cl51  1  0.288720  0.297645  0.592842  1
  Cl  Cl52  1  0.299916  0.953613  0.316294  1
  Cl  Cl53  1  0.536911  0.846108  0.551730  1
  Cl  Cl54  1  0.369788  0.067788  0.369156  1
  Cl  Cl55  1  0.453613  0.799916  0.816294  1
  Cl  Cl56  1  0.294279  0.664096  0.611292  1
  Cl  Cl57  1  0.948270  0.653892  0.963089  1
  Cl  Cl58  1  0.346108  0.036911  0.051730  1
  Cl  Cl59  1  0.573102  0.208997  0.534093  1
  Cl  Cl60  1  0.888708  0.835904  0.205721  1
  Cl  Cl61  1  0.965907  0.291003  0.926898  1
  Cl  Cl62  1  0.592842  0.288720  0.297645  1
  Cl  Cl63  1  0.711280  0.702355  0.407158  1
  Cl  Cl64  1  0.953613  0.316294  0.299916  1
  Cl  Cl65  1  0.630212  0.932212  0.630844  1
  Cl  Cl66  1  0.797645  0.788720  0.092842  1
  Cl  Cl67  1  0.534093  0.573102  0.208997  1
  Cl  Cl68  1  0.111292  0.164096  0.794279  1
  Cl  Cl69  1  0.208997  0.534093  0.573102  1
  Cl  Cl70  1  0.799916  0.816294  0.453613  1
  Cl  Cl71  1  0.073102  0.034093  0.708997  1
  Cl  Cl72  1  0.130844  0.432212  0.130212  1
  Cl  Cl73  1  0.546387  0.200084  0.183706  1
  Cl  Cl74  1  0.926898  0.965907  0.291003  1
  Cl  Cl75  1  0.835904  0.205721  0.888708  1
  Cl  Cl76  1  0.869788  0.869156  0.567788  1
  Cl  Cl77  1  0.788720  0.092842  0.797645  1
  Cl  Cl78  1  0.202355  0.211280  0.907158  1
  Cl  Cl79  1  0.046387  0.683706  0.700084  1
  Cl  Cl80  1  0.567788  0.869788  0.869156  1
  Cl  Cl81  1  0.846108  0.551730  0.536911  1
  Cl  Cl82  1  0.297645  0.592842  0.288720  1
  Cl  Cl83  1  0.164096  0.794279  0.111292  1
  Cl  Cl84  1  0.700084  0.046387  0.683706  1
  Cl  Cl85  1  0.051730  0.346108  0.036911  1
  Cl  Cl86  1  0.932212  0.630844  0.630212  1
  Cl  Cl87  1  0.702355  0.407158  0.711280  1
  Cl  Cl88  1  0.036911  0.051730  0.346108  1
  Cl  Cl89  1  0.067788  0.369156  0.369788  1
