# generated using pymatgen
data_AgP(XeF5)2
_symmetry_space_group_name_H-M   'P 1'
_cell_length_a   8.86404384
_cell_length_b   8.86404384
_cell_length_c   8.86404384
_cell_angle_alpha   121.38811659
_cell_angle_beta   121.38811659
_cell_angle_gamma   87.61206976
_symmetry_Int_Tables_number   1
_chemical_formula_structural   AgP(XeF5)2
_chemical_formula_sum   'Ag2 P2 Xe4 F20'
_cell_volume   481.68378747
_cell_formula_units_Z   2
loop_
 _symmetry_equiv_pos_site_id
 _symmetry_equiv_pos_as_xyz
  1  'x, y, z'
loop_
 _atom_site_type_symbol
 _atom_site_label
 _atom_site_symmetry_multiplicity
 _atom_site_fract_x
 _atom_site_fract_y
 _atom_site_fract_z
 _atom_site_occupancy
  Ag  Ag0  1  1.000000  0.500000  0.500000  1
  Ag  Ag1  1  0.500000  1.000000  0.500000  1
  P  P2  1  0.500000  0.500000  0.000000  1
  P  P3  1  1.000000  1.000000  0.000000  1
  Xe  Xe4  1  0.500000  1.000000  0.000000  1
  Xe  Xe5  1  1.000000  1.000000  0.500000  1
  Xe  Xe6  1  0.500000  0.500000  0.500000  1
  Xe  Xe7  1  1.000000  0.500000  0.000000  1
  F  F8  1  0.672914  0.577517  0.250431  1
  F  F9  1  0.827086  0.077517  0.904603  1
  F  F10  1  0.466918  0.737622  0.500000  1
  F  F11  1  0.262378  0.762378  0.729296  1
  F  F12  1  0.966918  0.466918  0.729296  1
  F  F13  1  0.237622  0.966918  0.500000  1
  F  F14  1  0.033082  0.533082  0.270704  1
  F  F15  1  0.172914  0.922483  0.095397  1
  F  F16  1  0.737622  0.237622  0.270704  1
  F  F17  1  0.762378  0.033082  0.500000  1
  F  F18  1  0.922483  0.827086  0.749569  1
  F  F19  1  0.422483  0.672914  0.095397  1
  F  F20  1  0.871939  0.871939  0.000000  1
  F  F21  1  0.371939  0.371939  0.000000  1
  F  F22  1  0.128061  0.128061  0.000000  1
  F  F23  1  0.077517  0.172914  0.250431  1
  F  F24  1  0.577517  0.327086  0.904603  1
  F  F25  1  0.628061  0.628061  0.000000  1
  F  F26  1  0.533082  0.262378  0.500000  1
  F  F27  1  0.327086  0.422483  0.749569  1
