# generated using pymatgen
data_TlPO3
_symmetry_space_group_name_H-M   'P 1'
_cell_length_a   11.09321951
_cell_length_b   11.26069361
_cell_length_c   16.27215147
_cell_angle_alpha   90.00000000
_cell_angle_beta   90.00000000
_cell_angle_gamma   90.00000000
_symmetry_Int_Tables_number   1
_chemical_formula_structural   TlPO3
_chemical_formula_sum   'Tl24 P24 O72'
_cell_volume   2032.67397617
_cell_formula_units_Z   24
loop_
 _symmetry_equiv_pos_site_id
 _symmetry_equiv_pos_as_xyz
  1  'x, y, z'
loop_
 _atom_site_type_symbol
 _atom_site_label
 _atom_site_symmetry_multiplicity
 _atom_site_fract_x
 _atom_site_fract_y
 _atom_site_fract_z
 _atom_site_occupancy
  Tl  Tl0  1  0.000836  0.925152  0.236405  1
  Tl  Tl1  1  0.449365  0.653890  0.417011  1
  Tl  Tl2  1  0.999164  0.425152  0.236405  1
  Tl  Tl3  1  0.415075  0.178745  0.110502  1
  Tl  Tl4  1  0.000836  0.574848  0.763595  1
  Tl  Tl5  1  0.050635  0.346110  0.917011  1
  Tl  Tl6  1  0.915075  0.178745  0.389498  1
  Tl  Tl7  1  0.500836  0.925152  0.263595  1
  Tl  Tl8  1  0.500836  0.574848  0.736405  1
  Tl  Tl9  1  0.449365  0.846110  0.582989  1
  Tl  Tl10  1  0.584925  0.821255  0.889498  1
  Tl  Tl11  1  0.499164  0.074848  0.736405  1
  Tl  Tl12  1  0.584925  0.678745  0.110502  1
  Tl  Tl13  1  0.084925  0.678745  0.389498  1
  Tl  Tl14  1  0.949365  0.846110  0.917011  1
  Tl  Tl15  1  0.084925  0.821255  0.610502  1
  Tl  Tl16  1  0.550635  0.346110  0.582989  1
  Tl  Tl17  1  0.949365  0.653890  0.082989  1
  Tl  Tl18  1  0.550635  0.153890  0.417011  1
  Tl  Tl19  1  0.915075  0.321255  0.610502  1
  Tl  Tl20  1  0.415075  0.321255  0.889498  1
  Tl  Tl21  1  0.999164  0.074848  0.763595  1
  Tl  Tl22  1  0.499164  0.425152  0.263595  1
  Tl  Tl23  1  0.050635  0.153890  0.082989  1
  P  P24  1  0.768325  0.406233  0.081139  1
  P  P25  1  0.231675  0.593767  0.918861  1
  P  P26  1  0.207369  0.516923  0.577620  1
  P  P27  1  0.731675  0.593767  0.581139  1
  P  P28  1  0.229217  0.303896  0.686100  1
  P  P29  1  0.292631  0.016923  0.922380  1
  P  P30  1  0.770783  0.803896  0.686100  1
  P  P31  1  0.231675  0.906233  0.081139  1
  P  P32  1  0.707369  0.983077  0.077620  1
  P  P33  1  0.729217  0.196104  0.186100  1
  P  P34  1  0.270783  0.803896  0.813900  1
  P  P35  1  0.729217  0.303896  0.813900  1
  P  P36  1  0.731675  0.906233  0.418861  1
  P  P37  1  0.770783  0.696104  0.313900  1
  P  P38  1  0.768325  0.093767  0.918861  1
  P  P39  1  0.268325  0.406233  0.418861  1
  P  P40  1  0.268325  0.093767  0.581139  1
  P  P41  1  0.792631  0.483077  0.422380  1
  P  P42  1  0.292631  0.483077  0.077620  1
  P  P43  1  0.229217  0.196104  0.313900  1
  P  P44  1  0.270783  0.696104  0.186100  1
  P  P45  1  0.707369  0.516923  0.922380  1
  P  P46  1  0.792631  0.016923  0.577620  1
  P  P47  1  0.207369  0.983077  0.422380  1
  O  O48  1  0.891934  0.678397  0.274091  1
  O  O49  1  0.101910  0.612300  0.943383  1
  O  O50  1  0.834939  0.260196  0.764760  1
  O  O51  1  0.704151  0.113314  0.557257  1
  O  O52  1  0.608066  0.178397  0.225909  1
  O  O53  1  0.295849  0.886686  0.442743  1
  O  O54  1  0.256314  0.501269  0.853797  1
  O  O55  1  0.256314  0.998731  0.146203  1
  O  O56  1  0.743686  0.001269  0.853797  1
  O  O57  1  0.816871  0.932217  0.498152  1
  O  O58  1  0.584885  0.951604  0.110723  1
  O  O59  1  0.243686  0.498731  0.353797  1
  O  O60  1  0.398090  0.112300  0.556617  1
  O  O61  1  0.891934  0.821603  0.725909  1
  O  O62  1  0.398090  0.387700  0.443383  1
  O  O63  1  0.165061  0.739804  0.235240  1
  O  O64  1  0.795849  0.886686  0.057257  1
  O  O65  1  0.391934  0.678397  0.225909  1
  O  O66  1  0.608066  0.321603  0.774091  1
  O  O67  1  0.601910  0.887700  0.443383  1
  O  O68  1  0.204151  0.113314  0.942743  1
  O  O69  1  0.334939  0.260196  0.735240  1
  O  O70  1  0.705476  0.281676  0.106777  1
  O  O71  1  0.101910  0.887700  0.056617  1
  O  O72  1  0.775362  0.424897  0.859525  1
  O  O73  1  0.816871  0.567783  0.501848  1
  O  O74  1  0.601910  0.612300  0.556617  1
  O  O75  1  0.795849  0.613314  0.942743  1
  O  O76  1  0.415115  0.048396  0.889277  1
  O  O77  1  0.756314  0.501269  0.646203  1
  O  O78  1  0.756314  0.998731  0.353797  1
  O  O79  1  0.224638  0.575103  0.140475  1
  O  O80  1  0.243686  0.001269  0.646203  1
  O  O81  1  0.724638  0.924897  0.640475  1
  O  O82  1  0.275362  0.424897  0.640475  1
  O  O83  1  0.205476  0.281676  0.393223  1
  O  O84  1  0.665061  0.739804  0.264760  1
  O  O85  1  0.584885  0.548396  0.889277  1
  O  O86  1  0.295849  0.613314  0.557257  1
  O  O87  1  0.743686  0.498731  0.146203  1
  O  O88  1  0.775362  0.075103  0.140475  1
  O  O89  1  0.165061  0.760196  0.764760  1
  O  O90  1  0.683129  0.067783  0.998152  1
  O  O91  1  0.084885  0.548396  0.610723  1
  O  O92  1  0.294524  0.781676  0.106777  1
  O  O93  1  0.898090  0.387700  0.056617  1
  O  O94  1  0.415115  0.451604  0.110723  1
  O  O95  1  0.794524  0.781676  0.393223  1
  O  O96  1  0.224638  0.924897  0.859525  1
  O  O97  1  0.294524  0.718324  0.893223  1
  O  O98  1  0.915115  0.048396  0.610723  1
  O  O99  1  0.724638  0.575103  0.359525  1
  O  O100  1  0.108066  0.178397  0.274091  1
  O  O101  1  0.915115  0.451604  0.389277  1
  O  O102  1  0.834939  0.239804  0.235240  1
  O  O103  1  0.108066  0.321603  0.725909  1
  O  O104  1  0.704151  0.386686  0.442743  1
  O  O105  1  0.683129  0.432217  0.001848  1
  O  O106  1  0.316871  0.567783  0.998152  1
  O  O107  1  0.705476  0.218324  0.893223  1
  O  O108  1  0.183129  0.432217  0.498152  1
  O  O109  1  0.205476  0.218324  0.606777  1
  O  O110  1  0.665061  0.760196  0.735240  1
  O  O111  1  0.898090  0.112300  0.943383  1
  O  O112  1  0.084885  0.951604  0.389277  1
  O  O113  1  0.334939  0.239804  0.264760  1
  O  O114  1  0.275362  0.075103  0.359525  1
  O  O115  1  0.391934  0.821603  0.774091  1
  O  O116  1  0.204151  0.386686  0.057257  1
  O  O117  1  0.316871  0.932217  0.001848  1
  O  O118  1  0.794524  0.718324  0.606777  1
  O  O119  1  0.183129  0.067783  0.501848  1
