# generated using pymatgen
data_Ca2PClO4
_symmetry_space_group_name_H-M   'P 1'
_cell_length_a   6.25266539
_cell_length_b   7.05198983
_cell_length_c   10.91156191
_cell_angle_alpha   90.00000000
_cell_angle_beta   90.00000000
_cell_angle_gamma   90.00000000
_symmetry_Int_Tables_number   1
_chemical_formula_structural   Ca2PClO4
_chemical_formula_sum   'Ca8 P4 Cl4 O16'
_cell_volume   481.13149464
_cell_formula_units_Z   4
loop_
 _symmetry_equiv_pos_site_id
 _symmetry_equiv_pos_as_xyz
  1  'x, y, z'
loop_
 _atom_site_type_symbol
 _atom_site_label
 _atom_site_symmetry_multiplicity
 _atom_site_fract_x
 _atom_site_fract_y
 _atom_site_fract_z
 _atom_site_occupancy
  Ca  Ca0  1  0.366632  0.750000  0.500000  1
  Ca  Ca1  1  0.129594  0.028230  0.750000  1
  Ca  Ca2  1  0.633368  0.250000  0.500000  1
  Ca  Ca3  1  0.129594  0.471770  0.250000  1
  Ca  Ca4  1  0.633368  0.250000  0.000000  1
  Ca  Ca5  1  0.870406  0.528230  0.750000  1
  Ca  Ca6  1  0.366632  0.750000  0.000000  1
  Ca  Ca7  1  0.870406  0.971770  0.250000  1
  P  P8  1  0.862447  0.750000  0.000000  1
  P  P9  1  0.137553  0.250000  0.500000  1
  P  P10  1  0.137553  0.250000  0.000000  1
  P  P11  1  0.862447  0.750000  0.500000  1
  Cl  Cl12  1  0.519073  0.217124  0.250000  1
  Cl  Cl13  1  0.519073  0.282876  0.750000  1
  Cl  Cl14  1  0.480927  0.717124  0.250000  1
  Cl  Cl15  1  0.480927  0.782876  0.750000  1
  O  O16  1  0.989997  0.228124  0.114915  1
  O  O17  1  0.284164  0.423639  0.476668  1
  O  O18  1  0.010003  0.728124  0.385085  1
  O  O19  1  0.715836  0.923639  0.476668  1
  O  O20  1  0.010003  0.771876  0.614915  1
  O  O21  1  0.715836  0.576361  0.523332  1
  O  O22  1  0.989997  0.228124  0.385085  1
  O  O23  1  0.989997  0.271876  0.885085  1
  O  O24  1  0.715836  0.923639  0.023332  1
  O  O25  1  0.989997  0.271876  0.614915  1
  O  O26  1  0.715836  0.576361  0.976668  1
  O  O27  1  0.284164  0.423639  0.023332  1
  O  O28  1  0.010003  0.728124  0.114915  1
  O  O29  1  0.010003  0.771876  0.885085  1
  O  O30  1  0.284164  0.076361  0.523332  1
  O  O31  1  0.284164  0.076361  0.976668  1
