# generated using pymatgen
data_BaZnTeCl2O3
_symmetry_space_group_name_H-M   'P 1'
_cell_length_a   5.72231446
_cell_length_b   12.52130142
_cell_length_c   19.81985712
_cell_angle_alpha   90.00000000
_cell_angle_beta   90.00000000
_cell_angle_gamma   90.00000000
_symmetry_Int_Tables_number   1
_chemical_formula_structural   BaZnTeCl2O3
_chemical_formula_sum   'Ba8 Zn8 Te8 Cl16 O24'
_cell_volume   1420.10909765
_cell_formula_units_Z   8
loop_
 _symmetry_equiv_pos_site_id
 _symmetry_equiv_pos_as_xyz
  1  'x, y, z'
loop_
 _atom_site_type_symbol
 _atom_site_label
 _atom_site_symmetry_multiplicity
 _atom_site_fract_x
 _atom_site_fract_y
 _atom_site_fract_z
 _atom_site_occupancy
  Ba  Ba0  1  0.250000  0.832556  0.830066  1
  Ba  Ba1  1  0.250000  0.442932  0.210443  1
  Ba  Ba2  1  0.250000  0.332556  0.669934  1
  Ba  Ba3  1  0.750000  0.167444  0.169934  1
  Ba  Ba4  1  0.750000  0.057068  0.710443  1
  Ba  Ba5  1  0.250000  0.942932  0.289557  1
  Ba  Ba6  1  0.750000  0.667444  0.330066  1
  Ba  Ba7  1  0.750000  0.557068  0.789557  1
  Zn  Zn8  1  0.250000  0.070214  0.572510  1
  Zn  Zn9  1  0.750000  0.513824  0.593618  1
  Zn  Zn10  1  0.250000  0.986176  0.093618  1
  Zn  Zn11  1  0.750000  0.929786  0.427490  1
  Zn  Zn12  1  0.250000  0.486176  0.406382  1
  Zn  Zn13  1  0.250000  0.570214  0.927490  1
  Zn  Zn14  1  0.750000  0.013824  0.906382  1
  Zn  Zn15  1  0.750000  0.429786  0.072510  1
  Te  Te16  1  0.750000  0.359874  0.339349  1
  Te  Te17  1  0.750000  0.859874  0.160651  1
  Te  Te18  1  0.750000  0.725401  0.951150  1
  Te  Te19  1  0.250000  0.640126  0.660651  1
  Te  Te20  1  0.250000  0.774599  0.451150  1
  Te  Te21  1  0.250000  0.274599  0.048850  1
  Te  Te22  1  0.750000  0.225401  0.548850  1
  Te  Te23  1  0.250000  0.140126  0.839349  1
  Cl  Cl24  1  0.250000  0.875620  0.004766  1
  Cl  Cl25  1  0.750000  0.939806  0.540280  1
  Cl  Cl26  1  0.250000  0.440607  0.845221  1
  Cl  Cl27  1  0.250000  0.194133  0.259295  1
  Cl  Cl28  1  0.250000  0.560194  0.040280  1
  Cl  Cl29  1  0.750000  0.059393  0.345221  1
  Cl  Cl30  1  0.750000  0.124380  0.995234  1
  Cl  Cl31  1  0.250000  0.060194  0.459720  1
  Cl  Cl32  1  0.250000  0.940607  0.654779  1
  Cl  Cl33  1  0.750000  0.439806  0.959720  1
  Cl  Cl34  1  0.750000  0.305867  0.759295  1
  Cl  Cl35  1  0.750000  0.559393  0.154779  1
  Cl  Cl36  1  0.250000  0.694133  0.240705  1
  Cl  Cl37  1  0.250000  0.375620  0.495234  1
  Cl  Cl38  1  0.750000  0.805867  0.740705  1
  Cl  Cl39  1  0.750000  0.624380  0.504766  1
  O  O40  1  0.007135  0.330328  0.104234  1
  O  O41  1  0.992865  0.669672  0.895766  1
  O  O42  1  0.992865  0.169672  0.604234  1
  O  O43  1  0.993595  0.964395  0.161203  1
  O  O44  1  0.250000  0.160834  0.746828  1
  O  O45  1  0.750000  0.339166  0.246828  1
  O  O46  1  0.993595  0.464395  0.338797  1
  O  O47  1  0.250000  0.141794  0.092655  1
  O  O48  1  0.750000  0.858206  0.907345  1
  O  O49  1  0.492865  0.330328  0.104234  1
  O  O50  1  0.750000  0.839166  0.253172  1
  O  O51  1  0.507135  0.169672  0.604234  1
  O  O52  1  0.506405  0.964395  0.161203  1
  O  O53  1  0.250000  0.660834  0.753172  1
  O  O54  1  0.750000  0.358206  0.592655  1
  O  O55  1  0.507135  0.669672  0.895766  1
  O  O56  1  0.006405  0.035605  0.838797  1
  O  O57  1  0.493595  0.535605  0.661203  1
  O  O58  1  0.506405  0.464395  0.338797  1
  O  O59  1  0.250000  0.641794  0.407345  1
  O  O60  1  0.007135  0.830328  0.395766  1
  O  O61  1  0.492865  0.830328  0.395766  1
  O  O62  1  0.006405  0.535605  0.661203  1
  O  O63  1  0.493595  0.035605  0.838797  1
