# generated using pymatgen
data_Na7In3Se8
_symmetry_space_group_name_H-M   'P 1'
_cell_length_a   6.81782816
_cell_length_b   10.58266048
_cell_length_c   13.68851727
_cell_angle_alpha   91.48159608
_cell_angle_beta   89.99665681
_cell_angle_gamma   90.18044887
_symmetry_Int_Tables_number   1
_chemical_formula_structural   Na7In3Se8
_chemical_formula_sum   'Na14 In6 Se16'
_cell_volume   987.30185197
_cell_formula_units_Z   2
loop_
 _symmetry_equiv_pos_site_id
 _symmetry_equiv_pos_as_xyz
  1  'x, y, z'
loop_
 _atom_site_type_symbol
 _atom_site_label
 _atom_site_symmetry_multiplicity
 _atom_site_fract_x
 _atom_site_fract_y
 _atom_site_fract_z
 _atom_site_occupancy
  Na  Na0  1  0.744750  0.127860  0.483389  1
  Na  Na1  1  0.255250  0.872140  0.516611  1
  Na  Na2  1  0.278536  0.110240  0.274732  1
  Na  Na3  1  0.721464  0.889760  0.725268  1
  Na  Na4  1  0.732693  0.386361  0.234371  1
  Na  Na5  1  0.267307  0.613639  0.765629  1
  Na  Na6  1  0.255553  0.359932  0.019678  1
  Na  Na7  1  0.744447  0.640068  0.980322  1
  Na  Na8  1  0.482452  0.623899  0.365489  1
  Na  Na9  1  0.517548  0.376101  0.634511  1
  Na  Na10  1  0.478177  0.861030  0.124822  1
  Na  Na11  1  0.521823  0.138970  0.875178  1
  Na  Na12  1  0.146367  0.625312  0.178290  1
  Na  Na13  1  0.853633  0.374688  0.821710  1
  In  In14  1  0.125621  0.156399  0.695401  1
  In  In15  1  0.874379  0.843601  0.304599  1
  In  In16  1  0.135170  0.382509  0.435504  1
  In  In17  1  0.864830  0.617491  0.564496  1
  In  In18  1  0.132704  0.888434  0.926139  1
  In  In19  1  0.867296  0.111566  0.073861  1
  Se  Se20  1  0.257799  0.167920  0.509697  1
  Se  Se21  1  0.742201  0.832080  0.490303  1
  Se  Se22  1  0.252870  0.925623  0.744340  1
  Se  Se23  1  0.747130  0.074377  0.255660  1
  Se  Se24  1  0.254831  0.668452  0.976378  1
  Se  Se25  1  0.745169  0.331548  0.023622  1
  Se  Se26  1  0.749761  0.157405  0.693305  1
  Se  Se27  1  0.250239  0.842595  0.306695  1
  Se  Se28  1  0.249784  0.076695  0.047200  1
  Se  Se29  1  0.750216  0.923305  0.952800  1
  Se  Se30  1  0.272639  0.337450  0.803718  1
  Se  Se31  1  0.727361  0.662550  0.196282  1
  Se  Se32  1  0.751124  0.418663  0.453223  1
  Se  Se33  1  0.248876  0.581337  0.546777  1
  Se  Se34  1  0.260183  0.385237  0.257971  1
  Se  Se35  1  0.739817  0.614763  0.742029  1
