# generated using pymatgen
data_CaBiCO4F
_symmetry_space_group_name_H-M   'P 1'
_cell_length_a   5.40911123
_cell_length_b   5.42051944
_cell_length_c   13.82632914
_cell_angle_alpha   90.00000000
_cell_angle_beta   90.00000000
_cell_angle_gamma   90.00000000
_symmetry_Int_Tables_number   1
_chemical_formula_structural   CaBiCO4F
_chemical_formula_sum   'Ca4 Bi4 C4 O16 F4'
_cell_volume   405.39063299
_cell_formula_units_Z   4
loop_
 _symmetry_equiv_pos_site_id
 _symmetry_equiv_pos_as_xyz
  1  'x, y, z'
loop_
 _atom_site_type_symbol
 _atom_site_label
 _atom_site_symmetry_multiplicity
 _atom_site_fract_x
 _atom_site_fract_y
 _atom_site_fract_z
 _atom_site_occupancy
  Ca  Ca0  1  0.000000  0.750000  0.400753  1
  Ca  Ca1  1  0.000000  0.250000  0.599247  1
  Ca  Ca2  1  0.500000  0.250000  0.400753  1
  Ca  Ca3  1  0.500000  0.750000  0.599247  1
  Bi  Bi4  1  0.500000  0.250000  0.093999  1
  Bi  Bi5  1  0.000000  0.250000  0.906001  1
  Bi  Bi6  1  0.000000  0.750000  0.093999  1
  Bi  Bi7  1  0.500000  0.750000  0.906001  1
  C  C8  1  0.000000  0.250000  0.256925  1
  C  C9  1  0.500000  0.750000  0.256925  1
  C  C10  1  0.000000  0.750000  0.743075  1
  C  C11  1  0.500000  0.250000  0.743075  1
  O  O12  1  0.649189  0.104052  0.698758  1
  O  O13  1  0.149189  0.895948  0.698758  1
  O  O14  1  0.750000  0.497706  0.000000  1
  O  O15  1  0.149189  0.395948  0.301242  1
  O  O16  1  0.350811  0.895948  0.301242  1
  O  O17  1  0.850811  0.104052  0.301242  1
  O  O18  1  0.350811  0.395948  0.698758  1
  O  O19  1  0.250000  0.002294  0.000000  1
  O  O20  1  0.250000  0.502294  0.000000  1
  O  O21  1  0.000000  0.250000  0.160766  1
  O  O22  1  0.649189  0.604052  0.301242  1
  O  O23  1  0.500000  0.250000  0.839234  1
  O  O24  1  0.000000  0.750000  0.839234  1
  O  O25  1  0.850811  0.604052  0.698758  1
  O  O26  1  0.500000  0.750000  0.160766  1
  O  O27  1  0.750000  0.997706  0.000000  1
  F  F28  1  0.250000  0.513265  0.500000  1
  F  F29  1  0.250000  0.013265  0.500000  1
  F  F30  1  0.750000  0.986735  0.500000  1
  F  F31  1  0.750000  0.486735  0.500000  1
