# generated using pymatgen
data_Rb2CaV2O7
_symmetry_space_group_name_H-M   'P 1'
_cell_length_a   10.49859146
_cell_length_b   6.07976486
_cell_length_c   15.34588098
_cell_angle_alpha   90.00000000
_cell_angle_beta   116.38701810
_cell_angle_gamma   90.00000000
_symmetry_Int_Tables_number   1
_chemical_formula_structural   Rb2CaV2O7
_chemical_formula_sum   'Rb8 Ca4 V8 O28'
_cell_volume   877.45884035
_cell_formula_units_Z   4
loop_
 _symmetry_equiv_pos_site_id
 _symmetry_equiv_pos_as_xyz
  1  'x, y, z'
loop_
 _atom_site_type_symbol
 _atom_site_label
 _atom_site_symmetry_multiplicity
 _atom_site_fract_x
 _atom_site_fract_y
 _atom_site_fract_z
 _atom_site_occupancy
  Rb  Rb0  1  0.973376  0.765183  0.830690  1
  Rb  Rb1  1  0.500684  0.724990  0.130214  1
  Rb  Rb2  1  0.026624  0.234817  0.169310  1
  Rb  Rb3  1  0.026624  0.265183  0.669310  1
  Rb  Rb4  1  0.973376  0.734817  0.330690  1
  Rb  Rb5  1  0.499316  0.275010  0.869786  1
  Rb  Rb6  1  0.499316  0.224990  0.369786  1
  Rb  Rb7  1  0.500684  0.775010  0.630214  1
  Ca  Ca8  1  0.229887  0.239600  0.978337  1
  Ca  Ca9  1  0.229887  0.260400  0.478337  1
  Ca  Ca10  1  0.770113  0.739600  0.521663  1
  Ca  Ca11  1  0.770113  0.760400  0.021663  1
  V  V12  1  0.337868  0.734310  0.360931  1
  V  V13  1  0.173010  0.728440  0.122233  1
  V  V14  1  0.826990  0.271560  0.877767  1
  V  V15  1  0.662132  0.265690  0.639069  1
  V  V16  1  0.173010  0.771560  0.622233  1
  V  V17  1  0.337868  0.765690  0.860931  1
  V  V18  1  0.662132  0.234310  0.139069  1
  V  V19  1  0.826990  0.228440  0.377767  1
  O  O20  1  0.681484  0.187055  0.760124  1
  O  O21  1  0.270200  0.945982  0.401759  1
  O  O22  1  0.985772  0.270382  0.869933  1
  O  O23  1  0.014228  0.770382  0.630067  1
  O  O24  1  0.176078  0.916396  0.040369  1
  O  O25  1  0.014228  0.729618  0.130067  1
  O  O26  1  0.251806  0.490212  0.356429  1
  O  O27  1  0.211735  0.469184  0.095745  1
  O  O28  1  0.823922  0.083604  0.959631  1
  O  O29  1  0.270200  0.554018  0.901759  1
  O  O30  1  0.748194  0.509788  0.643571  1
  O  O31  1  0.748194  0.990212  0.143571  1
  O  O32  1  0.729800  0.054018  0.598241  1
  O  O33  1  0.788265  0.969184  0.404255  1
  O  O34  1  0.211735  0.030816  0.595745  1
  O  O35  1  0.176078  0.583604  0.540369  1
  O  O36  1  0.729800  0.445982  0.098241  1
  O  O37  1  0.482424  0.291986  0.567254  1
  O  O38  1  0.517576  0.708014  0.432746  1
  O  O39  1  0.318516  0.812945  0.239876  1
  O  O40  1  0.823922  0.416396  0.459631  1
  O  O41  1  0.517576  0.791986  0.932746  1
  O  O42  1  0.251806  0.009788  0.856429  1
  O  O43  1  0.985772  0.229618  0.369933  1
  O  O44  1  0.681484  0.312945  0.260124  1
  O  O45  1  0.318516  0.687055  0.739876  1
  O  O46  1  0.482424  0.208014  0.067254  1
  O  O47  1  0.788265  0.530816  0.904255  1
