# generated using pymatgen
data_MnF2
_symmetry_space_group_name_H-M   'P 1'
_cell_length_a   5.01881341
_cell_length_b   5.46316721
_cell_length_c   5.93736756
_cell_angle_alpha   90.00000000
_cell_angle_beta   90.00000000
_cell_angle_gamma   90.00000000
_symmetry_Int_Tables_number   1
_chemical_formula_structural   MnF2
_chemical_formula_sum   'Mn4 F8'
_cell_volume   162.79440625
_cell_formula_units_Z   4
loop_
 _symmetry_equiv_pos_site_id
 _symmetry_equiv_pos_as_xyz
  1  'x, y, z'
loop_
 _atom_site_type_symbol
 _atom_site_label
 _atom_site_symmetry_multiplicity
 _atom_site_fract_x
 _atom_site_fract_y
 _atom_site_fract_z
 _atom_site_occupancy
  Mn  Mn0  1  0.000000  0.750000  0.167989  1
  Mn  Mn1  1  0.500000  0.250000  0.332011  1
  Mn  Mn2  1  0.000000  0.250000  0.832011  1
  Mn  Mn3  1  0.500000  0.750000  0.667989  1
  F  F4  1  0.226509  0.079772  0.109086  1
  F  F5  1  0.726509  0.920228  0.390914  1
  F  F6  1  0.273491  0.579772  0.390914  1
  F  F7  1  0.773491  0.420228  0.109086  1
  F  F8  1  0.226509  0.579772  0.890914  1
  F  F9  1  0.726509  0.420228  0.609086  1
  F  F10  1  0.273491  0.079772  0.609086  1
  F  F11  1  0.773491  0.920228  0.890914  1
