# generated using pymatgen
data_SbClO
_symmetry_space_group_name_H-M   'P 1'
_cell_length_a   8.13099952
_cell_length_b   11.41223838
_cell_length_c   9.68169595
_cell_angle_alpha   90.00000000
_cell_angle_beta   103.89041087
_cell_angle_gamma   90.00000000
_symmetry_Int_Tables_number   1
_chemical_formula_structural   SbClO
_chemical_formula_sum   'Sb12 Cl12 O12'
_cell_volume   872.12069960
_cell_formula_units_Z   12
loop_
 _symmetry_equiv_pos_site_id
 _symmetry_equiv_pos_as_xyz
  1  'x, y, z'
loop_
 _atom_site_type_symbol
 _atom_site_label
 _atom_site_symmetry_multiplicity
 _atom_site_fract_x
 _atom_site_fract_y
 _atom_site_fract_z
 _atom_site_occupancy
  Sb  Sb0  1  0.716759  0.031030  0.573970  1
  Sb  Sb1  1  0.283241  0.531030  0.926030  1
  Sb  Sb2  1  0.283241  0.968970  0.426030  1
  Sb  Sb3  1  0.716759  0.468970  0.073970  1
  Sb  Sb4  1  0.908439  0.243440  0.906951  1
  Sb  Sb5  1  0.091561  0.743440  0.593049  1
  Sb  Sb6  1  0.091561  0.756560  0.093049  1
  Sb  Sb7  1  0.908439  0.256560  0.406951  1
  Sb  Sb8  1  0.471903  0.173425  0.759761  1
  Sb  Sb9  1  0.528097  0.673425  0.740239  1
  Sb  Sb10  1  0.528097  0.826575  0.240239  1
  Sb  Sb11  1  0.471903  0.326575  0.259761  1
  Cl  Cl12  1  0.884215  0.398261  0.588213  1
  Cl  Cl13  1  0.115785  0.898261  0.911787  1
  Cl  Cl14  1  0.115785  0.601739  0.411787  1
  Cl  Cl15  1  0.884215  0.101739  0.088213  1
  Cl  Cl16  1  0.406601  0.353785  0.625914  1
  Cl  Cl17  1  0.593399  0.853785  0.874086  1
  Cl  Cl18  1  0.593399  0.646215  0.374086  1
  Cl  Cl19  1  0.406601  0.146215  0.125914  1
  Cl  Cl20  1  0.105196  0.113945  0.646762  1
  Cl  Cl21  1  0.894804  0.613945  0.853238  1
  Cl  Cl22  1  0.894804  0.886055  0.353238  1
  Cl  Cl23  1  0.105196  0.386055  0.146762  1
  O  O24  1  0.469623  0.070441  0.587842  1
  O  O25  1  0.530377  0.570441  0.912158  1
  O  O26  1  0.530377  0.929559  0.412158  1
  O  O27  1  0.469623  0.429559  0.087842  1
  O  O28  1  0.723128  0.159866  0.756129  1
  O  O29  1  0.276872  0.659866  0.743871  1
  O  O30  1  0.276872  0.840134  0.243871  1
  O  O31  1  0.723128  0.340134  0.256129  1
  O  O32  1  0.713372  0.338736  0.936857  1
  O  O33  1  0.286628  0.838736  0.563143  1
  O  O34  1  0.286628  0.661264  0.063143  1
  O  O35  1  0.713372  0.161264  0.436857  1
