# generated using pymatgen
data_Li2Hg(PO3)4
_symmetry_space_group_name_H-M   'P 1'
_cell_length_a   9.58965116
_cell_length_b   10.28657354
_cell_length_c   9.71719745
_cell_angle_alpha   90.00000000
_cell_angle_beta   91.61064649
_cell_angle_gamma   90.00000000
_symmetry_Int_Tables_number   1
_chemical_formula_structural   Li2Hg(PO3)4
_chemical_formula_sum   'Li8 Hg4 P16 O48'
_cell_volume   958.17084662
_cell_formula_units_Z   4
loop_
 _symmetry_equiv_pos_site_id
 _symmetry_equiv_pos_as_xyz
  1  'x, y, z'
loop_
 _atom_site_type_symbol
 _atom_site_label
 _atom_site_symmetry_multiplicity
 _atom_site_fract_x
 _atom_site_fract_y
 _atom_site_fract_z
 _atom_site_occupancy
  Li  Li0  1  0.891262  0.817810  0.997641  1
  Li  Li1  1  0.606314  0.682055  0.499730  1
  Li  Li2  1  0.108738  0.317810  0.502359  1
  Li  Li3  1  0.606314  0.817945  0.999730  1
  Li  Li4  1  0.108738  0.182190  0.002359  1
  Li  Li5  1  0.393686  0.182055  0.000270  1
  Li  Li6  1  0.891262  0.682190  0.497641  1
  Li  Li7  1  0.393686  0.317945  0.500270  1
  Hg  Hg8  1  0.251582  0.806154  0.011147  1
  Hg  Hg9  1  0.251582  0.693846  0.511147  1
  Hg  Hg10  1  0.748418  0.193846  0.988853  1
  Hg  Hg11  1  0.748418  0.306154  0.488853  1
  P  P12  1  0.965458  0.105194  0.707143  1
  P  P13  1  0.493313  0.600026  0.796817  1
  P  P14  1  0.493313  0.899974  0.296817  1
  P  P15  1  0.034542  0.605194  0.792857  1
  P  P16  1  0.762086  0.035904  0.270587  1
  P  P17  1  0.266754  0.097683  0.299624  1
  P  P18  1  0.237914  0.535904  0.229413  1
  P  P19  1  0.237914  0.964096  0.729413  1
  P  P20  1  0.733246  0.902317  0.700376  1
  P  P21  1  0.506687  0.100026  0.703183  1
  P  P22  1  0.266754  0.402317  0.799624  1
  P  P23  1  0.965458  0.394806  0.207143  1
  P  P24  1  0.506687  0.399974  0.203183  1
  P  P25  1  0.733246  0.597683  0.200376  1
  P  P26  1  0.034542  0.894806  0.292857  1
  P  P27  1  0.762086  0.464096  0.770587  1
  O  O28  1  0.033160  0.881619  0.139015  1
  O  O29  1  0.033160  0.618381  0.639015  1
  O  O30  1  0.758086  0.017476  0.115023  1
  O  O31  1  0.345727  0.062644  0.663208  1
  O  O32  1  0.415269  0.031826  0.343055  1
  O  O33  1  0.584731  0.968174  0.656945  1
  O  O34  1  0.241914  0.982524  0.884977  1
  O  O35  1  0.415269  0.468174  0.843055  1
  O  O36  1  0.255453  0.381935  0.646738  1
  O  O37  1  0.461862  0.790938  0.394122  1
  O  O38  1  0.476428  0.617078  0.643532  1
  O  O39  1  0.744547  0.881935  0.853262  1
  O  O40  1  0.094718  0.486640  0.161951  1
  O  O41  1  0.523572  0.117078  0.856468  1
  O  O42  1  0.751518  0.789477  0.604973  1
  O  O43  1  0.523572  0.382922  0.356468  1
  O  O44  1  0.248482  0.210523  0.395027  1
  O  O45  1  0.966840  0.381619  0.360985  1
  O  O46  1  0.094718  0.013360  0.661951  1
  O  O47  1  0.967557  0.223312  0.615849  1
  O  O48  1  0.164092  0.981037  0.347443  1
  O  O49  1  0.248482  0.289477  0.895027  1
  O  O50  1  0.264135  0.672377  0.182898  1
  O  O51  1  0.967557  0.276688  0.115849  1
  O  O52  1  0.966840  0.118381  0.860985  1
  O  O53  1  0.905282  0.513360  0.838049  1
  O  O54  1  0.264135  0.827623  0.682898  1
  O  O55  1  0.255453  0.118065  0.146738  1
  O  O56  1  0.735865  0.172377  0.317102  1
  O  O57  1  0.032443  0.723312  0.884151  1
  O  O58  1  0.032443  0.776688  0.384151  1
  O  O59  1  0.538138  0.290938  0.105878  1
  O  O60  1  0.751518  0.710523  0.104973  1
  O  O61  1  0.654273  0.937356  0.336792  1
  O  O62  1  0.835908  0.018963  0.652557  1
  O  O63  1  0.584731  0.531826  0.156945  1
  O  O64  1  0.744547  0.618065  0.353262  1
  O  O65  1  0.461862  0.709062  0.894122  1
  O  O66  1  0.654273  0.562644  0.836792  1
  O  O67  1  0.835908  0.481037  0.152557  1
  O  O68  1  0.241914  0.517476  0.384977  1
  O  O69  1  0.164092  0.518963  0.847443  1
  O  O70  1  0.538138  0.209062  0.605878  1
  O  O71  1  0.476428  0.882922  0.143532  1
  O  O72  1  0.758086  0.482524  0.615023  1
  O  O73  1  0.345727  0.437356  0.163208  1
  O  O74  1  0.905282  0.986640  0.338049  1
  O  O75  1  0.735865  0.327623  0.817102  1
