# generated using pymatgen
data_SeCl
_symmetry_space_group_name_H-M   'P 1'
_cell_length_a   5.25621171
_cell_length_b   15.06778894
_cell_length_c   7.52997215
_cell_angle_alpha   90.00000000
_cell_angle_beta   96.64136286
_cell_angle_gamma   90.00000000
_symmetry_Int_Tables_number   1
_chemical_formula_structural   SeCl
_chemical_formula_sum   'Se8 Cl8'
_cell_volume   592.36802290
_cell_formula_units_Z   8
loop_
 _symmetry_equiv_pos_site_id
 _symmetry_equiv_pos_as_xyz
  1  'x, y, z'
loop_
 _atom_site_type_symbol
 _atom_site_label
 _atom_site_symmetry_multiplicity
 _atom_site_fract_x
 _atom_site_fract_y
 _atom_site_fract_z
 _atom_site_occupancy
  Se  Se0  1  0.950128  0.860381  0.598917  1
  Se  Se1  1  0.549872  0.360381  0.401083  1
  Se  Se2  1  0.695141  0.554145  0.792215  1
  Se  Se3  1  0.804859  0.054145  0.207785  1
  Se  Se4  1  0.450128  0.639619  0.598917  1
  Se  Se5  1  0.304859  0.445855  0.207785  1
  Se  Se6  1  0.049872  0.139619  0.401083  1
  Se  Se7  1  0.195141  0.945855  0.792215  1
  Cl  Cl8  1  0.633724  0.641371  0.342661  1
  Cl  Cl9  1  0.133724  0.858629  0.342661  1
  Cl  Cl10  1  0.500416  0.142196  0.063328  1
  Cl  Cl11  1  0.000416  0.357804  0.063328  1
  Cl  Cl12  1  0.999584  0.642196  0.936672  1
  Cl  Cl13  1  0.866276  0.141371  0.657339  1
  Cl  Cl14  1  0.366276  0.358629  0.657339  1
  Cl  Cl15  1  0.499584  0.857804  0.936672  1
