# generated using pymatgen
data_KAuF4
_symmetry_space_group_name_H-M   'P 1'
_cell_length_a   7.25491907
_cell_length_b   7.25491907
_cell_length_c   7.25491907
_cell_angle_alpha   129.46781451
_cell_angle_beta   129.46781451
_cell_angle_gamma   74.25899605
_symmetry_Int_Tables_number   1
_chemical_formula_structural   KAuF4
_chemical_formula_sum   'K2 Au2 F8'
_cell_volume   221.85031369
_cell_formula_units_Z   2
loop_
 _symmetry_equiv_pos_site_id
 _symmetry_equiv_pos_as_xyz
  1  'x, y, z'
loop_
 _atom_site_type_symbol
 _atom_site_label
 _atom_site_symmetry_multiplicity
 _atom_site_fract_x
 _atom_site_fract_y
 _atom_site_fract_z
 _atom_site_occupancy
  K  K0  1  0.250000  0.250000  0.000000  1
  K  K1  1  0.750000  0.750000  0.000000  1
  Au  Au2  1  0.500000  1.000000  0.500000  1
  Au  Au3  1  0.000000  0.500000  0.500000  1
  F  F4  1  0.459054  0.959054  0.179512  1
  F  F5  1  0.220458  0.720458  0.179512  1
  F  F6  1  0.540946  0.040946  0.820488  1
  F  F7  1  0.040946  0.220458  0.500000  1
  F  F8  1  0.779542  0.279542  0.820488  1
  F  F9  1  0.279542  0.459054  0.500000  1
  F  F10  1  0.959054  0.779542  0.500000  1
  F  F11  1  0.720458  0.540946  0.500000  1
