# generated using pymatgen
data_PdSeO3
_symmetry_space_group_name_H-M   'P 1'
_cell_length_a   5.07771698
_cell_length_b   5.07771698
_cell_length_c   7.26816612
_cell_angle_alpha   69.67270565
_cell_angle_beta   110.32729435
_cell_angle_gamma   90.87888016
_symmetry_Int_Tables_number   1
_chemical_formula_structural   PdSeO3
_chemical_formula_sum   'Pd2 Se2 O6'
_cell_volume   163.59605862
_cell_formula_units_Z   2
loop_
 _symmetry_equiv_pos_site_id
 _symmetry_equiv_pos_as_xyz
  1  'x, y, z'
loop_
 _atom_site_type_symbol
 _atom_site_label
 _atom_site_symmetry_multiplicity
 _atom_site_fract_x
 _atom_site_fract_y
 _atom_site_fract_z
 _atom_site_occupancy
  Pd  Pd0  1  0.500000  0.000000  0.000000  1
  Pd  Pd1  1  0.000000  0.500000  0.000000  1
  Se  Se2  1  0.333419  0.666581  0.655602  1
  Se  Se3  1  0.666581  0.333419  0.344398  1
  O  O4  1  0.955989  0.434666  0.279965  1
  O  O5  1  0.565334  0.044011  0.279965  1
  O  O6  1  0.389192  0.610808  0.134715  1
  O  O7  1  0.044011  0.565334  0.720035  1
  O  O8  1  0.610808  0.389192  0.865285  1
  O  O9  1  0.434666  0.955989  0.720035  1
