# generated using pymatgen
data_Ga6SnTe10
_symmetry_space_group_name_H-M   'P 1'
_cell_length_a   14.79711234
_cell_length_b   14.79711234
_cell_length_c   18.13149103
_cell_angle_alpha   90.00000000
_cell_angle_beta   90.00000000
_cell_angle_gamma   120.00000000
_symmetry_Int_Tables_number   1
_chemical_formula_structural   Ga6SnTe10
_chemical_formula_sum   'Ga36 Sn6 Te60'
_cell_volume   3438.09674626
_cell_formula_units_Z   6
loop_
 _symmetry_equiv_pos_site_id
 _symmetry_equiv_pos_as_xyz
  1  'x, y, z'
loop_
 _atom_site_type_symbol
 _atom_site_label
 _atom_site_symmetry_multiplicity
 _atom_site_fract_x
 _atom_site_fract_y
 _atom_site_fract_z
 _atom_site_occupancy
  Ga  Ga0  1  0.008005  0.925017  0.414132  1
  Ga  Ga1  1  0.141707  0.921968  0.597338  1
  Ga  Ga2  1  0.257181  0.811633  0.073574  1
  Ga  Ga3  1  0.115392  0.523004  0.934302  1
  Ga  Ga4  1  0.253131  0.676119  0.250728  1
  Ga  Ga5  1  0.252805  0.659729  0.748596  1
  Ga  Ga6  1  0.407612  0.884608  0.600968  1
  Ga  Ga7  1  0.188367  0.445549  0.406908  1
  Ga  Ga8  1  0.078032  0.219739  0.930672  1
  Ga  Ga9  1  0.074983  0.082988  0.747465  1
  Ga  Ga10  1  0.406924  0.747195  0.415263  1
  Ga  Ga11  1  0.323881  0.577012  0.584062  1
  Ga  Ga12  1  0.340271  0.593076  0.081930  1
  Ga  Ga13  1  0.082988  0.074983  0.252535  1
  Ga  Ga14  1  0.422988  0.746869  0.917395  1
  Ga  Ga15  1  0.219739  0.078032  0.069328  1
  Ga  Ga16  1  0.476996  0.592388  0.267635  1
  Ga  Ga17  1  0.554451  0.742819  0.740241  1
  Ga  Ga18  1  0.445549  0.188367  0.593092  1
  Ga  Ga19  1  0.780261  0.858293  0.264005  1
  Ga  Ga20  1  0.592388  0.476996  0.732365  1
  Ga  Ga21  1  0.577012  0.323881  0.415938  1
  Ga  Ga22  1  0.917012  0.991995  0.080799  1
  Ga  Ga23  1  0.593076  0.340271  0.918070  1
  Ga  Ga24  1  0.523004  0.115392  0.065698  1
  Ga  Ga25  1  0.742819  0.554451  0.259759  1
  Ga  Ga26  1  0.858293  0.780261  0.735995  1
  Ga  Ga27  1  0.991995  0.917012  0.919201  1
  Ga  Ga28  1  0.659729  0.252805  0.251404  1
  Ga  Ga29  1  0.746869  0.422988  0.082605  1
  Ga  Ga30  1  0.747195  0.406924  0.584737  1
  Ga  Ga31  1  0.676119  0.253131  0.749272  1
  Ga  Ga32  1  0.884608  0.407612  0.399032  1
  Ga  Ga33  1  0.811633  0.257181  0.926426  1
  Ga  Ga34  1  0.921968  0.141707  0.402662  1
  Ga  Ga35  1  0.925017  0.008005  0.585868  1
  Sn  Sn36  1  0.086032  0.739984  0.844542  1
  Sn  Sn37  1  0.260016  0.346048  0.177875  1
  Sn  Sn38  1  0.653952  0.913968  0.511208  1
  Sn  Sn39  1  0.346048  0.260016  0.822125  1
  Sn  Sn40  1  0.913968  0.653952  0.488792  1
  Sn  Sn41  1  0.739984  0.086032  0.155458  1
  Te  Te42  1  0.034298  0.900743  0.062452  1
  Te  Te43  1  0.250480  0.250480  0.000000  1
  Te  Te44  1  0.000000  0.749520  0.666667  1
  Te  Te45  1  0.141093  0.865799  0.457635  1
  Te  Te46  1  0.083447  0.661812  0.006667  1
  Te  Te47  1  0.060160  0.526148  0.794317  1
  Te  Te48  1  0.217193  0.824450  0.212102  1
  Te  Te49  1  0.330711  0.999015  0.003585  1
  Te  Te50  1  0.000985  0.331696  0.336918  1
  Te  Te51  1  0.198945  0.631936  0.394568  1
  Te  Te52  1  0.234718  0.699022  0.605441  1
  Te  Te53  1  0.171056  0.510216  0.163974  1
  Te  Te54  1  0.000000  0.158701  0.166667  1
  Te  Te55  1  0.339160  0.828944  0.830641  1
  Te  Te56  1  0.175550  0.392743  0.545436  1
  Te  Te57  1  0.134201  0.275294  0.790969  1
  Te  Te58  1  0.465988  0.939840  0.460983  1
  Te  Te59  1  0.432991  0.801055  0.061235  1
  Te  Te60  1  0.099257  0.133555  0.395786  1
  Te  Te61  1  0.300978  0.535696  0.938775  1
  Te  Te62  1  0.464304  0.765282  0.272108  1
  Te  Te63  1  0.133555  0.099257  0.604214  1
  Te  Te64  1  0.368064  0.567009  0.727902  1
  Te  Te65  1  0.578365  0.916553  0.673334  1
  Te  Te66  1  0.338188  0.421635  0.340000  1
  Te  Te67  1  0.158701  0.000000  0.833333  1
  Te  Te68  1  0.489784  0.660840  0.497307  1
  Te  Te69  1  0.473852  0.534012  0.127650  1
  Te  Te70  1  0.275294  0.134201  0.209031  1
  Te  Te71  1  0.607257  0.782807  0.878769  1
  Te  Te72  1  0.421635  0.338188  0.660000  1
  Te  Te73  1  0.724706  0.858907  0.124302  1
  Te  Te74  1  0.534012  0.473852  0.872350  1
  Te  Te75  1  0.392743  0.175550  0.454564  1
  Te  Te76  1  0.331696  0.000985  0.663082  1
  Te  Te77  1  0.668304  0.669289  0.670252  1
  Te  Te78  1  0.669289  0.668304  0.329748  1
  Te  Te79  1  0.866445  0.965702  0.729119  1
  Te  Te80  1  0.567009  0.368064  0.272098  1
  Te  Te81  1  0.535696  0.300978  0.061225  1
  Te  Te82  1  0.660840  0.489784  0.502693  1
  Te  Te83  1  0.841299  0.841299  0.500000  1
  Te  Te84  1  0.510216  0.171056  0.836026  1
  Te  Te85  1  0.782807  0.607257  0.121231  1
  Te  Te86  1  0.858907  0.724706  0.875698  1
  Te  Te87  1  0.526148  0.060160  0.205683  1
  Te  Te88  1  0.631936  0.198945  0.605432  1
  Te  Te89  1  0.965702  0.866445  0.270881  1
  Te  Te90  1  0.765282  0.464304  0.727892  1
  Te  Te91  1  0.699022  0.234718  0.394559  1
  Te  Te92  1  0.801055  0.432991  0.938765  1
  Te  Te93  1  0.661812  0.083447  0.993333  1
  Te  Te94  1  0.916553  0.578365  0.326666  1
  Te  Te95  1  0.828944  0.339160  0.169359  1
  Te  Te96  1  0.939840  0.465988  0.539017  1
  Te  Te97  1  0.824450  0.217193  0.787898  1
  Te  Te98  1  0.749520  0.000000  0.333333  1
  Te  Te99  1  0.865799  0.141093  0.542365  1
  Te  Te100  1  0.999015  0.330711  0.996415  1
  Te  Te101  1  0.900743  0.034298  0.937548  1
