# generated using pymatgen
data_SrFeF5
_symmetry_space_group_name_H-M   'P 1'
_cell_length_a   7.15839499
_cell_length_b   7.41020682
_cell_length_c   14.93160234
_cell_angle_alpha   90.00000000
_cell_angle_beta   95.40360626
_cell_angle_gamma   90.00000000
_symmetry_Int_Tables_number   1
_chemical_formula_structural   SrFeF5
_chemical_formula_sum   'Sr8 Fe8 F40'
_cell_volume   788.52980600
_cell_formula_units_Z   8
loop_
 _symmetry_equiv_pos_site_id
 _symmetry_equiv_pos_as_xyz
  1  'x, y, z'
loop_
 _atom_site_type_symbol
 _atom_site_label
 _atom_site_symmetry_multiplicity
 _atom_site_fract_x
 _atom_site_fract_y
 _atom_site_fract_z
 _atom_site_occupancy
  Sr  Sr0  1  0.999134  0.157925  0.362467  1
  Sr  Sr1  1  0.000866  0.657925  0.137533  1
  Sr  Sr2  1  0.000866  0.842075  0.637533  1
  Sr  Sr3  1  0.999134  0.342075  0.862467  1
  Sr  Sr4  1  0.314125  0.654346  0.412916  1
  Sr  Sr5  1  0.685875  0.154346  0.087084  1
  Sr  Sr6  1  0.685875  0.345654  0.587084  1
  Sr  Sr7  1  0.314125  0.845654  0.912916  1
  Fe  Fe8  1  0.188562  0.184239  0.124742  1
  Fe  Fe9  1  0.811438  0.684239  0.375258  1
  Fe  Fe10  1  0.811438  0.815761  0.875258  1
  Fe  Fe11  1  0.188562  0.315761  0.624742  1
  Fe  Fe12  1  0.493001  0.116635  0.338667  1
  Fe  Fe13  1  0.506999  0.616635  0.161333  1
  Fe  Fe14  1  0.506999  0.883365  0.661333  1
  Fe  Fe15  1  0.493001  0.383365  0.838667  1
  F  F16  1  0.043202  0.321873  0.032811  1
  F  F17  1  0.956798  0.821873  0.467189  1
  F  F18  1  0.956798  0.678127  0.967189  1
  F  F19  1  0.043202  0.178127  0.532811  1
  F  F20  1  0.346448  0.075520  0.041230  1
  F  F21  1  0.653552  0.575520  0.458770  1
  F  F22  1  0.653552  0.924480  0.958770  1
  F  F23  1  0.346448  0.424480  0.541230  1
  F  F24  1  0.394629  0.363739  0.143923  1
  F  F25  1  0.605371  0.863739  0.356077  1
  F  F26  1  0.605371  0.636261  0.856077  1
  F  F27  1  0.394629  0.136261  0.643923  1
  F  F28  1  0.033046  0.309558  0.206245  1
  F  F29  1  0.966954  0.809558  0.293755  1
  F  F30  1  0.966954  0.690442  0.793755  1
  F  F31  1  0.033046  0.190442  0.706245  1
  F  F32  1  0.299571  0.504592  0.901424  1
  F  F33  1  0.700429  0.004592  0.598576  1
  F  F34  1  0.700429  0.495408  0.098576  1
  F  F35  1  0.299571  0.995408  0.401424  1
  F  F36  1  0.680757  0.305951  0.932430  1
  F  F37  1  0.319243  0.805951  0.567570  1
  F  F38  1  0.319243  0.694049  0.067570  1
  F  F39  1  0.680757  0.194049  0.432430  1
  F  F40  1  0.687358  0.340568  0.758306  1
  F  F41  1  0.312642  0.840568  0.741694  1
  F  F42  1  0.312642  0.659432  0.241694  1
  F  F43  1  0.687358  0.159432  0.258306  1
  F  F44  1  0.319787  0.445642  0.727942  1
  F  F45  1  0.680213  0.945642  0.772058  1
  F  F46  1  0.680213  0.554358  0.272058  1
  F  F47  1  0.319787  0.054358  0.227942  1
  F  F48  1  0.345805  0.170847  0.850991  1
  F  F49  1  0.654195  0.670847  0.649009  1
  F  F50  1  0.654195  0.829153  0.149009  1
  F  F51  1  0.345805  0.329153  0.350991  1
  F  F52  1  0.001538  0.507692  0.609986  1
  F  F53  1  0.998462  0.007692  0.890014  1
  F  F54  1  0.998462  0.492308  0.390014  1
  F  F55  1  0.001538  0.992308  0.109986  1
