# generated using pymatgen
data_Cs2Si2Se5
_symmetry_space_group_name_H-M   'P 1'
_cell_length_a   11.92558623
_cell_length_b   11.92558623
_cell_length_c   9.91085728
_cell_angle_alpha   81.37578225
_cell_angle_beta   98.62421775
_cell_angle_gamma   89.72411337
_symmetry_Int_Tables_number   1
_chemical_formula_structural   Cs2Si2Se5
_chemical_formula_sum   'Cs8 Si8 Se20'
_cell_volume   1377.28634787
_cell_formula_units_Z   4
loop_
 _symmetry_equiv_pos_site_id
 _symmetry_equiv_pos_as_xyz
  1  'x, y, z'
loop_
 _atom_site_type_symbol
 _atom_site_label
 _atom_site_symmetry_multiplicity
 _atom_site_fract_x
 _atom_site_fract_y
 _atom_site_fract_z
 _atom_site_occupancy
  Cs  Cs0  1  0.023103  0.712590  0.370334  1
  Cs  Cs1  1  0.712590  0.023103  0.129666  1
  Cs  Cs2  1  0.976897  0.287410  0.629666  1
  Cs  Cs3  1  0.287410  0.976897  0.870334  1
  Cs  Cs4  1  0.290924  0.549263  0.877626  1
  Cs  Cs5  1  0.549263  0.290924  0.622374  1
  Cs  Cs6  1  0.709076  0.450737  0.122374  1
  Cs  Cs7  1  0.450737  0.709076  0.377626  1
  Si  Si8  1  0.231969  0.358131  0.383854  1
  Si  Si9  1  0.358131  0.231969  0.116146  1
  Si  Si10  1  0.768031  0.641869  0.616146  1
  Si  Si11  1  0.641869  0.768031  0.883854  1
  Si  Si12  1  0.959623  0.766274  0.886077  1
  Si  Si13  1  0.766274  0.959623  0.613923  1
  Si  Si14  1  0.040377  0.233726  0.113923  1
  Si  Si15  1  0.233726  0.040377  0.386077  1
  Se  Se16  1  0.123655  0.745902  0.022872  1
  Se  Se17  1  0.745902  0.123655  0.477128  1
  Se  Se18  1  0.876345  0.254098  0.977128  1
  Se  Se19  1  0.254098  0.876345  0.522872  1
  Se  Se20  1  0.252632  0.489567  0.520050  1
  Se  Se21  1  0.489567  0.252632  0.979950  1
  Se  Se22  1  0.747368  0.510433  0.479950  1
  Se  Se23  1  0.510433  0.747368  0.020050  1
  Se  Se24  1  0.944357  0.620351  0.751896  1
  Se  Se25  1  0.620351  0.944357  0.748104  1
  Se  Se26  1  0.055643  0.379649  0.248104  1
  Se  Se27  1  0.379649  0.055643  0.251896  1
  Se  Se28  1  0.817101  0.746470  0.025765  1
  Se  Se29  1  0.746470  0.817101  0.474235  1
  Se  Se30  1  0.182899  0.253530  0.974235  1
  Se  Se31  1  0.253530  0.182899  0.525765  1
  Se  Se32  1  0.943236  0.943236  0.750000  1
  Se  Se33  1  0.056764  0.056764  0.250000  1
  Se  Se34  1  0.377766  0.377766  0.250000  1
  Se  Se35  1  0.622234  0.622234  0.750000  1
