# generated using pymatgen
data_NCl3
_symmetry_space_group_name_H-M   'P 1'
_cell_length_a   8.50966053
_cell_length_b   9.86615825
_cell_length_c   17.43019570
_cell_angle_alpha   90.00000000
_cell_angle_beta   90.00000000
_cell_angle_gamma   90.00000000
_symmetry_Int_Tables_number   1
_chemical_formula_structural   NCl3
_chemical_formula_sum   'N12 Cl36'
_cell_volume   1463.39839974
_cell_formula_units_Z   12
loop_
 _symmetry_equiv_pos_site_id
 _symmetry_equiv_pos_as_xyz
  1  'x, y, z'
loop_
 _atom_site_type_symbol
 _atom_site_label
 _atom_site_symmetry_multiplicity
 _atom_site_fract_x
 _atom_site_fract_y
 _atom_site_fract_z
 _atom_site_occupancy
  N  N0  1  0.888487  0.250000  0.050967  1
  N  N1  1  0.388487  0.250000  0.449033  1
  N  N2  1  0.111513  0.750000  0.949033  1
  N  N3  1  0.611513  0.750000  0.550967  1
  N  N4  1  0.804950  0.250000  0.348775  1
  N  N5  1  0.304950  0.250000  0.151225  1
  N  N6  1  0.195050  0.750000  0.651225  1
  N  N7  1  0.695050  0.750000  0.848775  1
  N  N8  1  0.034576  0.250000  0.695352  1
  N  N9  1  0.534576  0.250000  0.804648  1
  N  N10  1  0.965424  0.750000  0.304648  1
  N  N11  1  0.465424  0.750000  0.195352  1
  Cl  Cl12  1  0.775748  0.103880  0.075682  1
  Cl  Cl13  1  0.275748  0.396120  0.424318  1
  Cl  Cl14  1  0.224252  0.603880  0.924318  1
  Cl  Cl15  1  0.724252  0.896120  0.575682  1
  Cl  Cl16  1  0.224252  0.896120  0.924318  1
  Cl  Cl17  1  0.724252  0.603880  0.575682  1
  Cl  Cl18  1  0.775748  0.396120  0.075682  1
  Cl  Cl19  1  0.275748  0.103880  0.424318  1
  Cl  Cl20  1  0.913198  0.250000  0.949628  1
  Cl  Cl21  1  0.413198  0.250000  0.550372  1
  Cl  Cl22  1  0.086802  0.750000  0.050372  1
  Cl  Cl23  1  0.586802  0.750000  0.449628  1
  Cl  Cl24  1  0.782189  0.104579  0.408326  1
  Cl  Cl25  1  0.282189  0.395421  0.091674  1
  Cl  Cl26  1  0.217811  0.604579  0.591674  1
  Cl  Cl27  1  0.717811  0.895421  0.908326  1
  Cl  Cl28  1  0.217811  0.895421  0.591674  1
  Cl  Cl29  1  0.717811  0.604579  0.908326  1
  Cl  Cl30  1  0.782189  0.395421  0.408326  1
  Cl  Cl31  1  0.282189  0.104579  0.091674  1
  Cl  Cl32  1  0.647306  0.250000  0.281067  1
  Cl  Cl33  1  0.147306  0.250000  0.218933  1
  Cl  Cl34  1  0.352694  0.750000  0.718933  1
  Cl  Cl35  1  0.852694  0.750000  0.781067  1
  Cl  Cl36  1  0.979076  0.104394  0.749417  1
  Cl  Cl37  1  0.479076  0.395606  0.750583  1
  Cl  Cl38  1  0.020924  0.604394  0.250583  1
  Cl  Cl39  1  0.520924  0.895606  0.249417  1
  Cl  Cl40  1  0.020924  0.895606  0.250583  1
  Cl  Cl41  1  0.520924  0.604394  0.249417  1
  Cl  Cl42  1  0.979076  0.395606  0.749417  1
  Cl  Cl43  1  0.479076  0.104394  0.750583  1
  Cl  Cl44  1  0.919686  0.250000  0.609131  1
  Cl  Cl45  1  0.419686  0.250000  0.890869  1
  Cl  Cl46  1  0.080314  0.750000  0.390869  1
  Cl  Cl47  1  0.580314  0.750000  0.109131  1
