# generated using pymatgen
data_CoAsSe
_symmetry_space_group_name_H-M   'P 1'
_cell_length_a   5.77364933
_cell_length_b   5.86115907
_cell_length_c   11.53086855
_cell_angle_alpha   90.00000000
_cell_angle_beta   90.00000000
_cell_angle_gamma   90.00000000
_symmetry_Int_Tables_number   1
_chemical_formula_structural   CoAsSe
_chemical_formula_sum   'Co8 As8 Se8'
_cell_volume   390.20778737
_cell_formula_units_Z   8
loop_
 _symmetry_equiv_pos_site_id
 _symmetry_equiv_pos_as_xyz
  1  'x, y, z'
loop_
 _atom_site_type_symbol
 _atom_site_label
 _atom_site_symmetry_multiplicity
 _atom_site_fract_x
 _atom_site_fract_y
 _atom_site_fract_z
 _atom_site_occupancy
  Co  Co0  1  0.002516  0.175264  0.372774  1
  Co  Co1  1  0.502516  0.324736  0.627226  1
  Co  Co2  1  0.997484  0.675264  0.127226  1
  Co  Co3  1  0.497484  0.824736  0.872774  1
  Co  Co4  1  0.997484  0.824736  0.627226  1
  Co  Co5  1  0.497484  0.675264  0.372774  1
  Co  Co6  1  0.002516  0.324736  0.872774  1
  Co  Co7  1  0.502516  0.175264  0.127226  1
  As  As8  1  0.366347  0.315489  0.435109  1
  As  As9  1  0.866347  0.184511  0.564891  1
  As  As10  1  0.633653  0.815489  0.064891  1
  As  As11  1  0.133653  0.684511  0.935109  1
  As  As12  1  0.633653  0.684511  0.564891  1
  As  As13  1  0.133653  0.815489  0.435109  1
  As  As14  1  0.366347  0.184511  0.935109  1
  As  As15  1  0.866347  0.315489  0.064891  1
  Se  Se16  1  0.121960  0.057245  0.180279  1
  Se  Se17  1  0.621960  0.442755  0.819721  1
  Se  Se18  1  0.878040  0.557245  0.319721  1
  Se  Se19  1  0.378040  0.942755  0.680279  1
  Se  Se20  1  0.878040  0.942755  0.819721  1
  Se  Se21  1  0.378040  0.557245  0.180279  1
  Se  Se22  1  0.121960  0.442755  0.680279  1
  Se  Se23  1  0.621960  0.057245  0.319721  1
