# generated using pymatgen
data_KSm2Sb3Se8
_symmetry_space_group_name_H-M   'P 1'
_cell_length_a   4.13961035
_cell_length_b   17.13508840
_cell_length_c   22.31865922
_cell_angle_alpha   90.00000000
_cell_angle_beta   90.00000000
_cell_angle_gamma   90.00000000
_symmetry_Int_Tables_number   1
_chemical_formula_structural   KSm2Sb3Se8
_chemical_formula_sum   'K4 Sm8 Sb12 Se32'
_cell_volume   1583.12028793
_cell_formula_units_Z   4
loop_
 _symmetry_equiv_pos_site_id
 _symmetry_equiv_pos_as_xyz
  1  'x, y, z'
loop_
 _atom_site_type_symbol
 _atom_site_label
 _atom_site_symmetry_multiplicity
 _atom_site_fract_x
 _atom_site_fract_y
 _atom_site_fract_z
 _atom_site_occupancy
  K  K0  1  0.750000  0.297736  0.255930  1
  K  K1  1  0.250000  0.702264  0.744070  1
  K  K2  1  0.750000  0.797736  0.244070  1
  K  K3  1  0.250000  0.202264  0.755930  1
  Sm  Sm4  1  0.750000  0.963285  0.410210  1
  Sm  Sm5  1  0.750000  0.463285  0.089790  1
  Sm  Sm6  1  0.250000  0.291156  0.955455  1
  Sm  Sm7  1  0.250000  0.536715  0.910210  1
  Sm  Sm8  1  0.250000  0.791156  0.544545  1
  Sm  Sm9  1  0.750000  0.708844  0.044545  1
  Sm  Sm10  1  0.750000  0.208844  0.455455  1
  Sm  Sm11  1  0.250000  0.036715  0.589790  1
  Sb  Sb12  1  0.250000  0.422827  0.413109  1
  Sb  Sb13  1  0.250000  0.035877  0.257817  1
  Sb  Sb14  1  0.250000  0.355351  0.599474  1
  Sb  Sb15  1  0.750000  0.644649  0.400526  1
  Sb  Sb16  1  0.250000  0.855351  0.900526  1
  Sb  Sb17  1  0.250000  0.535877  0.242183  1
  Sb  Sb18  1  0.750000  0.464123  0.757817  1
  Sb  Sb19  1  0.750000  0.577173  0.586891  1
  Sb  Sb20  1  0.750000  0.144649  0.099474  1
  Sb  Sb21  1  0.750000  0.077173  0.913109  1
  Sb  Sb22  1  0.750000  0.964123  0.742183  1
  Sb  Sb23  1  0.250000  0.922827  0.086891  1
  Se  Se24  1  0.250000  0.896926  0.675933  1
  Se  Se25  1  0.250000  0.211650  0.552669  1
  Se  Se26  1  0.250000  0.618085  0.502526  1
  Se  Se27  1  0.250000  0.678976  0.323691  1
  Se  Se28  1  0.250000  0.118085  0.997474  1
  Se  Se29  1  0.750000  0.288350  0.052669  1
  Se  Se30  1  0.250000  0.528140  0.670324  1
  Se  Se31  1  0.750000  0.222198  0.874305  1
  Se  Se32  1  0.750000  0.881915  0.002526  1
  Se  Se33  1  0.750000  0.321024  0.676309  1
  Se  Se34  1  0.750000  0.603074  0.175933  1
  Se  Se35  1  0.750000  0.925638  0.541937  1
  Se  Se36  1  0.250000  0.406653  0.169314  1
  Se  Se37  1  0.750000  0.821024  0.823691  1
  Se  Se38  1  0.250000  0.028140  0.829676  1
  Se  Se39  1  0.750000  0.103074  0.324067  1
  Se  Se40  1  0.250000  0.906653  0.330686  1
  Se  Se41  1  0.250000  0.777802  0.125695  1
  Se  Se42  1  0.750000  0.971860  0.170324  1
  Se  Se43  1  0.250000  0.074362  0.458063  1
  Se  Se44  1  0.750000  0.593347  0.830686  1
  Se  Se45  1  0.250000  0.711650  0.947331  1
  Se  Se46  1  0.250000  0.178976  0.176309  1
  Se  Se47  1  0.250000  0.396926  0.824067  1
  Se  Se48  1  0.750000  0.722198  0.625695  1
  Se  Se49  1  0.750000  0.381915  0.497474  1
  Se  Se50  1  0.750000  0.093347  0.669314  1
  Se  Se51  1  0.750000  0.471860  0.329676  1
  Se  Se52  1  0.250000  0.277802  0.374305  1
  Se  Se53  1  0.250000  0.574362  0.041937  1
  Se  Se54  1  0.750000  0.425638  0.958063  1
  Se  Se55  1  0.750000  0.788350  0.447331  1
