# generated using pymatgen
data_KSbSe2
_symmetry_space_group_name_H-M   'P 1'
_cell_length_a   6.64996046
_cell_length_b   6.66023679
_cell_length_c   12.67121055
_cell_angle_alpha   99.11698497
_cell_angle_beta   99.30306898
_cell_angle_gamma   103.05946089
_symmetry_Int_Tables_number   1
_chemical_formula_structural   KSbSe2
_chemical_formula_sum   'K4 Sb4 Se8'
_cell_volume   528.29257998
_cell_formula_units_Z   4
loop_
 _symmetry_equiv_pos_site_id
 _symmetry_equiv_pos_as_xyz
  1  'x, y, z'
loop_
 _atom_site_type_symbol
 _atom_site_label
 _atom_site_symmetry_multiplicity
 _atom_site_fract_x
 _atom_site_fract_y
 _atom_site_fract_z
 _atom_site_occupancy
  K  K0  1  0.579558  0.767559  0.410816  1
  K  K1  1  0.420442  0.232441  0.589184  1
  K  K2  1  0.933638  0.179130  0.847097  1
  K  K3  1  0.066362  0.820870  0.152903  1
  Sb  Sb4  1  0.921830  0.312411  0.353833  1
  Sb  Sb5  1  0.501686  0.720928  0.914130  1
  Sb  Sb6  1  0.498314  0.279072  0.085870  1
  Sb  Sb7  1  0.078170  0.687589  0.646167  1
  Se  Se8  1  0.941972  0.294181  0.592537  1
  Se  Se9  1  0.514962  0.251208  0.325324  1
  Se  Se10  1  0.471994  0.320309  0.866285  1
  Se  Se11  1  0.892232  0.286441  0.122680  1
  Se  Se12  1  0.058028  0.705819  0.407463  1
  Se  Se13  1  0.107768  0.713559  0.877320  1
  Se  Se14  1  0.528006  0.679691  0.133715  1
  Se  Se15  1  0.485038  0.748792  0.674676  1
