# generated using pymatgen
data_Cs3AlO3
_symmetry_space_group_name_H-M   'P 1'
_cell_length_a   7.28388945
_cell_length_b   13.05653491
_cell_length_c   8.02173312
_cell_angle_alpha   90.00000000
_cell_angle_beta   114.16999820
_cell_angle_gamma   90.00000000
_symmetry_Int_Tables_number   1
_chemical_formula_structural   Cs3AlO3
_chemical_formula_sum   'Cs12 Al4 O12'
_cell_volume   696.00707332
_cell_formula_units_Z   4
loop_
 _symmetry_equiv_pos_site_id
 _symmetry_equiv_pos_as_xyz
  1  'x, y, z'
loop_
 _atom_site_type_symbol
 _atom_site_label
 _atom_site_symmetry_multiplicity
 _atom_site_fract_x
 _atom_site_fract_y
 _atom_site_fract_z
 _atom_site_occupancy
  Cs  Cs0  1  0.863203  0.695456  0.072490  1
  Cs  Cs1  1  0.558537  0.350587  0.483256  1
  Cs  Cs2  1  0.136797  0.304544  0.927510  1
  Cs  Cs3  1  0.941463  0.850587  0.516744  1
  Cs  Cs4  1  0.636797  0.195456  0.927510  1
  Cs  Cs5  1  0.017464  0.560764  0.728131  1
  Cs  Cs6  1  0.363203  0.804544  0.072490  1
  Cs  Cs7  1  0.441463  0.649413  0.516744  1
  Cs  Cs8  1  0.482536  0.060764  0.271869  1
  Cs  Cs9  1  0.517464  0.939236  0.728131  1
  Cs  Cs10  1  0.982536  0.439236  0.271869  1
  Cs  Cs11  1  0.058537  0.149413  0.483256  1
  Al  Al12  1  0.513948  0.455314  0.859649  1
  Al  Al13  1  0.486052  0.544686  0.140351  1
  Al  Al14  1  0.013948  0.044686  0.859649  1
  Al  Al15  1  0.986052  0.955314  0.140351  1
  O  O16  1  0.196954  0.900964  0.323916  1
  O  O17  1  0.532433  0.412083  0.086271  1
  O  O18  1  0.032433  0.087917  0.086271  1
  O  O19  1  0.241088  0.061690  0.832369  1
  O  O20  1  0.803046  0.099036  0.676084  1
  O  O21  1  0.303046  0.400964  0.676084  1
  O  O22  1  0.696954  0.599036  0.323916  1
  O  O23  1  0.967567  0.912083  0.913729  1
  O  O24  1  0.258912  0.561690  0.167631  1
  O  O25  1  0.741088  0.438310  0.832369  1
  O  O26  1  0.467567  0.587917  0.913729  1
  O  O27  1  0.758912  0.938310  0.167631  1
