# generated using pymatgen
data_TiTlPS5
_symmetry_space_group_name_H-M   'P 1'
_cell_length_a   6.74694404
_cell_length_b   7.11729242
_cell_length_c   9.40704617
_cell_angle_alpha   106.78026200
_cell_angle_beta   99.71960538
_cell_angle_gamma   91.61313634
_symmetry_Int_Tables_number   1
_chemical_formula_structural   TiTlPS5
_chemical_formula_sum   'Ti2 Tl2 P2 S10'
_cell_volume   424.86565540
_cell_formula_units_Z   2
loop_
 _symmetry_equiv_pos_site_id
 _symmetry_equiv_pos_as_xyz
  1  'x, y, z'
loop_
 _atom_site_type_symbol
 _atom_site_label
 _atom_site_symmetry_multiplicity
 _atom_site_fract_x
 _atom_site_fract_y
 _atom_site_fract_z
 _atom_site_occupancy
  Ti  Ti0  1  0.503084  0.276965  0.000538  1
  Ti  Ti1  1  0.496916  0.723035  0.999462  1
  Tl  Tl2  1  0.727256  0.692330  0.441963  1
  Tl  Tl3  1  0.272744  0.307670  0.558037  1
  P  P4  1  0.283803  0.894146  0.732816  1
  P  P5  1  0.716197  0.105854  0.267184  1
  S  S6  1  0.174576  0.692540  0.826444  1
  S  S7  1  0.345299  0.542681  0.125375  1
  S  S8  1  0.410155  0.061223  0.169300  1
  S  S9  1  0.589845  0.938777  0.830700  1
  S  S10  1  0.177380  0.161744  0.830321  1
  S  S11  1  0.772721  0.190004  0.491780  1
  S  S12  1  0.654701  0.457319  0.874625  1
  S  S13  1  0.227279  0.809996  0.508220  1
  S  S14  1  0.822620  0.838256  0.169679  1
  S  S15  1  0.825424  0.307460  0.173556  1
