# generated using pymatgen
data_Rb10Si6O17
_symmetry_space_group_name_H-M   'P 1'
_cell_length_a   13.01633467
_cell_length_b   13.80648173
_cell_length_c   14.00063286
_cell_angle_alpha   90.00000000
_cell_angle_beta   90.00000000
_cell_angle_gamma   90.00000000
_symmetry_Int_Tables_number   1
_chemical_formula_structural   Rb10Si6O17
_chemical_formula_sum   'Rb40 Si24 O68'
_cell_volume   2516.05074652
_cell_formula_units_Z   4
loop_
 _symmetry_equiv_pos_site_id
 _symmetry_equiv_pos_as_xyz
  1  'x, y, z'
loop_
 _atom_site_type_symbol
 _atom_site_label
 _atom_site_symmetry_multiplicity
 _atom_site_fract_x
 _atom_site_fract_y
 _atom_site_fract_z
 _atom_site_occupancy
  Rb  Rb0  1  0.470130  0.783413  0.859415  1
  Rb  Rb1  1  0.710099  0.711640  0.060901  1
  Rb  Rb2  1  0.149904  0.965093  0.460811  1
  Rb  Rb3  1  0.063909  0.989619  0.774932  1
  Rb  Rb4  1  0.563909  0.510381  0.225068  1
  Rb  Rb5  1  0.850096  0.465093  0.039189  1
  Rb  Rb6  1  0.201887  0.624940  0.707762  1
  Rb  Rb7  1  0.289901  0.288360  0.939099  1
  Rb  Rb8  1  0.563909  0.989619  0.725068  1
  Rb  Rb9  1  0.529870  0.216587  0.140585  1
  Rb  Rb10  1  0.970130  0.716587  0.140585  1
  Rb  Rb11  1  0.470130  0.716587  0.359415  1
  Rb  Rb12  1  0.029870  0.216587  0.359415  1
  Rb  Rb13  1  0.789901  0.288360  0.560901  1
  Rb  Rb14  1  0.298113  0.124940  0.707762  1
  Rb  Rb15  1  0.529870  0.283413  0.640585  1
  Rb  Rb16  1  0.710099  0.788360  0.560901  1
  Rb  Rb17  1  0.649904  0.965093  0.039189  1
  Rb  Rb18  1  0.936091  0.489619  0.725068  1
  Rb  Rb19  1  0.649904  0.534907  0.539189  1
  Rb  Rb20  1  0.063909  0.510381  0.274932  1
  Rb  Rb21  1  0.798113  0.375060  0.292238  1
  Rb  Rb22  1  0.798113  0.124940  0.792238  1
  Rb  Rb23  1  0.298113  0.375060  0.207762  1
  Rb  Rb24  1  0.289901  0.211640  0.439099  1
  Rb  Rb25  1  0.970130  0.783413  0.640585  1
  Rb  Rb26  1  0.789901  0.211640  0.060901  1
  Rb  Rb27  1  0.149904  0.534907  0.960811  1
  Rb  Rb28  1  0.201887  0.875060  0.207762  1
  Rb  Rb29  1  0.210099  0.788360  0.939099  1
  Rb  Rb30  1  0.701887  0.624940  0.792238  1
  Rb  Rb31  1  0.436091  0.489619  0.774932  1
  Rb  Rb32  1  0.701887  0.875060  0.292238  1
  Rb  Rb33  1  0.436091  0.010381  0.274932  1
  Rb  Rb34  1  0.350096  0.465093  0.460811  1
  Rb  Rb35  1  0.210099  0.711640  0.439099  1
  Rb  Rb36  1  0.350096  0.034907  0.960811  1
  Rb  Rb37  1  0.936091  0.010381  0.225068  1
  Rb  Rb38  1  0.850096  0.034907  0.539189  1
  Rb  Rb39  1  0.029870  0.283413  0.859415  1
  Si  Si40  1  0.917720  0.909720  0.986990  1
  Si  Si41  1  0.444730  0.783209  0.113815  1
  Si  Si42  1  0.555270  0.216791  0.886185  1
  Si  Si43  1  0.055270  0.216791  0.613815  1
  Si  Si44  1  0.582280  0.409720  0.986990  1
  Si  Si45  1  0.717759  0.130930  0.316533  1
  Si  Si46  1  0.444730  0.716791  0.613815  1
  Si  Si47  1  0.282241  0.869070  0.683467  1
  Si  Si48  1  0.082280  0.090280  0.013010  1
  Si  Si49  1  0.217759  0.369070  0.683467  1
  Si  Si50  1  0.917720  0.590280  0.486990  1
  Si  Si51  1  0.055270  0.283209  0.113815  1
  Si  Si52  1  0.417720  0.909720  0.513010  1
  Si  Si53  1  0.217759  0.130930  0.183467  1
  Si  Si54  1  0.944730  0.783209  0.386185  1
  Si  Si55  1  0.282241  0.630930  0.183467  1
  Si  Si56  1  0.417720  0.590280  0.013010  1
  Si  Si57  1  0.082280  0.409720  0.513010  1
  Si  Si58  1  0.782241  0.630930  0.316533  1
  Si  Si59  1  0.582280  0.090280  0.486990  1
  Si  Si60  1  0.717759  0.369070  0.816533  1
  Si  Si61  1  0.782241  0.869070  0.816533  1
  Si  Si62  1  0.944730  0.716791  0.886185  1
  Si  Si63  1  0.555270  0.283209  0.386185  1
  O  O64  1  0.354401  0.887310  0.417723  1
  O  O65  1  0.039864  0.674439  0.825169  1
  O  O66  1  0.358388  0.730464  0.188147  1
  O  O67  1  0.145599  0.387310  0.417723  1
  O  O68  1  0.346580  0.943713  0.605893  1
  O  O69  1  0.386583  0.641987  0.543822  1
  O  O70  1  0.539864  0.674439  0.674831  1
  O  O71  1  0.858388  0.769536  0.811853  1
  O  O72  1  0.171720  0.657768  0.138397  1
  O  O73  1  0.283829  0.578868  0.286908  1
  O  O74  1  0.511665  0.184500  0.450160  1
  O  O75  1  0.783829  0.921132  0.713092  1
  O  O76  1  0.511665  0.315500  0.950160  1
  O  O77  1  0.641612  0.230464  0.311853  1
  O  O78  1  0.716171  0.421132  0.713092  1
  O  O79  1  0.153420  0.056287  0.105893  1
  O  O80  1  0.346580  0.556287  0.105893  1
  O  O81  1  0.846580  0.943713  0.894107  1
  O  O82  1  0.460136  0.325561  0.325169  1
  O  O83  1  0.011665  0.315500  0.549840  1
  O  O84  1  0.854401  0.612690  0.582277  1
  O  O85  1  0.216171  0.078868  0.286908  1
  O  O86  1  0.783829  0.578868  0.213092  1
  O  O87  1  0.153420  0.443713  0.605893  1
  O  O88  1  0.145599  0.112690  0.917723  1
  O  O89  1  0.846580  0.556287  0.394107  1
  O  O90  1  0.988335  0.684500  0.450160  1
  O  O91  1  0.328280  0.157768  0.138397  1
  O  O92  1  0.113417  0.141987  0.543822  1
  O  O93  1  0.988335  0.815500  0.950160  1
  O  O94  1  0.011665  0.184500  0.049840  1
  O  O95  1  0.671720  0.842232  0.861603  1
  O  O96  1  0.716171  0.078868  0.213092  1
  O  O97  1  0.000000  0.000000  0.000000  1
  O  O98  1  0.539864  0.825561  0.174831  1
  O  O99  1  0.500000  0.000000  0.500000  1
  O  O100  1  0.854401  0.887310  0.082277  1
  O  O101  1  0.653420  0.056287  0.394107  1
  O  O102  1  0.671720  0.657768  0.361603  1
  O  O103  1  0.613417  0.358013  0.456178  1
  O  O104  1  0.460136  0.174439  0.825169  1
  O  O105  1  0.828280  0.342232  0.861603  1
  O  O106  1  0.328280  0.342232  0.638397  1
  O  O107  1  0.960136  0.325561  0.174831  1
  O  O108  1  0.488335  0.684500  0.049840  1
  O  O109  1  0.488335  0.815500  0.549840  1
  O  O110  1  0.613417  0.141987  0.956178  1
  O  O111  1  0.000000  0.500000  0.500000  1
  O  O112  1  0.500000  0.500000  0.000000  1
  O  O113  1  0.960136  0.174439  0.674831  1
  O  O114  1  0.653420  0.443713  0.894107  1
  O  O115  1  0.113417  0.358013  0.043822  1
  O  O116  1  0.354401  0.612690  0.917723  1
  O  O117  1  0.645599  0.112690  0.582277  1
  O  O118  1  0.386583  0.858013  0.043822  1
  O  O119  1  0.886583  0.858013  0.456178  1
  O  O120  1  0.828280  0.157768  0.361603  1
  O  O121  1  0.641612  0.269536  0.811853  1
  O  O122  1  0.216171  0.421132  0.786908  1
  O  O123  1  0.358388  0.769536  0.688147  1
  O  O124  1  0.645599  0.387310  0.082277  1
  O  O125  1  0.283829  0.921132  0.786908  1
  O  O126  1  0.141612  0.230464  0.188147  1
  O  O127  1  0.171720  0.842232  0.638397  1
  O  O128  1  0.858388  0.730464  0.311853  1
  O  O129  1  0.039864  0.825561  0.325169  1
  O  O130  1  0.141612  0.269536  0.688147  1
  O  O131  1  0.886583  0.641987  0.956178  1
