# generated using pymatgen
data_RbScAs2O7
_symmetry_space_group_name_H-M   'P 1'
_cell_length_a   7.97333435
_cell_length_b   10.79834299
_cell_length_c   8.93610896
_cell_angle_alpha   90.00000000
_cell_angle_beta   106.51740888
_cell_angle_gamma   90.00000000
_symmetry_Int_Tables_number   1
_chemical_formula_structural   RbScAs2O7
_chemical_formula_sum   'Rb4 Sc4 As8 O28'
_cell_volume   737.63820865
_cell_formula_units_Z   4
loop_
 _symmetry_equiv_pos_site_id
 _symmetry_equiv_pos_as_xyz
  1  'x, y, z'
loop_
 _atom_site_type_symbol
 _atom_site_label
 _atom_site_symmetry_multiplicity
 _atom_site_fract_x
 _atom_site_fract_y
 _atom_site_fract_z
 _atom_site_occupancy
  Rb  Rb0  1  0.827651  0.180239  0.449960  1
  Rb  Rb1  1  0.827651  0.319761  0.949960  1
  Rb  Rb2  1  0.172349  0.819761  0.550040  1
  Rb  Rb3  1  0.172349  0.680239  0.050040  1
  Sc  Sc4  1  0.235648  0.400329  0.764290  1
  Sc  Sc5  1  0.764352  0.599671  0.235710  1
  Sc  Sc6  1  0.235648  0.099671  0.264290  1
  Sc  Sc7  1  0.764352  0.900329  0.735710  1
  As  As8  1  0.138182  0.092080  0.834685  1
  As  As9  1  0.557340  0.861883  0.309403  1
  As  As10  1  0.861818  0.907920  0.165315  1
  As  As11  1  0.861818  0.592080  0.665315  1
  As  As12  1  0.442660  0.361883  0.190597  1
  As  As13  1  0.557340  0.638117  0.809403  1
  As  As14  1  0.442660  0.138117  0.690597  1
  As  As15  1  0.138182  0.407920  0.334685  1
  O  O16  1  0.452317  0.288187  0.751826  1
  O  O17  1  0.648857  0.950537  0.179833  1
  O  O18  1  0.690914  0.891545  0.490328  1
  O  O19  1  0.547683  0.711813  0.248174  1
  O  O20  1  0.086071  0.235256  0.754630  1
  O  O21  1  0.913929  0.764744  0.245370  1
  O  O22  1  0.999704  0.513130  0.221708  1
  O  O23  1  0.000296  0.013130  0.278292  1
  O  O24  1  0.648857  0.549463  0.679833  1
  O  O25  1  0.148541  0.087313  0.024954  1
  O  O26  1  0.309086  0.108455  0.509672  1
  O  O27  1  0.913929  0.735256  0.745370  1
  O  O28  1  0.648106  0.080797  0.722023  1
  O  O29  1  0.351894  0.580797  0.777977  1
  O  O30  1  0.851459  0.912687  0.975046  1
  O  O31  1  0.999704  0.986870  0.721708  1
  O  O32  1  0.547683  0.788187  0.748174  1
  O  O33  1  0.452317  0.211813  0.251826  1
  O  O34  1  0.309086  0.391545  0.009672  1
  O  O35  1  0.690914  0.608455  0.990328  1
  O  O36  1  0.648106  0.419203  0.222023  1
  O  O37  1  0.351894  0.919203  0.277977  1
  O  O38  1  0.086071  0.264744  0.254630  1
  O  O39  1  0.148541  0.412687  0.524954  1
  O  O40  1  0.000296  0.486870  0.778292  1
  O  O41  1  0.351143  0.450537  0.320167  1
  O  O42  1  0.351143  0.049463  0.820167  1
  O  O43  1  0.851459  0.587313  0.475046  1
