# generated using pymatgen
data_Fe3P3O11
_symmetry_space_group_name_H-M   'P 1'
_cell_length_a   9.73299938
_cell_length_b   9.73721587
_cell_length_c   10.55401177
_cell_angle_alpha   90.00000000
_cell_angle_beta   119.96630278
_cell_angle_gamma   90.00000000
_symmetry_Int_Tables_number   1
_chemical_formula_structural   Fe3P3O11
_chemical_formula_sum   'Fe12 P12 O44'
_cell_volume   866.51695907
_cell_formula_units_Z   4
loop_
 _symmetry_equiv_pos_site_id
 _symmetry_equiv_pos_as_xyz
  1  'x, y, z'
loop_
 _atom_site_type_symbol
 _atom_site_label
 _atom_site_symmetry_multiplicity
 _atom_site_fract_x
 _atom_site_fract_y
 _atom_site_fract_z
 _atom_site_occupancy
  Fe  Fe0  1  0.271701  0.376017  0.132756  1
  Fe  Fe1  1  0.888338  0.137102  0.877296  1
  Fe  Fe2  1  0.918721  0.870731  0.732783  1
  Fe  Fe3  1  0.728299  0.876017  0.367244  1
  Fe  Fe4  1  0.081279  0.370731  0.767217  1
  Fe  Fe5  1  0.888338  0.362898  0.377296  1
  Fe  Fe6  1  0.111662  0.637102  0.622704  1
  Fe  Fe7  1  0.918721  0.629269  0.232783  1
  Fe  Fe8  1  0.271701  0.123983  0.632756  1
  Fe  Fe9  1  0.081279  0.129269  0.267217  1
  Fe  Fe10  1  0.111662  0.862898  0.122704  1
  Fe  Fe11  1  0.728299  0.623983  0.867244  1
  P  P12  1  0.406095  0.071263  0.241833  1
  P  P13  1  0.763764  0.585296  0.571532  1
  P  P14  1  0.593905  0.571263  0.258167  1
  P  P15  1  0.105800  0.661410  0.938328  1
  P  P16  1  0.894200  0.161410  0.561672  1
  P  P17  1  0.763764  0.914704  0.071532  1
  P  P18  1  0.236236  0.085296  0.928468  1
  P  P19  1  0.105800  0.838590  0.438328  1
  P  P20  1  0.894200  0.338590  0.061672  1
  P  P21  1  0.406095  0.428737  0.741833  1
  P  P22  1  0.236236  0.414704  0.428468  1
  P  P23  1  0.593905  0.928737  0.758167  1
  O  O24  1  0.257312  0.022722  0.247076  1
  O  O25  1  0.232260  0.725078  0.081147  1
  O  O26  1  0.415010  0.227531  0.252855  1
  O  O27  1  0.378271  0.029011  0.080256  1
  O  O28  1  0.735345  0.541580  0.694447  1
  O  O29  1  0.553235  0.992517  0.347651  1
  O  O30  1  0.446765  0.492517  0.152349  1
  O  O31  1  0.621729  0.529011  0.419744  1
  O  O32  1  0.940570  0.713954  0.918106  1
  O  O33  1  0.584990  0.727531  0.247145  1
  O  O34  1  0.767882  0.742995  0.553792  1
  O  O35  1  0.898275  0.223923  0.699772  1
  O  O36  1  0.767740  0.225078  0.418853  1
  O  O37  1  0.879319  0.002159  0.556841  1
  O  O38  1  0.083300  0.014701  0.913594  1
  O  O39  1  0.916700  0.514701  0.586406  1
  O  O40  1  0.120681  0.502159  0.943159  1
  O  O41  1  0.742688  0.522722  0.252924  1
  O  O42  1  0.735345  0.958420  0.194447  1
  O  O43  1  0.101725  0.723923  0.800228  1
  O  O44  1  0.940570  0.786046  0.418106  1
  O  O45  1  0.232118  0.242995  0.946208  1
  O  O46  1  0.767882  0.757005  0.053792  1
  O  O47  1  0.059430  0.213954  0.581894  1
  O  O48  1  0.898275  0.276077  0.199772  1
  O  O49  1  0.264655  0.041580  0.805553  1
  O  O50  1  0.257312  0.477278  0.747076  1
  O  O51  1  0.879319  0.497841  0.056841  1
  O  O52  1  0.083300  0.485299  0.413594  1
  O  O53  1  0.916700  0.985299  0.086406  1
  O  O54  1  0.120681  0.997841  0.443159  1
  O  O55  1  0.232260  0.774922  0.581147  1
  O  O56  1  0.101725  0.776077  0.300228  1
  O  O57  1  0.232118  0.257005  0.446208  1
  O  O58  1  0.415010  0.272469  0.752855  1
  O  O59  1  0.059430  0.286046  0.081894  1
  O  O60  1  0.378271  0.470989  0.580256  1
  O  O61  1  0.553235  0.507483  0.847651  1
  O  O62  1  0.446765  0.007483  0.652349  1
  O  O63  1  0.264655  0.458420  0.305553  1
  O  O64  1  0.621729  0.970989  0.919744  1
  O  O65  1  0.584990  0.772469  0.747145  1
  O  O66  1  0.767740  0.274922  0.918853  1
  O  O67  1  0.742688  0.977278  0.752924  1
