# generated using pymatgen
data_SiO2
_symmetry_space_group_name_H-M   'P 1'
_cell_length_a   9.90508185
_cell_length_b   9.90508185
_cell_length_c   8.47756448
_cell_angle_alpha   90.00000000
_cell_angle_beta   90.00000000
_cell_angle_gamma   90.00000000
_symmetry_Int_Tables_number   1
_chemical_formula_structural   SiO2
_chemical_formula_sum   'Si16 O32'
_cell_volume   831.73933150
_cell_formula_units_Z   16
loop_
 _symmetry_equiv_pos_site_id
 _symmetry_equiv_pos_as_xyz
  1  'x, y, z'
loop_
 _atom_site_type_symbol
 _atom_site_label
 _atom_site_symmetry_multiplicity
 _atom_site_fract_x
 _atom_site_fract_y
 _atom_site_fract_z
 _atom_site_occupancy
  Si  Si0  1  0.620831  0.670431  0.312707  1
  Si  Si1  1  0.829569  0.879169  0.187293  1
  Si  Si2  1  0.120831  0.829569  0.312707  1
  Si  Si3  1  0.379169  0.329569  0.312707  1
  Si  Si4  1  0.170431  0.120831  0.187293  1
  Si  Si5  1  0.329569  0.620831  0.812707  1
  Si  Si6  1  0.120831  0.829569  0.687293  1
  Si  Si7  1  0.329569  0.620831  0.187293  1
  Si  Si8  1  0.670431  0.379169  0.812707  1
  Si  Si9  1  0.170431  0.120831  0.812707  1
  Si  Si10  1  0.379169  0.329569  0.687293  1
  Si  Si11  1  0.829569  0.879169  0.812707  1
  Si  Si12  1  0.879169  0.170431  0.312707  1
  Si  Si13  1  0.879169  0.170431  0.687293  1
  Si  Si14  1  0.670431  0.379169  0.187293  1
  Si  Si15  1  0.620831  0.670431  0.687293  1
  O  O16  1  0.853465  0.149928  0.500000  1
  O  O17  1  0.682757  0.541266  0.217994  1
  O  O18  1  0.693030  0.806970  0.250000  1
  O  O19  1  0.182757  0.958734  0.782006  1
  O  O20  1  0.649928  0.353465  0.000000  1
  O  O21  1  0.646535  0.649928  0.500000  1
  O  O22  1  0.041266  0.182757  0.717994  1
  O  O23  1  0.458734  0.682757  0.717994  1
  O  O24  1  0.817243  0.041266  0.782006  1
  O  O25  1  0.317243  0.458734  0.217994  1
  O  O26  1  0.350072  0.646535  0.000000  1
  O  O27  1  0.146535  0.850072  0.500000  1
  O  O28  1  0.458734  0.682757  0.282006  1
  O  O29  1  0.817243  0.041266  0.217994  1
  O  O30  1  0.353465  0.350072  0.500000  1
  O  O31  1  0.193030  0.693030  0.250000  1
  O  O32  1  0.850072  0.853465  0.000000  1
  O  O33  1  0.806970  0.306970  0.750000  1
  O  O34  1  0.182757  0.958734  0.217994  1
  O  O35  1  0.306970  0.193030  0.250000  1
  O  O36  1  0.149928  0.146535  0.000000  1
  O  O37  1  0.693030  0.806970  0.750000  1
  O  O38  1  0.306970  0.193030  0.750000  1
  O  O39  1  0.541266  0.317243  0.282006  1
  O  O40  1  0.958734  0.817243  0.282006  1
  O  O41  1  0.958734  0.817243  0.717994  1
  O  O42  1  0.806970  0.306970  0.250000  1
  O  O43  1  0.193030  0.693030  0.750000  1
  O  O44  1  0.317243  0.458734  0.782006  1
  O  O45  1  0.041266  0.182757  0.282006  1
  O  O46  1  0.541266  0.317243  0.717994  1
  O  O47  1  0.682757  0.541266  0.782006  1
