# generated using pymatgen
data_AuSCl7
_symmetry_space_group_name_H-M   'P 1'
_cell_length_a   9.08293004
_cell_length_b   10.43915941
_cell_length_c   12.21067235
_cell_angle_alpha   90.00000000
_cell_angle_beta   107.55336765
_cell_angle_gamma   90.00000000
_symmetry_Int_Tables_number   1
_chemical_formula_structural   AuSCl7
_chemical_formula_sum   'Au4 S4 Cl28'
_cell_volume   1103.88244376
_cell_formula_units_Z   4
loop_
 _symmetry_equiv_pos_site_id
 _symmetry_equiv_pos_as_xyz
  1  'x, y, z'
loop_
 _atom_site_type_symbol
 _atom_site_label
 _atom_site_symmetry_multiplicity
 _atom_site_fract_x
 _atom_site_fract_y
 _atom_site_fract_z
 _atom_site_occupancy
  Au  Au0  1  0.785462  0.093609  0.968612  1
  Au  Au1  1  0.785462  0.406391  0.468612  1
  Au  Au2  1  0.214538  0.593609  0.531388  1
  Au  Au3  1  0.214538  0.906391  0.031388  1
  S  S4  1  0.237764  0.292923  0.986520  1
  S  S5  1  0.762236  0.792923  0.513480  1
  S  S6  1  0.237764  0.207077  0.486520  1
  S  S7  1  0.762236  0.707077  0.013480  1
  Cl  Cl8  1  0.431386  0.286359  0.935158  1
  Cl  Cl9  1  0.568614  0.713641  0.064842  1
  Cl  Cl10  1  0.694668  0.230952  0.814406  1
  Cl  Cl11  1  0.947782  0.246591  0.569933  1
  Cl  Cl12  1  0.867019  0.540346  0.628890  1
  Cl  Cl13  1  0.374609  0.433761  0.636130  1
  Cl  Cl14  1  0.300145  0.075692  0.615143  1
  Cl  Cl15  1  0.568614  0.786359  0.564842  1
  Cl  Cl16  1  0.132981  0.040346  0.871110  1
  Cl  Cl17  1  0.901363  0.895139  0.645433  1
  Cl  Cl18  1  0.431386  0.213641  0.435158  1
  Cl  Cl19  1  0.098637  0.395139  0.854567  1
  Cl  Cl20  1  0.625391  0.566239  0.363870  1
  Cl  Cl21  1  0.052218  0.753409  0.430067  1
  Cl  Cl22  1  0.132981  0.459654  0.371110  1
  Cl  Cl23  1  0.901363  0.604861  0.145433  1
  Cl  Cl24  1  0.625391  0.933761  0.863870  1
  Cl  Cl25  1  0.052218  0.746591  0.930067  1
  Cl  Cl26  1  0.305332  0.730952  0.685594  1
  Cl  Cl27  1  0.947782  0.253409  0.069933  1
  Cl  Cl28  1  0.699855  0.575692  0.884857  1
  Cl  Cl29  1  0.374609  0.066239  0.136130  1
  Cl  Cl30  1  0.300145  0.424308  0.115143  1
  Cl  Cl31  1  0.694668  0.269048  0.314406  1
  Cl  Cl32  1  0.867019  0.959654  0.128890  1
  Cl  Cl33  1  0.098637  0.104861  0.354567  1
  Cl  Cl34  1  0.305332  0.769048  0.185594  1
  Cl  Cl35  1  0.699855  0.924308  0.384857  1
