# generated using pymatgen
data_DySbMo2O9
_symmetry_space_group_name_H-M   'P 1'
_cell_length_a   9.71206696
_cell_length_b   9.71206696
_cell_length_c   10.86397135
_cell_angle_alpha   68.11796110
_cell_angle_beta   111.88203890
_cell_angle_gamma   84.59604767
_symmetry_Int_Tables_number   1
_chemical_formula_structural   DySbMo2O9
_chemical_formula_sum   'Dy4 Sb4 Mo8 O36'
_cell_volume   849.45710203
_cell_formula_units_Z   4
loop_
 _symmetry_equiv_pos_site_id
 _symmetry_equiv_pos_as_xyz
  1  'x, y, z'
loop_
 _atom_site_type_symbol
 _atom_site_label
 _atom_site_symmetry_multiplicity
 _atom_site_fract_x
 _atom_site_fract_y
 _atom_site_fract_z
 _atom_site_occupancy
  Dy  Dy0  1  0.874364  0.874364  0.750000  1
  Dy  Dy1  1  0.328313  0.328313  0.750000  1
  Dy  Dy2  1  0.125636  0.125636  0.250000  1
  Dy  Dy3  1  0.671687  0.671687  0.250000  1
  Sb  Sb4  1  0.619867  0.349205  0.535782  1
  Sb  Sb5  1  0.380133  0.650795  0.464218  1
  Sb  Sb6  1  0.650795  0.380133  0.035782  1
  Sb  Sb7  1  0.349205  0.619867  0.964218  1
  Mo  Mo8  1  0.046313  0.740867  0.525067  1
  Mo  Mo9  1  0.057455  0.566003  0.192905  1
  Mo  Mo10  1  0.566003  0.057455  0.307095  1
  Mo  Mo11  1  0.953687  0.259133  0.474933  1
  Mo  Mo12  1  0.433997  0.942545  0.692905  1
  Mo  Mo13  1  0.740867  0.046313  0.974933  1
  Mo  Mo14  1  0.942545  0.433997  0.807095  1
  Mo  Mo15  1  0.259133  0.953687  0.025067  1
  O  O16  1  0.208723  0.635437  0.297441  1
  O  O17  1  0.779271  0.042580  0.826387  1
  O  O18  1  0.220729  0.957420  0.173613  1
  O  O19  1  0.778412  0.405805  0.420569  1
  O  O20  1  0.129511  0.298122  0.568450  1
  O  O21  1  0.621140  0.856360  0.726384  1
  O  O22  1  0.095417  0.932624  0.897710  1
  O  O23  1  0.694359  0.979044  0.498227  1
  O  O24  1  0.856360  0.621140  0.773616  1
  O  O25  1  0.791277  0.364563  0.702559  1
  O  O26  1  0.378860  0.143640  0.273616  1
  O  O27  1  0.305641  0.020956  0.501773  1
  O  O28  1  0.577056  0.541807  0.099982  1
  O  O29  1  0.594195  0.221588  0.920569  1
  O  O30  1  0.364563  0.791277  0.797441  1
  O  O31  1  0.221588  0.594195  0.579431  1
  O  O32  1  0.042580  0.779271  0.673613  1
  O  O33  1  0.143640  0.378860  0.226384  1
  O  O34  1  0.458193  0.422944  0.599982  1
  O  O35  1  0.701878  0.870489  0.068450  1
  O  O36  1  0.298122  0.129511  0.931550  1
  O  O37  1  0.957420  0.220729  0.326387  1
  O  O38  1  0.067376  0.904583  0.397710  1
  O  O39  1  0.905816  0.557100  0.248183  1
  O  O40  1  0.557100  0.905816  0.251817  1
  O  O41  1  0.405805  0.778412  0.079431  1
  O  O42  1  0.442900  0.094184  0.748183  1
  O  O43  1  0.541807  0.577056  0.400018  1
  O  O44  1  0.932624  0.095417  0.602290  1
  O  O45  1  0.422944  0.458193  0.900018  1
  O  O46  1  0.094184  0.442900  0.751817  1
  O  O47  1  0.635437  0.208723  0.202559  1
  O  O48  1  0.020956  0.305641  0.998227  1
  O  O49  1  0.904583  0.067376  0.102290  1
  O  O50  1  0.979044  0.694359  0.001773  1
  O  O51  1  0.870489  0.701878  0.431550  1
