# generated using pymatgen
data_SrAl2B2O7
_symmetry_space_group_name_H-M   'P 1'
_cell_length_a   16.42923896
_cell_length_b   16.42923896
_cell_length_c   16.42923896
_cell_angle_alpha   17.34501619
_cell_angle_beta   17.34501619
_cell_angle_gamma   17.34501619
_symmetry_Int_Tables_number   1
_chemical_formula_structural   SrAl2B2O7
_chemical_formula_sum   'Sr2 Al4 B4 O14'
_cell_volume   343.94034640
_cell_formula_units_Z   2
loop_
 _symmetry_equiv_pos_site_id
 _symmetry_equiv_pos_as_xyz
  1  'x, y, z'
loop_
 _atom_site_type_symbol
 _atom_site_label
 _atom_site_symmetry_multiplicity
 _atom_site_fract_x
 _atom_site_fract_y
 _atom_site_fract_z
 _atom_site_occupancy
  Sr  Sr0  1  0.500000  0.500000  0.500000  1
  Sr  Sr1  1  0.000000  1.000000  0.000000  1
  Al  Al2  1  0.284838  0.284838  0.284838  1
  Al  Al3  1  0.215162  0.215162  0.215162  1
  Al  Al4  1  0.715162  0.715162  0.715162  1
  Al  Al5  1  0.784838  0.784838  0.784838  1
  B  B6  1  0.367427  0.367427  0.367427  1
  B  B7  1  0.867427  0.867427  0.867427  1
  B  B8  1  0.632573  0.632573  0.632573  1
  B  B9  1  0.132573  0.132573  0.132573  1
  O  O10  1  0.610199  0.062553  0.425820  1
  O  O11  1  0.425820  0.610199  0.062553  1
  O  O12  1  0.110199  0.925820  0.562553  1
  O  O13  1  0.750000  0.750000  0.750000  1
  O  O14  1  0.562553  0.110199  0.925820  1
  O  O15  1  0.889801  0.074180  0.437447  1
  O  O16  1  0.925820  0.562553  0.110199  1
  O  O17  1  0.574180  0.389801  0.937447  1
  O  O18  1  0.389801  0.937447  0.574180  1
  O  O19  1  0.062553  0.425820  0.610199  1
  O  O20  1  0.937447  0.574180  0.389801  1
  O  O21  1  0.074180  0.437447  0.889801  1
  O  O22  1  0.437447  0.889801  0.074180  1
  O  O23  1  0.250000  0.250000  0.250000  1
