# generated using pymatgen
data_HgH8C2Br3N
_symmetry_space_group_name_H-M   'P 1'
_cell_length_a   7.18162996
_cell_length_b   6.52002685
_cell_length_c   10.42869133
_cell_angle_alpha   90.00000000
_cell_angle_beta   97.58642205
_cell_angle_gamma   90.00000000
_symmetry_Int_Tables_number   1
_chemical_formula_structural   HgH8C2Br3N
_chemical_formula_sum   'Hg2 H16 C4 Br6 N2'
_cell_volume   484.04311139
_cell_formula_units_Z   2
loop_
 _symmetry_equiv_pos_site_id
 _symmetry_equiv_pos_as_xyz
  1  'x, y, z'
loop_
 _atom_site_type_symbol
 _atom_site_label
 _atom_site_symmetry_multiplicity
 _atom_site_fract_x
 _atom_site_fract_y
 _atom_site_fract_z
 _atom_site_occupancy
  Hg  Hg0  1  0.405343  0.750000  0.863460  1
  Hg  Hg1  1  0.594657  0.250000  0.136540  1
  H  H2  1  0.129527  0.386410  0.624395  1
  H  H3  1  0.129527  0.113590  0.624395  1
  H  H4  1  0.058414  0.879551  0.177498  1
  H  H5  1  0.941586  0.379551  0.822502  1
  H  H6  1  0.227579  0.885911  0.395000  1
  H  H7  1  0.972187  0.750000  0.514872  1
  H  H8  1  0.261070  0.750000  0.186328  1
  H  H9  1  0.772421  0.114089  0.605000  1
  H  H10  1  0.772421  0.385911  0.605000  1
  H  H11  1  0.227579  0.614089  0.395000  1
  H  H12  1  0.738930  0.250000  0.813672  1
  H  H13  1  0.870473  0.613590  0.375605  1
  H  H14  1  0.027813  0.250000  0.485128  1
  H  H15  1  0.941586  0.120449  0.822502  1
  H  H16  1  0.870473  0.886410  0.375605  1
  H  H17  1  0.058414  0.620449  0.177498  1
  C  C18  1  0.144534  0.750000  0.362004  1
  C  C19  1  0.855466  0.250000  0.637996  1
  C  C20  1  0.046848  0.250000  0.591389  1
  C  C21  1  0.953152  0.750000  0.408611  1
  Br  Br22  1  0.565610  0.750000  0.108315  1
  Br  Br23  1  0.035572  0.750000  0.868331  1
  Br  Br24  1  0.434390  0.250000  0.891685  1
  Br  Br25  1  0.530836  0.750000  0.646808  1
  Br  Br26  1  0.469164  0.250000  0.353192  1
  Br  Br27  1  0.964428  0.250000  0.131669  1
  N  N28  1  0.871512  0.250000  0.783327  1
  N  N29  1  0.128488  0.750000  0.216673  1
