# generated using pymatgen
data_BaLi(BS2)3
_symmetry_space_group_name_H-M   'P 1'
_cell_length_a   8.85948817
_cell_length_b   8.85948817
_cell_length_c   8.42972161
_cell_angle_alpha   66.24950624
_cell_angle_beta   113.75049376
_cell_angle_gamma   119.49107256
_symmetry_Int_Tables_number   1
_chemical_formula_structural   BaLi(BS2)3
_chemical_formula_sum   'Ba2 Li2 B6 S12'
_cell_volume   509.48997150
_cell_formula_units_Z   2
loop_
 _symmetry_equiv_pos_site_id
 _symmetry_equiv_pos_as_xyz
  1  'x, y, z'
loop_
 _atom_site_type_symbol
 _atom_site_label
 _atom_site_symmetry_multiplicity
 _atom_site_fract_x
 _atom_site_fract_y
 _atom_site_fract_z
 _atom_site_occupancy
  Ba  Ba0  1  0.862813  0.381196  0.974967  1
  Ba  Ba1  1  0.618804  0.137187  0.474967  1
  Li  Li2  1  0.501110  0.703676  0.931140  1
  Li  Li3  1  0.296324  0.498890  0.431140  1
  B  B4  1  0.157242  0.756256  0.546936  1
  B  B5  1  0.243744  0.842758  0.046936  1
  B  B6  1  0.979439  0.015904  0.449408  1
  B  B7  1  0.984096  0.020561  0.949408  1
  B  B8  1  0.755098  0.613887  0.523017  1
  B  B9  1  0.386113  0.244902  0.023017  1
  S  S10  1  0.579096  0.436635  0.080374  1
  S  S11  1  0.754888  0.838191  0.439937  1
  S  S12  1  0.013423  0.813177  0.005772  1
  S  S13  1  0.439306  0.055338  0.061403  1
  S  S14  1  0.352122  0.721458  0.585315  1
  S  S15  1  0.563365  0.420904  0.580374  1
  S  S16  1  0.944662  0.560694  0.561403  1
  S  S17  1  0.186823  0.986577  0.505772  1
  S  S18  1  0.993474  0.237493  0.405232  1
  S  S19  1  0.762507  0.006526  0.905232  1
  S  S20  1  0.278542  0.647878  0.085315  1
  S  S21  1  0.161809  0.245112  0.939937  1
