# generated using pymatgen
data_BaMoSeO6
_symmetry_space_group_name_H-M   'P 1'
_cell_length_a   6.37519001
_cell_length_b   10.35112378
_cell_length_c   8.56481226
_cell_angle_alpha   90.00000000
_cell_angle_beta   94.82094896
_cell_angle_gamma   90.00000000
_symmetry_Int_Tables_number   1
_chemical_formula_structural   BaMoSeO6
_chemical_formula_sum   'Ba4 Mo4 Se4 O24'
_cell_volume   563.19567414
_cell_formula_units_Z   4
loop_
 _symmetry_equiv_pos_site_id
 _symmetry_equiv_pos_as_xyz
  1  'x, y, z'
loop_
 _atom_site_type_symbol
 _atom_site_label
 _atom_site_symmetry_multiplicity
 _atom_site_fract_x
 _atom_site_fract_y
 _atom_site_fract_z
 _atom_site_occupancy
  Ba  Ba0  1  0.264566  0.308609  0.988327  1
  Ba  Ba1  1  0.264566  0.191391  0.488327  1
  Ba  Ba2  1  0.735434  0.808609  0.511673  1
  Ba  Ba3  1  0.735434  0.691391  0.011673  1
  Mo  Mo4  1  0.772953  0.079390  0.230473  1
  Mo  Mo5  1  0.227047  0.920610  0.769527  1
  Mo  Mo6  1  0.227047  0.579390  0.269527  1
  Mo  Mo7  1  0.772953  0.420610  0.730473  1
  Se  Se8  1  0.707889  0.101706  0.822781  1
  Se  Se9  1  0.292111  0.601706  0.677219  1
  Se  Se10  1  0.292111  0.898294  0.177219  1
  Se  Se11  1  0.707889  0.398294  0.322781  1
  O  O12  1  0.819030  0.412294  0.939313  1
  O  O13  1  0.009257  0.153350  0.174083  1
  O  O14  1  0.392305  0.614460  0.496685  1
  O  O15  1  0.392305  0.885540  0.996685  1
  O  O16  1  0.184849  0.088653  0.803533  1
  O  O17  1  0.558721  0.981795  0.725269  1
  O  O18  1  0.180970  0.587706  0.060687  1
  O  O19  1  0.815151  0.588653  0.696467  1
  O  O20  1  0.416165  0.738795  0.760159  1
  O  O21  1  0.990743  0.653350  0.325917  1
  O  O22  1  0.583835  0.261205  0.239841  1
  O  O23  1  0.416165  0.761205  0.260159  1
  O  O24  1  0.607695  0.385540  0.503315  1
  O  O25  1  0.009257  0.346650  0.674083  1
  O  O26  1  0.583835  0.238795  0.739841  1
  O  O27  1  0.815151  0.911347  0.196467  1
  O  O28  1  0.607695  0.114460  0.003315  1
  O  O29  1  0.441279  0.481795  0.774731  1
  O  O30  1  0.819030  0.087706  0.439313  1
  O  O31  1  0.558721  0.518205  0.225269  1
  O  O32  1  0.184849  0.411347  0.303533  1
  O  O33  1  0.180970  0.912294  0.560687  1
  O  O34  1  0.441279  0.018205  0.274731  1
  O  O35  1  0.990743  0.846650  0.825917  1
