# generated using pymatgen
data_KZr2(AsO4)3
_symmetry_space_group_name_H-M   'P 1'
_cell_length_a   9.87988589
_cell_length_b   9.87988589
_cell_length_c   9.87988589
_cell_angle_alpha   55.84946636
_cell_angle_beta   55.84946636
_cell_angle_gamma   55.84946636
_symmetry_Int_Tables_number   1
_chemical_formula_structural   KZr2(AsO4)3
_chemical_formula_sum   'K2 Zr4 As6 O24'
_cell_volume   616.31568500
_cell_formula_units_Z   2
loop_
 _symmetry_equiv_pos_site_id
 _symmetry_equiv_pos_as_xyz
  1  'x, y, z'
loop_
 _atom_site_type_symbol
 _atom_site_label
 _atom_site_symmetry_multiplicity
 _atom_site_fract_x
 _atom_site_fract_y
 _atom_site_fract_z
 _atom_site_occupancy
  K  K0  1  0.000000  0.000000  0.000000  1
  K  K1  1  0.500000  0.500000  0.500000  1
  Zr  Zr2  1  0.852341  0.852341  0.852341  1
  Zr  Zr3  1  0.647659  0.647659  0.647659  1
  Zr  Zr4  1  0.147659  0.147659  0.147659  1
  Zr  Zr5  1  0.352341  0.352341  0.352341  1
  As  As6  1  0.034419  0.750000  0.465581  1
  As  As7  1  0.465581  0.034419  0.750000  1
  As  As8  1  0.750000  0.465581  0.034419  1
  As  As9  1  0.965581  0.250000  0.534419  1
  As  As10  1  0.534419  0.965581  0.250000  1
  As  As11  1  0.250000  0.534419  0.965581  1
  O  O12  1  0.010534  0.761077  0.644683  1
  O  O13  1  0.644683  0.010534  0.761077  1
  O  O14  1  0.761077  0.644683  0.010534  1
  O  O15  1  0.855317  0.738923  0.489466  1
  O  O16  1  0.489466  0.855317  0.738923  1
  O  O17  1  0.738923  0.489466  0.855317  1
  O  O18  1  0.989466  0.238923  0.355317  1
  O  O19  1  0.355317  0.989466  0.238923  1
  O  O20  1  0.238923  0.355317  0.989466  1
  O  O21  1  0.144683  0.261077  0.510534  1
  O  O22  1  0.510534  0.144683  0.261077  1
  O  O23  1  0.261077  0.510534  0.144683  1
  O  O24  1  0.933367  0.068398  0.715471  1
  O  O25  1  0.715471  0.933367  0.068398  1
  O  O26  1  0.068398  0.715471  0.933367  1
  O  O27  1  0.784529  0.431602  0.566633  1
  O  O28  1  0.566633  0.784529  0.431602  1
  O  O29  1  0.431602  0.566633  0.784529  1
  O  O30  1  0.066633  0.931602  0.284529  1
  O  O31  1  0.284529  0.066633  0.931602  1
  O  O32  1  0.931602  0.284529  0.066633  1
  O  O33  1  0.215471  0.568398  0.433367  1
  O  O34  1  0.433367  0.215471  0.568398  1
  O  O35  1  0.568398  0.433367  0.215471  1
