# generated using pymatgen
data_Tl3B3Se10
_symmetry_space_group_name_H-M   'P 1'
_cell_length_a   7.31122316
_cell_length_b   8.31932247
_cell_length_c   14.86230338
_cell_angle_alpha   103.96418796
_cell_angle_beta   94.70290142
_cell_angle_gamma   93.47517211
_symmetry_Int_Tables_number   1
_chemical_formula_structural   Tl3B3Se10
_chemical_formula_sum   'Tl6 B6 Se20'
_cell_volume   871.29532826
_cell_formula_units_Z   2
loop_
 _symmetry_equiv_pos_site_id
 _symmetry_equiv_pos_as_xyz
  1  'x, y, z'
loop_
 _atom_site_type_symbol
 _atom_site_label
 _atom_site_symmetry_multiplicity
 _atom_site_fract_x
 _atom_site_fract_y
 _atom_site_fract_z
 _atom_site_occupancy
  Tl  Tl0  1  0.324580  0.182537  0.479004  1
  Tl  Tl1  1  0.675420  0.817463  0.520996  1
  Tl  Tl2  1  0.733590  0.551499  0.154147  1
  Tl  Tl3  1  0.266410  0.448501  0.845853  1
  Tl  Tl4  1  0.985906  0.121156  0.204641  1
  Tl  Tl5  1  0.014094  0.878844  0.795359  1
  B  B6  1  0.362914  0.914052  0.089608  1
  B  B7  1  0.637086  0.085948  0.910392  1
  B  B8  1  0.261210  0.713096  0.239484  1
  B  B9  1  0.738790  0.286904  0.760516  1
  B  B10  1  0.106040  0.620899  0.415258  1
  B  B11  1  0.893960  0.379101  0.584742  1
  Se  Se12  1  0.223860  0.059090  0.016417  1
  Se  Se13  1  0.776140  0.940910  0.983583  1
  Se  Se14  1  0.531494  0.757356  0.013919  1
  Se  Se15  1  0.468506  0.242644  0.986081  1
  Se  Se16  1  0.477541  0.063222  0.215004  1
  Se  Se17  1  0.522459  0.936778  0.784996  1
  Se  Se18  1  0.164322  0.740004  0.109596  1
  Se  Se19  1  0.835678  0.259996  0.890404  1
  Se  Se20  1  0.519870  0.836918  0.284527  1
  Se  Se21  1  0.480130  0.163082  0.715473  1
  Se  Se22  1  0.299144  0.464554  0.224835  1
  Se  Se23  1  0.700856  0.535446  0.775165  1
  Se  Se24  1  0.070051  0.790405  0.334719  1
  Se  Se25  1  0.929949  0.209595  0.665281  1
  Se  Se26  1  0.341276  0.501268  0.390330  1
  Se  Se27  1  0.658724  0.498732  0.609670  1
  Se  Se28  1  0.140573  0.748567  0.552653  1
  Se  Se29  1  0.859427  0.251433  0.447347  1
  Se  Se30  1  0.859591  0.481179  0.371938  1
  Se  Se31  1  0.140409  0.518821  0.628062  1
