# generated using pymatgen
data_Tb3CuGeSe7
_symmetry_space_group_name_H-M   'P 1'
_cell_length_a   10.37991148
_cell_length_b   10.37991148
_cell_length_c   6.10403390
_cell_angle_alpha   90.00000000
_cell_angle_beta   90.00000000
_cell_angle_gamma   120.00000000
_symmetry_Int_Tables_number   1
_chemical_formula_structural   Tb3CuGeSe7
_chemical_formula_sum   'Tb6 Cu2 Ge2 Se14'
_cell_volume   569.55394999
_cell_formula_units_Z   2
loop_
 _symmetry_equiv_pos_site_id
 _symmetry_equiv_pos_as_xyz
  1  'x, y, z'
loop_
 _atom_site_type_symbol
 _atom_site_label
 _atom_site_symmetry_multiplicity
 _atom_site_fract_x
 _atom_site_fract_y
 _atom_site_fract_z
 _atom_site_occupancy
  Tb  Tb0  1  0.644375  0.779205  0.756332  1
  Tb  Tb1  1  0.865170  0.644375  0.256332  1
  Tb  Tb2  1  0.220795  0.865170  0.756332  1
  Tb  Tb3  1  0.779205  0.134830  0.256332  1
  Tb  Tb4  1  0.134830  0.355625  0.756332  1
  Tb  Tb5  1  0.355625  0.220795  0.256332  1
  Cu  Cu6  1  0.000000  0.000000  0.707722  1
  Cu  Cu7  1  0.000000  0.000000  0.207722  1
  Ge  Ge8  1  0.666667  0.333333  0.838844  1
  Ge  Ge9  1  0.333333  0.666667  0.338844  1
  Se  Se10  1  0.898668  0.738273  0.725382  1
  Se  Se11  1  0.666667  0.333333  0.451756  1
  Se  Se12  1  0.424921  0.518132  0.504612  1
  Se  Se13  1  0.481868  0.906789  0.504612  1
  Se  Se14  1  0.738273  0.839604  0.225382  1
  Se  Se15  1  0.160396  0.898668  0.225382  1
  Se  Se16  1  0.575079  0.481868  0.004612  1
  Se  Se17  1  0.839604  0.101332  0.725382  1
  Se  Se18  1  0.333333  0.666667  0.951756  1
  Se  Se19  1  0.906789  0.424921  0.004612  1
  Se  Se20  1  0.261727  0.160396  0.725382  1
  Se  Se21  1  0.518132  0.093211  0.004612  1
  Se  Se22  1  0.101332  0.261727  0.225382  1
  Se  Se23  1  0.093211  0.575079  0.504612  1
