# generated using pymatgen
data_FeP(H2O3)2
_symmetry_space_group_name_H-M   'P 1'
_cell_length_a   8.78468183
_cell_length_b   9.96134676
_cell_length_c   10.35889409
_cell_angle_alpha   90.00000000
_cell_angle_beta   90.00000000
_cell_angle_gamma   90.00000000
_symmetry_Int_Tables_number   1
_chemical_formula_structural   FeP(H2O3)2
_chemical_formula_sum   'Fe8 P8 H32 O48'
_cell_volume   906.47845797
_cell_formula_units_Z   8
loop_
 _symmetry_equiv_pos_site_id
 _symmetry_equiv_pos_as_xyz
  1  'x, y, z'
loop_
 _atom_site_type_symbol
 _atom_site_label
 _atom_site_symmetry_multiplicity
 _atom_site_fract_x
 _atom_site_fract_y
 _atom_site_fract_z
 _atom_site_occupancy
  Fe  Fe0  1  0.151929  0.328256  0.132749  1
  Fe  Fe1  1  0.651929  0.171744  0.867251  1
  Fe  Fe2  1  0.848071  0.828256  0.367251  1
  Fe  Fe3  1  0.348071  0.671744  0.632749  1
  Fe  Fe4  1  0.848071  0.671744  0.867251  1
  Fe  Fe5  1  0.348071  0.828256  0.132749  1
  Fe  Fe6  1  0.151929  0.171744  0.632749  1
  Fe  Fe7  1  0.651929  0.328256  0.367251  1
  P  P8  1  0.028482  0.644386  0.147523  1
  P  P9  1  0.528482  0.855614  0.852477  1
  P  P10  1  0.971518  0.144386  0.352477  1
  P  P11  1  0.471518  0.355614  0.647523  1
  P  P12  1  0.971518  0.355614  0.852477  1
  P  P13  1  0.471518  0.144386  0.147523  1
  P  P14  1  0.028482  0.855614  0.647523  1
  P  P15  1  0.528482  0.644386  0.352477  1
  H  H16  1  0.159555  0.917053  0.324188  1
  H  H17  1  0.659555  0.582947  0.675812  1
  H  H18  1  0.840445  0.417053  0.175812  1
  H  H19  1  0.340445  0.082947  0.824188  1
  H  H20  1  0.840445  0.082947  0.675812  1
  H  H21  1  0.340445  0.417053  0.324188  1
  H  H22  1  0.159555  0.582947  0.824188  1
  H  H23  1  0.659555  0.917053  0.175812  1
  H  H24  1  0.357178  0.436211  0.971612  1
  H  H25  1  0.857178  0.063789  0.028388  1
  H  H26  1  0.642822  0.936211  0.528388  1
  H  H27  1  0.142822  0.563789  0.471612  1
  H  H28  1  0.642822  0.563789  0.028388  1
  H  H29  1  0.142822  0.936211  0.971612  1
  H  H30  1  0.357178  0.063789  0.471612  1
  H  H31  1  0.857178  0.436211  0.528388  1
  H  H32  1  0.300696  0.822179  0.377273  1
  H  H33  1  0.800696  0.677821  0.622727  1
  H  H34  1  0.699304  0.322179  0.122727  1
  H  H35  1  0.199304  0.177821  0.877273  1
  H  H36  1  0.699304  0.177821  0.622727  1
  H  H37  1  0.199304  0.322179  0.377273  1
  H  H38  1  0.300696  0.677821  0.877273  1
  H  H39  1  0.800696  0.822179  0.122727  1
  H  H40  1  0.293785  0.544583  0.073214  1
  H  H41  1  0.793785  0.955417  0.926786  1
  H  H42  1  0.706215  0.044583  0.426786  1
  H  H43  1  0.206215  0.455417  0.573214  1
  H  H44  1  0.706215  0.455417  0.926786  1
  H  H45  1  0.206215  0.044583  0.073214  1
  H  H46  1  0.293785  0.955417  0.573214  1
  H  H47  1  0.793785  0.544583  0.426786  1
  O  O48  1  0.007999  0.203677  0.218201  1
  O  O49  1  0.507999  0.296323  0.781799  1
  O  O50  1  0.992001  0.703677  0.281799  1
  O  O51  1  0.492001  0.796323  0.718201  1
  O  O52  1  0.992001  0.796323  0.781799  1
  O  O53  1  0.492001  0.703677  0.218201  1
  O  O54  1  0.007999  0.296323  0.718201  1
  O  O55  1  0.507999  0.203677  0.281799  1
  O  O56  1  0.010113  0.489192  0.146411  1
  O  O57  1  0.510113  0.010808  0.853589  1
  O  O58  1  0.989887  0.989192  0.353589  1
  O  O59  1  0.489887  0.510808  0.646411  1
  O  O60  1  0.989887  0.510808  0.853589  1
  O  O61  1  0.489887  0.989192  0.146411  1
  O  O62  1  0.010113  0.010808  0.646411  1
  O  O63  1  0.510113  0.489192  0.353589  1
  O  O64  1  0.303384  0.176192  0.110543  1
  O  O65  1  0.803384  0.323808  0.889457  1
  O  O66  1  0.696616  0.676192  0.389457  1
  O  O67  1  0.196616  0.823808  0.610543  1
  O  O68  1  0.696616  0.823808  0.889457  1
  O  O69  1  0.196616  0.676192  0.110543  1
  O  O70  1  0.303384  0.323808  0.610543  1
  O  O71  1  0.803384  0.176192  0.389457  1
  O  O72  1  0.083391  0.291978  0.952209  1
  O  O73  1  0.583391  0.208022  0.047791  1
  O  O74  1  0.916609  0.791978  0.547791  1
  O  O75  1  0.416609  0.708022  0.452209  1
  O  O76  1  0.916609  0.708022  0.047791  1
  O  O77  1  0.416609  0.791978  0.952209  1
  O  O78  1  0.083391  0.208022  0.452209  1
  O  O79  1  0.583391  0.291978  0.547791  1
  O  O80  1  0.267946  0.888933  0.310931  1
  O  O81  1  0.767946  0.611067  0.689069  1
  O  O82  1  0.732054  0.388933  0.189069  1
  O  O83  1  0.232054  0.111067  0.810931  1
  O  O84  1  0.732054  0.111067  0.689069  1
  O  O85  1  0.232054  0.388933  0.310931  1
  O  O86  1  0.267946  0.611067  0.810931  1
  O  O87  1  0.767946  0.888933  0.189069  1
  O  O88  1  0.330428  0.449189  0.062376  1
  O  O89  1  0.830428  0.050811  0.937624  1
  O  O90  1  0.669572  0.949189  0.437624  1
  O  O91  1  0.169572  0.550811  0.562376  1
  O  O92  1  0.669572  0.550811  0.937624  1
  O  O93  1  0.169572  0.949189  0.062376  1
  O  O94  1  0.330428  0.050811  0.562376  1
  O  O95  1  0.830428  0.449189  0.437624  1
