# generated using pymatgen
data_Hg19(As5Br9)2
_symmetry_space_group_name_H-M   'P 1'
_cell_length_a   11.61944150
_cell_length_b   11.65408130
_cell_length_c   12.73847195
_cell_angle_alpha   106.12585209
_cell_angle_beta   106.24761225
_cell_angle_gamma   108.32467343
_symmetry_Int_Tables_number   1
_chemical_formula_structural   Hg19(As5Br9)2
_chemical_formula_sum   'Hg19 As10 Br18'
_cell_volume   1439.97101989
_cell_formula_units_Z   1
loop_
 _symmetry_equiv_pos_site_id
 _symmetry_equiv_pos_as_xyz
  1  'x, y, z'
loop_
 _atom_site_type_symbol
 _atom_site_label
 _atom_site_symmetry_multiplicity
 _atom_site_fract_x
 _atom_site_fract_y
 _atom_site_fract_z
 _atom_site_occupancy
  Hg  Hg0  1  0.000000  0.500000  0.000000  1
  Hg  Hg1  1  0.308007  0.692013  0.897701  1
  Hg  Hg2  1  0.691993  0.307987  0.102299  1
  Hg  Hg3  1  0.307222  0.005186  0.781566  1
  Hg  Hg4  1  0.692778  0.994814  0.218434  1
  Hg  Hg5  1  0.631163  0.892037  0.822910  1
  Hg  Hg6  1  0.368837  0.107963  0.177090  1
  Hg  Hg7  1  0.324890  0.386920  0.006201  1
  Hg  Hg8  1  0.675110  0.613080  0.993799  1
  Hg  Hg9  1  0.928366  0.083853  0.721623  1
  Hg  Hg10  1  0.071634  0.916147  0.278377  1
  Hg  Hg11  1  0.876106  0.375691  0.595167  1
  Hg  Hg12  1  0.123894  0.624309  0.404833  1
  Hg  Hg13  1  0.202268  0.294684  0.589357  1
  Hg  Hg14  1  0.797732  0.705316  0.410643  1
  Hg  Hg15  1  0.071822  0.242022  0.185330  1
  Hg  Hg16  1  0.928178  0.757978  0.814670  1
  Hg  Hg17  1  0.484961  0.203846  0.576148  1
  Hg  Hg18  1  0.515039  0.796154  0.423852  1
  As  As19  1  0.448256  0.915390  0.897023  1
  As  As20  1  0.551744  0.084610  0.102977  1
  As  As21  1  0.166950  0.471992  0.902457  1
  As  As22  1  0.833050  0.528008  0.097543  1
  As  As23  1  0.216494  0.142174  0.286117  1
  As  As24  1  0.783506  0.857826  0.713883  1
  As  As25  1  0.043049  0.300696  0.698321  1
  As  As26  1  0.956951  0.699304  0.301679  1
  As  As27  1  0.364173  0.323483  0.486041  1
  As  As28  1  0.635827  0.676517  0.513959  1
  Br  Br29  1  0.499824  0.409960  0.203195  1
  Br  Br30  1  0.500176  0.590040  0.796805  1
  Br  Br31  1  0.170087  0.098391  0.931014  1
  Br  Br32  1  0.829913  0.901609  0.068986  1
  Br  Br33  1  0.884370  0.200893  0.980717  1
  Br  Br34  1  0.115630  0.799107  0.019283  1
  Br  Br35  1  0.781882  0.487756  0.775344  1
  Br  Br36  1  0.218118  0.512244  0.224656  1
  Br  Br37  1  0.462814  0.287040  0.865269  1
  Br  Br38  1  0.537186  0.712960  0.134731  1
  Br  Br39  1  0.964687  0.344162  0.344363  1
  Br  Br40  1  0.035313  0.655838  0.655637  1
  Br  Br41  1  0.857289  0.013010  0.415117  1
  Br  Br42  1  0.142711  0.986990  0.584883  1
  Br  Br43  1  0.617854  0.093742  0.670989  1
  Br  Br44  1  0.382146  0.906258  0.329011  1
  Br  Br45  1  0.663766  0.320150  0.419439  1
  Br  Br46  1  0.336234  0.679850  0.580561  1
