# generated using pymatgen
data_KNbSi2O7
_symmetry_space_group_name_H-M   'P 1'
_cell_length_a   8.87738867
_cell_length_b   8.87738867
_cell_length_c   8.27438758
_cell_angle_alpha   90.00000000
_cell_angle_beta   90.00000000
_cell_angle_gamma   90.00000000
_symmetry_Int_Tables_number   1
_chemical_formula_structural   KNbSi2O7
_chemical_formula_sum   'K4 Nb4 Si8 O28'
_cell_volume   652.08818131
_cell_formula_units_Z   4
loop_
 _symmetry_equiv_pos_site_id
 _symmetry_equiv_pos_as_xyz
  1  'x, y, z'
loop_
 _atom_site_type_symbol
 _atom_site_label
 _atom_site_symmetry_multiplicity
 _atom_site_fract_x
 _atom_site_fract_y
 _atom_site_fract_z
 _atom_site_occupancy
  K  K0  1  0.678073  0.178073  0.991883  1
  K  K1  1  0.178073  0.321927  0.991883  1
  K  K2  1  0.321927  0.821927  0.991883  1
  K  K3  1  0.821927  0.678073  0.991883  1
  Nb  Nb4  1  0.000000  0.000000  0.720473  1
  Nb  Nb5  1  0.000000  0.000000  0.217738  1
  Nb  Nb6  1  0.500000  0.500000  0.720473  1
  Nb  Nb7  1  0.500000  0.500000  0.217738  1
  Si  Si8  1  0.623855  0.876145  0.693030  1
  Si  Si9  1  0.376504  0.123496  0.302819  1
  Si  Si10  1  0.876504  0.376504  0.302819  1
  Si  Si11  1  0.123496  0.623496  0.302819  1
  Si  Si12  1  0.123855  0.623855  0.693030  1
  Si  Si13  1  0.876145  0.376145  0.693030  1
  Si  Si14  1  0.376145  0.123855  0.693030  1
  Si  Si15  1  0.623496  0.876504  0.302819  1
  O  O16  1  0.923488  0.211977  0.762928  1
  O  O17  1  0.423632  0.287212  0.232695  1
  O  O18  1  0.576512  0.711977  0.762928  1
  O  O19  1  0.788023  0.923488  0.762928  1
  O  O20  1  0.076368  0.787212  0.232695  1
  O  O21  1  0.288023  0.576512  0.762928  1
  O  O22  1  0.787212  0.923632  0.232695  1
  O  O23  1  0.119781  0.619781  0.497847  1
  O  O24  1  0.287212  0.576368  0.232695  1
  O  O25  1  0.619781  0.880219  0.497847  1
  O  O26  1  0.500000  0.000000  0.763844  1
  O  O27  1  0.500000  0.000000  0.231564  1
  O  O28  1  0.880219  0.380219  0.497847  1
  O  O29  1  0.000000  0.500000  0.763844  1
  O  O30  1  0.380219  0.119781  0.497847  1
  O  O31  1  0.423488  0.288023  0.762928  1
  O  O32  1  0.576368  0.712788  0.232695  1
  O  O33  1  0.923632  0.212788  0.232695  1
  O  O34  1  0.712788  0.423632  0.232695  1
  O  O35  1  0.000000  0.500000  0.231564  1
  O  O36  1  0.000000  0.000000  0.502632  1
  O  O37  1  0.000000  0.000000  0.998900  1
  O  O38  1  0.212788  0.076368  0.232695  1
  O  O39  1  0.711977  0.423488  0.762928  1
  O  O40  1  0.500000  0.500000  0.502632  1
  O  O41  1  0.211977  0.076512  0.762928  1
  O  O42  1  0.500000  0.500000  0.998900  1
  O  O43  1  0.076512  0.788023  0.762928  1
