# generated using pymatgen
data_NaSiBO4
_symmetry_space_group_name_H-M   'P 1'
_cell_length_a   14.03676542
_cell_length_b   14.03676542
_cell_length_c   7.77947305
_cell_angle_alpha   90.00000000
_cell_angle_beta   90.00000000
_cell_angle_gamma   120.00000000
_symmetry_Int_Tables_number   1
_chemical_formula_structural   NaSiBO4
_chemical_formula_sum   'Na18 Si18 B18 O72'
_cell_volume   1327.43998864
_cell_formula_units_Z   18
loop_
 _symmetry_equiv_pos_site_id
 _symmetry_equiv_pos_as_xyz
  1  'x, y, z'
loop_
 _atom_site_type_symbol
 _atom_site_label
 _atom_site_symmetry_multiplicity
 _atom_site_fract_x
 _atom_site_fract_y
 _atom_site_fract_z
 _atom_site_occupancy
  Na  Na0  1  0.311429  0.325772  0.502709  1
  Na  Na1  1  0.014343  0.688571  0.502709  1
  Na  Na2  1  0.987290  0.654038  0.067224  1
  Na  Na3  1  0.666749  0.012710  0.067224  1
  Na  Na4  1  0.333251  0.987290  0.567224  1
  Na  Na5  1  0.666667  0.333333  0.523186  1
  Na  Na6  1  0.000000  0.000000  0.052855  1
  Na  Na7  1  0.985657  0.311429  0.002709  1
  Na  Na8  1  0.345962  0.333251  0.067224  1
  Na  Na9  1  0.666667  0.333333  0.025001  1
  Na  Na10  1  0.333333  0.666667  0.525001  1
  Na  Na11  1  0.674228  0.985657  0.502709  1
  Na  Na12  1  0.000000  0.000000  0.552855  1
  Na  Na13  1  0.333333  0.666667  0.023186  1
  Na  Na14  1  0.688571  0.674228  0.002709  1
  Na  Na15  1  0.325772  0.014343  0.002709  1
  Na  Na16  1  0.012710  0.345962  0.567224  1
  Na  Na17  1  0.654038  0.666749  0.567224  1
  Si  Si18  1  0.551087  0.763237  0.239676  1
  Si  Si19  1  0.236763  0.787850  0.239676  1
  Si  Si20  1  0.878779  0.782488  0.333898  1
  Si  Si21  1  0.212150  0.448913  0.239676  1
  Si  Si22  1  0.431394  0.545582  0.745982  1
  Si  Si23  1  0.545582  0.114188  0.245982  1
  Si  Si24  1  0.787850  0.551087  0.739676  1
  Si  Si25  1  0.903709  0.121221  0.333898  1
  Si  Si26  1  0.448913  0.236763  0.739676  1
  Si  Si27  1  0.114188  0.568606  0.745982  1
  Si  Si28  1  0.096291  0.878779  0.833898  1
  Si  Si29  1  0.885812  0.431394  0.245982  1
  Si  Si30  1  0.121221  0.217512  0.833898  1
  Si  Si31  1  0.782488  0.903709  0.833898  1
  Si  Si32  1  0.568606  0.454418  0.245982  1
  Si  Si33  1  0.217512  0.096291  0.333898  1
  Si  Si34  1  0.454418  0.885812  0.745982  1
  Si  Si35  1  0.763237  0.212150  0.739676  1
  B  B36  1  0.566822  0.453572  0.865131  1
  B  B37  1  0.552439  0.765966  0.864531  1
  B  B38  1  0.218579  0.098561  0.710302  1
  B  B39  1  0.098561  0.879982  0.210302  1
  B  B40  1  0.879982  0.781421  0.710302  1
  B  B41  1  0.546428  0.113250  0.865131  1
  B  B42  1  0.786473  0.552439  0.364531  1
  B  B43  1  0.120018  0.218579  0.210302  1
  B  B44  1  0.113250  0.566822  0.365131  1
  B  B45  1  0.453572  0.886750  0.365131  1
  B  B46  1  0.234034  0.786473  0.864531  1
  B  B47  1  0.765966  0.213527  0.364531  1
  B  B48  1  0.901439  0.120018  0.710302  1
  B  B49  1  0.213527  0.447561  0.864531  1
  B  B50  1  0.886750  0.433178  0.865131  1
  B  B51  1  0.447561  0.234034  0.364531  1
  B  B52  1  0.781421  0.901439  0.210302  1
  B  B53  1  0.433178  0.546428  0.365131  1
  O  O54  1  0.658838  0.456515  0.767539  1
  O  O55  1  0.340615  0.869072  0.363724  1
  O  O56  1  0.202597  0.864661  0.787831  1
  O  O57  1  0.876997  0.868379  0.812374  1
  O  O58  1  0.512227  0.118065  0.045401  1
  O  O59  1  0.538997  0.534375  0.792225  1
  O  O60  1  0.471543  0.340615  0.863724  1
  O  O61  1  0.843592  0.787495  0.532606  1
  O  O62  1  0.534375  0.995379  0.292225  1
  O  O63  1  0.869648  0.197604  0.784999  1
  O  O64  1  0.056096  0.843592  0.032606  1
  O  O65  1  0.659385  0.130928  0.863724  1
  O  O66  1  0.275949  0.823608  0.041330  1
  O  O67  1  0.004621  0.538997  0.292225  1
  O  O68  1  0.605838  0.487773  0.045401  1
  O  O69  1  0.861767  0.326652  0.368568  1
  O  O70  1  0.534559  0.324331  0.263275  1
  O  O71  1  0.200143  0.193516  0.707063  1
  O  O72  1  0.787495  0.943904  0.032606  1
  O  O73  1  0.006627  0.200143  0.207063  1
  O  O74  1  0.130352  0.802396  0.284999  1
  O  O75  1  0.197604  0.327956  0.284999  1
  O  O76  1  0.943904  0.156408  0.532606  1
  O  O77  1  0.008618  0.876997  0.312374  1
  O  O78  1  0.461003  0.465625  0.292225  1
  O  O79  1  0.176392  0.452341  0.041330  1
  O  O80  1  0.452341  0.275949  0.541330  1
  O  O81  1  0.823608  0.547659  0.541330  1
  O  O82  1  0.789772  0.465441  0.263275  1
  O  O83  1  0.806484  0.006627  0.707063  1
  O  O84  1  0.156408  0.212505  0.032606  1
  O  O85  1  0.802396  0.672044  0.784999  1
  O  O86  1  0.327956  0.130352  0.784999  1
  O  O87  1  0.868379  0.991382  0.312374  1
  O  O88  1  0.212505  0.056096  0.532606  1
  O  O89  1  0.991382  0.123003  0.812374  1
  O  O90  1  0.672044  0.869648  0.284999  1
  O  O91  1  0.131621  0.008618  0.812374  1
  O  O92  1  0.535115  0.861767  0.868568  1
  O  O93  1  0.543485  0.202323  0.767539  1
  O  O94  1  0.193516  0.993373  0.207063  1
  O  O95  1  0.673348  0.535115  0.368568  1
  O  O96  1  0.465625  0.004621  0.792225  1
  O  O97  1  0.797677  0.341162  0.767539  1
  O  O98  1  0.130928  0.471543  0.363724  1
  O  O99  1  0.528457  0.659385  0.363724  1
  O  O100  1  0.487773  0.881935  0.545401  1
  O  O101  1  0.995379  0.461003  0.792225  1
  O  O102  1  0.210228  0.534559  0.763275  1
  O  O103  1  0.662064  0.797403  0.787831  1
  O  O104  1  0.337936  0.202597  0.287831  1
  O  O105  1  0.993373  0.799857  0.707063  1
  O  O106  1  0.326652  0.464885  0.868568  1
  O  O107  1  0.456515  0.797677  0.267539  1
  O  O108  1  0.123003  0.131621  0.312374  1
  O  O109  1  0.341162  0.543485  0.267539  1
  O  O110  1  0.465441  0.675669  0.763275  1
  O  O111  1  0.324331  0.789772  0.763275  1
  O  O112  1  0.202323  0.658838  0.267539  1
  O  O113  1  0.724051  0.176392  0.541330  1
  O  O114  1  0.547659  0.724051  0.041330  1
  O  O115  1  0.394162  0.512227  0.545401  1
  O  O116  1  0.869072  0.528457  0.863724  1
  O  O117  1  0.864661  0.662064  0.287831  1
  O  O118  1  0.675669  0.210228  0.263275  1
  O  O119  1  0.118065  0.605838  0.545401  1
  O  O120  1  0.881935  0.394162  0.045401  1
  O  O121  1  0.797403  0.135339  0.287831  1
  O  O122  1  0.138233  0.673348  0.868568  1
  O  O123  1  0.135339  0.337936  0.787831  1
  O  O124  1  0.464885  0.138233  0.368568  1
  O  O125  1  0.799857  0.806484  0.207063  1
