# generated using pymatgen
data_Y2Si2O7
_symmetry_space_group_name_H-M   'P 1'
_cell_length_a   5.09638391
_cell_length_b   8.15455377
_cell_length_c   7.42038576
_cell_angle_alpha   90.00000000
_cell_angle_beta   108.77668271
_cell_angle_gamma   90.00000000
_symmetry_Int_Tables_number   1
_chemical_formula_structural   Y2Si2O7
_chemical_formula_sum   'Y4 Si4 O14'
_cell_volume   291.96987728
_cell_formula_units_Z   2
loop_
 _symmetry_equiv_pos_site_id
 _symmetry_equiv_pos_as_xyz
  1  'x, y, z'
loop_
 _atom_site_type_symbol
 _atom_site_label
 _atom_site_symmetry_multiplicity
 _atom_site_fract_x
 _atom_site_fract_y
 _atom_site_fract_z
 _atom_site_occupancy
  Y  Y0  1  0.730744  0.507797  0.251716  1
  Y  Y1  1  0.269256  0.492203  0.748284  1
  Y  Y2  1  0.269256  0.007797  0.748284  1
  Y  Y3  1  0.730744  0.992203  0.251716  1
  Si  Si4  1  0.213967  0.750000  0.132950  1
  Si  Si5  1  0.653959  0.750000  0.573137  1
  Si  Si6  1  0.786033  0.250000  0.867050  1
  Si  Si7  1  0.346041  0.250000  0.426863  1
  O  O8  1  0.283791  0.584755  0.034112  1
  O  O9  1  0.716209  0.084755  0.965888  1
  O  O10  1  0.831584  0.919120  0.592679  1
  O  O11  1  0.509224  0.250000  0.664733  1
  O  O12  1  0.831584  0.580880  0.592679  1
  O  O13  1  0.716209  0.415245  0.965888  1
  O  O14  1  0.168416  0.419120  0.407321  1
  O  O15  1  0.430519  0.750000  0.687669  1
  O  O16  1  0.569481  0.250000  0.312331  1
  O  O17  1  0.928952  0.750000  0.185514  1
  O  O18  1  0.490776  0.750000  0.335267  1
  O  O19  1  0.168416  0.080880  0.407321  1
  O  O20  1  0.283791  0.915245  0.034112  1
  O  O21  1  0.071048  0.250000  0.814486  1
