# generated using pymatgen
data_S
_symmetry_space_group_name_H-M   'P 1'
_cell_length_a   8.44086794
_cell_length_b   8.44086794
_cell_length_c   4.40337820
_cell_angle_alpha   90.00000000
_cell_angle_beta   90.00000000
_cell_angle_gamma   120.00000000
_symmetry_Int_Tables_number   1
_chemical_formula_structural   S
_chemical_formula_sum   S9
_cell_volume   271.70074642
_cell_formula_units_Z   9
loop_
 _symmetry_equiv_pos_site_id
 _symmetry_equiv_pos_as_xyz
  1  'x, y, z'
loop_
 _atom_site_type_symbol
 _atom_site_label
 _atom_site_symmetry_multiplicity
 _atom_site_fract_x
 _atom_site_fract_y
 _atom_site_fract_z
 _atom_site_occupancy
  S  S0  1  0.100110  0.100110  0.500000  1
  S  S1  1  0.442252  0.688821  0.725995  1
  S  S2  1  0.688821  0.442252  0.274005  1
  S  S3  1  0.899890  0.000000  0.166667  1
  S  S4  1  0.246569  0.557748  0.059329  1
  S  S5  1  0.311179  0.753431  0.392662  1
  S  S6  1  0.557748  0.246569  0.940671  1
  S  S7  1  0.753431  0.311179  0.607338  1
  S  S8  1  0.000000  0.899890  0.833333  1
