# generated using pymatgen
data_K3As11
_symmetry_space_group_name_H-M   'P 1'
_cell_length_a   11.04809044
_cell_length_b   11.36074519
_cell_length_c   14.78491552
_cell_angle_alpha   90.00000000
_cell_angle_beta   90.00000000
_cell_angle_gamma   90.00000000
_symmetry_Int_Tables_number   1
_chemical_formula_structural   K3As11
_chemical_formula_sum   'K12 As44'
_cell_volume   1855.72187524
_cell_formula_units_Z   4
loop_
 _symmetry_equiv_pos_site_id
 _symmetry_equiv_pos_as_xyz
  1  'x, y, z'
loop_
 _atom_site_type_symbol
 _atom_site_label
 _atom_site_symmetry_multiplicity
 _atom_site_fract_x
 _atom_site_fract_y
 _atom_site_fract_z
 _atom_site_occupancy
  K  K0  1  0.087539  0.761665  0.011880  1
  K  K1  1  0.587539  0.738335  0.488120  1
  K  K2  1  0.912461  0.261665  0.488120  1
  K  K3  1  0.412461  0.238335  0.011880  1
  K  K4  1  0.912461  0.238335  0.988120  1
  K  K5  1  0.412461  0.261665  0.511880  1
  K  K6  1  0.087539  0.738335  0.511880  1
  K  K7  1  0.587539  0.761665  0.988120  1
  K  K8  1  0.250000  0.000000  0.284488  1
  K  K9  1  0.750000  0.500000  0.215512  1
  K  K10  1  0.750000  0.000000  0.715512  1
  K  K11  1  0.250000  0.500000  0.784488  1
  As  As12  1  0.276677  0.684392  0.245069  1
  As  As13  1  0.776677  0.815608  0.254931  1
  As  As14  1  0.723323  0.184392  0.254931  1
  As  As15  1  0.223323  0.315608  0.245069  1
  As  As16  1  0.723323  0.315608  0.754931  1
  As  As17  1  0.223323  0.184392  0.745069  1
  As  As18  1  0.276677  0.815608  0.745069  1
  As  As19  1  0.776677  0.684392  0.754931  1
  As  As20  1  0.064997  0.613892  0.215738  1
  As  As21  1  0.564997  0.886108  0.284262  1
  As  As22  1  0.935003  0.113892  0.284262  1
  As  As23  1  0.435003  0.386108  0.215738  1
  As  As24  1  0.935003  0.386108  0.784262  1
  As  As25  1  0.435003  0.113892  0.715738  1
  As  As26  1  0.064997  0.886108  0.715738  1
  As  As27  1  0.564997  0.613892  0.784262  1
  As  As28  1  0.398192  0.571484  0.131344  1
  As  As29  1  0.898192  0.928516  0.368656  1
  As  As30  1  0.601808  0.071484  0.368656  1
  As  As31  1  0.101808  0.428516  0.131344  1
  As  As32  1  0.601808  0.428516  0.868656  1
  As  As33  1  0.101808  0.071484  0.631344  1
  As  As34  1  0.398192  0.928516  0.631344  1
  As  As35  1  0.898192  0.571484  0.868656  1
  As  As36  1  0.326411  0.580285  0.389660  1
  As  As37  1  0.826411  0.919715  0.110340  1
  As  As38  1  0.673589  0.080285  0.110340  1
  As  As39  1  0.173589  0.419715  0.389660  1
  As  As40  1  0.673589  0.419715  0.610340  1
  As  As41  1  0.173589  0.080285  0.889660  1
  As  As42  1  0.326411  0.919715  0.889660  1
  As  As43  1  0.826411  0.580285  0.610340  1
  As  As44  1  0.506063  0.463811  0.359092  1
  As  As45  1  0.006063  0.036189  0.140908  1
  As  As46  1  0.493937  0.963811  0.140908  1
  As  As47  1  0.993937  0.536189  0.359092  1
  As  As48  1  0.493937  0.536189  0.640908  1
  As  As49  1  0.993937  0.963811  0.859092  1
  As  As50  1  0.506063  0.036189  0.859092  1
  As  As51  1  0.006063  0.463811  0.640908  1
  As  As52  1  0.250000  0.000000  0.522887  1
  As  As53  1  0.750000  0.500000  0.977113  1
  As  As54  1  0.750000  0.000000  0.477113  1
  As  As55  1  0.250000  0.500000  0.022887  1
