# generated using pymatgen
data_SnPCl9
_symmetry_space_group_name_H-M   'P 1'
_cell_length_a   10.57774792
_cell_length_b   10.57774792
_cell_length_c   6.74393872
_cell_angle_alpha   90.00000000
_cell_angle_beta   90.00000000
_cell_angle_gamma   107.34723261
_symmetry_Int_Tables_number   1
_chemical_formula_structural   SnPCl9
_chemical_formula_sum   'Sn2 P2 Cl18'
_cell_volume   720.24947244
_cell_formula_units_Z   2
loop_
 _symmetry_equiv_pos_site_id
 _symmetry_equiv_pos_as_xyz
  1  'x, y, z'
loop_
 _atom_site_type_symbol
 _atom_site_label
 _atom_site_symmetry_multiplicity
 _atom_site_fract_x
 _atom_site_fract_y
 _atom_site_fract_z
 _atom_site_occupancy
  Sn  Sn0  1  0.750000  0.750000  0.892582  1
  Sn  Sn1  1  0.250000  0.250000  0.107418  1
  P  P2  1  0.750000  0.250000  0.500000  1
  P  P3  1  0.250000  0.750000  0.500000  1
  Cl  Cl4  1  0.583434  0.583434  0.725736  1
  Cl  Cl5  1  0.093915  0.726095  0.331252  1
  Cl  Cl6  1  0.906085  0.273905  0.668748  1
  Cl  Cl7  1  0.593915  0.226095  0.668748  1
  Cl  Cl8  1  0.273905  0.906085  0.668748  1
  Cl  Cl9  1  0.105329  0.394671  0.103427  1
  Cl  Cl10  1  0.406085  0.773905  0.331252  1
  Cl  Cl11  1  0.226095  0.593915  0.668748  1
  Cl  Cl12  1  0.773905  0.406085  0.331252  1
  Cl  Cl13  1  0.083434  0.083434  0.274264  1
  Cl  Cl14  1  0.416566  0.416566  0.274264  1
  Cl  Cl15  1  0.726095  0.093915  0.331252  1
  Cl  Cl16  1  0.250000  0.250000  0.753864  1
  Cl  Cl17  1  0.394671  0.105329  0.103427  1
  Cl  Cl18  1  0.916566  0.916566  0.725736  1
  Cl  Cl19  1  0.605329  0.894671  0.896573  1
  Cl  Cl20  1  0.750000  0.750000  0.246136  1
  Cl  Cl21  1  0.894671  0.605329  0.896573  1
