# generated using pymatgen
data_CoSbS
_symmetry_space_group_name_H-M   'P 1'
_cell_length_a   5.84002051
_cell_length_b   5.97445979
_cell_length_c   11.68992578
_cell_angle_alpha   90.00000000
_cell_angle_beta   90.00000000
_cell_angle_gamma   90.00000000
_symmetry_Int_Tables_number   1
_chemical_formula_structural   CoSbS
_chemical_formula_sum   'Co8 Sb8 S8'
_cell_volume   407.87282292
_cell_formula_units_Z   8
loop_
 _symmetry_equiv_pos_site_id
 _symmetry_equiv_pos_as_xyz
  1  'x, y, z'
loop_
 _atom_site_type_symbol
 _atom_site_label
 _atom_site_symmetry_multiplicity
 _atom_site_fract_x
 _atom_site_fract_y
 _atom_site_fract_z
 _atom_site_occupancy
  Co  Co0  1  0.014703  0.166481  0.384903  1
  Co  Co1  1  0.014703  0.333519  0.884903  1
  Co  Co2  1  0.485297  0.666481  0.384903  1
  Co  Co3  1  0.985297  0.833519  0.615097  1
  Co  Co4  1  0.514703  0.333519  0.615097  1
  Co  Co5  1  0.485297  0.833519  0.884903  1
  Co  Co6  1  0.985297  0.666481  0.115097  1
  Co  Co7  1  0.514703  0.166481  0.115097  1
  Sb  Sb8  1  0.119026  0.049784  0.180268  1
  Sb  Sb9  1  0.619026  0.450216  0.819732  1
  Sb  Sb10  1  0.880974  0.549784  0.319732  1
  Sb  Sb11  1  0.380974  0.950216  0.680268  1
  Sb  Sb12  1  0.880974  0.950216  0.819732  1
  Sb  Sb13  1  0.380974  0.549784  0.180268  1
  Sb  Sb14  1  0.119026  0.450216  0.680268  1
  Sb  Sb15  1  0.619026  0.049784  0.319732  1
  S  S16  1  0.634565  0.685504  0.564872  1
  S  S17  1  0.865435  0.314496  0.064872  1
  S  S18  1  0.365435  0.185504  0.935128  1
  S  S19  1  0.134565  0.814496  0.435128  1
  S  S20  1  0.134565  0.685504  0.935128  1
  S  S21  1  0.634565  0.814496  0.064872  1
  S  S22  1  0.865435  0.185504  0.564872  1
  S  S23  1  0.365435  0.314496  0.435128  1
