# generated using pymatgen
data_Ag2NClO3
_symmetry_space_group_name_H-M   'P 1'
_cell_length_a   5.15050794
_cell_length_b   6.66386090
_cell_length_c   12.95491722
_cell_angle_alpha   90.00000000
_cell_angle_beta   90.00000000
_cell_angle_gamma   90.00000000
_symmetry_Int_Tables_number   1
_chemical_formula_structural   Ag2NClO3
_chemical_formula_sum   'Ag8 N4 Cl4 O12'
_cell_volume   444.64214692
_cell_formula_units_Z   4
loop_
 _symmetry_equiv_pos_site_id
 _symmetry_equiv_pos_as_xyz
  1  'x, y, z'
loop_
 _atom_site_type_symbol
 _atom_site_label
 _atom_site_symmetry_multiplicity
 _atom_site_fract_x
 _atom_site_fract_y
 _atom_site_fract_z
 _atom_site_occupancy
  Ag  Ag0  1  0.250000  0.263328  0.967532  1
  Ag  Ag1  1  0.750000  0.736672  0.032468  1
  Ag  Ag2  1  0.250000  0.853734  0.251837  1
  Ag  Ag3  1  0.750000  0.236672  0.467532  1
  Ag  Ag4  1  0.750000  0.646266  0.751837  1
  Ag  Ag5  1  0.250000  0.353734  0.248163  1
  Ag  Ag6  1  0.250000  0.763328  0.532468  1
  Ag  Ag7  1  0.750000  0.146266  0.748163  1
  N  N8  1  0.750000  0.642235  0.352998  1
  N  N9  1  0.250000  0.357765  0.647002  1
  N  N10  1  0.750000  0.142235  0.147002  1
  N  N11  1  0.250000  0.857765  0.852998  1
  Cl  Cl12  1  0.750000  0.896481  0.591455  1
  Cl  Cl13  1  0.750000  0.396481  0.908545  1
  Cl  Cl14  1  0.250000  0.603519  0.091455  1
  Cl  Cl15  1  0.250000  0.103519  0.408545  1
  O  O16  1  0.750000  0.290912  0.207813  1
  O  O17  1  0.036809  0.434043  0.616348  1
  O  O18  1  0.463191  0.934043  0.883652  1
  O  O19  1  0.250000  0.209088  0.707813  1
  O  O20  1  0.963191  0.065957  0.116348  1
  O  O21  1  0.536809  0.565957  0.383652  1
  O  O22  1  0.463191  0.434043  0.616348  1
  O  O23  1  0.250000  0.709088  0.792187  1
  O  O24  1  0.963191  0.565957  0.383652  1
  O  O25  1  0.036809  0.934043  0.883652  1
  O  O26  1  0.750000  0.790912  0.292187  1
  O  O27  1  0.536809  0.065957  0.116348  1
