# generated using pymatgen
data_Dy3S3N
_symmetry_space_group_name_H-M   'P 1'
_cell_length_a   3.82922932
_cell_length_b   11.93909703
_cell_length_c   12.90313394
_cell_angle_alpha   90.00000000
_cell_angle_beta   90.00000000
_cell_angle_gamma   90.00000000
_symmetry_Int_Tables_number   1
_chemical_formula_structural   Dy3S3N
_chemical_formula_sum   'Dy12 S12 N4'
_cell_volume   589.89954721
_cell_formula_units_Z   4
loop_
 _symmetry_equiv_pos_site_id
 _symmetry_equiv_pos_as_xyz
  1  'x, y, z'
loop_
 _atom_site_type_symbol
 _atom_site_label
 _atom_site_symmetry_multiplicity
 _atom_site_fract_x
 _atom_site_fract_y
 _atom_site_fract_z
 _atom_site_occupancy
  Dy  Dy0  1  0.250000  0.212955  0.139720  1
  Dy  Dy1  1  0.750000  0.431731  0.867861  1
  Dy  Dy2  1  0.750000  0.287045  0.639720  1
  Dy  Dy3  1  0.750000  0.931731  0.632139  1
  Dy  Dy4  1  0.750000  0.454203  0.356991  1
  Dy  Dy5  1  0.250000  0.712955  0.360280  1
  Dy  Dy6  1  0.750000  0.954203  0.143009  1
  Dy  Dy7  1  0.250000  0.568269  0.132139  1
  Dy  Dy8  1  0.750000  0.787045  0.860280  1
  Dy  Dy9  1  0.250000  0.045797  0.856991  1
  Dy  Dy10  1  0.250000  0.545797  0.643009  1
  Dy  Dy11  1  0.250000  0.068269  0.367861  1
  S  S12  1  0.750000  0.134180  0.008506  1
  S  S13  1  0.750000  0.634180  0.491494  1
  S  S14  1  0.250000  0.091876  0.599227  1
  S  S15  1  0.750000  0.226248  0.307192  1
  S  S16  1  0.750000  0.408124  0.099227  1
  S  S17  1  0.250000  0.273752  0.807192  1
  S  S18  1  0.750000  0.908124  0.400773  1
  S  S19  1  0.250000  0.591876  0.900773  1
  S  S20  1  0.250000  0.773752  0.692808  1
  S  S21  1  0.250000  0.365820  0.508506  1
  S  S22  1  0.250000  0.865820  0.991494  1
  S  S23  1  0.750000  0.726248  0.192808  1
  N  N24  1  0.250000  0.036415  0.201692  1
  N  N25  1  0.750000  0.463585  0.701692  1
  N  N26  1  0.250000  0.536415  0.298308  1
  N  N27  1  0.750000  0.963585  0.798308  1
