# generated using pymatgen
data_Nd2Mo(SeO5)2
_symmetry_space_group_name_H-M   'P 1'
_cell_length_a   5.45685157
_cell_length_b   6.97035594
_cell_length_c   12.76402040
_cell_angle_alpha   85.58831602
_cell_angle_beta   83.70154472
_cell_angle_gamma   69.94050308
_symmetry_Int_Tables_number   1
_chemical_formula_structural   Nd2Mo(SeO5)2
_chemical_formula_sum   'Nd4 Mo2 Se4 O20'
_cell_volume   452.88889918
_cell_formula_units_Z   2
loop_
 _symmetry_equiv_pos_site_id
 _symmetry_equiv_pos_as_xyz
  1  'x, y, z'
loop_
 _atom_site_type_symbol
 _atom_site_label
 _atom_site_symmetry_multiplicity
 _atom_site_fract_x
 _atom_site_fract_y
 _atom_site_fract_z
 _atom_site_occupancy
  Nd  Nd0  1  0.914491  0.113214  0.647762  1
  Nd  Nd1  1  0.832107  0.303432  0.952460  1
  Nd  Nd2  1  0.167893  0.696568  0.047540  1
  Nd  Nd3  1  0.085509  0.886786  0.352238  1
  Mo  Mo4  1  0.636479  0.722319  0.558847  1
  Mo  Mo5  1  0.363521  0.277681  0.441153  1
  Se  Se6  1  0.394498  0.102904  0.131210  1
  Se  Se7  1  0.738268  0.576903  0.223069  1
  Se  Se8  1  0.261732  0.423097  0.776931  1
  Se  Se9  1  0.605502  0.897096  0.868790  1
  O  O10  1  0.819268  0.835304  0.758122  1
  O  O11  1  0.412808  0.717977  0.202595  1
  O  O12  1  0.142558  0.491898  0.904911  1
  O  O13  1  0.853090  0.875295  0.529965  1
  O  O14  1  0.173365  0.526119  0.394012  1
  O  O15  1  0.479142  0.286572  0.566123  1
  O  O16  1  0.644871  0.158343  0.353095  1
  O  O17  1  0.561150  0.667302  0.919072  1
  O  O18  1  0.438850  0.332698  0.080928  1
  O  O19  1  0.183239  0.058301  0.044906  1
  O  O20  1  0.587192  0.282023  0.797405  1
  O  O21  1  0.180732  0.164696  0.241878  1
  O  O22  1  0.118948  0.232715  0.780263  1
  O  O23  1  0.857442  0.508102  0.095089  1
  O  O24  1  0.881052  0.767285  0.219737  1
  O  O25  1  0.816761  0.941699  0.955094  1
  O  O26  1  0.826635  0.473881  0.605988  1
  O  O27  1  0.520858  0.713428  0.433877  1
  O  O28  1  0.146910  0.124705  0.470035  1
  O  O29  1  0.355129  0.841657  0.646905  1
