# generated using pymatgen
data_BaMnFeF7
_symmetry_space_group_name_H-M   'P 1'
_cell_length_a   5.65807113
_cell_length_b   11.13575869
_cell_length_c   9.35392662
_cell_angle_alpha   90.00000000
_cell_angle_beta   94.73262671
_cell_angle_gamma   90.00000000
_symmetry_Int_Tables_number   1
_chemical_formula_structural   BaMnFeF7
_chemical_formula_sum   'Ba4 Mn4 Fe4 F28'
_cell_volume   587.35266639
_cell_formula_units_Z   4
loop_
 _symmetry_equiv_pos_site_id
 _symmetry_equiv_pos_as_xyz
  1  'x, y, z'
loop_
 _atom_site_type_symbol
 _atom_site_label
 _atom_site_symmetry_multiplicity
 _atom_site_fract_x
 _atom_site_fract_y
 _atom_site_fract_z
 _atom_site_occupancy
  Ba  Ba0  1  0.235404  0.668526  0.539930  1
  Ba  Ba1  1  0.764596  0.168526  0.960070  1
  Ba  Ba2  1  0.764596  0.331474  0.460070  1
  Ba  Ba3  1  0.235404  0.831474  0.039930  1
  Mn  Mn4  1  0.183933  0.435971  0.118657  1
  Mn  Mn5  1  0.816067  0.935971  0.381343  1
  Mn  Mn6  1  0.183933  0.064029  0.618657  1
  Mn  Mn7  1  0.816067  0.564029  0.881343  1
  Fe  Fe8  1  0.690563  0.619751  0.264900  1
  Fe  Fe9  1  0.309437  0.380249  0.735100  1
  Fe  Fe10  1  0.309437  0.119751  0.235100  1
  Fe  Fe11  1  0.690563  0.880249  0.764900  1
  F  F12  1  0.705898  0.905397  0.973082  1
  F  F13  1  0.294102  0.405397  0.526918  1
  F  F14  1  0.294102  0.094603  0.026918  1
  F  F15  1  0.705898  0.594603  0.473082  1
  F  F16  1  0.344652  0.145895  0.440992  1
  F  F17  1  0.655348  0.645895  0.059008  1
  F  F18  1  0.655348  0.854105  0.559008  1
  F  F19  1  0.344652  0.354105  0.940992  1
  F  F20  1  0.103719  0.238112  0.710696  1
  F  F21  1  0.896281  0.738112  0.789304  1
  F  F22  1  0.896281  0.761888  0.289304  1
  F  F23  1  0.103719  0.261888  0.210696  1
  F  F24  1  0.405752  0.713172  0.281842  1
  F  F25  1  0.594248  0.213172  0.218158  1
  F  F26  1  0.594248  0.286828  0.718158  1
  F  F27  1  0.405752  0.786828  0.781842  1
  F  F28  1  0.496153  0.969650  0.253604  1
  F  F29  1  0.503847  0.469650  0.246396  1
  F  F30  1  0.503847  0.030350  0.746396  1
  F  F31  1  0.496153  0.530350  0.753604  1
  F  F32  1  0.138140  0.601746  0.010174  1
  F  F33  1  0.861860  0.101746  0.489826  1
  F  F34  1  0.861860  0.398254  0.989826  1
  F  F35  1  0.138140  0.898254  0.510174  1
  F  F36  1  0.976999  0.515263  0.282212  1
  F  F37  1  0.023001  0.015263  0.217788  1
  F  F38  1  0.023001  0.484737  0.717788  1
  F  F39  1  0.976999  0.984737  0.782212  1
