# generated using pymatgen
data_Ca(BiO2)2
_symmetry_space_group_name_H-M   'P 1'
_cell_length_a   10.36860620
_cell_length_b   10.36860620
_cell_length_c   12.54287913
_cell_angle_alpha   61.91583102
_cell_angle_beta   118.08416898
_cell_angle_gamma   110.36172159
_symmetry_Int_Tables_number   1
_chemical_formula_structural   Ca(BiO2)2
_chemical_formula_sum   'Ca8 Bi16 O32'
_cell_volume   1035.69593613
_cell_formula_units_Z   8
loop_
 _symmetry_equiv_pos_site_id
 _symmetry_equiv_pos_as_xyz
  1  'x, y, z'
loop_
 _atom_site_type_symbol
 _atom_site_label
 _atom_site_symmetry_multiplicity
 _atom_site_fract_x
 _atom_site_fract_y
 _atom_site_fract_z
 _atom_site_occupancy
  Ca  Ca0  1  0.007886  0.417913  0.162642  1
  Ca  Ca1  1  0.052024  0.147306  0.081331  1
  Ca  Ca2  1  0.992114  0.582087  0.837358  1
  Ca  Ca3  1  0.582087  0.992114  0.662642  1
  Ca  Ca4  1  0.147306  0.052024  0.418669  1
  Ca  Ca5  1  0.947976  0.852694  0.918669  1
  Ca  Ca6  1  0.852694  0.947976  0.581331  1
  Ca  Ca7  1  0.417913  0.007886  0.337358  1
  Bi  Bi8  1  0.655607  0.531264  0.938640  1
  Bi  Bi9  1  0.243476  0.948087  0.766162  1
  Bi  Bi10  1  0.756524  0.051913  0.233838  1
  Bi  Bi11  1  0.350814  0.731053  0.217793  1
  Bi  Bi12  1  0.825288  0.654423  0.492713  1
  Bi  Bi13  1  0.174712  0.345577  0.507287  1
  Bi  Bi14  1  0.531264  0.655607  0.561360  1
  Bi  Bi15  1  0.344393  0.468736  0.061360  1
  Bi  Bi16  1  0.468736  0.344393  0.438640  1
  Bi  Bi17  1  0.654423  0.825288  0.007287  1
  Bi  Bi18  1  0.649186  0.268947  0.782207  1
  Bi  Bi19  1  0.051913  0.756524  0.266162  1
  Bi  Bi20  1  0.731053  0.350814  0.282207  1
  Bi  Bi21  1  0.948087  0.243476  0.733838  1
  Bi  Bi22  1  0.345577  0.174712  0.992713  1
  Bi  Bi23  1  0.268947  0.649186  0.717793  1
  O  O24  1  0.580139  0.037736  0.834164  1
  O  O25  1  0.572636  0.676744  0.399233  1
  O  O26  1  0.310400  0.709110  0.379898  1
  O  O27  1  0.961778  0.164244  0.216017  1
  O  O28  1  0.895499  0.888998  0.425214  1
  O  O29  1  0.219215  0.347105  0.358114  1
  O  O30  1  0.104501  0.111002  0.574786  1
  O  O31  1  0.835756  0.038222  0.716017  1
  O  O32  1  0.038222  0.835756  0.783983  1
  O  O33  1  0.652895  0.780785  0.858114  1
  O  O34  1  0.264231  0.890226  0.632689  1
  O  O35  1  0.419861  0.962264  0.165836  1
  O  O36  1  0.109774  0.735769  0.132689  1
  O  O37  1  0.890226  0.264231  0.867311  1
  O  O38  1  0.037736  0.580139  0.665836  1
  O  O39  1  0.416755  0.123931  0.457371  1
  O  O40  1  0.676744  0.572636  0.100767  1
  O  O41  1  0.962264  0.419861  0.334164  1
  O  O42  1  0.735769  0.109774  0.367311  1
  O  O43  1  0.888998  0.895499  0.074786  1
  O  O44  1  0.876069  0.583245  0.957371  1
  O  O45  1  0.427364  0.323256  0.600767  1
  O  O46  1  0.290890  0.689600  0.879898  1
  O  O47  1  0.164244  0.961778  0.283983  1
  O  O48  1  0.123931  0.416755  0.042629  1
  O  O49  1  0.583245  0.876069  0.542629  1
  O  O50  1  0.689600  0.290890  0.620102  1
  O  O51  1  0.709110  0.310400  0.120102  1
  O  O52  1  0.111002  0.104501  0.925214  1
  O  O53  1  0.780785  0.652895  0.641886  1
  O  O54  1  0.347105  0.219215  0.141886  1
  O  O55  1  0.323256  0.427364  0.899232  1
