# generated using pymatgen
data_Ca14GaAs11
_symmetry_space_group_name_H-M   'P 1'
_cell_length_a   15.38141202
_cell_length_b   15.38141202
_cell_length_c   15.38141202
_cell_angle_alpha   118.56242125
_cell_angle_beta   118.56242125
_cell_angle_gamma   92.50853336
_symmetry_Int_Tables_number   1
_chemical_formula_structural   Ca14GaAs11
_chemical_formula_sum   'Ca56 Ga4 As44'
_cell_volume   2626.39031616
_cell_formula_units_Z   4
loop_
 _symmetry_equiv_pos_site_id
 _symmetry_equiv_pos_as_xyz
  1  'x, y, z'
loop_
 _atom_site_type_symbol
 _atom_site_label
 _atom_site_symmetry_multiplicity
 _atom_site_fract_x
 _atom_site_fract_y
 _atom_site_fract_z
 _atom_site_occupancy
  Ca  Ca0  1  0.344382  0.240675  0.848861  1
  Ca  Ca1  1  0.358186  0.754479  0.348861  1
  Ca  Ca2  1  0.538220  0.373586  0.475575  1
  Ca  Ca3  1  0.405618  0.009325  0.651139  1
  Ca  Ca4  1  0.851989  0.187355  0.975575  1
  Ca  Ca5  1  0.130844  0.498184  0.720491  1
  Ca  Ca6  1  0.273095  0.375000  0.398095  1
  Ca  Ca7  1  0.625000  0.523095  0.398095  1
  Ca  Ca8  1  0.437355  0.601989  0.475575  1
  Ca  Ca9  1  0.160352  0.380844  0.132659  1
  Ca  Ca10  1  0.589648  0.869156  0.367341  1
  Ca  Ca11  1  0.004479  0.108186  0.848861  1
  Ca  Ca12  1  0.937355  0.461780  0.835366  1
  Ca  Ca13  1  0.972307  0.839648  0.220491  1
  Ca  Ca14  1  0.123586  0.148011  0.335366  1
  Ca  Ca15  1  0.660352  0.527693  0.779509  1
  Ca  Ca16  1  0.773095  0.375000  0.898095  1
  Ca  Ca17  1  0.277693  0.998184  0.367341  1
  Ca  Ca18  1  0.858186  0.509325  0.603707  1
  Ca  Ca19  1  0.490675  0.094382  0.348861  1
  Ca  Ca20  1  0.844382  0.995521  0.103707  1
  Ca  Ca21  1  0.625000  0.023095  0.898095  1
  Ca  Ca22  1  0.125000  0.726905  0.101905  1
  Ca  Ca23  1  0.898011  0.062645  0.524425  1
  Ca  Ca24  1  0.990675  0.641814  0.396293  1
  Ca  Ca25  1  0.126414  0.961780  0.524425  1
  Ca  Ca26  1  0.391814  0.495521  0.151139  1
  Ca  Ca27  1  0.312645  0.648011  0.024425  1
  Ca  Ca28  1  0.476905  0.875000  0.101905  1
  Ca  Ca29  1  0.211780  0.876414  0.024425  1
  Ca  Ca30  1  0.748184  0.880844  0.220491  1
  Ca  Ca31  1  0.248184  0.027693  0.867341  1
  Ca  Ca32  1  0.351989  0.376414  0.664634  1
  Ca  Ca33  1  0.711780  0.687355  0.335366  1
  Ca  Ca34  1  0.619156  0.751816  0.779509  1
  Ca  Ca35  1  0.089648  0.722307  0.720491  1
  Ca  Ca36  1  0.398011  0.873586  0.835366  1
  Ca  Ca37  1  0.001816  0.369156  0.279509  1
  Ca  Ca38  1  0.119156  0.339648  0.867341  1
  Ca  Ca39  1  0.777693  0.410352  0.279509  1
  Ca  Ca40  1  0.745521  0.141814  0.651139  1
  Ca  Ca41  1  0.905618  0.254479  0.396293  1
  Ca  Ca42  1  0.623586  0.288220  0.975575  1
  Ca  Ca43  1  0.504479  0.655618  0.896293  1
  Ca  Ca44  1  0.245521  0.594382  0.603707  1
  Ca  Ca45  1  0.976905  0.875000  0.601905  1
  Ca  Ca46  1  0.038220  0.562645  0.164634  1
  Ca  Ca47  1  0.891814  0.740675  0.896293  1
  Ca  Ca48  1  0.472307  0.251816  0.132659  1
  Ca  Ca49  1  0.759325  0.608186  0.103707  1
  Ca  Ca50  1  0.259325  0.155618  0.151139  1
  Ca  Ca51  1  0.630844  0.910352  0.632659  1
  Ca  Ca52  1  0.812645  0.788220  0.664634  1
  Ca  Ca53  1  0.626414  0.101989  0.164634  1
  Ca  Ca54  1  0.501816  0.222307  0.632659  1
  Ca  Ca55  1  0.125000  0.226905  0.601905  1
  Ga  Ga56  1  0.000000  0.000000  0.000000  1
  Ga  Ga57  1  0.500000  0.500000  0.000000  1
  Ga  Ga58  1  0.250000  0.750000  0.500000  1
  Ga  Ga59  1  0.750000  0.250000  0.500000  1
  As  As60  1  0.353045  0.207688  0.404685  1
  As  As61  1  0.792312  0.196997  0.145357  1
  As  As62  1  0.957688  0.053003  0.354643  1
  As  As63  1  0.062912  0.930332  0.859793  1
  As  As64  1  0.953119  0.312912  0.632580  1
  As  As65  1  0.896955  0.801639  0.354643  1
  As  As66  1  0.250000  0.250000  0.000000  1
  As  As67  1  0.296881  0.429462  0.859793  1
  As  As68  1  0.946997  0.301639  0.904685  1
  As  As69  1  0.179462  0.819668  0.632580  1
  As  As70  1  0.116308  0.116308  0.732616  1
  As  As71  1  0.303003  0.707688  0.854643  1
  As  As72  1  0.457688  0.103045  0.904685  1
  As  As73  1  0.562912  0.703119  0.132580  1
  As  As74  1  0.453119  0.820538  0.640207  1
  As  As75  1  0.180332  0.812912  0.359793  1
  As  As76  1  0.051639  0.646955  0.854643  1
  As  As77  1  0.383692  0.383692  0.267384  1
  As  As78  1  0.569668  0.437088  0.140207  1
  As  As79  1  0.866308  0.633692  0.500000  1
  As  As80  1  0.680332  0.320538  0.367420  1
  As  As81  1  0.500000  0.000000  0.500000  1
  As  As82  1  0.187088  0.546881  0.367420  1
  As  As83  1  0.853045  0.448361  0.145357  1
  As  As84  1  0.570538  0.430332  0.867420  1
  As  As85  1  0.679462  0.046881  0.359793  1
  As  As86  1  0.198361  0.553003  0.095315  1
  As  As87  1  0.292312  0.146955  0.595315  1
  As  As88  1  0.366308  0.866308  0.232616  1
  As  As89  1  0.070538  0.203119  0.140207  1
  As  As90  1  0.446997  0.542312  0.645357  1
  As  As91  1  0.750000  0.750000  0.000000  1
  As  As92  1  0.616308  0.883692  0.000000  1
  As  As93  1  0.883692  0.616308  0.000000  1
  As  As94  1  0.803003  0.948361  0.595315  1
  As  As95  1  0.000000  0.500000  0.500000  1
  As  As96  1  0.133692  0.366308  0.500000  1
  As  As97  1  0.698361  0.603045  0.645357  1
  As  As98  1  0.551639  0.696997  0.404685  1
  As  As99  1  0.633692  0.133692  0.767384  1
  As  As100  1  0.396955  0.042312  0.095315  1
  As  As101  1  0.069668  0.929462  0.132580  1
  As  As102  1  0.687088  0.319668  0.640207  1
  As  As103  1  0.796881  0.937088  0.867420  1
