# generated using pymatgen
data_Pb13(Cl3O5)2
_symmetry_space_group_name_H-M   'P 1'
_cell_length_a   8.91626580
_cell_length_b   8.91626580
_cell_length_c   23.79500519
_cell_angle_alpha   82.75094805
_cell_angle_beta   97.24905195
_cell_angle_gamma   133.16783645
_symmetry_Int_Tables_number   1
_chemical_formula_structural   Pb13(Cl3O5)2
_chemical_formula_sum   'Pb26 Cl12 O20'
_cell_volume   1366.60901417
_cell_formula_units_Z   2
loop_
 _symmetry_equiv_pos_site_id
 _symmetry_equiv_pos_as_xyz
  1  'x, y, z'
loop_
 _atom_site_type_symbol
 _atom_site_label
 _atom_site_symmetry_multiplicity
 _atom_site_fract_x
 _atom_site_fract_y
 _atom_site_fract_z
 _atom_site_occupancy
  Pb  Pb0  1  0.674450  0.883046  0.209320  1
  Pb  Pb1  1  0.618026  0.266619  0.153238  1
  Pb  Pb2  1  0.006292  0.840299  0.133414  1
  Pb  Pb3  1  0.840299  0.006292  0.366586  1
  Pb  Pb4  1  0.949963  0.222091  0.083211  1
  Pb  Pb5  1  0.116954  0.325550  0.709320  1
  Pb  Pb6  1  0.292243  0.197073  0.011437  1
  Pb  Pb7  1  0.166083  0.633589  0.562629  1
  Pb  Pb8  1  0.993708  0.159701  0.866586  1
  Pb  Pb9  1  0.236423  0.236423  0.250000  1
  Pb  Pb10  1  0.802927  0.707757  0.511437  1
  Pb  Pb11  1  0.777909  0.050037  0.583211  1
  Pb  Pb12  1  0.833917  0.366411  0.437371  1
  Pb  Pb13  1  0.366411  0.833917  0.062629  1
  Pb  Pb14  1  0.159701  0.993708  0.633414  1
  Pb  Pb15  1  0.633589  0.166083  0.937371  1
  Pb  Pb16  1  0.325550  0.116954  0.790680  1
  Pb  Pb17  1  0.883046  0.674450  0.290680  1
  Pb  Pb18  1  0.197073  0.292243  0.488563  1
  Pb  Pb19  1  0.733381  0.381974  0.653238  1
  Pb  Pb20  1  0.707757  0.802927  0.988563  1
  Pb  Pb21  1  0.222091  0.949963  0.416789  1
  Pb  Pb22  1  0.050037  0.777909  0.916789  1
  Pb  Pb23  1  0.266619  0.618026  0.346762  1
  Pb  Pb24  1  0.381974  0.733381  0.846762  1
  Pb  Pb25  1  0.763577  0.763577  0.750000  1
  Cl  Cl26  1  0.494250  0.819015  0.456316  1
  Cl  Cl27  1  0.009327  0.649915  0.747402  1
  Cl  Cl28  1  0.429135  0.494446  0.635398  1
  Cl  Cl29  1  0.494446  0.429135  0.864602  1
  Cl  Cl30  1  0.350085  0.990673  0.247402  1
  Cl  Cl31  1  0.570865  0.505554  0.364602  1
  Cl  Cl32  1  0.505750  0.180985  0.543684  1
  Cl  Cl33  1  0.649915  0.009327  0.752598  1
  Cl  Cl34  1  0.505554  0.570865  0.135398  1
  Cl  Cl35  1  0.990673  0.350085  0.252598  1
  Cl  Cl36  1  0.180985  0.505750  0.956316  1
  Cl  Cl37  1  0.819015  0.494250  0.043684  1
  O  O38  1  0.985289  0.032349  0.182931  1
  O  O39  1  0.982235  0.326164  0.518274  1
  O  O40  1  0.002157  0.981987  0.441928  1
  O  O41  1  0.950254  0.669470  0.598466  1
  O  O42  1  0.967651  0.014711  0.682931  1
  O  O43  1  0.997843  0.018013  0.558072  1
  O  O44  1  0.032349  0.985289  0.317069  1
  O  O45  1  0.326164  0.982235  0.981726  1
  O  O46  1  0.330530  0.049746  0.098466  1
  O  O47  1  0.018013  0.997843  0.941928  1
  O  O48  1  0.660767  0.052334  0.136403  1
  O  O49  1  0.947666  0.339233  0.636403  1
  O  O50  1  0.673836  0.017765  0.018274  1
  O  O51  1  0.052334  0.660767  0.363597  1
  O  O52  1  0.981987  0.002157  0.058072  1
  O  O53  1  0.669469  0.950254  0.901534  1
  O  O54  1  0.014711  0.967651  0.817069  1
  O  O55  1  0.049746  0.330530  0.401534  1
  O  O56  1  0.339233  0.947666  0.863597  1
  O  O57  1  0.017765  0.673836  0.481726  1
