# generated using pymatgen
data_K2BiF5
_symmetry_space_group_name_H-M   'P 1'
_cell_length_a   6.70982052
_cell_length_b   7.56711340
_cell_length_c   11.61122938
_cell_angle_alpha   90.00000000
_cell_angle_beta   90.00000000
_cell_angle_gamma   90.00000000
_symmetry_Int_Tables_number   1
_chemical_formula_structural   K2BiF5
_chemical_formula_sum   'K8 Bi4 F20'
_cell_volume   589.54824435
_cell_formula_units_Z   4
loop_
 _symmetry_equiv_pos_site_id
 _symmetry_equiv_pos_as_xyz
  1  'x, y, z'
loop_
 _atom_site_type_symbol
 _atom_site_label
 _atom_site_symmetry_multiplicity
 _atom_site_fract_x
 _atom_site_fract_y
 _atom_site_fract_z
 _atom_site_occupancy
  K  K0  1  0.992841  0.001135  0.330728  1
  K  K1  1  0.992841  0.498865  0.330728  1
  K  K2  1  0.492841  0.501135  0.169272  1
  K  K3  1  0.507159  0.498865  0.830728  1
  K  K4  1  0.007159  0.501135  0.669272  1
  K  K5  1  0.507159  0.001135  0.830728  1
  K  K6  1  0.492841  0.998865  0.169272  1
  K  K7  1  0.007159  0.998865  0.669272  1
  Bi  Bi8  1  0.062436  0.250000  0.954970  1
  Bi  Bi9  1  0.437564  0.250000  0.454970  1
  Bi  Bi10  1  0.562436  0.750000  0.545030  1
  Bi  Bi11  1  0.937564  0.750000  0.045030  1
  F  F12  1  0.775088  0.750000  0.215364  1
  F  F13  1  0.887870  0.454633  0.092937  1
  F  F14  1  0.691834  0.250000  0.329465  1
  F  F15  1  0.612130  0.454633  0.592937  1
  F  F16  1  0.387870  0.545367  0.407063  1
  F  F17  1  0.724912  0.750000  0.715364  1
  F  F18  1  0.890938  0.750000  0.488565  1
  F  F19  1  0.609062  0.750000  0.988565  1
  F  F20  1  0.275088  0.250000  0.284636  1
  F  F21  1  0.887870  0.045367  0.092937  1
  F  F22  1  0.308166  0.750000  0.670535  1
  F  F23  1  0.808166  0.250000  0.829465  1
  F  F24  1  0.224912  0.250000  0.784636  1
  F  F25  1  0.387870  0.954633  0.407063  1
  F  F26  1  0.390938  0.250000  0.011435  1
  F  F27  1  0.109062  0.250000  0.511435  1
  F  F28  1  0.612130  0.045367  0.592937  1
  F  F29  1  0.112130  0.954633  0.907063  1
  F  F30  1  0.191834  0.750000  0.170535  1
  F  F31  1  0.112130  0.545367  0.907063  1
