# generated using pymatgen
data_CaZr4O9
_symmetry_space_group_name_H-M   'P 1'
_cell_length_a   11.63307668
_cell_length_b   11.63307668
_cell_length_c   12.19523889
_cell_angle_alpha   67.83947986
_cell_angle_beta   112.16052014
_cell_angle_gamma   100.93047253
_symmetry_Int_Tables_number   1
_chemical_formula_structural   CaZr4O9
_chemical_formula_sum   'Ca8 Zr32 O72'
_cell_volume   1413.38895294
_cell_formula_units_Z   8
loop_
 _symmetry_equiv_pos_site_id
 _symmetry_equiv_pos_as_xyz
  1  'x, y, z'
loop_
 _atom_site_type_symbol
 _atom_site_label
 _atom_site_symmetry_multiplicity
 _atom_site_fract_x
 _atom_site_fract_y
 _atom_site_fract_z
 _atom_site_occupancy
  Ca  Ca0  1  0.063670  0.063670  0.250000  1
  Ca  Ca1  1  0.436960  0.436960  0.750000  1
  Ca  Ca2  1  0.563040  0.563040  0.250000  1
  Ca  Ca3  1  0.886482  0.488399  0.350016  1
  Ca  Ca4  1  0.936330  0.936330  0.750000  1
  Ca  Ca5  1  0.488399  0.886482  0.149984  1
  Ca  Ca6  1  0.113518  0.511601  0.649984  1
  Ca  Ca7  1  0.511601  0.113518  0.850016  1
  Zr  Zr8  1  0.115980  0.744588  0.348921  1
  Zr  Zr9  1  0.358440  0.748304  0.619979  1
  Zr  Zr10  1  0.007640  0.377521  0.177016  1
  Zr  Zr11  1  0.581146  0.789068  0.949103  1
  Zr  Zr12  1  0.748304  0.358440  0.880021  1
  Zr  Zr13  1  0.185908  0.185908  0.750000  1
  Zr  Zr14  1  0.485848  0.666138  0.449877  1
  Zr  Zr15  1  0.210932  0.418854  0.449103  1
  Zr  Zr16  1  0.333862  0.514152  0.949877  1
  Zr  Zr17  1  0.255412  0.884020  0.848921  1
  Zr  Zr18  1  0.514152  0.333862  0.550123  1
  Zr  Zr19  1  0.687483  0.687483  0.750000  1
  Zr  Zr20  1  0.251696  0.641560  0.119979  1
  Zr  Zr21  1  0.064792  0.303773  0.949579  1
  Zr  Zr22  1  0.622479  0.992360  0.677016  1
  Zr  Zr23  1  0.696227  0.935208  0.449579  1
  Zr  Zr24  1  0.884020  0.255412  0.651079  1
  Zr  Zr25  1  0.641560  0.251696  0.380021  1
  Zr  Zr26  1  0.848387  0.064601  0.934417  1
  Zr  Zr27  1  0.789068  0.581146  0.550897  1
  Zr  Zr28  1  0.151613  0.935399  0.065583  1
  Zr  Zr29  1  0.992360  0.622479  0.822984  1
  Zr  Zr30  1  0.418854  0.210932  0.050897  1
  Zr  Zr31  1  0.814092  0.814092  0.250000  1
  Zr  Zr32  1  0.064601  0.848387  0.565583  1
  Zr  Zr33  1  0.666138  0.485848  0.050123  1
  Zr  Zr34  1  0.935399  0.151613  0.434417  1
  Zr  Zr35  1  0.744588  0.115980  0.151079  1
  Zr  Zr36  1  0.377521  0.007640  0.322984  1
  Zr  Zr37  1  0.935208  0.696227  0.050421  1
  Zr  Zr38  1  0.312517  0.312517  0.250000  1
  Zr  Zr39  1  0.303773  0.064792  0.550421  1
  O  O40  1  0.682081  0.272897  0.558544  1
  O  O41  1  0.263565  0.868830  0.671463  1
  O  O42  1  0.323786  0.039336  0.122951  1
  O  O43  1  0.105268  0.045350  0.477347  1
  O  O44  1  0.543498  0.805450  0.754465  1
  O  O45  1  0.097309  0.552909  0.420807  1
  O  O46  1  0.894732  0.954650  0.522653  1
  O  O47  1  0.117310  0.495174  0.855644  1
  O  O48  1  0.868830  0.263565  0.828537  1
  O  O49  1  0.673178  0.422676  0.237674  1
  O  O50  1  0.877795  0.721853  0.848811  1
  O  O51  1  0.507373  0.648491  0.637866  1
  O  O52  1  0.221059  0.361884  0.632420  1
  O  O53  1  0.926116  0.719902  0.214247  1
  O  O54  1  0.039336  0.323786  0.377049  1
  O  O55  1  0.194550  0.456502  0.254465  1
  O  O56  1  0.074352  0.811211  0.759453  1
  O  O57  1  0.131170  0.736435  0.171463  1
  O  O58  1  0.811211  0.074352  0.740547  1
  O  O59  1  0.272897  0.682081  0.941456  1
  O  O60  1  0.736435  0.131170  0.328537  1
  O  O61  1  0.993947  0.852471  0.371515  1
  O  O62  1  0.162936  0.723565  0.544852  1
  O  O63  1  0.447091  0.902691  0.920807  1
  O  O64  1  0.456502  0.194550  0.245535  1
  O  O65  1  0.147529  0.006053  0.871515  1
  O  O66  1  0.603483  0.061809  0.476801  1
  O  O67  1  0.045349  0.105268  0.022653  1
  O  O68  1  0.882690  0.504826  0.144356  1
  O  O69  1  0.317753  0.268678  0.476027  1
  O  O70  1  0.394352  0.484153  0.509737  1
  O  O71  1  0.422676  0.673178  0.262326  1
  O  O72  1  0.676214  0.960664  0.877049  1
  O  O73  1  0.778941  0.638116  0.367580  1
  O  O74  1  0.731322  0.682247  0.976027  1
  O  O75  1  0.723565  0.162936  0.955148  1
  O  O76  1  0.552909  0.097309  0.079193  1
  O  O77  1  0.073884  0.280098  0.785753  1
  O  O78  1  0.805450  0.543498  0.745535  1
  O  O79  1  0.317919  0.727103  0.441456  1
  O  O80  1  0.605648  0.515847  0.490263  1
  O  O81  1  0.326822  0.577324  0.762326  1
  O  O82  1  0.484153  0.394352  0.990263  1
  O  O83  1  0.122205  0.278147  0.151189  1
  O  O84  1  0.727103  0.317919  0.058544  1
  O  O85  1  0.492627  0.351509  0.362134  1
  O  O86  1  0.006053  0.147529  0.628485  1
  O  O87  1  0.577324  0.326822  0.737674  1
  O  O88  1  0.925648  0.188789  0.240547  1
  O  O89  1  0.276435  0.837064  0.044852  1
  O  O90  1  0.902691  0.447091  0.579193  1
  O  O91  1  0.278147  0.122205  0.348811  1
  O  O92  1  0.837064  0.276435  0.455148  1
  O  O93  1  0.351509  0.492627  0.137866  1
  O  O94  1  0.504826  0.882690  0.355644  1
  O  O95  1  0.515847  0.605648  0.009737  1
  O  O96  1  0.852471  0.993947  0.128485  1
  O  O97  1  0.638116  0.778941  0.132420  1
  O  O98  1  0.361884  0.221059  0.867580  1
  O  O99  1  0.719902  0.926116  0.285753  1
  O  O100  1  0.682247  0.731322  0.523973  1
  O  O101  1  0.396517  0.938191  0.523199  1
  O  O102  1  0.648491  0.507373  0.862134  1
  O  O103  1  0.938191  0.396517  0.976801  1
  O  O104  1  0.960664  0.676214  0.622951  1
  O  O105  1  0.495174  0.117310  0.644356  1
  O  O106  1  0.954651  0.894732  0.977347  1
  O  O107  1  0.280098  0.073884  0.714247  1
  O  O108  1  0.721853  0.877795  0.651189  1
  O  O109  1  0.061809  0.603483  0.023199  1
  O  O110  1  0.268678  0.317753  0.023973  1
  O  O111  1  0.188789  0.925648  0.259453  1
