# generated using pymatgen
data_Rb4P2Se9
_symmetry_space_group_name_H-M   'P 1'
_cell_length_a   7.34275555
_cell_length_b   7.34275555
_cell_length_c   19.60804207
_cell_angle_alpha   87.78478761
_cell_angle_beta   92.21521239
_cell_angle_gamma   85.54704002
_symmetry_Int_Tables_number   1
_chemical_formula_structural   Rb4P2Se9
_chemical_formula_sum   'Rb8 P4 Se18'
_cell_volume   1052.28846087
_cell_formula_units_Z   2
loop_
 _symmetry_equiv_pos_site_id
 _symmetry_equiv_pos_as_xyz
  1  'x, y, z'
loop_
 _atom_site_type_symbol
 _atom_site_label
 _atom_site_symmetry_multiplicity
 _atom_site_fract_x
 _atom_site_fract_y
 _atom_site_fract_z
 _atom_site_occupancy
  Rb  Rb0  1  0.780425  0.717460  0.474607  1
  Rb  Rb1  1  0.219575  0.282540  0.525393  1
  Rb  Rb2  1  0.564495  0.247980  0.320891  1
  Rb  Rb3  1  0.435505  0.752020  0.679109  1
  Rb  Rb4  1  0.247980  0.564495  0.179109  1
  Rb  Rb5  1  0.282540  0.219575  0.974607  1
  Rb  Rb6  1  0.717460  0.780425  0.025393  1
  Rb  Rb7  1  0.752020  0.435505  0.820891  1
  P  P8  1  0.254483  0.730958  0.381517  1
  P  P9  1  0.730958  0.254483  0.118483  1
  P  P10  1  0.745517  0.269042  0.618483  1
  P  P11  1  0.269042  0.745517  0.881517  1
  Se  Se12  1  0.952417  0.011197  0.647383  1
  Se  Se13  1  0.516776  0.879644  0.858412  1
  Se  Se14  1  0.047583  0.988803  0.352617  1
  Se  Se15  1  0.499658  0.754488  0.323153  1
  Se  Se16  1  0.276286  0.788153  0.491037  1
  Se  Se17  1  0.723714  0.211847  0.508963  1
  Se  Se18  1  0.483224  0.120356  0.141588  1
  Se  Se19  1  0.011197  0.952417  0.852617  1
  Se  Se20  1  0.754488  0.499659  0.176847  1
  Se  Se21  1  0.988803  0.047583  0.147383  1
  Se  Se22  1  0.211847  0.723714  0.991037  1
  Se  Se23  1  0.500341  0.245512  0.676847  1
  Se  Se24  1  0.245512  0.500341  0.823153  1
  Se  Se25  1  0.788153  0.276286  0.008963  1
  Se  Se26  1  0.901009  0.901009  0.250000  1
  Se  Se27  1  0.120356  0.483224  0.358412  1
  Se  Se28  1  0.879644  0.516776  0.641588  1
  Se  Se29  1  0.098991  0.098991  0.750000  1
