# generated using pymatgen
data_ZnS
_symmetry_space_group_name_H-M   'P 1'
_cell_length_a   3.85196737
_cell_length_b   3.85196737
_cell_length_c   81.88390551
_cell_angle_alpha   90.00000000
_cell_angle_beta   90.00000000
_cell_angle_gamma   120.00000000
_symmetry_Int_Tables_number   1
_chemical_formula_structural   ZnS
_chemical_formula_sum   'Zn26 S26'
_cell_volume   1052.19050692
_cell_formula_units_Z   26
loop_
 _symmetry_equiv_pos_site_id
 _symmetry_equiv_pos_as_xyz
  1  'x, y, z'
loop_
 _atom_site_type_symbol
 _atom_site_label
 _atom_site_symmetry_multiplicity
 _atom_site_fract_x
 _atom_site_fract_y
 _atom_site_fract_z
 _atom_site_occupancy
  Zn  Zn0  1  0.000000  0.000000  0.692326  1
  Zn  Zn1  1  0.333333  0.666667  0.115392  1
  Zn  Zn2  1  0.000000  0.000000  0.461554  1
  Zn  Zn3  1  0.666667  0.333333  0.769239  1
  Zn  Zn4  1  0.666667  0.333333  0.653853  1
  Zn  Zn5  1  0.333333  0.666667  0.230777  1
  Zn  Zn6  1  0.000000  0.000000  0.961542  1
  Zn  Zn7  1  0.666667  0.333333  0.884627  1
  Zn  Zn8  1  0.666667  0.333333  0.038472  1
  Zn  Zn9  1  0.000000  0.000000  0.192313  1
  Zn  Zn10  1  0.333333  0.666667  0.807710  1
  Zn  Zn11  1  0.333333  0.666667  0.730775  1
  Zn  Zn12  1  0.000000  0.000000  0.076931  1
  Zn  Zn13  1  0.666667  0.333333  0.423084  1
  Zn  Zn14  1  0.000000  0.000000  0.846163  1
  Zn  Zn15  1  0.333333  0.666667  0.576940  1
  Zn  Zn16  1  0.666667  0.333333  0.538470  1
  Zn  Zn17  1  0.333333  0.666667  0.000018  1
  Zn  Zn18  1  0.666667  0.333333  0.307701  1
  Zn  Zn19  1  0.666667  0.333333  0.153856  1
  Zn  Zn20  1  0.000000  0.000000  0.269251  1
  Zn  Zn21  1  0.333333  0.666667  0.923084  1
  Zn  Zn22  1  0.000000  0.000000  0.615388  1
  Zn  Zn23  1  0.333333  0.666667  0.500005  1
  Zn  Zn24  1  0.000000  0.000000  0.384623  1
  Zn  Zn25  1  0.333333  0.666667  0.346164  1
  S  S26  1  0.333333  0.666667  0.028839  1
  S  S27  1  0.333333  0.666667  0.759585  1
  S  S28  1  0.666667  0.333333  0.682704  1
  S  S29  1  0.666667  0.333333  0.336530  1
  S  S30  1  0.000000  0.000000  0.221123  1
  S  S31  1  0.666667  0.333333  0.798087  1
  S  S32  1  0.000000  0.000000  0.721143  1
  S  S33  1  0.333333  0.666667  0.605759  1
  S  S34  1  0.666667  0.333333  0.067295  1
  S  S35  1  0.666667  0.333333  0.913453  1
  S  S36  1  0.666667  0.333333  0.451933  1
  S  S37  1  0.000000  0.000000  0.105759  1
  S  S38  1  0.000000  0.000000  0.874992  1
  S  S39  1  0.000000  0.000000  0.298065  1
  S  S40  1  0.333333  0.666667  0.951891  1
  S  S41  1  0.000000  0.000000  0.490370  1
  S  S42  1  0.000000  0.000000  0.990394  1
  S  S43  1  0.666667  0.333333  0.182683  1
  S  S44  1  0.333333  0.666667  0.836528  1
  S  S45  1  0.333333  0.666667  0.259630  1
  S  S46  1  0.000000  0.000000  0.413431  1
  S  S47  1  0.333333  0.666667  0.144223  1
  S  S48  1  0.333333  0.666667  0.528817  1
  S  S49  1  0.666667  0.333333  0.567320  1
  S  S50  1  0.333333  0.666667  0.374991  1
  S  S51  1  0.000000  0.000000  0.644197  1
