# generated using pymatgen
data_KBe(PO3)3
_symmetry_space_group_name_H-M   'P 1'
_cell_length_a   7.96860464
_cell_length_b   8.74131958
_cell_length_c   11.57532445
_cell_angle_alpha   90.00000000
_cell_angle_beta   90.00000000
_cell_angle_gamma   90.00000000
_symmetry_Int_Tables_number   1
_chemical_formula_structural   KBe(PO3)3
_chemical_formula_sum   'K4 Be4 P12 O36'
_cell_volume   806.29218621
_cell_formula_units_Z   4
loop_
 _symmetry_equiv_pos_site_id
 _symmetry_equiv_pos_as_xyz
  1  'x, y, z'
loop_
 _atom_site_type_symbol
 _atom_site_label
 _atom_site_symmetry_multiplicity
 _atom_site_fract_x
 _atom_site_fract_y
 _atom_site_fract_z
 _atom_site_occupancy
  K  K0  1  0.502074  0.204595  0.066990  1
  K  K1  1  0.002074  0.295405  0.933010  1
  K  K2  1  0.497926  0.704595  0.433010  1
  K  K3  1  0.997926  0.795405  0.566990  1
  Be  Be4  1  0.680225  0.290299  0.372729  1
  Be  Be5  1  0.180225  0.209701  0.627271  1
  Be  Be6  1  0.319775  0.790299  0.127271  1
  Be  Be7  1  0.819775  0.709701  0.872729  1
  P  P8  1  0.809961  0.002445  0.298574  1
  P  P9  1  0.818641  0.494480  0.203396  1
  P  P10  1  0.190039  0.502445  0.201426  1
  P  P11  1  0.681359  0.505520  0.703396  1
  P  P12  1  0.309961  0.497555  0.701426  1
  P  P13  1  0.191593  0.707319  0.882515  1
  P  P14  1  0.808407  0.207319  0.617485  1
  P  P15  1  0.690039  0.997555  0.798574  1
  P  P16  1  0.318641  0.005520  0.796604  1
  P  P17  1  0.181359  0.994480  0.296604  1
  P  P18  1  0.691593  0.792681  0.117485  1
  P  P19  1  0.308407  0.292681  0.382515  1
  O  O20  1  0.739483  0.245845  0.501802  1
  O  O21  1  0.214585  0.900037  0.400632  1
  O  O22  1  0.014279  0.648578  0.873940  1
  O  O23  1  0.714585  0.599963  0.599368  1
  O  O24  1  0.705379  0.650194  0.203855  1
  O  O25  1  0.996983  0.073020  0.298317  1
  O  O26  1  0.260517  0.745845  0.998198  1
  O  O27  1  0.496983  0.426980  0.701683  1
  O  O28  1  0.207667  0.929494  0.177120  1
  O  O29  1  0.811323  0.920903  0.171615  1
  O  O30  1  0.694024  0.139385  0.288614  1
  O  O31  1  0.305976  0.639385  0.211386  1
  O  O32  1  0.782615  0.888749  0.392132  1
  O  O33  1  0.805976  0.860615  0.788614  1
  O  O34  1  0.188677  0.420903  0.328385  1
  O  O35  1  0.785415  0.400037  0.099368  1
  O  O36  1  0.285415  0.099963  0.900632  1
  O  O37  1  0.294621  0.150194  0.296145  1
  O  O38  1  0.717385  0.111251  0.892132  1
  O  O39  1  0.194024  0.360615  0.711386  1
  O  O40  1  0.239483  0.254155  0.498198  1
  O  O41  1  0.282615  0.611251  0.607868  1
  O  O42  1  0.760517  0.754155  0.001802  1
  O  O43  1  0.792333  0.429494  0.322880  1
  O  O44  1  0.003017  0.573020  0.201683  1
  O  O45  1  0.688677  0.079097  0.671615  1
  O  O46  1  0.514279  0.851422  0.126060  1
  O  O47  1  0.311323  0.579097  0.828385  1
  O  O48  1  0.485721  0.351422  0.373940  1
  O  O49  1  0.217385  0.388749  0.107868  1
  O  O50  1  0.205379  0.849806  0.796145  1
  O  O51  1  0.794621  0.349806  0.703855  1
  O  O52  1  0.503017  0.926980  0.798317  1
  O  O53  1  0.292333  0.070506  0.677120  1
  O  O54  1  0.707667  0.570506  0.822880  1
  O  O55  1  0.985721  0.148578  0.626060  1
