# generated using pymatgen
data_Na3SrPCO7
_symmetry_space_group_name_H-M   'P 1'
_cell_length_a   5.38308612
_cell_length_b   7.08961512
_cell_length_c   9.28360967
_cell_angle_alpha   90.00000000
_cell_angle_beta   90.26496595
_cell_angle_gamma   90.00000000
_symmetry_Int_Tables_number   1
_chemical_formula_structural   Na3SrPCO7
_chemical_formula_sum   'Na6 Sr2 P2 C2 O14'
_cell_volume   354.29597234
_cell_formula_units_Z   2
loop_
 _symmetry_equiv_pos_site_id
 _symmetry_equiv_pos_as_xyz
  1  'x, y, z'
loop_
 _atom_site_type_symbol
 _atom_site_label
 _atom_site_symmetry_multiplicity
 _atom_site_fract_x
 _atom_site_fract_y
 _atom_site_fract_z
 _atom_site_occupancy
  Na  Na0  1  0.502735  0.702545  0.831816  1
  Na  Na1  1  0.988995  0.982080  0.983660  1
  Na  Na2  1  0.497265  0.202545  0.168184  1
  Na  Na3  1  0.523604  0.977091  0.519890  1
  Na  Na4  1  0.476396  0.477091  0.480110  1
  Na  Na5  1  0.011005  0.482080  0.016340  1
  Sr  Sr6  1  0.017778  0.763403  0.314944  1
  Sr  Sr7  1  0.982222  0.263403  0.685056  1
  P  P8  1  0.998525  0.233475  0.329916  1
  P  P9  1  0.001475  0.733475  0.670084  1
  C  C10  1  0.512176  0.745954  0.144394  1
  C  C11  1  0.487824  0.245954  0.855606  1
  O  O12  1  0.925649  0.924600  0.739848  1
  O  O13  1  0.778043  0.255741  0.436373  1
  O  O14  1  0.712735  0.724841  0.068438  1
  O  O15  1  0.773604  0.656572  0.585579  1
  O  O16  1  0.074351  0.424600  0.260152  1
  O  O17  1  0.917428  0.090627  0.211360  1
  O  O18  1  0.524354  0.745569  0.285168  1
  O  O19  1  0.701753  0.268501  0.919537  1
  O  O20  1  0.287265  0.224841  0.931562  1
  O  O21  1  0.298247  0.768501  0.080463  1
  O  O22  1  0.475646  0.245569  0.714832  1
  O  O23  1  0.226396  0.156572  0.414421  1
  O  O24  1  0.082572  0.590627  0.788640  1
  O  O25  1  0.221957  0.755741  0.563627  1
