# generated using pymatgen
data_H8C2BrN
_symmetry_space_group_name_H-M   'P 1'
_cell_length_a   4.71973179
_cell_length_b   6.28166898
_cell_length_c   8.52901332
_cell_angle_alpha   90.00000000
_cell_angle_beta   93.33707992
_cell_angle_gamma   90.00000000
_symmetry_Int_Tables_number   1
_chemical_formula_structural   H8C2BrN
_chemical_formula_sum   'H16 C4 Br2 N2'
_cell_volume   252.43764746
_cell_formula_units_Z   2
loop_
 _symmetry_equiv_pos_site_id
 _symmetry_equiv_pos_as_xyz
  1  'x, y, z'
loop_
 _atom_site_type_symbol
 _atom_site_label
 _atom_site_symmetry_multiplicity
 _atom_site_fract_x
 _atom_site_fract_y
 _atom_site_fract_z
 _atom_site_occupancy
  H  H0  1  0.820379  0.107839  0.275874  1
  H  H1  1  0.752729  0.613680  0.866147  1
  H  H2  1  0.179621  0.607839  0.724126  1
  H  H3  1  0.967962  0.750000  0.464969  1
  H  H4  1  0.983072  0.250000  0.036706  1
  H  H5  1  0.290749  0.392047  0.433508  1
  H  H6  1  0.290749  0.107953  0.433508  1
  H  H7  1  0.179621  0.892161  0.724126  1
  H  H8  1  0.247271  0.113680  0.133853  1
  H  H9  1  0.247271  0.386320  0.133853  1
  H  H10  1  0.709251  0.607953  0.566492  1
  H  H11  1  0.032038  0.250000  0.535031  1
  H  H12  1  0.820379  0.392161  0.275874  1
  H  H13  1  0.016928  0.750000  0.963294  1
  H  H14  1  0.709251  0.892047  0.566492  1
  H  H15  1  0.752729  0.886320  0.866147  1
  C  C16  1  0.956441  0.250000  0.282598  1
  C  C17  1  0.043559  0.750000  0.717402  1
  C  C18  1  0.845438  0.750000  0.570542  1
  C  C19  1  0.154562  0.250000  0.429458  1
  Br  Br20  1  0.382266  0.750000  0.157653  1
  Br  Br21  1  0.617734  0.250000  0.842347  1
  N  N22  1  0.121138  0.250000  0.137792  1
  N  N23  1  0.878862  0.750000  0.862208  1
