# generated using pymatgen
data_NaGaO2
_symmetry_space_group_name_H-M   'P 1'
_cell_length_a   5.39804734
_cell_length_b   10.78252675
_cell_length_c   14.90975663
_cell_angle_alpha   90.00000000
_cell_angle_beta   90.00000000
_cell_angle_gamma   90.00000000
_symmetry_Int_Tables_number   1
_chemical_formula_structural   NaGaO2
_chemical_formula_sum   'Na16 Ga16 O32'
_cell_volume   867.81626928
_cell_formula_units_Z   16
loop_
 _symmetry_equiv_pos_site_id
 _symmetry_equiv_pos_as_xyz
  1  'x, y, z'
loop_
 _atom_site_type_symbol
 _atom_site_label
 _atom_site_symmetry_multiplicity
 _atom_site_fract_x
 _atom_site_fract_y
 _atom_site_fract_z
 _atom_site_occupancy
  Na  Na0  1  0.280149  0.484222  0.436939  1
  Na  Na1  1  0.185376  0.726842  0.810456  1
  Na  Na2  1  0.219851  0.515778  0.936939  1
  Na  Na3  1  0.185376  0.773158  0.310456  1
  Na  Na4  1  0.280149  0.015778  0.936939  1
  Na  Na5  1  0.814624  0.273158  0.189544  1
  Na  Na6  1  0.780149  0.015778  0.563061  1
  Na  Na7  1  0.719851  0.515778  0.563061  1
  Na  Na8  1  0.780149  0.484222  0.063061  1
  Na  Na9  1  0.314624  0.273158  0.310456  1
  Na  Na10  1  0.719851  0.984222  0.063061  1
  Na  Na11  1  0.814624  0.226842  0.689544  1
  Na  Na12  1  0.685376  0.726842  0.689544  1
  Na  Na13  1  0.219851  0.984222  0.436939  1
  Na  Na14  1  0.685376  0.773158  0.189544  1
  Na  Na15  1  0.314624  0.226842  0.810456  1
  Ga  Ga16  1  0.195758  0.722603  0.562091  1
  Ga  Ga17  1  0.195758  0.777397  0.062091  1
  Ga  Ga18  1  0.803309  0.524590  0.312897  1
  Ga  Ga19  1  0.695758  0.777397  0.437909  1
  Ga  Ga20  1  0.696691  0.024590  0.312897  1
  Ga  Ga21  1  0.196691  0.024590  0.187103  1
  Ga  Ga22  1  0.695758  0.722603  0.937909  1
  Ga  Ga23  1  0.804242  0.277397  0.437909  1
  Ga  Ga24  1  0.696691  0.475410  0.812897  1
  Ga  Ga25  1  0.803309  0.975410  0.812897  1
  Ga  Ga26  1  0.196691  0.475410  0.687103  1
  Ga  Ga27  1  0.303309  0.524590  0.187103  1
  Ga  Ga28  1  0.304242  0.277397  0.062091  1
  Ga  Ga29  1  0.303309  0.975410  0.687103  1
  Ga  Ga30  1  0.304242  0.222603  0.562091  1
  Ga  Ga31  1  0.804242  0.222603  0.937909  1
  O  O32  1  0.276880  0.804680  0.668319  1
  O  O33  1  0.133428  0.020533  0.791074  1
  O  O34  1  0.366572  0.520533  0.791074  1
  O  O35  1  0.866572  0.520533  0.708926  1
  O  O36  1  0.792990  0.942836  0.417649  1
  O  O37  1  0.633428  0.479467  0.208926  1
  O  O38  1  0.207010  0.442836  0.082351  1
  O  O39  1  0.352100  0.727729  0.956423  1
  O  O40  1  0.792990  0.557164  0.917649  1
  O  O41  1  0.366572  0.979467  0.291074  1
  O  O42  1  0.852100  0.772271  0.043577  1
  O  O43  1  0.647900  0.272271  0.043577  1
  O  O44  1  0.647900  0.227729  0.543577  1
  O  O45  1  0.223120  0.195320  0.168319  1
  O  O46  1  0.707010  0.057164  0.917649  1
  O  O47  1  0.707010  0.442836  0.417649  1
  O  O48  1  0.852100  0.727729  0.543577  1
  O  O49  1  0.633428  0.020533  0.708926  1
  O  O50  1  0.276880  0.695320  0.168319  1
  O  O51  1  0.776880  0.804680  0.831681  1
  O  O52  1  0.723120  0.195320  0.331681  1
  O  O53  1  0.207010  0.057164  0.582351  1
  O  O54  1  0.352100  0.772271  0.456423  1
  O  O55  1  0.147900  0.272271  0.456423  1
  O  O56  1  0.292990  0.942836  0.082351  1
  O  O57  1  0.147900  0.227729  0.956423  1
  O  O58  1  0.133428  0.479467  0.291074  1
  O  O59  1  0.776880  0.695320  0.331681  1
  O  O60  1  0.866572  0.979467  0.208926  1
  O  O61  1  0.723120  0.304680  0.831681  1
  O  O62  1  0.223120  0.304680  0.668319  1
  O  O63  1  0.292990  0.557164  0.582351  1
