# generated using pymatgen
data_NaLiY2F8
_symmetry_space_group_name_H-M   'P 1'
_cell_length_a   6.76251106
_cell_length_b   6.76251106
_cell_length_c   7.12761466
_cell_angle_alpha   90.00000000
_cell_angle_beta   90.00000000
_cell_angle_gamma   103.20362232
_symmetry_Int_Tables_number   1
_chemical_formula_structural   NaLiY2F8
_chemical_formula_sum   'Na2 Li2 Y4 F16'
_cell_volume   317.34006264
_cell_formula_units_Z   2
loop_
 _symmetry_equiv_pos_site_id
 _symmetry_equiv_pos_as_xyz
  1  'x, y, z'
loop_
 _atom_site_type_symbol
 _atom_site_label
 _atom_site_symmetry_multiplicity
 _atom_site_fract_x
 _atom_site_fract_y
 _atom_site_fract_z
 _atom_site_occupancy
  Na  Na0  1  0.658001  0.658001  0.250000  1
  Na  Na1  1  0.341999  0.341999  0.750000  1
  Li  Li2  1  0.000000  0.000000  0.000000  1
  Li  Li3  1  0.000000  0.000000  0.500000  1
  Y  Y4  1  0.923328  0.549954  0.750000  1
  Y  Y5  1  0.549954  0.923328  0.750000  1
  Y  Y6  1  0.076672  0.450046  0.250000  1
  Y  Y7  1  0.450046  0.076672  0.250000  1
  F  F8  1  0.254193  0.691326  0.750000  1
  F  F9  1  0.308674  0.745807  0.250000  1
  F  F10  1  0.063985  0.339178  0.550840  1
  F  F11  1  0.936015  0.660822  0.449160  1
  F  F12  1  0.745807  0.308674  0.250000  1
  F  F13  1  0.339178  0.063985  0.550840  1
  F  F14  1  0.936015  0.660822  0.050840  1
  F  F15  1  0.691326  0.254193  0.750000  1
  F  F16  1  0.087932  0.087932  0.250000  1
  F  F17  1  0.608789  0.608789  0.750000  1
  F  F18  1  0.339178  0.063985  0.949160  1
  F  F19  1  0.912068  0.912068  0.750000  1
  F  F20  1  0.660822  0.936015  0.449160  1
  F  F21  1  0.391211  0.391211  0.250000  1
  F  F22  1  0.063985  0.339178  0.949160  1
  F  F23  1  0.660822  0.936015  0.050840  1
