# generated using pymatgen
data_Zn2P2O7
_symmetry_space_group_name_H-M   'P 1'
_cell_length_a   5.35315974
_cell_length_b   5.35315974
_cell_length_c   4.55848954
_cell_angle_alpha   80.89998761
_cell_angle_beta   99.10001239
_cell_angle_gamma   76.83173505
_symmetry_Int_Tables_number   1
_chemical_formula_structural   Zn2P2O7
_chemical_formula_sum   'Zn2 P2 O7'
_cell_volume   123.00536276
_cell_formula_units_Z   1
loop_
 _symmetry_equiv_pos_site_id
 _symmetry_equiv_pos_as_xyz
  1  'x, y, z'
loop_
 _atom_site_type_symbol
 _atom_site_label
 _atom_site_symmetry_multiplicity
 _atom_site_fract_x
 _atom_site_fract_y
 _atom_site_fract_z
 _atom_site_occupancy
  Zn  Zn0  1  0.690655  0.690655  0.000000  1
  Zn  Zn1  1  0.309345  0.309345  0.000000  1
  P  P2  1  0.214549  0.785451  0.407076  1
  P  P3  1  0.785451  0.214549  0.592924  1
  O  O4  1  0.373941  0.930197  0.222922  1
  O  O5  1  0.930197  0.373941  0.777078  1
  O  O6  1  0.626059  0.069803  0.777078  1
  O  O7  1  0.069803  0.626059  0.222922  1
  O  O8  1  0.619886  0.380114  0.287220  1
  O  O9  1  0.000000  1.000000  0.500000  1
  O  O10  1  0.380114  0.619886  0.712780  1
