# generated using pymatgen
data_Cs2Sn(H2N)6
_symmetry_space_group_name_H-M   'P 1'
_cell_length_a   7.03636142
_cell_length_b   7.03636142
_cell_length_c   6.00198679
_cell_angle_alpha   90.00000000
_cell_angle_beta   90.00000000
_cell_angle_gamma   120.00000000
_symmetry_Int_Tables_number   1
_chemical_formula_structural   Cs2Sn(H2N)6
_chemical_formula_sum   'Cs2 Sn1 H12 N6'
_cell_volume   257.34867990
_cell_formula_units_Z   1
loop_
 _symmetry_equiv_pos_site_id
 _symmetry_equiv_pos_as_xyz
  1  'x, y, z'
loop_
 _atom_site_type_symbol
 _atom_site_label
 _atom_site_symmetry_multiplicity
 _atom_site_fract_x
 _atom_site_fract_y
 _atom_site_fract_z
 _atom_site_occupancy
  Cs  Cs0  1  0.333333  0.666667  0.278258  1
  Cs  Cs1  1  0.666667  0.333333  0.721742  1
  Sn  Sn2  1  0.000000  0.000000  0.000000  1
  H  H3  1  0.404800  0.144326  0.165970  1
  H  H4  1  0.855674  0.260474  0.165970  1
  H  H5  1  0.739526  0.595200  0.165970  1
  H  H6  1  0.595200  0.855674  0.834030  1
  H  H7  1  0.144326  0.739526  0.834030  1
  H  H8  1  0.260474  0.404800  0.834030  1
  H  H9  1  0.257910  0.149444  0.370071  1
  H  H10  1  0.850556  0.108466  0.370071  1
  H  H11  1  0.891534  0.742090  0.370071  1
  H  H12  1  0.742090  0.850556  0.629929  1
  H  H13  1  0.149444  0.891534  0.629929  1
  H  H14  1  0.108466  0.257910  0.629929  1
  N  N15  1  0.297132  0.197397  0.206935  1
  N  N16  1  0.802603  0.099735  0.206935  1
  N  N17  1  0.900265  0.702868  0.206935  1
  N  N18  1  0.702868  0.802603  0.793065  1
  N  N19  1  0.197397  0.900265  0.793065  1
  N  N20  1  0.099735  0.297132  0.793065  1
