# generated using pymatgen
data_NaNdH2S2O9
_symmetry_space_group_name_H-M   'P 1'
_cell_length_a   7.06421148
_cell_length_b   7.06421148
_cell_length_c   12.97756273
_cell_angle_alpha   90.00000000
_cell_angle_beta   90.00000000
_cell_angle_gamma   120.00000000
_symmetry_Int_Tables_number   1
_chemical_formula_structural   NaNdH2S2O9
_chemical_formula_sum   'Na3 Nd3 H6 S6 O27'
_cell_volume   560.85571932
_cell_formula_units_Z   3
loop_
 _symmetry_equiv_pos_site_id
 _symmetry_equiv_pos_as_xyz
  1  'x, y, z'
loop_
 _atom_site_type_symbol
 _atom_site_label
 _atom_site_symmetry_multiplicity
 _atom_site_fract_x
 _atom_site_fract_y
 _atom_site_fract_z
 _atom_site_occupancy
  Na  Na0  1  0.526907  0.526907  0.000000  1
  Na  Na1  1  0.473093  0.000000  0.333333  1
  Na  Na2  1  0.000000  0.473093  0.666667  1
  Nd  Nd3  1  0.438384  0.000000  0.833333  1
  Nd  Nd4  1  0.000000  0.438384  0.166667  1
  Nd  Nd5  1  0.561616  0.561616  0.500000  1
  H  H6  1  0.051507  0.095779  0.873244  1
  H  H7  1  0.095779  0.051507  0.126756  1
  H  H8  1  0.955728  0.904221  0.793423  1
  H  H9  1  0.948493  0.044272  0.460089  1
  H  H10  1  0.904221  0.955728  0.206577  1
  H  H11  1  0.044272  0.948493  0.539911  1
  S  S12  1  0.453694  0.011049  0.589903  1
  S  S13  1  0.557356  0.546306  0.256569  1
  S  S14  1  0.988951  0.442644  0.923236  1
  S  S15  1  0.011049  0.453694  0.410097  1
  S  S16  1  0.442644  0.988951  0.076764  1
  S  S17  1  0.546306  0.557356  0.743431  1
  O  O18  1  0.488819  0.358558  0.328791  1
  O  O19  1  0.000000  0.086380  0.166667  1
  O  O20  1  0.612354  0.740193  0.323669  1
  O  O21  1  0.913620  0.913620  0.500000  1
  O  O22  1  0.086380  0.000000  0.833333  1
  O  O23  1  0.127839  0.387646  0.990336  1
  O  O24  1  0.410102  0.164182  0.529465  1
  O  O25  1  0.381922  0.506943  0.182319  1
  O  O26  1  0.506943  0.381922  0.817681  1
  O  O27  1  0.869740  0.511181  0.995458  1
  O  O28  1  0.358558  0.488819  0.671209  1
  O  O29  1  0.589898  0.754080  0.803869  1
  O  O30  1  0.740193  0.612354  0.676331  1
  O  O31  1  0.754080  0.589898  0.196131  1
  O  O32  1  0.493057  0.874979  0.515652  1
  O  O33  1  0.835818  0.245920  0.862798  1
  O  O34  1  0.511181  0.869740  0.004542  1
  O  O35  1  0.618078  0.125021  0.151015  1
  O  O36  1  0.125021  0.618078  0.848985  1
  O  O37  1  0.641442  0.130260  0.662125  1
  O  O38  1  0.130260  0.641442  0.337875  1
  O  O39  1  0.245920  0.835818  0.137202  1
  O  O40  1  0.164182  0.410102  0.470535  1
  O  O41  1  0.872161  0.259807  0.342998  1
  O  O42  1  0.387646  0.127839  0.009664  1
  O  O43  1  0.874979  0.493057  0.484348  1
  O  O44  1  0.259807  0.872161  0.657002  1
