# generated using pymatgen
data_NiH8(IO5)2
_symmetry_space_group_name_H-M   'P 1'
_cell_length_a   8.37276628
_cell_length_b   6.57786609
_cell_length_c   8.54554983
_cell_angle_alpha   90.00000000
_cell_angle_beta   99.14664960
_cell_angle_gamma   90.00000000
_symmetry_Int_Tables_number   1
_chemical_formula_structural   NiH8(IO5)2
_chemical_formula_sum   'Ni2 H16 I4 O20'
_cell_volume   464.66120881
_cell_formula_units_Z   2
loop_
 _symmetry_equiv_pos_site_id
 _symmetry_equiv_pos_as_xyz
  1  'x, y, z'
loop_
 _atom_site_type_symbol
 _atom_site_label
 _atom_site_symmetry_multiplicity
 _atom_site_fract_x
 _atom_site_fract_y
 _atom_site_fract_z
 _atom_site_occupancy
  Ni  Ni0  1  0.000000  0.000000  0.000000  1
  Ni  Ni1  1  0.000000  0.500000  0.500000  1
  H  H2  1  0.845225  0.994365  0.237417  1
  H  H3  1  0.154775  0.494365  0.262583  1
  H  H4  1  0.154775  0.005635  0.762583  1
  H  H5  1  0.845225  0.505635  0.737417  1
  H  H6  1  0.008977  0.874196  0.302503  1
  H  H7  1  0.991023  0.374196  0.197497  1
  H  H8  1  0.991023  0.125804  0.697497  1
  H  H9  1  0.008977  0.625804  0.802503  1
  H  H10  1  0.272859  0.216942  0.053665  1
  H  H11  1  0.727141  0.716942  0.446335  1
  H  H12  1  0.727141  0.783058  0.946335  1
  H  H13  1  0.272859  0.283058  0.553665  1
  H  H14  1  0.263664  0.110072  0.221920  1
  H  H15  1  0.736336  0.610072  0.278080  1
  H  H16  1  0.736336  0.889928  0.778080  1
  H  H17  1  0.263664  0.389928  0.721920  1
  I  I18  1  0.331311  0.679521  0.026720  1
  I  I19  1  0.668689  0.179521  0.473280  1
  I  I20  1  0.668689  0.320479  0.973280  1
  I  I21  1  0.331311  0.820479  0.526720  1
  O  O22  1  0.111281  0.717605  0.970792  1
  O  O23  1  0.888719  0.217605  0.529208  1
  O  O24  1  0.888719  0.282395  0.029208  1
  O  O25  1  0.111281  0.782395  0.470792  1
  O  O26  1  0.336155  0.619158  0.236252  1
  O  O27  1  0.663845  0.119158  0.263748  1
  O  O28  1  0.663845  0.380842  0.763748  1
  O  O29  1  0.336155  0.880842  0.736252  1
  O  O30  1  0.337842  0.078467  0.442511  1
  O  O31  1  0.662158  0.578467  0.057489  1
  O  O32  1  0.662158  0.921533  0.557489  1
  O  O33  1  0.337842  0.421533  0.942511  1
  O  O34  1  0.931319  0.907927  0.204788  1
  O  O35  1  0.068681  0.407927  0.295212  1
  O  O36  1  0.068681  0.092073  0.795212  1
  O  O37  1  0.931319  0.592073  0.704788  1
  O  O38  1  0.237614  0.092296  0.105420  1
  O  O39  1  0.762386  0.592296  0.394580  1
  O  O40  1  0.762386  0.907704  0.894580  1
  O  O41  1  0.237614  0.407704  0.605420  1
