# generated using pymatgen
data_AlAs(H2O3)2
_symmetry_space_group_name_H-M   'P 1'
_cell_length_a   8.89890096
_cell_length_b   9.88089543
_cell_length_c   10.26400139
_cell_angle_alpha   90.00000000
_cell_angle_beta   90.00000000
_cell_angle_gamma   90.00000000
_symmetry_Int_Tables_number   1
_chemical_formula_structural   AlAs(H2O3)2
_chemical_formula_sum   'Al8 As8 H32 O48'
_cell_volume   902.50450549
_cell_formula_units_Z   8
loop_
 _symmetry_equiv_pos_site_id
 _symmetry_equiv_pos_as_xyz
  1  'x, y, z'
loop_
 _atom_site_type_symbol
 _atom_site_label
 _atom_site_symmetry_multiplicity
 _atom_site_fract_x
 _atom_site_fract_y
 _atom_site_fract_z
 _atom_site_occupancy
  Al  Al0  1  0.147828  0.182207  0.127187  1
  Al  Al1  1  0.647828  0.317793  0.872813  1
  Al  Al2  1  0.852172  0.682207  0.372813  1
  Al  Al3  1  0.352172  0.817793  0.627187  1
  Al  Al4  1  0.852172  0.817793  0.872813  1
  Al  Al5  1  0.352172  0.682207  0.127187  1
  Al  Al6  1  0.147828  0.317793  0.627187  1
  Al  Al7  1  0.647828  0.182207  0.372813  1
  As  As8  1  0.034854  0.862882  0.150190  1
  As  As9  1  0.534854  0.637118  0.849810  1
  As  As10  1  0.965146  0.362882  0.349810  1
  As  As11  1  0.465146  0.137118  0.650190  1
  As  As12  1  0.965146  0.137118  0.849810  1
  As  As13  1  0.465146  0.362882  0.150190  1
  As  As14  1  0.034854  0.637118  0.650190  1
  As  As15  1  0.534854  0.862882  0.349810  1
  H  H16  1  0.182662  0.179882  0.368500  1
  H  H17  1  0.682662  0.320118  0.631500  1
  H  H18  1  0.817338  0.679882  0.131500  1
  H  H19  1  0.317338  0.820118  0.868500  1
  H  H20  1  0.817338  0.820118  0.631500  1
  H  H21  1  0.317338  0.679882  0.368500  1
  H  H22  1  0.182662  0.320118  0.868500  1
  H  H23  1  0.682662  0.179882  0.131500  1
  H  H24  1  0.332978  0.103596  0.310177  1
  H  H25  1  0.832978  0.396404  0.689823  1
  H  H26  1  0.667022  0.603596  0.189823  1
  H  H27  1  0.167022  0.896404  0.810177  1
  H  H28  1  0.667022  0.896404  0.689823  1
  H  H29  1  0.167022  0.603596  0.310177  1
  H  H30  1  0.332978  0.396404  0.810177  1
  H  H31  1  0.832978  0.103596  0.189823  1
  H  H32  1  0.357594  0.094689  0.973433  1
  H  H33  1  0.857594  0.405311  0.026567  1
  H  H34  1  0.642406  0.594689  0.526567  1
  H  H35  1  0.142406  0.905311  0.473433  1
  H  H36  1  0.642406  0.905311  0.026567  1
  H  H37  1  0.142406  0.594689  0.973433  1
  H  H38  1  0.357594  0.405311  0.473433  1
  H  H39  1  0.857594  0.094689  0.526567  1
  H  H40  1  0.292462  0.970671  0.065639  1
  H  H41  1  0.792462  0.529329  0.934361  1
  H  H42  1  0.707538  0.470671  0.434361  1
  H  H43  1  0.207538  0.029329  0.565639  1
  H  H44  1  0.707538  0.029329  0.934361  1
  H  H45  1  0.207538  0.470671  0.065639  1
  H  H46  1  0.292462  0.529329  0.565639  1
  H  H47  1  0.792462  0.970671  0.434361  1
  O  O48  1  0.006612  0.034791  0.140806  1
  O  O49  1  0.506612  0.465209  0.859194  1
  O  O50  1  0.993388  0.534791  0.359194  1
  O  O51  1  0.493388  0.965209  0.640806  1
  O  O52  1  0.993388  0.965209  0.859194  1
  O  O53  1  0.493388  0.534791  0.140806  1
  O  O54  1  0.006612  0.465209  0.640806  1
  O  O55  1  0.506612  0.034791  0.359194  1
  O  O56  1  0.999569  0.800629  0.302549  1
  O  O57  1  0.499569  0.699371  0.697451  1
  O  O58  1  0.000431  0.300629  0.197451  1
  O  O59  1  0.500431  0.199371  0.802549  1
  O  O60  1  0.000431  0.199371  0.697451  1
  O  O61  1  0.500431  0.300629  0.302549  1
  O  O62  1  0.999569  0.699371  0.802549  1
  O  O63  1  0.499569  0.800629  0.197451  1
  O  O64  1  0.219837  0.833917  0.109015  1
  O  O65  1  0.719837  0.666083  0.890985  1
  O  O66  1  0.780163  0.333917  0.390985  1
  O  O67  1  0.280163  0.166083  0.609015  1
  O  O68  1  0.780163  0.166083  0.890985  1
  O  O69  1  0.280163  0.333917  0.109015  1
  O  O70  1  0.219837  0.666083  0.609015  1
  O  O71  1  0.719837  0.833917  0.390985  1
  O  O72  1  0.915967  0.779196  0.044510  1
  O  O73  1  0.415967  0.720804  0.955490  1
  O  O74  1  0.084033  0.279196  0.455490  1
  O  O75  1  0.584033  0.220804  0.544510  1
  O  O76  1  0.084033  0.220804  0.955490  1
  O  O77  1  0.584033  0.279196  0.044510  1
  O  O78  1  0.915967  0.720804  0.544510  1
  O  O79  1  0.415967  0.779196  0.455490  1
  O  O80  1  0.225058  0.124937  0.293874  1
  O  O81  1  0.725058  0.375063  0.706126  1
  O  O82  1  0.774942  0.624937  0.206126  1
  O  O83  1  0.274942  0.875063  0.793874  1
  O  O84  1  0.774942  0.875063  0.706126  1
  O  O85  1  0.274942  0.624937  0.293874  1
  O  O86  1  0.225058  0.375063  0.793874  1
  O  O87  1  0.725058  0.124937  0.206126  1
  O  O88  1  0.313083  0.071663  0.057673  1
  O  O89  1  0.813083  0.428337  0.942327  1
  O  O90  1  0.686917  0.571663  0.442327  1
  O  O91  1  0.186917  0.928337  0.557673  1
  O  O92  1  0.686917  0.928337  0.942327  1
  O  O93  1  0.186917  0.571663  0.057673  1
  O  O94  1  0.313083  0.428337  0.557673  1
  O  O95  1  0.813083  0.071663  0.442327  1
