# generated using pymatgen
data_CaB2(H6O5)2
_symmetry_space_group_name_H-M   'P 1'
_cell_length_a   8.01053708
_cell_length_b   6.58790683
_cell_length_c   8.02557579
_cell_angle_alpha   90.00000000
_cell_angle_beta   104.29829237
_cell_angle_gamma   90.00000000
_symmetry_Int_Tables_number   1
_chemical_formula_structural   CaB2(H6O5)2
_chemical_formula_sum   'Ca2 B4 H24 O20'
_cell_volume   410.41139554
_cell_formula_units_Z   2
loop_
 _symmetry_equiv_pos_site_id
 _symmetry_equiv_pos_as_xyz
  1  'x, y, z'
loop_
 _atom_site_type_symbol
 _atom_site_label
 _atom_site_symmetry_multiplicity
 _atom_site_fract_x
 _atom_site_fract_y
 _atom_site_fract_z
 _atom_site_occupancy
  Ca  Ca0  1  0.000000  0.969911  0.750000  1
  Ca  Ca1  1  0.000000  0.030089  0.250000  1
  B  B2  1  0.816234  0.274910  0.932020  1
  B  B3  1  0.183766  0.725090  0.067980  1
  B  B4  1  0.183766  0.274910  0.567980  1
  B  B5  1  0.816234  0.725090  0.432020  1
  H  H6  1  0.367198  0.666508  0.573878  1
  H  H7  1  0.378111  0.904240  0.595842  1
  H  H8  1  0.621889  0.904240  0.904158  1
  H  H9  1  0.621889  0.095760  0.404158  1
  H  H10  1  0.632802  0.333492  0.426122  1
  H  H11  1  0.353441  0.232791  0.415475  1
  H  H12  1  0.337767  0.165721  0.802876  1
  H  H13  1  0.632802  0.666508  0.926122  1
  H  H14  1  0.378111  0.095760  0.095842  1
  H  H15  1  0.784247  0.476558  0.256270  1
  H  H16  1  0.646559  0.232791  0.084525  1
  H  H17  1  0.662233  0.834279  0.197124  1
  H  H18  1  0.337767  0.834279  0.302876  1
  H  H19  1  0.082509  0.340538  0.013368  1
  H  H20  1  0.646559  0.767209  0.584525  1
  H  H21  1  0.215753  0.476558  0.243730  1
  H  H22  1  0.662233  0.165721  0.697124  1
  H  H23  1  0.215753  0.523442  0.743730  1
  H  H24  1  0.917491  0.659462  0.986632  1
  H  H25  1  0.353441  0.767209  0.915475  1
  H  H26  1  0.082509  0.659462  0.513368  1
  H  H27  1  0.784247  0.523442  0.756270  1
  H  H28  1  0.367198  0.333492  0.073878  1
  H  H29  1  0.917491  0.340538  0.486632  1
  O  O30  1  0.772714  0.746394  0.599848  1
  O  O31  1  0.995452  0.774508  0.034210  1
  O  O32  1  0.422577  0.210572  0.038928  1
  O  O33  1  0.772714  0.253606  0.099848  1
  O  O34  1  0.004548  0.774508  0.465790  1
  O  O35  1  0.227286  0.746394  0.900152  1
  O  O36  1  0.774190  0.484817  0.872053  1
  O  O37  1  0.995452  0.225492  0.534210  1
  O  O38  1  0.730404  0.115775  0.809617  1
  O  O39  1  0.225810  0.515183  0.127947  1
  O  O40  1  0.577423  0.210572  0.461072  1
  O  O41  1  0.577423  0.789428  0.961072  1
  O  O42  1  0.269596  0.115775  0.690383  1
  O  O43  1  0.730404  0.884225  0.309617  1
  O  O44  1  0.225810  0.484817  0.627947  1
  O  O45  1  0.774190  0.515183  0.372053  1
  O  O46  1  0.422577  0.789428  0.538928  1
  O  O47  1  0.227286  0.253606  0.400152  1
  O  O48  1  0.269596  0.884225  0.190383  1
  O  O49  1  0.004548  0.225492  0.965790  1
