# generated using pymatgen
data_K3Bi2(AsO4)3
_symmetry_space_group_name_H-M   'P 1'
_cell_length_a   9.99835893
_cell_length_b   9.99835893
_cell_length_c   7.17743716
_cell_angle_alpha   72.68308353
_cell_angle_beta   107.31691647
_cell_angle_gamma   90.71573700
_symmetry_Int_Tables_number   1
_chemical_formula_structural   K3Bi2(AsO4)3
_chemical_formula_sum   'K6 Bi4 As6 O24'
_cell_volume   651.65321433
_cell_formula_units_Z   2
loop_
 _symmetry_equiv_pos_site_id
 _symmetry_equiv_pos_as_xyz
  1  'x, y, z'
loop_
 _atom_site_type_symbol
 _atom_site_label
 _atom_site_symmetry_multiplicity
 _atom_site_fract_x
 _atom_site_fract_y
 _atom_site_fract_z
 _atom_site_occupancy
  K  K0  1  0.986145  0.986145  0.750000  1
  K  K1  1  0.275882  0.275882  0.250000  1
  K  K2  1  0.724118  0.724118  0.750000  1
  K  K3  1  0.500000  0.500000  0.000000  1
  K  K4  1  0.013855  0.013855  0.250000  1
  K  K5  1  0.500000  0.500000  0.500000  1
  Bi  Bi6  1  0.615973  0.087926  0.834329  1
  Bi  Bi7  1  0.912074  0.384027  0.334329  1
  Bi  Bi8  1  0.087926  0.615973  0.665671  1
  Bi  Bi9  1  0.384027  0.912074  0.165671  1
  As  As10  1  0.861346  0.350203  0.860740  1
  As  As11  1  0.138654  0.649797  0.139260  1
  As  As12  1  0.246196  0.246196  0.750000  1
  As  As13  1  0.350203  0.861346  0.639260  1
  As  As14  1  0.649797  0.138654  0.360740  1
  As  As15  1  0.753804  0.753804  0.250000  1
  O  O16  1  0.424631  0.709453  0.639475  1
  O  O17  1  0.548229  0.083655  0.155719  1
  O  O18  1  0.451771  0.916345  0.844281  1
  O  O19  1  0.392284  0.242353  0.672590  1
  O  O20  1  0.575369  0.290547  0.360525  1
  O  O21  1  0.916345  0.451771  0.655719  1
  O  O22  1  0.663035  0.008134  0.590989  1
  O  O23  1  0.991866  0.336965  0.090989  1
  O  O24  1  0.764928  0.898719  0.048012  1
  O  O25  1  0.156968  0.816112  0.162455  1
  O  O26  1  0.242353  0.392284  0.827410  1
  O  O27  1  0.101281  0.235072  0.548012  1
  O  O28  1  0.843032  0.183888  0.837545  1
  O  O29  1  0.816112  0.156968  0.337545  1
  O  O30  1  0.290547  0.575369  0.139475  1
  O  O31  1  0.008134  0.663035  0.909011  1
  O  O32  1  0.336965  0.991866  0.409011  1
  O  O33  1  0.083655  0.548229  0.344281  1
  O  O34  1  0.757647  0.607716  0.172590  1
  O  O35  1  0.898719  0.764928  0.451988  1
  O  O36  1  0.235072  0.101281  0.951988  1
  O  O37  1  0.607716  0.757647  0.327410  1
  O  O38  1  0.183888  0.843032  0.662455  1
  O  O39  1  0.709453  0.424631  0.860525  1
