# generated using pymatgen
data_CuH20S2(NO7)2
_symmetry_space_group_name_H-M   'P 1'
_cell_length_a   6.46160410
_cell_length_b   12.34138967
_cell_length_c   9.19760534
_cell_angle_alpha   90.00000000
_cell_angle_beta   105.38803047
_cell_angle_gamma   90.00000000
_symmetry_Int_Tables_number   1
_chemical_formula_structural   CuH20S2(NO7)2
_chemical_formula_sum   'Cu2 H40 S4 N4 O28'
_cell_volume   707.17056247
_cell_formula_units_Z   2
loop_
 _symmetry_equiv_pos_site_id
 _symmetry_equiv_pos_as_xyz
  1  'x, y, z'
loop_
 _atom_site_type_symbol
 _atom_site_label
 _atom_site_symmetry_multiplicity
 _atom_site_fract_x
 _atom_site_fract_y
 _atom_site_fract_z
 _atom_site_occupancy
  Cu  Cu0  1  0.000000  0.000000  0.000000  1
  Cu  Cu1  1  0.000000  0.500000  0.500000  1
  H  H2  1  0.803220  0.328671  0.937892  1
  H  H3  1  0.196780  0.828671  0.562108  1
  H  H4  1  0.196780  0.671329  0.062108  1
  H  H5  1  0.803220  0.171329  0.437892  1
  H  H6  1  0.614881  0.293422  0.778410  1
  H  H7  1  0.385119  0.793422  0.721590  1
  H  H8  1  0.385119  0.706578  0.221590  1
  H  H9  1  0.614881  0.206578  0.278410  1
  H  H10  1  0.543106  0.326269  0.935544  1
  H  H11  1  0.456894  0.826269  0.564456  1
  H  H12  1  0.456894  0.673731  0.064456  1
  H  H13  1  0.543106  0.173731  0.435544  1
  H  H14  1  0.637103  0.424810  0.838533  1
  H  H15  1  0.362897  0.924810  0.661467  1
  H  H16  1  0.362897  0.575190  0.161467  1
  H  H17  1  0.637103  0.075190  0.338533  1
  H  H18  1  0.664311  0.095137  0.770573  1
  H  H19  1  0.335689  0.595137  0.729427  1
  H  H20  1  0.335689  0.904863  0.229427  1
  H  H21  1  0.664311  0.404863  0.270573  1
  H  H22  1  0.880494  0.130952  0.732731  1
  H  H23  1  0.119506  0.630952  0.767269  1
  H  H24  1  0.119506  0.869048  0.267269  1
  H  H25  1  0.880494  0.369048  0.232731  1
  H  H26  1  0.068573  0.093790  0.265330  1
  H  H27  1  0.931427  0.593790  0.234670  1
  H  H28  1  0.931427  0.906210  0.734670  1
  H  H29  1  0.068573  0.406210  0.765330  1
  H  H30  1  0.005856  0.183759  0.136561  1
  H  H31  1  0.994144  0.683759  0.363439  1
  H  H32  1  0.994144  0.816241  0.863439  1
  H  H33  1  0.005856  0.316241  0.636561  1
  H  H34  1  0.696950  0.939576  0.112326  1
  H  H35  1  0.303050  0.439576  0.387674  1
  H  H36  1  0.303050  0.060424  0.887674  1
  H  H37  1  0.696950  0.560424  0.612326  1
  H  H38  1  0.694074  0.858232  0.977816  1
  H  H39  1  0.305926  0.358232  0.522184  1
  H  H40  1  0.305926  0.141768  0.022184  1
  H  H41  1  0.694074  0.641768  0.477816  1
  S  S42  1  0.252559  0.138157  0.583880  1
  S  S43  1  0.747441  0.638157  0.916120  1
  S  S44  1  0.747441  0.861843  0.416120  1
  S  S45  1  0.252559  0.361843  0.083880  1
  N  N46  1  0.648959  0.343647  0.871369  1
  N  N47  1  0.351041  0.843647  0.628631  1
  N  N48  1  0.351041  0.656353  0.128631  1
  N  N49  1  0.648959  0.156353  0.371369  1
  O  O50  1  0.399328  0.231830  0.579389  1
  O  O51  1  0.600672  0.731830  0.920611  1
  O  O52  1  0.600672  0.768170  0.420611  1
  O  O53  1  0.399328  0.268170  0.079389  1
  O  O54  1  0.215606  0.074368  0.443352  1
  O  O55  1  0.784394  0.574368  0.056648  1
  O  O56  1  0.784394  0.925632  0.556648  1
  O  O57  1  0.215606  0.425632  0.943352  1
  O  O58  1  0.359814  0.067065  0.714838  1
  O  O59  1  0.640186  0.567065  0.785162  1
  O  O60  1  0.640186  0.932935  0.285162  1
  O  O61  1  0.359814  0.432935  0.214838  1
  O  O62  1  0.044968  0.181024  0.604959  1
  O  O63  1  0.955032  0.681024  0.895041  1
  O  O64  1  0.955032  0.818976  0.395041  1
  O  O65  1  0.044968  0.318976  0.104959  1
  O  O66  1  0.809429  0.124078  0.814593  1
  O  O67  1  0.190571  0.624078  0.685407  1
  O  O68  1  0.190571  0.875922  0.185407  1
  O  O69  1  0.809429  0.375922  0.314593  1
  O  O70  1  0.974506  0.107908  0.161564  1
  O  O71  1  0.025494  0.607908  0.338436  1
  O  O72  1  0.025494  0.892092  0.838436  1
  O  O73  1  0.974506  0.392092  0.661564  1
  O  O74  1  0.722648  0.935267  0.010282  1
  O  O75  1  0.277352  0.435267  0.489718  1
  O  O76  1  0.277352  0.064733  0.989718  1
  O  O77  1  0.722648  0.564733  0.510282  1
