# generated using pymatgen
data_BaH6F8
_symmetry_space_group_name_H-M   'P 1'
_cell_length_a   7.89772818
_cell_length_b   7.89772818
_cell_length_c   12.76827584
_cell_angle_alpha   90.00000000
_cell_angle_beta   90.00000000
_cell_angle_gamma   120.00000000
_symmetry_Int_Tables_number   1
_chemical_formula_structural   BaH6F8
_chemical_formula_sum   'Ba4 H24 F32'
_cell_volume   689.71115930
_cell_formula_units_Z   4
loop_
 _symmetry_equiv_pos_site_id
 _symmetry_equiv_pos_as_xyz
  1  'x, y, z'
loop_
 _atom_site_type_symbol
 _atom_site_label
 _atom_site_symmetry_multiplicity
 _atom_site_fract_x
 _atom_site_fract_y
 _atom_site_fract_z
 _atom_site_occupancy
  Ba  Ba0  1  0.666667  0.333333  0.563060  1
  Ba  Ba1  1  0.333333  0.666667  0.063060  1
  Ba  Ba2  1  0.333333  0.666667  0.436940  1
  Ba  Ba3  1  0.666667  0.333333  0.936940  1
  H  H4  1  0.610199  0.722795  0.665023  1
  H  H5  1  0.112595  0.389801  0.834977  1
  H  H6  1  0.829299  0.000000  0.000000  1
  H  H7  1  0.887405  0.277205  0.165023  1
  H  H8  1  0.028547  0.709162  0.250000  1
  H  H9  1  0.290838  0.319384  0.250000  1
  H  H10  1  0.722795  0.610199  0.165023  1
  H  H11  1  0.277205  0.887405  0.834977  1
  H  H12  1  0.389801  0.112595  0.334977  1
  H  H13  1  0.277205  0.887405  0.665023  1
  H  H14  1  0.680616  0.971453  0.250000  1
  H  H15  1  0.170701  0.170701  0.000000  1
  H  H16  1  0.000000  0.829299  0.000000  1
  H  H17  1  0.610199  0.722795  0.834977  1
  H  H18  1  0.971453  0.680616  0.750000  1
  H  H19  1  0.319384  0.290838  0.750000  1
  H  H20  1  0.887405  0.277205  0.334977  1
  H  H21  1  0.829299  0.000000  0.500000  1
  H  H22  1  0.170701  0.170701  0.500000  1
  H  H23  1  0.389801  0.112595  0.165023  1
  H  H24  1  0.709162  0.028547  0.750000  1
  H  H25  1  0.112595  0.389801  0.665023  1
  H  H26  1  0.722795  0.610199  0.334977  1
  H  H27  1  0.000000  0.829299  0.500000  1
  F  F28  1  0.670813  0.840996  0.750000  1
  F  F29  1  0.440218  0.068006  0.103796  1
  F  F30  1  0.736487  0.168731  0.750000  1
  F  F31  1  0.440218  0.068006  0.396204  1
  F  F32  1  0.627788  0.559782  0.396204  1
  F  F33  1  0.159004  0.829817  0.750000  1
  F  F34  1  0.931994  0.372212  0.103796  1
  F  F35  1  0.931994  0.372212  0.396204  1
  F  F36  1  0.831269  0.567756  0.750000  1
  F  F37  1  0.068006  0.440218  0.603796  1
  F  F38  1  0.170183  0.329187  0.750000  1
  F  F39  1  0.168731  0.736487  0.250000  1
  F  F40  1  0.559782  0.627788  0.896204  1
  F  F41  1  0.000000  0.700894  0.500000  1
  F  F42  1  0.263513  0.432244  0.250000  1
  F  F43  1  0.299106  0.299106  0.500000  1
  F  F44  1  0.372212  0.931994  0.603796  1
  F  F45  1  0.329187  0.170183  0.250000  1
  F  F46  1  0.299106  0.299106  0.000000  1
  F  F47  1  0.559782  0.627788  0.603796  1
  F  F48  1  0.000000  0.000000  0.500000  1
  F  F49  1  0.700894  0.000000  0.000000  1
  F  F50  1  0.068006  0.440218  0.896204  1
  F  F51  1  0.000000  0.700894  0.000000  1
  F  F52  1  0.829817  0.159004  0.250000  1
  F  F53  1  0.372212  0.931994  0.896204  1
  F  F54  1  0.627788  0.559782  0.103796  1
  F  F55  1  0.840996  0.670813  0.250000  1
  F  F56  1  0.567756  0.831269  0.250000  1
  F  F57  1  0.432244  0.263513  0.750000  1
  F  F58  1  0.700894  0.000000  0.500000  1
  F  F59  1  0.000000  0.000000  0.000000  1
