# generated using pymatgen
data_KNiAsO4
_symmetry_space_group_name_H-M   'P 1'
_cell_length_a   10.08972726
_cell_length_b   10.08972726
_cell_length_c   10.08972726
_cell_angle_alpha   29.05895083
_cell_angle_beta   29.05895083
_cell_angle_gamma   29.05895083
_symmetry_Int_Tables_number   1
_chemical_formula_structural   KNiAsO4
_chemical_formula_sum   'K2 Ni2 As2 O8'
_cell_volume   214.34873567
_cell_formula_units_Z   2
loop_
 _symmetry_equiv_pos_site_id
 _symmetry_equiv_pos_as_xyz
  1  'x, y, z'
loop_
 _atom_site_type_symbol
 _atom_site_label
 _atom_site_symmetry_multiplicity
 _atom_site_fract_x
 _atom_site_fract_y
 _atom_site_fract_z
 _atom_site_occupancy
  K  K0  1  0.289018  0.289018  0.289018  1
  K  K1  1  0.710982  0.710982  0.710982  1
  Ni  Ni2  1  0.834811  0.834811  0.834811  1
  Ni  Ni3  1  0.165189  0.165189  0.165189  1
  As  As4  1  0.439649  0.439649  0.439649  1
  As  As5  1  0.560351  0.560351  0.560351  1
  O  O6  1  0.463868  0.783095  0.127839  1
  O  O7  1  0.127839  0.463868  0.783095  1
  O  O8  1  0.619121  0.619121  0.619121  1
  O  O9  1  0.216905  0.872161  0.536132  1
  O  O10  1  0.536132  0.216905  0.872161  1
  O  O11  1  0.783095  0.127839  0.463868  1
  O  O12  1  0.872161  0.536132  0.216905  1
  O  O13  1  0.380879  0.380879  0.380879  1
