# generated using pymatgen
data_CdI2
_symmetry_space_group_name_H-M   'P 1'
_cell_length_a   4.33484877
_cell_length_b   4.33484877
_cell_length_c   91.90394921
_cell_angle_alpha   90.00000000
_cell_angle_beta   90.00000000
_cell_angle_gamma   120.00000000
_symmetry_Int_Tables_number   1
_chemical_formula_structural   CdI2
_chemical_formula_sum   'Cd12 I24'
_cell_volume   1495.59053067
_cell_formula_units_Z   12
loop_
 _symmetry_equiv_pos_site_id
 _symmetry_equiv_pos_as_xyz
  1  'x, y, z'
loop_
 _atom_site_type_symbol
 _atom_site_label
 _atom_site_symmetry_multiplicity
 _atom_site_fract_x
 _atom_site_fract_y
 _atom_site_fract_z
 _atom_site_occupancy
  Cd  Cd0  1  0.333333  0.666667  0.770837  1
  Cd  Cd1  1  0.333333  0.666667  0.020814  1
  Cd  Cd2  1  0.666667  0.333333  0.520814  1
  Cd  Cd3  1  0.666667  0.333333  0.937470  1
  Cd  Cd4  1  0.333333  0.666667  0.187513  1
  Cd  Cd5  1  0.666667  0.333333  0.270837  1
  Cd  Cd6  1  0.666667  0.333333  0.687513  1
  Cd  Cd7  1  0.333333  0.666667  0.354192  1
  Cd  Cd8  1  0.666667  0.333333  0.104150  1
  Cd  Cd9  1  0.333333  0.666667  0.604150  1
  Cd  Cd10  1  0.333333  0.666667  0.437470  1
  Cd  Cd11  1  0.666667  0.333333  0.854192  1
  I  I12  1  0.666667  0.333333  0.585425  1
  I  I13  1  0.333333  0.666667  0.918743  1
  I  I14  1  0.666667  0.333333  0.335460  1
  I  I15  1  0.000000  0.000000  0.289580  1
  I  I16  1  0.000000  0.000000  0.039549  1
  I  I17  1  0.333333  0.666667  0.085425  1
  I  I18  1  0.000000  0.000000  0.956205  1
  I  I19  1  0.000000  0.000000  0.789580  1
  I  I20  1  0.666667  0.333333  0.752109  1
  I  I21  1  0.000000  0.000000  0.539549  1
  I  I22  1  0.000000  0.000000  0.706256  1
  I  I23  1  0.333333  0.666667  0.668785  1
  I  I24  1  0.000000  0.000000  0.872939  1
  I  I25  1  0.000000  0.000000  0.622886  1
  I  I26  1  0.000000  0.000000  0.456205  1
  I  I27  1  0.333333  0.666667  0.502089  1
  I  I28  1  0.666667  0.333333  0.418743  1
  I  I29  1  0.333333  0.666667  0.835460  1
  I  I30  1  0.000000  0.000000  0.372939  1
  I  I31  1  0.666667  0.333333  0.002089  1
  I  I32  1  0.666667  0.333333  0.168785  1
  I  I33  1  0.000000  0.000000  0.206256  1
  I  I34  1  0.333333  0.666667  0.252109  1
  I  I35  1  0.000000  0.000000  0.122886  1
