# generated using pymatgen
data_MgP4(Cl5O3)2
_symmetry_space_group_name_H-M   'P 1'
_cell_length_a   10.13549417
_cell_length_b   11.29099961
_cell_length_c   11.59686965
_cell_angle_alpha   108.27887918
_cell_angle_beta   96.35021962
_cell_angle_gamma   116.00873323
_symmetry_Int_Tables_number   1
_chemical_formula_structural   MgP4(Cl5O3)2
_chemical_formula_sum   'Mg2 P8 Cl20 O12'
_cell_volume   1083.62051719
_cell_formula_units_Z   2
loop_
 _symmetry_equiv_pos_site_id
 _symmetry_equiv_pos_as_xyz
  1  'x, y, z'
loop_
 _atom_site_type_symbol
 _atom_site_label
 _atom_site_symmetry_multiplicity
 _atom_site_fract_x
 _atom_site_fract_y
 _atom_site_fract_z
 _atom_site_occupancy
  Mg  Mg0  1  0.760965  0.993286  0.058501  1
  Mg  Mg1  1  0.239035  0.006714  0.941499  1
  P  P2  1  0.984022  0.843626  0.082779  1
  P  P3  1  0.015978  0.156374  0.917221  1
  P  P4  1  0.398717  0.784564  0.850186  1
  P  P5  1  0.440456  0.173257  0.751927  1
  P  P6  1  0.910173  0.717178  0.671992  1
  P  P7  1  0.601283  0.215436  0.149814  1
  P  P8  1  0.089827  0.282822  0.328008  1
  P  P9  1  0.559544  0.826743  0.248073  1
  Cl  Cl10  1  0.377114  0.108850  0.563003  1
  Cl  Cl11  1  0.529694  0.628319  0.178594  1
  Cl  Cl12  1  0.698233  0.678252  0.670088  1
  Cl  Cl13  1  0.650280  0.199567  0.794031  1
  Cl  Cl14  1  0.349720  0.800433  0.205969  1
  Cl  Cl15  1  0.925387  0.632143  0.998172  1
  Cl  Cl16  1  0.064631  0.259647  0.489775  1
  Cl  Cl17  1  0.096065  0.468649  0.352772  1
  Cl  Cl18  1  0.396013  0.764451  0.667002  1
  Cl  Cl19  1  0.301767  0.321748  0.329912  1
  Cl  Cl20  1  0.730737  0.426391  0.177781  1
  Cl  Cl21  1  0.975732  0.124364  0.728494  1
  Cl  Cl22  1  0.269263  0.573609  0.822219  1
  Cl  Cl23  1  0.622886  0.891150  0.436997  1
  Cl  Cl24  1  0.603987  0.235549  0.332998  1
  Cl  Cl25  1  0.470306  0.371681  0.821406  1
  Cl  Cl26  1  0.935369  0.740353  0.510225  1
  Cl  Cl27  1  0.903935  0.531351  0.647228  1
  Cl  Cl28  1  0.074613  0.367857  0.001828  1
  Cl  Cl29  1  0.024268  0.875636  0.271506  1
  O  O30  1  0.028633  0.841128  0.786131  1
  O  O31  1  0.134697  0.933984  0.066521  1
  O  O32  1  0.329870  0.072117  0.795012  1
  O  O33  1  0.670130  0.927883  0.204988  1
  O  O34  1  0.865303  0.066016  0.933479  1
  O  O35  1  0.971367  0.158872  0.213869  1
  O  O36  1  0.686772  0.140197  0.104473  1
  O  O37  1  0.154333  0.145493  0.955308  1
  O  O38  1  0.845667  0.854507  0.044692  1
  O  O39  1  0.441630  0.163734  0.077778  1
  O  O40  1  0.558370  0.836266  0.922222  1
  O  O41  1  0.313228  0.859803  0.895527  1
