# generated using pymatgen
data_K5B19O31
_symmetry_space_group_name_H-M   'P 1'
_cell_length_a   10.76395062
_cell_length_b   10.76395062
_cell_length_c   13.13938170
_cell_angle_alpha   85.35800217
_cell_angle_beta   94.64199783
_cell_angle_gamma   114.35681986
_symmetry_Int_Tables_number   1
_chemical_formula_structural   K5B19O31
_chemical_formula_sum   'K10 B38 O62'
_cell_volume   1380.41892373
_cell_formula_units_Z   2
loop_
 _symmetry_equiv_pos_site_id
 _symmetry_equiv_pos_as_xyz
  1  'x, y, z'
loop_
 _atom_site_type_symbol
 _atom_site_label
 _atom_site_symmetry_multiplicity
 _atom_site_fract_x
 _atom_site_fract_y
 _atom_site_fract_z
 _atom_site_occupancy
  K  K0  1  0.944729  0.594804  0.167477  1
  K  K1  1  0.291746  0.619205  0.303794  1
  K  K2  1  0.405196  0.055271  0.667477  1
  K  K3  1  0.619205  0.291746  0.196206  1
  K  K4  1  0.000000  0.000000  0.500000  1
  K  K5  1  0.594804  0.944729  0.332523  1
  K  K6  1  0.000000  0.000000  0.000000  1
  K  K7  1  0.380795  0.708254  0.803794  1
  K  K8  1  0.708254  0.380795  0.696206  1
  K  K9  1  0.055271  0.405196  0.832523  1
  B  B10  1  0.465759  0.433695  0.381257  1
  B  B11  1  0.111186  0.759162  0.643683  1
  B  B12  1  0.906516  0.041158  0.759122  1
  B  B13  1  0.716710  0.239248  0.475275  1
  B  B14  1  0.311316  0.281808  0.503496  1
  B  B15  1  0.958842  0.093484  0.259122  1
  B  B16  1  0.676073  0.827569  0.134678  1
  B  B17  1  0.239248  0.716710  0.024725  1
  B  B18  1  0.327359  0.019500  0.301292  1
  B  B19  1  0.793903  0.529366  0.927893  1
  B  B20  1  0.888814  0.240838  0.356317  1
  B  B21  1  0.688684  0.718192  0.496504  1
  B  B22  1  0.240838  0.888814  0.143683  1
  B  B23  1  0.019500  0.327359  0.198708  1
  B  B24  1  0.172431  0.323927  0.634678  1
  B  B25  1  0.718192  0.688684  0.003496  1
  B  B26  1  0.041158  0.906516  0.740878  1
  B  B27  1  0.470634  0.206097  0.427893  1
  B  B28  1  0.283290  0.760752  0.524725  1
  B  B29  1  0.534241  0.566305  0.618743  1
  B  B30  1  0.281808  0.311316  0.996504  1
  B  B31  1  0.323927  0.172431  0.865322  1
  B  B32  1  0.093484  0.958842  0.240878  1
  B  B33  1  0.760752  0.283290  0.975275  1
  B  B34  1  0.608948  0.608948  0.250000  1
  B  B35  1  0.048826  0.702596  0.460950  1
  B  B36  1  0.702596  0.048826  0.039050  1
  B  B37  1  0.433695  0.465759  0.118743  1
  B  B38  1  0.529366  0.793903  0.572107  1
  B  B39  1  0.566305  0.534241  0.881257  1
  B  B40  1  0.672641  0.980500  0.698708  1
  B  B41  1  0.980500  0.672641  0.801292  1
  B  B42  1  0.297404  0.951174  0.960950  1
  B  B43  1  0.206097  0.470634  0.072107  1
  B  B44  1  0.759162  0.111186  0.856317  1
  B  B45  1  0.391052  0.391052  0.750000  1
  B  B46  1  0.951174  0.297404  0.539050  1
  B  B47  1  0.827569  0.676073  0.365322  1
  O  O48  1  0.334462  0.508269  0.135936  1
  O  O49  1  0.987201  0.285421  0.445245  1
  O  O50  1  0.817702  0.644653  0.991932  1
  O  O51  1  0.012799  0.714579  0.554755  1
  O  O52  1  0.783538  0.411344  0.999849  1
  O  O53  1  0.355347  0.182298  0.491932  1
  O  O54  1  0.118281  0.896617  0.667653  1
  O  O55  1  0.201334  0.027616  0.308979  1
  O  O56  1  0.206030  0.251650  0.567598  1
  O  O57  1  0.285421  0.987201  0.054755  1
  O  O58  1  0.439527  0.092219  0.360553  1
  O  O59  1  0.793970  0.748350  0.432402  1
  O  O60  1  0.339674  0.937269  0.231148  1
  O  O61  1  0.251650  0.206030  0.932402  1
  O  O62  1  0.508269  0.334462  0.364064  1
  O  O63  1  0.561109  0.514823  0.166084  1
  O  O64  1  0.588656  0.216462  0.499849  1
  O  O65  1  0.514823  0.561109  0.333916  1
  O  O66  1  0.714579  0.012799  0.945245  1
  O  O67  1  0.279037  0.818315  0.943910  1
  O  O68  1  0.027616  0.201334  0.191021  1
  O  O69  1  0.249198  0.776400  0.620053  1
  O  O70  1  0.937269  0.339674  0.268852  1
  O  O71  1  0.103383  0.881719  0.167653  1
  O  O72  1  0.223600  0.750802  0.120053  1
  O  O73  1  0.326106  0.042469  0.876065  1
  O  O74  1  0.644653  0.817702  0.508068  1
  O  O75  1  0.384945  0.252683  0.783459  1
  O  O76  1  0.406468  0.360493  0.051906  1
  O  O77  1  0.615055  0.747317  0.216541  1
  O  O78  1  0.971682  0.971682  0.250000  1
  O  O79  1  0.747317  0.615055  0.283459  1
  O  O80  1  0.042469  0.326106  0.623935  1
  O  O81  1  0.776400  0.249198  0.879947  1
  O  O82  1  0.665538  0.491731  0.864064  1
  O  O83  1  0.593532  0.639507  0.948094  1
  O  O84  1  0.491731  0.665538  0.635936  1
  O  O85  1  0.748350  0.793970  0.067598  1
  O  O86  1  0.673894  0.957531  0.123935  1
  O  O87  1  0.896617  0.118281  0.832347  1
  O  O88  1  0.750802  0.223600  0.379947  1
  O  O89  1  0.972384  0.798666  0.808979  1
  O  O90  1  0.639507  0.593532  0.551906  1
  O  O91  1  0.907781  0.560473  0.860553  1
  O  O92  1  0.957531  0.673894  0.376065  1
  O  O93  1  0.092219  0.439527  0.139447  1
  O  O94  1  0.411344  0.783538  0.500151  1
  O  O95  1  0.252683  0.384945  0.716541  1
  O  O96  1  0.028318  0.028318  0.750000  1
  O  O97  1  0.182298  0.355347  0.008068  1
  O  O98  1  0.798666  0.972384  0.691021  1
  O  O99  1  0.438891  0.485177  0.833916  1
  O  O100  1  0.660326  0.062731  0.768852  1
  O  O101  1  0.216462  0.588656  0.000151  1
  O  O102  1  0.062731  0.660326  0.731148  1
  O  O103  1  0.360493  0.406468  0.448094  1
  O  O104  1  0.181685  0.720963  0.443910  1
  O  O105  1  0.560473  0.907781  0.639447  1
  O  O106  1  0.720963  0.181685  0.056090  1
  O  O107  1  0.485177  0.438891  0.666084  1
  O  O108  1  0.881719  0.103383  0.332347  1
  O  O109  1  0.818315  0.279037  0.556090  1
