# generated using pymatgen
data_Er3B5O12
_symmetry_space_group_name_H-M   'P 1'
_cell_length_a   4.63898817
_cell_length_b   12.57301461
_cell_length_c   12.88483602
_cell_angle_alpha   90.00000000
_cell_angle_beta   90.00000000
_cell_angle_gamma   90.00000000
_symmetry_Int_Tables_number   1
_chemical_formula_structural   Er3B5O12
_chemical_formula_sum   'Er12 B20 O48'
_cell_volume   751.52179658
_cell_formula_units_Z   4
loop_
 _symmetry_equiv_pos_site_id
 _symmetry_equiv_pos_as_xyz
  1  'x, y, z'
loop_
 _atom_site_type_symbol
 _atom_site_label
 _atom_site_symmetry_multiplicity
 _atom_site_fract_x
 _atom_site_fract_y
 _atom_site_fract_z
 _atom_site_occupancy
  Er  Er0  1  0.499468  0.692607  0.635276  1
  Er  Er1  1  0.500532  0.307393  0.364724  1
  Er  Er2  1  0.500532  0.192607  0.864724  1
  Er  Er3  1  0.499468  0.807393  0.864724  1
  Er  Er4  1  0.500000  0.500000  0.132212  1
  Er  Er5  1  0.500532  0.192607  0.135276  1
  Er  Er6  1  0.500000  0.500000  0.867788  1
  Er  Er7  1  0.500532  0.307393  0.635276  1
  Er  Er8  1  0.500000  0.000000  0.632212  1
  Er  Er9  1  0.499468  0.692607  0.364724  1
  Er  Er10  1  0.499468  0.807393  0.135276  1
  Er  Er11  1  0.500000  0.000000  0.367788  1
  B  B12  1  0.000000  0.500000  0.338236  1
  B  B13  1  0.000000  0.000000  0.838236  1
  B  B14  1  0.039539  0.849385  0.500000  1
  B  B15  1  0.029412  0.151440  0.701816  1
  B  B16  1  0.039539  0.650615  0.000000  1
  B  B17  1  0.970588  0.651440  0.201816  1
  B  B18  1  0.029412  0.348560  0.798184  1
  B  B19  1  0.956812  0.374744  0.500000  1
  B  B20  1  0.000000  0.000000  0.161764  1
  B  B21  1  0.970588  0.848560  0.701816  1
  B  B22  1  0.956812  0.125256  0.000000  1
  B  B23  1  0.960461  0.349385  0.000000  1
  B  B24  1  0.970588  0.848560  0.298184  1
  B  B25  1  0.960461  0.150615  0.500000  1
  B  B26  1  0.970588  0.651440  0.798184  1
  B  B27  1  0.043188  0.625256  0.500000  1
  B  B28  1  0.043188  0.874744  0.000000  1
  B  B29  1  0.029412  0.151440  0.298184  1
  B  B30  1  0.000000  0.500000  0.661764  1
  B  B31  1  0.029412  0.348560  0.201816  1
  O  O32  1  0.811819  0.564906  0.733541  1
  O  O33  1  0.156445  0.145816  0.405063  1
  O  O34  1  0.164866  0.573454  0.404083  1
  O  O35  1  0.811819  0.935094  0.766459  1
  O  O36  1  0.156886  0.250000  0.250000  1
  O  O37  1  0.164866  0.926546  0.904083  1
  O  O38  1  0.188181  0.435094  0.266459  1
  O  O39  1  0.740347  0.428275  0.000000  1
  O  O40  1  0.835134  0.426546  0.595917  1
  O  O41  1  0.279010  0.848193  0.704301  1
  O  O42  1  0.843114  0.750000  0.750000  1
  O  O43  1  0.811819  0.564906  0.266459  1
  O  O44  1  0.188181  0.064906  0.766459  1
  O  O45  1  0.720990  0.151807  0.295699  1
  O  O46  1  0.740347  0.071725  0.500000  1
  O  O47  1  0.195854  0.762887  0.000000  1
  O  O48  1  0.257656  0.361398  0.500000  1
  O  O49  1  0.188181  0.064906  0.233541  1
  O  O50  1  0.156445  0.354184  0.094937  1
  O  O51  1  0.843555  0.854184  0.594937  1
  O  O52  1  0.843114  0.750000  0.250000  1
  O  O53  1  0.156886  0.250000  0.750000  1
  O  O54  1  0.843555  0.854184  0.405063  1
  O  O55  1  0.164866  0.926546  0.095917  1
  O  O56  1  0.835134  0.073454  0.904083  1
  O  O57  1  0.279010  0.651807  0.795699  1
  O  O58  1  0.259653  0.571725  0.000000  1
  O  O59  1  0.720990  0.348193  0.795699  1
  O  O60  1  0.195854  0.737113  0.500000  1
  O  O61  1  0.279010  0.848193  0.295699  1
  O  O62  1  0.811819  0.935094  0.233541  1
  O  O63  1  0.156445  0.145816  0.594937  1
  O  O64  1  0.804146  0.262887  0.500000  1
  O  O65  1  0.164866  0.573454  0.595917  1
  O  O66  1  0.742344  0.861398  0.000000  1
  O  O67  1  0.720990  0.348193  0.204301  1
  O  O68  1  0.279010  0.651807  0.204301  1
  O  O69  1  0.156445  0.354184  0.905063  1
  O  O70  1  0.835134  0.426546  0.404083  1
  O  O71  1  0.720990  0.151807  0.704301  1
  O  O72  1  0.835134  0.073454  0.095917  1
  O  O73  1  0.188181  0.435094  0.733541  1
  O  O74  1  0.843555  0.645816  0.905063  1
  O  O75  1  0.257656  0.138602  0.000000  1
  O  O76  1  0.259653  0.928275  0.500000  1
  O  O77  1  0.843555  0.645816  0.094937  1
  O  O78  1  0.742344  0.638602  0.500000  1
  O  O79  1  0.804146  0.237113  0.000000  1
