# generated using pymatgen
data_Rb5ErHf(MoO4)6
_symmetry_space_group_name_H-M   'P 1'
_cell_length_a   14.67324431
_cell_length_b   14.67324431
_cell_length_c   14.67324431
_cell_angle_alpha   43.87873484
_cell_angle_beta   43.87873484
_cell_angle_gamma   43.87873484
_symmetry_Int_Tables_number   1
_chemical_formula_structural   Rb5ErHf(MoO4)6
_chemical_formula_sum   'Rb10 Er2 Hf2 Mo12 O48'
_cell_volume   1378.22309675
_cell_formula_units_Z   2
loop_
 _symmetry_equiv_pos_site_id
 _symmetry_equiv_pos_as_xyz
  1  'x, y, z'
loop_
 _atom_site_type_symbol
 _atom_site_label
 _atom_site_symmetry_multiplicity
 _atom_site_fract_x
 _atom_site_fract_y
 _atom_site_fract_z
 _atom_site_occupancy
  Rb  Rb0  1  0.639686  0.860314  0.250000  1
  Rb  Rb1  1  0.250000  0.639686  0.860314  1
  Rb  Rb2  1  0.860314  0.250000  0.639686  1
  Rb  Rb3  1  0.853304  0.853304  0.853304  1
  Rb  Rb4  1  0.750000  0.360314  0.139686  1
  Rb  Rb5  1  0.139686  0.750000  0.360314  1
  Rb  Rb6  1  0.360314  0.139686  0.750000  1
  Rb  Rb7  1  0.353304  0.353304  0.353304  1
  Rb  Rb8  1  0.146696  0.146696  0.146696  1
  Rb  Rb9  1  0.646696  0.646696  0.646696  1
  Er  Er10  1  0.000000  0.000000  0.000000  1
  Er  Er11  1  0.500000  0.500000  0.500000  1
  Hf  Hf12  1  0.250000  0.250000  0.250000  1
  Hf  Hf13  1  0.750000  0.750000  0.750000  1
  Mo  Mo14  1  0.472527  0.240442  0.887421  1
  Mo  Mo15  1  0.387421  0.740442  0.972527  1
  Mo  Mo16  1  0.759558  0.112579  0.527473  1
  Mo  Mo17  1  0.740442  0.972527  0.387421  1
  Mo  Mo18  1  0.887421  0.472527  0.240442  1
  Mo  Mo19  1  0.259558  0.027473  0.612579  1
  Mo  Mo20  1  0.240442  0.887421  0.472527  1
  Mo  Mo21  1  0.972527  0.387421  0.740442  1
  Mo  Mo22  1  0.612579  0.259558  0.027473  1
  Mo  Mo23  1  0.027473  0.612579  0.259558  1
  Mo  Mo24  1  0.112579  0.527473  0.759558  1
  Mo  Mo25  1  0.527473  0.759558  0.112579  1
  O  O26  1  0.889292  0.426853  0.156490  1
  O  O27  1  0.362043  0.882589  0.095328  1
  O  O28  1  0.882589  0.095328  0.362043  1
  O  O29  1  0.426853  0.156490  0.889292  1
  O  O30  1  0.295517  0.041176  0.322142  1
  O  O31  1  0.506684  0.603582  0.286203  1
  O  O32  1  0.843510  0.110708  0.573147  1
  O  O33  1  0.213797  0.896418  0.993316  1
  O  O34  1  0.637957  0.117411  0.904672  1
  O  O35  1  0.137957  0.404672  0.617411  1
  O  O36  1  0.117411  0.904672  0.637957  1
  O  O37  1  0.713797  0.493316  0.396418  1
  O  O38  1  0.862043  0.595328  0.382589  1
  O  O39  1  0.573147  0.843510  0.110708  1
  O  O40  1  0.103582  0.006684  0.786203  1
  O  O41  1  0.677858  0.704483  0.958824  1
  O  O42  1  0.343510  0.073147  0.610708  1
  O  O43  1  0.095328  0.362043  0.882589  1
  O  O44  1  0.617411  0.137957  0.404672  1
  O  O45  1  0.389292  0.656490  0.926853  1
  O  O46  1  0.110708  0.573147  0.843510  1
  O  O47  1  0.156490  0.889292  0.426853  1
  O  O48  1  0.896418  0.993316  0.213797  1
  O  O49  1  0.041176  0.322142  0.295517  1
  O  O50  1  0.704483  0.958824  0.677858  1
  O  O51  1  0.541176  0.795517  0.822142  1
  O  O52  1  0.382589  0.862043  0.595328  1
  O  O53  1  0.404672  0.617411  0.137957  1
  O  O54  1  0.822142  0.541176  0.795517  1
  O  O55  1  0.177858  0.458824  0.204483  1
  O  O56  1  0.204483  0.177858  0.458824  1
  O  O57  1  0.786203  0.103582  0.006684  1
  O  O58  1  0.595328  0.382589  0.862043  1
  O  O59  1  0.904672  0.637957  0.117411  1
  O  O60  1  0.493316  0.396418  0.713797  1
  O  O61  1  0.656490  0.926853  0.389292  1
  O  O62  1  0.603582  0.286203  0.506684  1
  O  O63  1  0.610708  0.343510  0.073147  1
  O  O64  1  0.073147  0.610708  0.343510  1
  O  O65  1  0.006684  0.786203  0.103582  1
  O  O66  1  0.322142  0.295517  0.041176  1
  O  O67  1  0.396418  0.713797  0.493316  1
  O  O68  1  0.958824  0.677858  0.704483  1
  O  O69  1  0.926853  0.389292  0.656490  1
  O  O70  1  0.795517  0.822142  0.541176  1
  O  O71  1  0.993316  0.213797  0.896418  1
  O  O72  1  0.286203  0.506684  0.603582  1
  O  O73  1  0.458824  0.204483  0.177858  1
