# generated using pymatgen
data_CaLu2O4
_symmetry_space_group_name_H-M   'P 1'
_cell_length_a   3.29406424
_cell_length_b   9.78229906
_cell_length_c   11.57723487
_cell_angle_alpha   90.00000000
_cell_angle_beta   90.00000000
_cell_angle_gamma   90.00000000
_symmetry_Int_Tables_number   1
_chemical_formula_structural   CaLu2O4
_chemical_formula_sum   'Ca4 Lu8 O16'
_cell_volume   373.05927696
_cell_formula_units_Z   4
loop_
 _symmetry_equiv_pos_site_id
 _symmetry_equiv_pos_as_xyz
  1  'x, y, z'
loop_
 _atom_site_type_symbol
 _atom_site_label
 _atom_site_symmetry_multiplicity
 _atom_site_fract_x
 _atom_site_fract_y
 _atom_site_fract_z
 _atom_site_occupancy
  Ca  Ca0  1  0.750000  0.754055  0.148722  1
  Ca  Ca1  1  0.250000  0.245945  0.851278  1
  Ca  Ca2  1  0.750000  0.254055  0.351278  1
  Ca  Ca3  1  0.250000  0.745945  0.648722  1
  Lu  Lu4  1  0.750000  0.420804  0.609934  1
  Lu  Lu5  1  0.250000  0.579196  0.390066  1
  Lu  Lu6  1  0.750000  0.920804  0.890066  1
  Lu  Lu7  1  0.250000  0.079196  0.109934  1
  Lu  Lu8  1  0.750000  0.425346  0.113874  1
  Lu  Lu9  1  0.250000  0.574654  0.886126  1
  Lu  Lu10  1  0.750000  0.925346  0.386126  1
  Lu  Lu11  1  0.250000  0.074654  0.613874  1
  O  O12  1  0.750000  0.210257  0.679529  1
  O  O13  1  0.250000  0.789743  0.320471  1
  O  O14  1  0.750000  0.710257  0.820471  1
  O  O15  1  0.250000  0.289743  0.179529  1
  O  O16  1  0.750000  0.128098  0.977135  1
  O  O17  1  0.250000  0.871902  0.022865  1
  O  O18  1  0.750000  0.628098  0.522865  1
  O  O19  1  0.250000  0.371902  0.477135  1
  O  O20  1  0.750000  0.517393  0.284224  1
  O  O21  1  0.250000  0.482607  0.715776  1
  O  O22  1  0.750000  0.017393  0.215776  1
  O  O23  1  0.250000  0.982607  0.784224  1
  O  O24  1  0.750000  0.421150  0.922080  1
  O  O25  1  0.250000  0.578850  0.077920  1
  O  O26  1  0.750000  0.921150  0.577920  1
  O  O27  1  0.250000  0.078850  0.422080  1
