# generated using pymatgen
data_Ba2ZnSi2O7
_symmetry_space_group_name_H-M   'P 1'
_cell_length_a   6.91701125
_cell_length_b   6.91701125
_cell_length_c   8.55184067
_cell_angle_alpha   77.23533974
_cell_angle_beta   102.76466026
_cell_angle_gamma   76.24411385
_symmetry_Int_Tables_number   1
_chemical_formula_structural   Ba2ZnSi2O7
_chemical_formula_sum   'Ba4 Zn2 Si4 O14'
_cell_volume   371.10145464
_cell_formula_units_Z   2
loop_
 _symmetry_equiv_pos_site_id
 _symmetry_equiv_pos_as_xyz
  1  'x, y, z'
loop_
 _atom_site_type_symbol
 _atom_site_label
 _atom_site_symmetry_multiplicity
 _atom_site_fract_x
 _atom_site_fract_y
 _atom_site_fract_z
 _atom_site_occupancy
  Ba  Ba0  1  0.268578  0.815408  0.973971  1
  Ba  Ba1  1  0.184592  0.731422  0.473971  1
  Ba  Ba2  1  0.815408  0.268578  0.526029  1
  Ba  Ba3  1  0.731422  0.184592  0.026029  1
  Zn  Zn4  1  0.741544  0.741544  0.750000  1
  Zn  Zn5  1  0.258456  0.258456  0.250000  1
  Si  Si6  1  0.395249  0.167596  0.637248  1
  Si  Si7  1  0.167596  0.395249  0.862752  1
  Si  Si8  1  0.604751  0.832404  0.362752  1
  Si  Si9  1  0.832404  0.604751  0.137248  1
  O  O10  1  0.324447  0.380534  0.043728  1
  O  O11  1  0.956944  0.356905  0.234751  1
  O  O12  1  0.241613  0.023495  0.632572  1
  O  O13  1  0.023495  0.241613  0.867428  1
  O  O14  1  0.333672  0.333672  0.750000  1
  O  O15  1  0.043056  0.643095  0.765249  1
  O  O16  1  0.666328  0.666328  0.250000  1
  O  O17  1  0.643095  0.043056  0.734751  1
  O  O18  1  0.619466  0.675553  0.543728  1
  O  O19  1  0.758387  0.976505  0.367428  1
  O  O20  1  0.675553  0.619466  0.956272  1
  O  O21  1  0.976505  0.758387  0.132572  1
  O  O22  1  0.356905  0.956944  0.265249  1
  O  O23  1  0.380534  0.324447  0.456272  1
