# generated using pymatgen
data_Sm7BP2O17
_symmetry_space_group_name_H-M   'P 1'
_cell_length_a   6.82481729
_cell_length_b   17.62250168
_cell_length_c   13.29483761
_cell_angle_alpha   90.00000000
_cell_angle_beta   113.46310732
_cell_angle_gamma   90.00000000
_symmetry_Int_Tables_number   1
_chemical_formula_structural   Sm7BP2O17
_chemical_formula_sum   'Sm28 B4 P8 O68'
_cell_volume   1466.76621490
_cell_formula_units_Z   4
loop_
 _symmetry_equiv_pos_site_id
 _symmetry_equiv_pos_as_xyz
  1  'x, y, z'
loop_
 _atom_site_type_symbol
 _atom_site_label
 _atom_site_symmetry_multiplicity
 _atom_site_fract_x
 _atom_site_fract_y
 _atom_site_fract_z
 _atom_site_occupancy
  Sm  Sm0  1  0.204287  0.724306  0.179949  1
  Sm  Sm1  1  0.221394  0.865064  0.431934  1
  Sm  Sm2  1  0.282001  0.225447  0.594684  1
  Sm  Sm3  1  0.778606  0.365064  0.068066  1
  Sm  Sm4  1  0.801827  0.018843  0.288789  1
  Sm  Sm5  1  0.813613  0.346535  0.574039  1
  Sm  Sm6  1  0.310487  0.105606  0.301724  1
  Sm  Sm7  1  0.186387  0.846535  0.925961  1
  Sm  Sm8  1  0.795713  0.224306  0.320051  1
  Sm  Sm9  1  0.282496  0.445612  0.506937  1
  Sm  Sm10  1  0.198173  0.518843  0.211211  1
  Sm  Sm11  1  0.717999  0.725447  0.905316  1
  Sm  Sm12  1  0.717999  0.774553  0.405316  1
  Sm  Sm13  1  0.801827  0.481157  0.788789  1
  Sm  Sm14  1  0.186387  0.653465  0.425961  1
  Sm  Sm15  1  0.813613  0.153465  0.074039  1
  Sm  Sm16  1  0.778606  0.134936  0.568066  1
  Sm  Sm17  1  0.198173  0.981157  0.711211  1
  Sm  Sm18  1  0.717504  0.554388  0.493063  1
  Sm  Sm19  1  0.221394  0.634936  0.931934  1
  Sm  Sm20  1  0.282001  0.274553  0.094684  1
  Sm  Sm21  1  0.689513  0.605606  0.198276  1
  Sm  Sm22  1  0.310487  0.394394  0.801724  1
  Sm  Sm23  1  0.689513  0.894394  0.698276  1
  Sm  Sm24  1  0.282496  0.054388  0.006937  1
  Sm  Sm25  1  0.717504  0.945612  0.993063  1
  Sm  Sm26  1  0.795713  0.275694  0.820051  1
  Sm  Sm27  1  0.204287  0.775694  0.679949  1
  B  B28  1  0.749103  0.932260  0.500724  1
  B  B29  1  0.250897  0.067740  0.499276  1
  B  B30  1  0.250897  0.432260  0.999276  1
  B  B31  1  0.749103  0.567740  0.000724  1
  P  P32  1  0.715688  0.801405  0.164512  1
  P  P33  1  0.779962  0.062645  0.817293  1
  P  P34  1  0.220038  0.937355  0.182707  1
  P  P35  1  0.284312  0.301405  0.335488  1
  P  P36  1  0.779962  0.437355  0.317293  1
  P  P37  1  0.284312  0.198595  0.835488  1
  P  P38  1  0.715688  0.698595  0.664512  1
  P  P39  1  0.220038  0.562645  0.682707  1
  O  O40  1  0.203586  0.143604  0.118721  1
  O  O41  1  0.628875  0.257507  0.625392  1
  O  O42  1  0.044631  0.867712  0.739961  1
  O  O43  1  0.628875  0.242493  0.125392  1
  O  O44  1  0.425320  0.258515  0.807506  1
  O  O45  1  0.203586  0.356396  0.618721  1
  O  O46  1  0.285863  0.639818  0.737861  1
  O  O47  1  0.120148  0.172367  0.722575  1
  O  O48  1  0.197143  0.012627  0.417643  1
  O  O49  1  0.425177  0.133807  0.905440  1
  O  O50  1  0.714137  0.139818  0.762139  1
  O  O51  1  0.802857  0.512627  0.082357  1
  O  O52  1  0.833020  0.764757  0.097973  1
  O  O53  1  0.166980  0.235243  0.902027  1
  O  O54  1  0.401815  0.122906  0.499133  1
  O  O55  1  0.044631  0.632288  0.239961  1
  O  O56  1  0.796414  0.643604  0.381279  1
  O  O57  1  0.879852  0.672367  0.777425  1
  O  O58  1  0.367160  0.957238  0.902215  1
  O  O59  1  0.425320  0.241485  0.307506  1
  O  O60  1  0.574680  0.741485  0.192494  1
  O  O61  1  0.159224  0.420853  0.073256  1
  O  O62  1  0.316881  0.609203  0.124514  1
  O  O63  1  0.020904  0.530977  0.696903  1
  O  O64  1  0.285863  0.860182  0.237861  1
  O  O65  1  0.683119  0.109203  0.375486  1
  O  O66  1  0.903168  0.265216  0.007164  1
  O  O67  1  0.197143  0.487373  0.917643  1
  O  O68  1  0.096832  0.734784  0.992836  1
  O  O69  1  0.159224  0.079147  0.573256  1
  O  O70  1  0.149182  0.564556  0.555236  1
  O  O71  1  0.598185  0.622906  0.000867  1
  O  O72  1  0.574823  0.633807  0.594560  1
  O  O73  1  0.979096  0.030977  0.803097  1
  O  O74  1  0.371125  0.742493  0.374608  1
  O  O75  1  0.149182  0.935444  0.055236  1
  O  O76  1  0.840776  0.920853  0.426744  1
  O  O77  1  0.632840  0.457238  0.597785  1
  O  O78  1  0.316881  0.890797  0.624514  1
  O  O79  1  0.574680  0.758515  0.692494  1
  O  O80  1  0.955369  0.132288  0.260039  1
  O  O81  1  0.401815  0.377094  0.999133  1
  O  O82  1  0.406799  0.504447  0.728867  1
  O  O83  1  0.406799  0.995553  0.228867  1
  O  O84  1  0.850818  0.435444  0.444764  1
  O  O85  1  0.955369  0.367712  0.760039  1
  O  O86  1  0.683119  0.390797  0.875486  1
  O  O87  1  0.598185  0.877094  0.500867  1
  O  O88  1  0.840776  0.579147  0.926744  1
  O  O89  1  0.714137  0.360182  0.262139  1
  O  O90  1  0.802857  0.987373  0.582357  1
  O  O91  1  0.593201  0.004447  0.771133  1
  O  O92  1  0.020904  0.969023  0.196903  1
  O  O93  1  0.574823  0.866193  0.094560  1
  O  O94  1  0.979096  0.469023  0.303097  1
  O  O95  1  0.096832  0.765216  0.492836  1
  O  O96  1  0.879852  0.827633  0.277425  1
  O  O97  1  0.593201  0.495553  0.271133  1
  O  O98  1  0.120148  0.327633  0.222575  1
  O  O99  1  0.425177  0.366193  0.405440  1
  O  O100  1  0.833020  0.735243  0.597973  1
  O  O101  1  0.632840  0.042762  0.097785  1
  O  O102  1  0.367160  0.542762  0.402215  1
  O  O103  1  0.371125  0.757507  0.874608  1
  O  O104  1  0.850818  0.064556  0.944764  1
  O  O105  1  0.796414  0.856396  0.881279  1
  O  O106  1  0.166980  0.264757  0.402027  1
  O  O107  1  0.903168  0.234784  0.507164  1
