# generated using pymatgen
data_Ge3Pb5O11
_symmetry_space_group_name_H-M   'P 1'
_cell_length_a   10.43567036
_cell_length_b   10.43567036
_cell_length_c   10.89919515
_cell_angle_alpha   90.00000000
_cell_angle_beta   90.00000000
_cell_angle_gamma   120.00000000
_symmetry_Int_Tables_number   1
_chemical_formula_structural   Ge3Pb5O11
_chemical_formula_sum   'Ge9 Pb15 O33'
_cell_volume   1027.93526444
_cell_formula_units_Z   3
loop_
 _symmetry_equiv_pos_site_id
 _symmetry_equiv_pos_as_xyz
  1  'x, y, z'
loop_
 _atom_site_type_symbol
 _atom_site_label
 _atom_site_symmetry_multiplicity
 _atom_site_fract_x
 _atom_site_fract_y
 _atom_site_fract_z
 _atom_site_occupancy
  Ge  Ge0  1  0.605398  0.626054  0.147497  1
  Ge  Ge1  1  0.020656  0.394602  0.147497  1
  Ge  Ge2  1  0.616766  0.007678  0.504708  1
  Ge  Ge3  1  0.373946  0.979344  0.147497  1
  Ge  Ge4  1  0.390913  0.383234  0.504708  1
  Ge  Ge5  1  0.611661  0.619861  0.845007  1
  Ge  Ge6  1  0.008200  0.388339  0.845007  1
  Ge  Ge7  1  0.992322  0.609087  0.504708  1
  Ge  Ge8  1  0.380139  0.991800  0.845007  1
  Pb  Pb9  1  0.737693  0.739715  0.521668  1
  Pb  Pb10  1  0.740331  0.003386  0.816395  1
  Pb  Pb11  1  0.666667  0.333333  0.320905  1
  Pb  Pb12  1  0.002782  0.728635  0.184998  1
  Pb  Pb13  1  0.271365  0.274147  0.184998  1
  Pb  Pb14  1  0.263055  0.259669  0.816395  1
  Pb  Pb15  1  0.260285  0.997978  0.521668  1
  Pb  Pb16  1  0.333333  0.666667  0.001660  1
  Pb  Pb17  1  0.333333  0.666667  0.663440  1
  Pb  Pb18  1  0.002022  0.262307  0.521668  1
  Pb  Pb19  1  0.333333  0.666667  0.340504  1
  Pb  Pb20  1  0.666667  0.333333  0.000310  1
  Pb  Pb21  1  0.996614  0.736945  0.816395  1
  Pb  Pb22  1  0.725853  0.997218  0.184998  1
  Pb  Pb23  1  0.666667  0.333333  0.674580  1
  O  O24  1  0.830107  0.325006  0.161516  1
  O  O25  1  0.234053  0.915932  0.736228  1
  O  O26  1  0.189277  0.704681  0.503355  1
  O  O27  1  0.084068  0.318121  0.736228  1
  O  O28  1  0.678801  0.769744  0.256393  1
  O  O29  1  0.515404  0.810723  0.503355  1
  O  O30  1  0.123903  0.593629  0.153492  1
  O  O31  1  0.674994  0.505101  0.161516  1
  O  O32  1  0.928191  0.689562  0.616767  1
  O  O33  1  0.090942  0.321199  0.256393  1
  O  O34  1  0.709173  0.523096  0.836687  1
  O  O35  1  0.813922  0.290827  0.836687  1
  O  O36  1  0.469727  0.876097  0.153492  1
  O  O37  1  0.582820  0.494723  0.537482  1
  O  O38  1  0.416092  0.510796  0.830495  1
  O  O39  1  0.489204  0.905296  0.830495  1
  O  O40  1  0.714118  0.087940  0.367045  1
  O  O41  1  0.295319  0.484596  0.503355  1
  O  O42  1  0.287259  0.931228  0.994467  1
  O  O43  1  0.094704  0.583908  0.830495  1
  O  O44  1  0.373823  0.285882  0.367045  1
  O  O45  1  0.505277  0.088097  0.537482  1
  O  O46  1  0.310438  0.238629  0.616767  1
  O  O47  1  0.068772  0.356031  0.994467  1
  O  O48  1  0.476904  0.186078  0.836687  1
  O  O49  1  0.911903  0.417180  0.537482  1
  O  O50  1  0.230256  0.909058  0.256393  1
  O  O51  1  0.643969  0.712741  0.994467  1
  O  O52  1  0.406371  0.530273  0.153492  1
  O  O53  1  0.494899  0.169893  0.161516  1
  O  O54  1  0.761371  0.071809  0.616767  1
  O  O55  1  0.681879  0.765947  0.736228  1
  O  O56  1  0.912060  0.626177  0.367045  1
