# generated using pymatgen
data_LiVPO5
_symmetry_space_group_name_H-M   'P 1'
_cell_length_a   4.97630070
_cell_length_b   10.46496709
_cell_length_c   7.22255718
_cell_angle_alpha   90.00000000
_cell_angle_beta   109.79377216
_cell_angle_gamma   90.00000000
_symmetry_Int_Tables_number   1
_chemical_formula_structural   LiVPO5
_chemical_formula_sum   'Li4 V4 P4 O20'
_cell_volume   353.90529040
_cell_formula_units_Z   4
loop_
 _symmetry_equiv_pos_site_id
 _symmetry_equiv_pos_as_xyz
  1  'x, y, z'
loop_
 _atom_site_type_symbol
 _atom_site_label
 _atom_site_symmetry_multiplicity
 _atom_site_fract_x
 _atom_site_fract_y
 _atom_site_fract_z
 _atom_site_occupancy
  Li  Li0  1  0.037442  0.894885  0.164120  1
  Li  Li1  1  0.962558  0.394885  0.335880  1
  Li  Li2  1  0.037442  0.605115  0.664120  1
  Li  Li3  1  0.962558  0.105115  0.835880  1
  V  V4  1  0.579718  0.077649  0.179961  1
  V  V5  1  0.420282  0.577649  0.320039  1
  V  V6  1  0.579718  0.422351  0.679961  1
  V  V7  1  0.420282  0.922351  0.820039  1
  P  P8  1  0.802017  0.649961  0.027354  1
  P  P9  1  0.802017  0.850039  0.527354  1
  P  P10  1  0.197983  0.149961  0.472646  1
  P  P11  1  0.197983  0.350039  0.972646  1
  O  O12  1  0.644593  0.722890  0.465616  1
  O  O13  1  0.200226  0.427110  0.155600  1
  O  O14  1  0.733660  0.040901  0.000830  1
  O  O15  1  0.675096  0.570356  0.157971  1
  O  O16  1  0.116482  0.690495  0.151981  1
  O  O17  1  0.799774  0.927110  0.344400  1
  O  O18  1  0.883518  0.190495  0.348019  1
  O  O19  1  0.355407  0.222890  0.034384  1
  O  O20  1  0.733660  0.459099  0.500830  1
  O  O21  1  0.324904  0.070356  0.342029  1
  O  O22  1  0.675096  0.929644  0.657971  1
  O  O23  1  0.266340  0.540901  0.499170  1
  O  O24  1  0.644593  0.777110  0.965616  1
  O  O25  1  0.116482  0.809505  0.651981  1
  O  O26  1  0.200226  0.072890  0.655600  1
  O  O27  1  0.883518  0.309505  0.848019  1
  O  O28  1  0.324904  0.429644  0.842029  1
  O  O29  1  0.266340  0.959099  0.999170  1
  O  O30  1  0.799774  0.572890  0.844400  1
  O  O31  1  0.355407  0.277110  0.534384  1
