# generated using pymatgen
data_MgBeAl4O8
_symmetry_space_group_name_H-M   'P 1'
_cell_length_a   5.66261188
_cell_length_b   5.66261188
_cell_length_c   18.31749620
_cell_angle_alpha   90.00000000
_cell_angle_beta   90.00000000
_cell_angle_gamma   120.00000000
_symmetry_Int_Tables_number   1
_chemical_formula_structural   MgBeAl4O8
_chemical_formula_sum   'Mg4 Be4 Al16 O32'
_cell_volume   508.66321627
_cell_formula_units_Z   4
loop_
 _symmetry_equiv_pos_site_id
 _symmetry_equiv_pos_as_xyz
  1  'x, y, z'
loop_
 _atom_site_type_symbol
 _atom_site_label
 _atom_site_symmetry_multiplicity
 _atom_site_fract_x
 _atom_site_fract_y
 _atom_site_fract_z
 _atom_site_occupancy
  Mg  Mg0  1  0.000000  0.000000  0.155547  1
  Mg  Mg1  1  0.333333  0.666667  0.405415  1
  Mg  Mg2  1  0.666667  0.333333  0.905415  1
  Mg  Mg3  1  0.000000  0.000000  0.655547  1
  Be  Be4  1  0.666667  0.333333  0.718082  1
  Be  Be5  1  0.333333  0.666667  0.954659  1
  Be  Be6  1  0.666667  0.333333  0.454659  1
  Be  Be7  1  0.333333  0.666667  0.218082  1
  Al  Al8  1  0.163336  0.836664  0.813487  1
  Al  Al9  1  0.501473  0.002947  0.062395  1
  Al  Al10  1  0.002947  0.501473  0.562395  1
  Al  Al11  1  0.836664  0.673328  0.313487  1
  Al  Al12  1  0.000000  0.000000  0.945865  1
  Al  Al13  1  0.333333  0.666667  0.687113  1
  Al  Al14  1  0.836664  0.163336  0.313487  1
  Al  Al15  1  0.498527  0.997053  0.562395  1
  Al  Al16  1  0.326672  0.163336  0.313487  1
  Al  Al17  1  0.997053  0.498527  0.062395  1
  Al  Al18  1  0.501473  0.498527  0.062395  1
  Al  Al19  1  0.163336  0.326672  0.813487  1
  Al  Al20  1  0.000000  0.000000  0.445865  1
  Al  Al21  1  0.666667  0.333333  0.187113  1
  Al  Al22  1  0.498527  0.501473  0.562395  1
  Al  Al23  1  0.673328  0.836664  0.813487  1
  O  O24  1  0.360499  0.180250  0.499860  1
  O  O25  1  0.368146  0.184073  0.121443  1
  O  O26  1  0.180250  0.360499  0.999860  1
  O  O27  1  0.333333  0.666667  0.509579  1
  O  O28  1  0.852572  0.147428  0.874560  1
  O  O29  1  0.333333  0.666667  0.121505  1
  O  O30  1  0.000000  0.000000  0.260078  1
  O  O31  1  0.666667  0.333333  0.621505  1
  O  O32  1  0.506510  0.013020  0.251689  1
  O  O33  1  0.639501  0.819750  0.999860  1
  O  O34  1  0.666667  0.333333  0.366857  1
  O  O35  1  0.184073  0.368146  0.621443  1
  O  O36  1  0.815927  0.184073  0.121443  1
  O  O37  1  0.147428  0.294857  0.374560  1
  O  O38  1  0.184073  0.815927  0.621443  1
  O  O39  1  0.631854  0.815927  0.621443  1
  O  O40  1  0.506510  0.493490  0.251689  1
  O  O41  1  0.815927  0.631854  0.121443  1
  O  O42  1  0.147428  0.852572  0.374560  1
  O  O43  1  0.705143  0.852572  0.374560  1
  O  O44  1  0.294857  0.147428  0.874560  1
  O  O45  1  0.013020  0.506510  0.751689  1
  O  O46  1  0.493490  0.506510  0.751689  1
  O  O47  1  0.819750  0.639501  0.499860  1
  O  O48  1  0.666667  0.333333  0.009579  1
  O  O49  1  0.493490  0.986980  0.751689  1
  O  O50  1  0.819750  0.180250  0.499860  1
  O  O51  1  0.180250  0.819750  0.999860  1
  O  O52  1  0.333333  0.666667  0.866857  1
  O  O53  1  0.986980  0.493490  0.251689  1
  O  O54  1  0.852572  0.705143  0.874560  1
  O  O55  1  0.000000  0.000000  0.760078  1
