# generated using pymatgen
data_AgBO2
_symmetry_space_group_name_H-M   'P 1'
_cell_length_a   8.64050399
_cell_length_b   8.76595625
_cell_length_c   19.96976464
_cell_angle_alpha   90.00000000
_cell_angle_beta   90.00000000
_cell_angle_gamma   90.00000000
_symmetry_Int_Tables_number   1
_chemical_formula_structural   AgBO2
_chemical_formula_sum   'Ag32 B32 O64'
_cell_volume   1512.55550398
_cell_formula_units_Z   32
loop_
 _symmetry_equiv_pos_site_id
 _symmetry_equiv_pos_as_xyz
  1  'x, y, z'
loop_
 _atom_site_type_symbol
 _atom_site_label
 _atom_site_symmetry_multiplicity
 _atom_site_fract_x
 _atom_site_fract_y
 _atom_site_fract_z
 _atom_site_occupancy
  Ag  Ag0  1  0.691813  0.239510  0.730732  1
  Ag  Ag1  1  0.282284  0.132937  0.413955  1
  Ag  Ag2  1  0.691813  0.760490  0.230732  1
  Ag  Ag3  1  0.502907  0.792460  0.389359  1
  Ag  Ag4  1  0.191813  0.260490  0.269268  1
  Ag  Ag5  1  0.497093  0.792460  0.110641  1
  Ag  Ag6  1  0.000000  0.465628  0.750000  1
  Ag  Ag7  1  0.308187  0.239510  0.769268  1
  Ag  Ag8  1  0.717716  0.867063  0.586045  1
  Ag  Ag9  1  0.000000  0.000000  0.000000  1
  Ag  Ag10  1  0.217716  0.632937  0.413955  1
  Ag  Ag11  1  0.002907  0.292460  0.110641  1
  Ag  Ag12  1  0.997093  0.707540  0.889359  1
  Ag  Ag13  1  0.217716  0.367063  0.913955  1
  Ag  Ag14  1  0.282284  0.867063  0.913955  1
  Ag  Ag15  1  0.191813  0.739510  0.769268  1
  Ag  Ag16  1  0.502907  0.207540  0.889359  1
  Ag  Ag17  1  0.717716  0.132937  0.086045  1
  Ag  Ag18  1  0.497093  0.207540  0.610641  1
  Ag  Ag19  1  0.500000  0.500000  0.500000  1
  Ag  Ag20  1  0.000000  0.000000  0.500000  1
  Ag  Ag21  1  0.782284  0.632937  0.086045  1
  Ag  Ag22  1  0.782284  0.367063  0.586045  1
  Ag  Ag23  1  0.000000  0.534372  0.250000  1
  Ag  Ag24  1  0.500000  0.965628  0.750000  1
  Ag  Ag25  1  0.002907  0.707540  0.610641  1
  Ag  Ag26  1  0.500000  0.034372  0.250000  1
  Ag  Ag27  1  0.997093  0.292460  0.389359  1
  Ag  Ag28  1  0.500000  0.500000  0.000000  1
  Ag  Ag29  1  0.308187  0.760490  0.269268  1
  Ag  Ag30  1  0.808187  0.739510  0.730732  1
  Ag  Ag31  1  0.808187  0.260490  0.230732  1
  B  B32  1  0.888814  0.261341  0.867138  1
  B  B33  1  0.323654  0.126929  0.023585  1
  B  B34  1  0.443414  0.547227  0.826474  1
  B  B35  1  0.281640  0.506416  0.133508  1
  B  B36  1  0.676346  0.873071  0.976415  1
  B  B37  1  0.676346  0.126929  0.476415  1
  B  B38  1  0.323654  0.873071  0.523585  1
  B  B39  1  0.718360  0.493584  0.866492  1
  B  B40  1  0.888814  0.738659  0.367138  1
  B  B41  1  0.176346  0.626929  0.023585  1
  B  B42  1  0.611186  0.238659  0.367138  1
  B  B43  1  0.056586  0.952773  0.326474  1
  B  B44  1  0.388814  0.761341  0.632862  1
  B  B45  1  0.943414  0.047227  0.673526  1
  B  B46  1  0.443414  0.452773  0.326474  1
  B  B47  1  0.781640  0.006416  0.366492  1
  B  B48  1  0.823654  0.373071  0.976415  1
  B  B49  1  0.611186  0.761341  0.867138  1
  B  B50  1  0.388814  0.238659  0.132862  1
  B  B51  1  0.556586  0.452773  0.173526  1
  B  B52  1  0.218360  0.006416  0.133508  1
  B  B53  1  0.056586  0.047227  0.826474  1
  B  B54  1  0.176346  0.373071  0.523585  1
  B  B55  1  0.111186  0.738659  0.132862  1
  B  B56  1  0.218360  0.993584  0.633508  1
  B  B57  1  0.781640  0.993584  0.866492  1
  B  B58  1  0.556586  0.547227  0.673526  1
  B  B59  1  0.111186  0.261341  0.632862  1
  B  B60  1  0.718360  0.506416  0.366492  1
  B  B61  1  0.823654  0.626929  0.476415  1
  B  B62  1  0.281640  0.493584  0.633508  1
  B  B63  1  0.943414  0.952773  0.173526  1
  O  O64  1  0.677525  0.116052  0.544582  1
  O  O65  1  0.677525  0.883948  0.044582  1
  O  O66  1  0.241714  0.844513  0.143902  1
  O  O67  1  0.741714  0.655487  0.856098  1
  O  O68  1  0.287670  0.542876  0.058945  1
  O  O69  1  0.787670  0.957124  0.941055  1
  O  O70  1  0.803004  0.003755  0.194627  1
  O  O71  1  0.924209  0.282769  0.940155  1
  O  O72  1  0.565257  0.554396  0.339087  1
  O  O73  1  0.712330  0.457124  0.941055  1
  O  O74  1  0.347719  0.090799  0.162897  1
  O  O75  1  0.803004  0.996245  0.694627  1
  O  O76  1  0.469183  0.296977  0.335497  1
  O  O77  1  0.847719  0.590799  0.337103  1
  O  O78  1  0.196996  0.003755  0.305373  1
  O  O79  1  0.212330  0.042876  0.058945  1
  O  O80  1  0.152281  0.409201  0.662897  1
  O  O81  1  0.787670  0.042876  0.441055  1
  O  O82  1  0.434743  0.445604  0.660913  1
  O  O83  1  0.303004  0.496245  0.805373  1
  O  O84  1  0.065257  0.054396  0.160913  1
  O  O85  1  0.424209  0.782769  0.559845  1
  O  O86  1  0.347719  0.909201  0.662897  1
  O  O87  1  0.575791  0.217231  0.440155  1
  O  O88  1  0.822475  0.616052  0.544582  1
  O  O89  1  0.287670  0.457124  0.558945  1
  O  O90  1  0.530817  0.296977  0.164503  1
  O  O91  1  0.196996  0.996245  0.805373  1
  O  O92  1  0.075791  0.717231  0.059845  1
  O  O93  1  0.934743  0.945604  0.839087  1
  O  O94  1  0.030817  0.796977  0.335497  1
  O  O95  1  0.241714  0.155487  0.643902  1
  O  O96  1  0.652281  0.090799  0.337103  1
  O  O97  1  0.758286  0.844513  0.356098  1
  O  O98  1  0.530817  0.703023  0.664503  1
  O  O99  1  0.303004  0.503755  0.305373  1
  O  O100  1  0.434743  0.554396  0.160913  1
  O  O101  1  0.565257  0.445604  0.839087  1
  O  O102  1  0.322475  0.116052  0.955418  1
  O  O103  1  0.934743  0.054396  0.339087  1
  O  O104  1  0.030817  0.203023  0.835497  1
  O  O105  1  0.177525  0.616052  0.955418  1
  O  O106  1  0.258286  0.655487  0.643902  1
  O  O107  1  0.696996  0.503755  0.194627  1
  O  O108  1  0.212330  0.957124  0.558945  1
  O  O109  1  0.177525  0.383948  0.455418  1
  O  O110  1  0.575791  0.782769  0.940155  1
  O  O111  1  0.065257  0.945604  0.660913  1
  O  O112  1  0.712330  0.542876  0.441055  1
  O  O113  1  0.652281  0.909201  0.837103  1
  O  O114  1  0.822475  0.383948  0.044582  1
  O  O115  1  0.758286  0.155487  0.856098  1
  O  O116  1  0.741714  0.344513  0.356098  1
  O  O117  1  0.696996  0.496245  0.694627  1
  O  O118  1  0.847719  0.409201  0.837103  1
  O  O119  1  0.258286  0.344513  0.143902  1
  O  O120  1  0.424209  0.217231  0.059845  1
  O  O121  1  0.969183  0.203023  0.664503  1
  O  O122  1  0.469183  0.703023  0.835497  1
  O  O123  1  0.152281  0.590799  0.162897  1
  O  O124  1  0.075791  0.282769  0.559845  1
  O  O125  1  0.322475  0.883948  0.455418  1
  O  O126  1  0.969183  0.796977  0.164503  1
  O  O127  1  0.924209  0.717231  0.440155  1
