# generated using pymatgen
data_Ba(BO2)2
_symmetry_space_group_name_H-M   'P 1'
_cell_length_a   8.51903760
_cell_length_b   8.51903760
_cell_length_c   8.51903760
_cell_angle_alpha   96.10076282
_cell_angle_beta   96.10076282
_cell_angle_gamma   96.10076282
_symmetry_Int_Tables_number   1
_chemical_formula_structural   Ba(BO2)2
_chemical_formula_sum   'Ba6 B12 O24'
_cell_volume   606.94009737
_cell_formula_units_Z   6
loop_
 _symmetry_equiv_pos_site_id
 _symmetry_equiv_pos_as_xyz
  1  'x, y, z'
loop_
 _atom_site_type_symbol
 _atom_site_label
 _atom_site_symmetry_multiplicity
 _atom_site_fract_x
 _atom_site_fract_y
 _atom_site_fract_z
 _atom_site_occupancy
  Ba  Ba0  1  0.971477  0.620506  0.258814  1
  Ba  Ba1  1  0.258814  0.971477  0.620506  1
  Ba  Ba2  1  0.620506  0.258814  0.971477  1
  Ba  Ba3  1  0.758814  0.120506  0.471477  1
  Ba  Ba4  1  0.471477  0.758814  0.120506  1
  Ba  Ba5  1  0.120506  0.471477  0.758814  1
  B  B6  1  0.906185  0.951077  0.122732  1
  B  B7  1  0.122732  0.906185  0.951077  1
  B  B8  1  0.951077  0.122732  0.906185  1
  B  B9  1  0.622732  0.451077  0.406185  1
  B  B10  1  0.406185  0.622732  0.451077  1
  B  B11  1  0.451077  0.406185  0.622732  1
  B  B12  1  0.879681  0.733508  0.655759  1
  B  B13  1  0.733508  0.655759  0.879681  1
  B  B14  1  0.655759  0.879681  0.733508  1
  B  B15  1  0.379681  0.155759  0.233508  1
  B  B16  1  0.155759  0.233508  0.379681  1
  B  B17  1  0.233508  0.379681  0.155759  1
  O  O18  1  0.371087  0.536345  0.578280  1
  O  O19  1  0.536345  0.578280  0.371087  1
  O  O20  1  0.578280  0.371087  0.536345  1
  O  O21  1  0.871087  0.078280  0.036345  1
  O  O22  1  0.078280  0.036345  0.871087  1
  O  O23  1  0.036345  0.871087  0.078280  1
  O  O24  1  0.000332  0.714274  0.571410  1
  O  O25  1  0.714274  0.571410  0.000332  1
  O  O26  1  0.571410  0.000332  0.714274  1
  O  O27  1  0.500332  0.071410  0.214274  1
  O  O28  1  0.071410  0.214274  0.500332  1
  O  O29  1  0.214274  0.500332  0.071410  1
  O  O30  1  0.850639  0.635225  0.776655  1
  O  O31  1  0.635225  0.776655  0.850639  1
  O  O32  1  0.776655  0.850639  0.635225  1
  O  O33  1  0.350639  0.276655  0.135225  1
  O  O34  1  0.276655  0.135225  0.350639  1
  O  O35  1  0.135225  0.350639  0.276655  1
  O  O36  1  0.403701  0.324944  0.737278  1
  O  O37  1  0.324944  0.737278  0.403701  1
  O  O38  1  0.737278  0.403701  0.324944  1
  O  O39  1  0.903701  0.237278  0.824944  1
  O  O40  1  0.237278  0.824944  0.903701  1
  O  O41  1  0.824944  0.903701  0.237278  1
