# generated using pymatgen
data_Nb(PS4)2
_symmetry_space_group_name_H-M   'P 1'
_cell_length_a   11.78180636
_cell_length_b   11.78180636
_cell_length_c   10.82198190
_cell_angle_alpha   90.00000000
_cell_angle_beta   90.00000000
_cell_angle_gamma   118.96429532
_symmetry_Int_Tables_number   1
_chemical_formula_structural   Nb(PS4)2
_chemical_formula_sum   'Nb4 P8 S32'
_cell_volume   1314.31580208
_cell_formula_units_Z   4
loop_
 _symmetry_equiv_pos_site_id
 _symmetry_equiv_pos_as_xyz
  1  'x, y, z'
loop_
 _atom_site_type_symbol
 _atom_site_label
 _atom_site_symmetry_multiplicity
 _atom_site_fract_x
 _atom_site_fract_y
 _atom_site_fract_z
 _atom_site_occupancy
  Nb  Nb0  1  0.071668  0.928332  0.500000  1
  Nb  Nb1  1  0.928332  0.071668  0.500000  1
  Nb  Nb2  1  0.571668  0.428332  1.000000  1
  Nb  Nb3  1  0.428332  0.571668  1.000000  1
  P  P4  1  0.374461  0.995765  0.486422  1
  P  P5  1  0.874461  0.495765  0.013578  1
  P  P6  1  0.004235  0.625539  0.513578  1
  P  P7  1  0.504235  0.125539  0.986422  1
  P  P8  1  0.995765  0.374461  0.486422  1
  P  P9  1  0.495765  0.874461  0.013578  1
  P  P10  1  0.125539  0.504235  0.986422  1
  P  P11  1  0.625539  0.004235  0.513578  1
  S  S12  1  0.129597  0.563503  0.426786  1
  S  S13  1  0.069568  0.298318  0.607546  1
  S  S14  1  0.930432  0.701682  0.392454  1
  S  S15  1  0.090047  0.755575  0.647972  1
  S  S16  1  0.244425  0.909953  0.352028  1
  S  S17  1  0.255575  0.590047  0.852028  1
  S  S18  1  0.409953  0.744425  0.147972  1
  S  S19  1  0.014087  0.014087  0.690343  1
  S  S20  1  0.563503  0.129597  0.426786  1
  S  S21  1  0.430432  0.201682  0.107546  1
  S  S22  1  0.861030  0.861030  0.611090  1
  S  S23  1  0.436497  0.870403  0.573214  1
  S  S24  1  0.629597  0.063503  0.073214  1
  S  S25  1  0.985913  0.985913  0.309657  1
  S  S26  1  0.201682  0.430432  0.107546  1
  S  S27  1  0.701682  0.930432  0.392454  1
  S  S28  1  0.638970  0.638970  0.111090  1
  S  S29  1  0.590047  0.255575  0.852028  1
  S  S30  1  0.514087  0.514087  0.809657  1
  S  S31  1  0.138970  0.138970  0.388910  1
  S  S32  1  0.870403  0.436497  0.573214  1
  S  S33  1  0.569568  0.798318  0.892454  1
  S  S34  1  0.298318  0.069568  0.607546  1
  S  S35  1  0.485913  0.485913  0.190343  1
  S  S36  1  0.798318  0.569568  0.892454  1
  S  S37  1  0.370403  0.936497  0.926786  1
  S  S38  1  0.361030  0.361030  0.888910  1
  S  S39  1  0.755575  0.090047  0.647972  1
  S  S40  1  0.744425  0.409953  0.147972  1
  S  S41  1  0.909953  0.244425  0.352028  1
  S  S42  1  0.063503  0.629597  0.073214  1
  S  S43  1  0.936497  0.370403  0.926786  1
