# generated using pymatgen
data_NbPO5
_symmetry_space_group_name_H-M   'P 1'
_cell_length_a   5.44111663
_cell_length_b   6.81240125
_cell_length_c   11.47289539
_cell_angle_alpha   90.00000000
_cell_angle_beta   90.00000000
_cell_angle_gamma   90.00000000
_symmetry_Int_Tables_number   1
_chemical_formula_structural   NbPO5
_chemical_formula_sum   'Nb4 P4 O20'
_cell_volume   425.26661344
_cell_formula_units_Z   4
loop_
 _symmetry_equiv_pos_site_id
 _symmetry_equiv_pos_as_xyz
  1  'x, y, z'
loop_
 _atom_site_type_symbol
 _atom_site_label
 _atom_site_symmetry_multiplicity
 _atom_site_fract_x
 _atom_site_fract_y
 _atom_site_fract_z
 _atom_site_occupancy
  Nb  Nb0  1  0.250000  0.168871  0.937070  1
  Nb  Nb1  1  0.750000  0.831129  0.062930  1
  Nb  Nb2  1  0.750000  0.668871  0.562930  1
  Nb  Nb3  1  0.250000  0.331129  0.437070  1
  P  P4  1  0.250000  0.972398  0.653784  1
  P  P5  1  0.750000  0.027602  0.346216  1
  P  P6  1  0.750000  0.472398  0.846216  1
  P  P7  1  0.250000  0.527602  0.153784  1
  O  O8  1  0.250000  0.030302  0.784262  1
  O  O9  1  0.750000  0.969698  0.215738  1
  O  O10  1  0.750000  0.530302  0.715738  1
  O  O11  1  0.250000  0.469698  0.284262  1
  O  O12  1  0.516912  0.146042  0.371814  1
  O  O13  1  0.016912  0.853958  0.628186  1
  O  O14  1  0.483088  0.646042  0.128186  1
  O  O15  1  0.983088  0.353958  0.871814  1
  O  O16  1  0.000000  0.000000  0.000000  1
  O  O17  1  0.500000  0.000000  0.000000  1
  O  O18  1  0.000000  0.500000  0.500000  1
  O  O19  1  0.500000  0.500000  0.500000  1
  O  O20  1  0.250000  0.336138  0.081367  1
  O  O21  1  0.750000  0.663862  0.918633  1
  O  O22  1  0.750000  0.836138  0.418633  1
  O  O23  1  0.250000  0.163862  0.581367  1
  O  O24  1  0.016912  0.646042  0.128186  1
  O  O25  1  0.516912  0.353958  0.871814  1
  O  O26  1  0.983088  0.146042  0.371814  1
  O  O27  1  0.483088  0.853958  0.628186  1
