# generated using pymatgen
data_K3Hg3S2Br5O6
_symmetry_space_group_name_H-M   'P 1'
_cell_length_a   6.31507417
_cell_length_b   12.91027969
_cell_length_c   23.01724249
_cell_angle_alpha   90.00000000
_cell_angle_beta   90.00000000
_cell_angle_gamma   90.00000000
_symmetry_Int_Tables_number   1
_chemical_formula_structural   K3Hg3S2Br5O6
_chemical_formula_sum   'K12 Hg12 S8 Br20 O24'
_cell_volume   1876.58136676
_cell_formula_units_Z   4
loop_
 _symmetry_equiv_pos_site_id
 _symmetry_equiv_pos_as_xyz
  1  'x, y, z'
loop_
 _atom_site_type_symbol
 _atom_site_label
 _atom_site_symmetry_multiplicity
 _atom_site_fract_x
 _atom_site_fract_y
 _atom_site_fract_z
 _atom_site_occupancy
  K  K0  1  0.750000  0.632355  0.882465  1
  K  K1  1  0.250000  0.126732  0.995130  1
  K  K2  1  0.250000  0.373268  0.495130  1
  K  K3  1  0.750000  0.133623  0.490171  1
  K  K4  1  0.250000  0.866377  0.509829  1
  K  K5  1  0.250000  0.633623  0.009829  1
  K  K6  1  0.250000  0.367645  0.117535  1
  K  K7  1  0.750000  0.626732  0.504870  1
  K  K8  1  0.750000  0.867645  0.382465  1
  K  K9  1  0.750000  0.366377  0.990171  1
  K  K10  1  0.250000  0.132355  0.617535  1
  K  K11  1  0.750000  0.873268  0.004870  1
  Hg  Hg12  1  0.750000  0.853879  0.681606  1
  Hg  Hg13  1  0.250000  0.620611  0.689673  1
  Hg  Hg14  1  0.250000  0.620726  0.309798  1
  Hg  Hg15  1  0.250000  0.879389  0.189673  1
  Hg  Hg16  1  0.750000  0.120611  0.810327  1
  Hg  Hg17  1  0.750000  0.646121  0.181606  1
  Hg  Hg18  1  0.250000  0.879274  0.809798  1
  Hg  Hg19  1  0.750000  0.379274  0.690202  1
  Hg  Hg20  1  0.750000  0.120726  0.190202  1
  Hg  Hg21  1  0.250000  0.353879  0.818394  1
  Hg  Hg22  1  0.750000  0.379389  0.310327  1
  Hg  Hg23  1  0.250000  0.146121  0.318394  1
  S  S24  1  0.250000  0.421044  0.920186  1
  S  S25  1  0.250000  0.078956  0.420186  1
  S  S26  1  0.750000  0.159480  0.085002  1
  S  S27  1  0.250000  0.659480  0.414998  1
  S  S28  1  0.750000  0.578956  0.079814  1
  S  S29  1  0.750000  0.340520  0.585002  1
  S  S30  1  0.250000  0.840520  0.914998  1
  S  S31  1  0.750000  0.921044  0.579814  1
  Br  Br32  1  0.250000  0.128795  0.813681  1
  Br  Br33  1  0.750000  0.124291  0.700821  1
  Br  Br34  1  0.250000  0.877412  0.080482  1
  Br  Br35  1  0.750000  0.112607  0.303582  1
  Br  Br36  1  0.250000  0.133928  0.202780  1
  Br  Br37  1  0.750000  0.628795  0.686319  1
  Br  Br38  1  0.250000  0.624291  0.799179  1
  Br  Br39  1  0.750000  0.377412  0.419518  1
  Br  Br40  1  0.750000  0.633928  0.297220  1
  Br  Br41  1  0.250000  0.366072  0.702780  1
  Br  Br42  1  0.250000  0.371205  0.313681  1
  Br  Br43  1  0.750000  0.871205  0.186319  1
  Br  Br44  1  0.250000  0.612607  0.196418  1
  Br  Br45  1  0.250000  0.875709  0.299179  1
  Br  Br46  1  0.250000  0.887393  0.696418  1
  Br  Br47  1  0.750000  0.375709  0.200821  1
  Br  Br48  1  0.750000  0.387393  0.803582  1
  Br  Br49  1  0.750000  0.122588  0.919518  1
  Br  Br50  1  0.750000  0.866072  0.797220  1
  Br  Br51  1  0.250000  0.622588  0.580482  1
  O  O52  1  0.750000  0.668103  0.038804  1
  O  O53  1  0.055721  0.721381  0.427567  1
  O  O54  1  0.944720  0.985183  0.572340  1
  O  O55  1  0.055280  0.485183  0.927660  1
  O  O56  1  0.555721  0.221381  0.072433  1
  O  O57  1  0.944279  0.221381  0.072433  1
  O  O58  1  0.750000  0.440038  0.553541  1
  O  O59  1  0.250000  0.559962  0.446459  1
  O  O60  1  0.055721  0.778619  0.927567  1
  O  O61  1  0.444720  0.014817  0.427660  1
  O  O62  1  0.055280  0.014817  0.427660  1
  O  O63  1  0.250000  0.940038  0.946459  1
  O  O64  1  0.944720  0.514817  0.072340  1
  O  O65  1  0.750000  0.059962  0.053541  1
  O  O66  1  0.750000  0.831897  0.538804  1
  O  O67  1  0.555721  0.278619  0.572433  1
  O  O68  1  0.444279  0.778619  0.927567  1
  O  O69  1  0.250000  0.331897  0.961196  1
  O  O70  1  0.250000  0.168103  0.461196  1
  O  O71  1  0.444279  0.721381  0.427567  1
  O  O72  1  0.944279  0.278619  0.572433  1
  O  O73  1  0.444720  0.485183  0.927660  1
  O  O74  1  0.555280  0.985183  0.572340  1
  O  O75  1  0.555280  0.514817  0.072340  1
