# generated using pymatgen
data_KBiF6
_symmetry_space_group_name_H-M   'P 1'
_cell_length_a   5.48200011
_cell_length_b   5.48200011
_cell_length_c   10.12668447
_cell_angle_alpha   90.00000000
_cell_angle_beta   90.00000000
_cell_angle_gamma   90.00000000
_symmetry_Int_Tables_number   1
_chemical_formula_structural   KBiF6
_chemical_formula_sum   'K2 Bi2 F12'
_cell_volume   304.33041495
_cell_formula_units_Z   2
loop_
 _symmetry_equiv_pos_site_id
 _symmetry_equiv_pos_as_xyz
  1  'x, y, z'
loop_
 _atom_site_type_symbol
 _atom_site_label
 _atom_site_symmetry_multiplicity
 _atom_site_fract_x
 _atom_site_fract_y
 _atom_site_fract_z
 _atom_site_occupancy
  K  K0  1  0.500000  0.500000  0.250000  1
  K  K1  1  0.500000  0.500000  0.750000  1
  Bi  Bi2  1  0.000000  0.000000  0.500000  1
  Bi  Bi3  1  0.000000  0.000000  0.000000  1
  F  F4  1  0.734879  0.265121  0.000000  1
  F  F5  1  0.188758  0.811242  0.358704  1
  F  F6  1  0.188758  0.811242  0.641296  1
  F  F7  1  0.188758  0.188758  0.141296  1
  F  F8  1  0.734879  0.734879  0.500000  1
  F  F9  1  0.811242  0.188758  0.641296  1
  F  F10  1  0.811242  0.811242  0.141296  1
  F  F11  1  0.811242  0.811242  0.858704  1
  F  F12  1  0.265121  0.734879  0.000000  1
  F  F13  1  0.811242  0.188758  0.358704  1
  F  F14  1  0.265121  0.265121  0.500000  1
  F  F15  1  0.188758  0.188758  0.858704  1
