# generated using pymatgen
data_Rb5Nb3OF18
_symmetry_space_group_name_H-M   'P 1'
_cell_length_a   11.87740054
_cell_length_b   11.87740054
_cell_length_c   11.87740054
_cell_angle_alpha   96.46941957
_cell_angle_beta   96.46941957
_cell_angle_gamma   140.77369177
_symmetry_Int_Tables_number   1
_chemical_formula_structural   Rb5Nb3OF18
_chemical_formula_sum   'Rb10 Nb6 O2 F36'
_cell_volume   998.13132146
_cell_formula_units_Z   2
loop_
 _symmetry_equiv_pos_site_id
 _symmetry_equiv_pos_as_xyz
  1  'x, y, z'
loop_
 _atom_site_type_symbol
 _atom_site_label
 _atom_site_symmetry_multiplicity
 _atom_site_fract_x
 _atom_site_fract_y
 _atom_site_fract_z
 _atom_site_occupancy
  Rb  Rb0  1  0.737173  0.237173  0.500000  1
  Rb  Rb1  1  0.237173  0.737173  0.500000  1
  Rb  Rb2  1  0.048577  0.188259  0.306722  1
  Rb  Rb3  1  0.741855  0.048577  0.860318  1
  Rb  Rb4  1  0.188259  0.881537  0.139682  1
  Rb  Rb5  1  0.881537  0.741855  0.693278  1
  Rb  Rb6  1  0.241855  0.381537  0.693278  1
  Rb  Rb7  1  0.688259  0.548577  0.306722  1
  Rb  Rb8  1  0.381537  0.688259  0.139682  1
  Rb  Rb9  1  0.548577  0.241855  0.860318  1
  Nb  Nb10  1  0.844025  0.344025  0.187662  1
  Nb  Nb11  1  0.656363  0.844025  0.500000  1
  Nb  Nb12  1  0.344025  0.156363  0.500000  1
  Nb  Nb13  1  0.156363  0.656363  0.812338  1
  Nb  Nb14  1  0.733626  0.733626  0.000000  1
  Nb  Nb15  1  0.233626  0.233626  0.000000  1
  O  O16  1  0.007087  0.007087  0.000000  1
  O  O17  1  0.507087  0.507087  0.000000  1
  F  F18  1  0.107778  0.607778  0.228705  1
  F  F19  1  0.879073  0.107778  0.500000  1
  F  F20  1  0.607778  0.379073  0.500000  1
  F  F21  1  0.379073  0.879073  0.771295  1
  F  F22  1  0.341504  0.011428  0.389656  1
  F  F23  1  0.951847  0.341504  0.330075  1
  F  F24  1  0.011428  0.621772  0.669925  1
  F  F25  1  0.621772  0.951847  0.610344  1
  F  F26  1  0.451847  0.121772  0.610344  1
  F  F27  1  0.511428  0.841504  0.389656  1
  F  F28  1  0.121772  0.511428  0.669925  1
  F  F29  1  0.841504  0.451847  0.330075  1
  F  F30  1  0.899558  0.399558  0.791333  1
  F  F31  1  0.108225  0.899558  0.500000  1
  F  F32  1  0.399558  0.608225  0.500000  1
  F  F33  1  0.608225  0.108225  0.208667  1
  F  F34  1  0.808947  0.649093  0.929715  1
  F  F35  1  0.879232  0.808947  0.159854  1
  F  F36  1  0.649093  0.719378  0.840146  1
  F  F37  1  0.719378  0.879232  0.070285  1
  F  F38  1  0.379232  0.219378  0.070285  1
  F  F39  1  0.149093  0.308947  0.929715  1
  F  F40  1  0.219378  0.149093  0.840146  1
  F  F41  1  0.308947  0.379232  0.159854  1
  F  F42  1  0.677805  0.801006  0.341201  1
  F  F43  1  0.336603  0.677805  0.876799  1
  F  F44  1  0.801006  0.459805  0.123201  1
  F  F45  1  0.459805  0.336603  0.658799  1
  F  F46  1  0.836603  0.959805  0.658799  1
  F  F47  1  0.301006  0.177805  0.341201  1
  F  F48  1  0.959805  0.301006  0.123201  1
  F  F49  1  0.177805  0.836603  0.876799  1
  F  F50  1  0.159699  0.659699  0.980849  1
  F  F51  1  0.178850  0.159699  0.500000  1
  F  F52  1  0.659699  0.678850  0.500000  1
  F  F53  1  0.678850  0.178850  0.019151  1
