# generated using pymatgen
data_Rb2V2Cu(PO6)2
_symmetry_space_group_name_H-M   'P 1'
_cell_length_a   5.06662397
_cell_length_b   11.63704781
_cell_length_c   9.64248345
_cell_angle_alpha   90.00000000
_cell_angle_beta   93.87991398
_cell_angle_gamma   90.00000000
_symmetry_Int_Tables_number   1
_chemical_formula_structural   Rb2V2Cu(PO6)2
_chemical_formula_sum   'Rb4 V4 Cu2 P4 O24'
_cell_volume   567.22305566
_cell_formula_units_Z   2
loop_
 _symmetry_equiv_pos_site_id
 _symmetry_equiv_pos_as_xyz
  1  'x, y, z'
loop_
 _atom_site_type_symbol
 _atom_site_label
 _atom_site_symmetry_multiplicity
 _atom_site_fract_x
 _atom_site_fract_y
 _atom_site_fract_z
 _atom_site_occupancy
  Rb  Rb0  1  0.559058  0.364680  0.894276  1
  Rb  Rb1  1  0.440942  0.635320  0.105724  1
  Rb  Rb2  1  0.440942  0.864680  0.605724  1
  Rb  Rb3  1  0.559058  0.135320  0.394276  1
  V  V4  1  0.945487  0.885320  0.250424  1
  V  V5  1  0.054513  0.114680  0.749576  1
  V  V6  1  0.054513  0.385320  0.249576  1
  V  V7  1  0.945487  0.614680  0.750424  1
  Cu  Cu8  1  0.500000  0.000000  0.000000  1
  Cu  Cu9  1  0.500000  0.500000  0.500000  1
  P  P10  1  0.988940  0.862684  0.917379  1
  P  P11  1  0.011060  0.137316  0.082621  1
  P  P12  1  0.011060  0.362684  0.582621  1
  P  P13  1  0.988940  0.637316  0.417379  1
  O  O14  1  0.930986  0.171785  0.929851  1
  O  O15  1  0.932432  0.264627  0.679664  1
  O  O16  1  0.898732  0.471947  0.135234  1
  O  O17  1  0.368501  0.126349  0.714904  1
  O  O18  1  0.101268  0.528053  0.864766  1
  O  O19  1  0.101268  0.971947  0.364766  1
  O  O20  1  0.164161  0.969611  0.881178  1
  O  O21  1  0.069014  0.671785  0.570149  1
  O  O22  1  0.067568  0.735373  0.320336  1
  O  O23  1  0.164161  0.530389  0.381178  1
  O  O24  1  0.308268  0.389838  0.606026  1
  O  O25  1  0.835839  0.469611  0.618822  1
  O  O26  1  0.932432  0.235373  0.179664  1
  O  O27  1  0.835839  0.030389  0.118822  1
  O  O28  1  0.368501  0.373651  0.214904  1
  O  O29  1  0.691732  0.889838  0.893974  1
  O  O30  1  0.898732  0.028053  0.635234  1
  O  O31  1  0.308268  0.110162  0.106026  1
  O  O32  1  0.631499  0.626349  0.785096  1
  O  O33  1  0.631499  0.873651  0.285096  1
  O  O34  1  0.069014  0.828215  0.070149  1
  O  O35  1  0.691732  0.610162  0.393974  1
  O  O36  1  0.930986  0.328215  0.429851  1
  O  O37  1  0.067568  0.764627  0.820336  1
