# generated using pymatgen
data_K3V5O14
_symmetry_space_group_name_H-M   'P 1'
_cell_length_a   8.79881283
_cell_length_b   8.79881283
_cell_length_c   5.30495806
_cell_angle_alpha   90.00000000
_cell_angle_beta   90.00000000
_cell_angle_gamma   120.00000000
_symmetry_Int_Tables_number   1
_chemical_formula_structural   K3V5O14
_chemical_formula_sum   'K3 V5 O14'
_cell_volume   355.68106441
_cell_formula_units_Z   1
loop_
 _symmetry_equiv_pos_site_id
 _symmetry_equiv_pos_as_xyz
  1  'x, y, z'
loop_
 _atom_site_type_symbol
 _atom_site_label
 _atom_site_symmetry_multiplicity
 _atom_site_fract_x
 _atom_site_fract_y
 _atom_site_fract_z
 _atom_site_occupancy
  K  K0  1  0.607449  0.000000  0.004318  1
  K  K1  1  0.000000  0.607449  0.004318  1
  K  K2  1  0.392551  0.392551  0.004318  1
  V  V3  1  0.333333  0.666667  0.472095  1
  V  V4  1  0.666667  0.333333  0.472095  1
  V  V5  1  0.226656  0.000000  0.471042  1
  V  V6  1  0.000000  0.226656  0.471042  1
  V  V7  1  0.773344  0.773344  0.471042  1
  O  O8  1  0.333333  0.666667  0.786059  1
  O  O9  1  0.666667  0.333333  0.786059  1
  O  O10  1  0.238834  0.000000  0.778764  1
  O  O11  1  0.000000  0.238834  0.778764  1
  O  O12  1  0.761166  0.761166  0.778764  1
  O  O13  1  0.830957  0.000000  0.393358  1
  O  O14  1  0.000000  0.830957  0.393358  1
  O  O15  1  0.169043  0.169043  0.393358  1
  O  O16  1  0.461549  0.168356  0.355709  1
  O  O17  1  0.831644  0.293193  0.355709  1
  O  O18  1  0.706807  0.538451  0.355709  1
  O  O19  1  0.168356  0.461549  0.355709  1
  O  O20  1  0.293193  0.831644  0.355709  1
  O  O21  1  0.538451  0.706807  0.355709  1
