# generated using pymatgen
data_Ag2PO3F
_symmetry_space_group_name_H-M   'P 1'
_cell_length_a   5.50267285
_cell_length_b   5.50267285
_cell_length_c   15.24917504
_cell_angle_alpha   88.01805989
_cell_angle_beta   91.98194011
_cell_angle_gamma   118.21024850
_symmetry_Int_Tables_number   1
_chemical_formula_structural   Ag2PO3F
_chemical_formula_sum   'Ag8 P4 O12 F4'
_cell_volume   406.55989846
_cell_formula_units_Z   4
loop_
 _symmetry_equiv_pos_site_id
 _symmetry_equiv_pos_as_xyz
  1  'x, y, z'
loop_
 _atom_site_type_symbol
 _atom_site_label
 _atom_site_symmetry_multiplicity
 _atom_site_fract_x
 _atom_site_fract_y
 _atom_site_fract_z
 _atom_site_occupancy
  Ag  Ag0  1  0.613665  0.312367  0.167043  1
  Ag  Ag1  1  0.027887  0.027887  0.750000  1
  Ag  Ag2  1  0.386335  0.687633  0.832957  1
  Ag  Ag3  1  0.687633  0.386335  0.667043  1
  Ag  Ag4  1  0.312367  0.613665  0.332957  1
  Ag  Ag5  1  0.972113  0.972113  0.250000  1
  Ag  Ag6  1  0.000000  0.000000  0.500000  1
  Ag  Ag7  1  0.000000  0.000000  0.000000  1
  P  P8  1  0.643790  0.268680  0.379783  1
  P  P9  1  0.356210  0.731320  0.620217  1
  P  P10  1  0.731320  0.356210  0.879783  1
  P  P11  1  0.268680  0.643790  0.120217  1
  O  O12  1  0.161165  0.510126  0.684910  1
  O  O13  1  0.660949  0.806837  0.634087  1
  O  O14  1  0.697516  0.019628  0.391472  1
  O  O15  1  0.193163  0.339051  0.134087  1
  O  O16  1  0.838835  0.489874  0.315090  1
  O  O17  1  0.510126  0.161165  0.815090  1
  O  O18  1  0.980372  0.302484  0.891472  1
  O  O19  1  0.489874  0.838835  0.184910  1
  O  O20  1  0.019628  0.697516  0.108528  1
  O  O21  1  0.302484  0.980372  0.608528  1
  O  O22  1  0.806837  0.660949  0.865913  1
  O  O23  1  0.339051  0.193163  0.365913  1
  F  F24  1  0.416502  0.725121  0.026472  1
  F  F25  1  0.583498  0.274879  0.973528  1
  F  F26  1  0.725121  0.416502  0.473528  1
  F  F27  1  0.274879  0.583498  0.526472  1
