# generated using pymatgen
data_Li2Ca4Si4O13
_symmetry_space_group_name_H-M   'P 1'
_cell_length_a   7.22738347
_cell_length_b   8.31284156
_cell_length_c   10.57610477
_cell_angle_alpha   109.27090447
_cell_angle_beta   89.89258553
_cell_angle_gamma   102.19581852
_symmetry_Int_Tables_number   1
_chemical_formula_structural   Li2Ca4Si4O13
_chemical_formula_sum   'Li4 Ca8 Si8 O26'
_cell_volume   584.68620956
_cell_formula_units_Z   2
loop_
 _symmetry_equiv_pos_site_id
 _symmetry_equiv_pos_as_xyz
  1  'x, y, z'
loop_
 _atom_site_type_symbol
 _atom_site_label
 _atom_site_symmetry_multiplicity
 _atom_site_fract_x
 _atom_site_fract_y
 _atom_site_fract_z
 _atom_site_occupancy
  Li  Li0  1  0.251960  0.408853  0.408626  1
  Li  Li1  1  0.771251  0.576327  0.112201  1
  Li  Li2  1  0.748040  0.591147  0.591374  1
  Li  Li3  1  0.228749  0.423673  0.887799  1
  Ca  Ca4  1  0.924591  0.211404  0.598650  1
  Ca  Ca5  1  0.917104  0.195748  0.997241  1
  Ca  Ca6  1  0.075409  0.788596  0.401350  1
  Ca  Ca7  1  0.429095  0.206586  0.607089  1
  Ca  Ca8  1  0.082896  0.804252  0.002759  1
  Ca  Ca9  1  0.430119  0.197513  0.994408  1
  Ca  Ca10  1  0.570905  0.793414  0.392911  1
  Ca  Ca11  1  0.569881  0.802487  0.005592  1
  Si  Si12  1  0.362016  0.093452  0.280463  1
  Si  Si13  1  0.267178  0.574004  0.178044  1
  Si  Si14  1  0.716376  0.383443  0.303430  1
  Si  Si15  1  0.283624  0.616557  0.696570  1
  Si  Si16  1  0.732822  0.425996  0.821956  1
  Si  Si17  1  0.924967  0.083943  0.277997  1
  Si  Si18  1  0.075033  0.916057  0.722003  1
  Si  Si19  1  0.637984  0.906548  0.719537  1
  O  O20  1  0.227328  0.412176  0.600816  1
  O  O21  1  0.858474  0.272239  0.346392  1
  O  O22  1  0.715818  0.352589  0.143043  1
  O  O23  1  0.158129  0.158533  0.301904  1
  O  O24  1  0.728535  0.410785  0.660976  1
  O  O25  1  0.620466  0.009443  0.615773  1
  O  O26  1  0.866274  0.991216  0.119078  1
  O  O27  1  0.284182  0.647411  0.856957  1
  O  O28  1  0.618393  0.997329  0.877883  1
  O  O29  1  0.488699  0.666600  0.159538  1
  O  O30  1  0.901931  0.321949  0.835478  1
  O  O31  1  0.772672  0.587824  0.399184  1
  O  O32  1  0.133726  0.008784  0.880922  1
  O  O33  1  0.141526  0.727761  0.653608  1
  O  O34  1  0.511301  0.333400  0.840462  1
  O  O35  1  0.381607  0.002671  0.122117  1
  O  O36  1  0.135313  0.033305  0.626203  1
  O  O37  1  0.503286  0.294698  0.342813  1
  O  O38  1  0.379534  0.990557  0.384227  1
  O  O39  1  0.213889  0.376778  0.064980  1
  O  O40  1  0.496714  0.705302  0.657187  1
  O  O41  1  0.864687  0.966695  0.373797  1
  O  O42  1  0.271465  0.589215  0.339024  1
  O  O43  1  0.841871  0.841467  0.698096  1
  O  O44  1  0.786111  0.623222  0.935020  1
  O  O45  1  0.098069  0.678051  0.164522  1
