# generated using pymatgen
data_K6NbAs3O
_symmetry_space_group_name_H-M   'P 1'
_cell_length_a   11.16751709
_cell_length_b   11.16751709
_cell_length_c   11.16751709
_cell_angle_alpha   90.00000000
_cell_angle_beta   90.00000000
_cell_angle_gamma   90.00000000
_symmetry_Int_Tables_number   1
_chemical_formula_structural   K6NbAs3O
_chemical_formula_sum   'K24 Nb4 As12 O4'
_cell_volume   1392.73944972
_cell_formula_units_Z   4
loop_
 _symmetry_equiv_pos_site_id
 _symmetry_equiv_pos_as_xyz
  1  'x, y, z'
loop_
 _atom_site_type_symbol
 _atom_site_label
 _atom_site_symmetry_multiplicity
 _atom_site_fract_x
 _atom_site_fract_y
 _atom_site_fract_z
 _atom_site_occupancy
  K  K0  1  0.785412  0.365425  0.535836  1
  K  K1  1  0.137215  0.362785  0.637215  1
  K  K2  1  0.464164  0.285412  0.134575  1
  K  K3  1  0.862785  0.862785  0.862785  1
  K  K4  1  0.681705  0.318295  0.818295  1
  K  K5  1  0.318295  0.818295  0.681705  1
  K  K6  1  0.535836  0.785412  0.365425  1
  K  K7  1  0.818295  0.681705  0.318295  1
  K  K8  1  0.362785  0.637215  0.137215  1
  K  K9  1  0.152225  0.847775  0.347775  1
  K  K10  1  0.652225  0.652225  0.652225  1
  K  K11  1  0.285412  0.134575  0.464164  1
  K  K12  1  0.214588  0.865425  0.964164  1
  K  K13  1  0.714588  0.634575  0.035836  1
  K  K14  1  0.634575  0.035836  0.714588  1
  K  K15  1  0.134575  0.464164  0.285412  1
  K  K16  1  0.964164  0.214588  0.865425  1
  K  K17  1  0.347775  0.152225  0.847775  1
  K  K18  1  0.865425  0.964164  0.214588  1
  K  K19  1  0.847775  0.347775  0.152225  1
  K  K20  1  0.035836  0.714588  0.634575  1
  K  K21  1  0.365425  0.535836  0.785412  1
  K  K22  1  0.181705  0.181705  0.181705  1
  K  K23  1  0.637215  0.137215  0.362785  1
  Nb  Nb24  1  0.429997  0.429997  0.429997  1
  Nb  Nb25  1  0.570003  0.929997  0.070003  1
  Nb  Nb26  1  0.070003  0.570003  0.929997  1
  Nb  Nb27  1  0.929997  0.070003  0.570003  1
  As  As28  1  0.305763  0.613340  0.480158  1
  As  As29  1  0.980158  0.194237  0.386660  1
  As  As30  1  0.519842  0.805763  0.886660  1
  As  As31  1  0.694237  0.113340  0.019842  1
  As  As32  1  0.194237  0.386660  0.980158  1
  As  As33  1  0.019842  0.694237  0.113340  1
  As  As34  1  0.613340  0.480158  0.305763  1
  As  As35  1  0.386660  0.980158  0.194237  1
  As  As36  1  0.805763  0.886660  0.519842  1
  As  As37  1  0.886660  0.519842  0.805763  1
  As  As38  1  0.113340  0.019842  0.694237  1
  As  As39  1  0.480158  0.305763  0.613340  1
  O  O40  1  0.166062  0.666062  0.833938  1
  O  O41  1  0.333938  0.333938  0.333938  1
  O  O42  1  0.666062  0.833938  0.166062  1
  O  O43  1  0.833938  0.166062  0.666062  1
