# generated using pymatgen
data_RbLu(SO4)2
_symmetry_space_group_name_H-M   'P 1'
_cell_length_a   7.71479008
_cell_length_b   5.11675860
_cell_length_c   8.90517237
_cell_angle_alpha   90.00000000
_cell_angle_beta   95.27897922
_cell_angle_gamma   90.00000000
_symmetry_Int_Tables_number   1
_chemical_formula_structural   RbLu(SO4)2
_chemical_formula_sum   'Rb2 Lu2 S4 O16'
_cell_volume   350.03816864
_cell_formula_units_Z   2
loop_
 _symmetry_equiv_pos_site_id
 _symmetry_equiv_pos_as_xyz
  1  'x, y, z'
loop_
 _atom_site_type_symbol
 _atom_site_label
 _atom_site_symmetry_multiplicity
 _atom_site_fract_x
 _atom_site_fract_y
 _atom_site_fract_z
 _atom_site_occupancy
  Rb  Rb0  1  0.250000  0.811391  0.500000  1
  Rb  Rb1  1  0.750000  0.188609  0.500000  1
  Lu  Lu2  1  0.750000  0.104629  0.000000  1
  Lu  Lu3  1  0.250000  0.895371  0.000000  1
  S  S4  1  0.844899  0.679006  0.788991  1
  S  S5  1  0.344899  0.320994  0.788991  1
  S  S6  1  0.155101  0.320994  0.211009  1
  S  S7  1  0.655101  0.679006  0.211009  1
  O  O8  1  0.200678  0.593004  0.170290  1
  O  O9  1  0.422744  0.317161  0.646271  1
  O  O10  1  0.537909  0.795925  0.080902  1
  O  O11  1  0.462091  0.204075  0.919098  1
  O  O12  1  0.577256  0.682839  0.353729  1
  O  O13  1  0.812435  0.851387  0.214205  1
  O  O14  1  0.922744  0.682839  0.646271  1
  O  O15  1  0.187565  0.148613  0.785795  1
  O  O16  1  0.700678  0.406996  0.170290  1
  O  O17  1  0.037909  0.204075  0.080902  1
  O  O18  1  0.962091  0.795925  0.919098  1
  O  O19  1  0.799322  0.406996  0.829710  1
  O  O20  1  0.687565  0.851387  0.785795  1
  O  O21  1  0.312435  0.148613  0.214205  1
  O  O22  1  0.299322  0.593004  0.829710  1
  O  O23  1  0.077256  0.317161  0.353729  1
