# generated using pymatgen
data_K3Ga3As4
_symmetry_space_group_name_H-M   'P 1'
_cell_length_a   6.72789247
_cell_length_b   10.83236249
_cell_length_c   15.19163391
_cell_angle_alpha   90.00000000
_cell_angle_beta   90.00000000
_cell_angle_gamma   90.00000000
_symmetry_Int_Tables_number   1
_chemical_formula_structural   K3Ga3As4
_chemical_formula_sum   'K12 Ga12 As16'
_cell_volume   1107.15063242
_cell_formula_units_Z   4
loop_
 _symmetry_equiv_pos_site_id
 _symmetry_equiv_pos_as_xyz
  1  'x, y, z'
loop_
 _atom_site_type_symbol
 _atom_site_label
 _atom_site_symmetry_multiplicity
 _atom_site_fract_x
 _atom_site_fract_y
 _atom_site_fract_z
 _atom_site_occupancy
  K  K0  1  0.059959  0.379073  0.594818  1
  K  K1  1  0.059959  0.120927  0.905182  1
  K  K2  1  0.559959  0.879073  0.905182  1
  K  K3  1  0.750000  0.079040  0.500000  1
  K  K4  1  0.940041  0.879073  0.094818  1
  K  K5  1  0.559959  0.620927  0.594818  1
  K  K6  1  0.940041  0.620927  0.405182  1
  K  K7  1  0.250000  0.579040  0.000000  1
  K  K8  1  0.750000  0.420960  0.000000  1
  K  K9  1  0.440041  0.379073  0.405182  1
  K  K10  1  0.440041  0.120927  0.094818  1
  K  K11  1  0.250000  0.920960  0.500000  1
  Ga  Ga12  1  0.402255  0.111265  0.716662  1
  Ga  Ga13  1  0.902255  0.611265  0.783338  1
  Ga  Ga14  1  0.097745  0.388735  0.216662  1
  Ga  Ga15  1  0.402255  0.388735  0.783338  1
  Ga  Ga16  1  0.308075  0.750000  0.750000  1
  Ga  Ga17  1  0.808075  0.250000  0.750000  1
  Ga  Ga18  1  0.597745  0.888735  0.283338  1
  Ga  Ga19  1  0.902255  0.888735  0.716662  1
  Ga  Ga20  1  0.191925  0.750000  0.250000  1
  Ga  Ga21  1  0.691925  0.250000  0.250000  1
  Ga  Ga22  1  0.597745  0.611265  0.216662  1
  Ga  Ga23  1  0.097745  0.111265  0.283338  1
  As  As24  1  0.040600  0.094830  0.675623  1
  As  As25  1  0.040473  0.805877  0.862975  1
  As  As26  1  0.459527  0.805877  0.137025  1
  As  As27  1  0.459400  0.405170  0.175623  1
  As  As28  1  0.540600  0.594830  0.824377  1
  As  As29  1  0.540600  0.905170  0.675623  1
  As  As30  1  0.040473  0.694123  0.637025  1
  As  As31  1  0.040600  0.405170  0.824377  1
  As  As32  1  0.959527  0.194123  0.137025  1
  As  As33  1  0.540473  0.194123  0.862975  1
  As  As34  1  0.959400  0.905170  0.324377  1
  As  As35  1  0.459400  0.094830  0.324377  1
  As  As36  1  0.959527  0.305877  0.362975  1
  As  As37  1  0.540473  0.305877  0.637025  1
  As  As38  1  0.459527  0.694123  0.362975  1
  As  As39  1  0.959400  0.594830  0.175623  1
