# generated using pymatgen
data_KFeAs2O7
_symmetry_space_group_name_H-M   'P 1'
_cell_length_a   7.83032255
_cell_length_b   8.58273107
_cell_length_c   10.30905000
_cell_angle_alpha   89.80741452
_cell_angle_beta   89.60140865
_cell_angle_gamma   73.36068282
_symmetry_Int_Tables_number   1
_chemical_formula_structural   KFeAs2O7
_chemical_formula_sum   'K4 Fe4 As8 O28'
_cell_volume   663.79750152
_cell_formula_units_Z   4
loop_
 _symmetry_equiv_pos_site_id
 _symmetry_equiv_pos_as_xyz
  1  'x, y, z'
loop_
 _atom_site_type_symbol
 _atom_site_label
 _atom_site_symmetry_multiplicity
 _atom_site_fract_x
 _atom_site_fract_y
 _atom_site_fract_z
 _atom_site_occupancy
  K  K0  1  0.163993  0.460417  0.676196  1
  K  K1  1  0.824174  0.061407  0.174719  1
  K  K2  1  0.836007  0.539583  0.323804  1
  K  K3  1  0.175826  0.938593  0.825281  1
  Fe  Fe4  1  0.765933  0.264478  0.595364  1
  Fe  Fe5  1  0.234067  0.735522  0.404636  1
  Fe  Fe6  1  0.764775  0.770264  0.900865  1
  Fe  Fe7  1  0.235225  0.229736  0.099135  1
  As  As8  1  0.124496  0.664697  0.102853  1
  As  As9  1  0.558530  0.679736  0.645114  1
  As  As10  1  0.445961  0.796973  0.130324  1
  As  As11  1  0.875504  0.335303  0.897147  1
  As  As12  1  0.847585  0.848870  0.579645  1
  As  As13  1  0.441470  0.320264  0.354886  1
  As  As14  1  0.554039  0.203027  0.869676  1
  As  As15  1  0.152415  0.151130  0.420355  1
  O  O16  1  0.326611  0.981994  0.073504  1
  O  O17  1  0.107983  0.473838  0.121137  1
  O  O18  1  0.446133  0.757074  0.293131  1
  O  O19  1  0.281617  0.499732  0.374173  1
  O  O20  1  0.892017  0.526162  0.878863  1
  O  O21  1  0.662507  0.738005  0.077981  1
  O  O22  1  0.080302  0.778231  0.242396  1
  O  O23  1  0.453611  0.241377  0.201290  1
  O  O24  1  0.184347  0.958118  0.471745  1
  O  O25  1  0.718383  0.500268  0.625827  1
  O  O26  1  0.363047  0.185120  0.457437  1
  O  O27  1  0.636953  0.814880  0.542563  1
  O  O28  1  0.991191  0.783086  0.988490  1
  O  O29  1  0.101835  0.192084  0.261062  1
  O  O30  1  0.815653  0.041882  0.528255  1
  O  O31  1  0.354150  0.681063  0.590859  1
  O  O32  1  0.653542  0.344003  0.948656  1
  O  O33  1  0.337493  0.261995  0.922019  1
  O  O34  1  0.919698  0.221769  0.757604  1
  O  O35  1  0.645850  0.318937  0.409141  1
  O  O36  1  0.346458  0.655997  0.051344  1
  O  O37  1  0.553867  0.242926  0.706869  1
  O  O38  1  0.002093  0.710568  0.489648  1
  O  O39  1  0.008809  0.216914  0.011510  1
  O  O40  1  0.898165  0.807916  0.738938  1
  O  O41  1  0.546389  0.758623  0.798710  1
  O  O42  1  0.673389  0.018006  0.926496  1
  O  O43  1  0.997907  0.289432  0.510352  1
