# generated using pymatgen
data_LiBS4(ClO3)4
_symmetry_space_group_name_H-M   'P 1'
_cell_length_a   9.05573324
_cell_length_b   8.63371464
_cell_length_c   21.29179952
_cell_angle_alpha   90.00000000
_cell_angle_beta   91.57593459
_cell_angle_gamma   90.00000000
_symmetry_Int_Tables_number   1
_chemical_formula_structural   LiBS4(ClO3)4
_chemical_formula_sum   'Li4 B4 S16 Cl16 O48'
_cell_volume   1664.06152225
_cell_formula_units_Z   4
loop_
 _symmetry_equiv_pos_site_id
 _symmetry_equiv_pos_as_xyz
  1  'x, y, z'
loop_
 _atom_site_type_symbol
 _atom_site_label
 _atom_site_symmetry_multiplicity
 _atom_site_fract_x
 _atom_site_fract_y
 _atom_site_fract_z
 _atom_site_occupancy
  Li  Li0  1  0.088744  0.249678  0.561543  1
  Li  Li1  1  0.911256  0.750322  0.438457  1
  Li  Li2  1  0.911256  0.749678  0.938457  1
  Li  Li3  1  0.088744  0.250322  0.061543  1
  B  B4  1  0.349177  0.744904  0.911587  1
  B  B5  1  0.650823  0.255096  0.088413  1
  B  B6  1  0.349177  0.755096  0.411587  1
  B  B7  1  0.650823  0.244904  0.588413  1
  S  S8  1  0.811060  0.981264  0.561285  1
  S  S9  1  0.397772  0.178692  0.649514  1
  S  S10  1  0.225358  0.893550  0.013262  1
  S  S11  1  0.188940  0.018736  0.438715  1
  S  S12  1  0.397772  0.321308  0.149514  1
  S  S13  1  0.852562  0.374429  0.672032  1
  S  S14  1  0.774642  0.393550  0.486738  1
  S  S15  1  0.774642  0.106450  0.986738  1
  S  S16  1  0.225358  0.606450  0.513262  1
  S  S17  1  0.602228  0.821308  0.350486  1
  S  S18  1  0.852562  0.125571  0.172032  1
  S  S19  1  0.147438  0.625571  0.327968  1
  S  S20  1  0.147438  0.874429  0.827968  1
  S  S21  1  0.811060  0.518736  0.061285  1
  S  S22  1  0.602228  0.678692  0.850486  1
  S  S23  1  0.188940  0.481264  0.938715  1
  Cl  Cl24  1  0.753173  0.671685  0.127869  1
  Cl  Cl25  1  0.753173  0.828315  0.627869  1
  Cl  Cl26  1  0.641651  0.200530  0.918917  1
  Cl  Cl27  1  0.061065  0.749037  0.255099  1
  Cl  Cl28  1  0.938935  0.250963  0.744901  1
  Cl  Cl29  1  0.061065  0.750963  0.755099  1
  Cl  Cl30  1  0.358349  0.700530  0.581083  1
  Cl  Cl31  1  0.428496  0.176020  0.223717  1
  Cl  Cl32  1  0.938935  0.249037  0.244901  1
  Cl  Cl33  1  0.571504  0.823980  0.776283  1
  Cl  Cl34  1  0.246827  0.171685  0.372131  1
  Cl  Cl35  1  0.571504  0.676020  0.276283  1
  Cl  Cl36  1  0.641651  0.299470  0.418917  1
  Cl  Cl37  1  0.246827  0.328315  0.872131  1
  Cl  Cl38  1  0.428496  0.323980  0.723717  1
  Cl  Cl39  1  0.358349  0.799470  0.081083  1
  O  O40  1  0.677252  0.406231  0.057186  1
  O  O41  1  0.733834  0.245014  0.148902  1
  O  O42  1  0.245565  0.192943  0.629971  1
  O  O43  1  0.677252  0.093769  0.557186  1
  O  O44  1  0.056820  0.556150  0.915422  1
  O  O45  1  0.457274  0.030734  0.666854  1
  O  O46  1  0.905325  0.299000  0.490686  1
  O  O47  1  0.094675  0.799000  0.009314  1
  O  O48  1  0.905325  0.201000  0.990686  1
  O  O49  1  0.810296  0.601345  0.002948  1
  O  O50  1  0.786990  0.944427  0.973511  1
  O  O51  1  0.266166  0.745014  0.351098  1
  O  O52  1  0.754435  0.692943  0.870029  1
  O  O53  1  0.215057  0.489930  0.303052  1
  O  O54  1  0.784943  0.989930  0.196948  1
  O  O55  1  0.509762  0.758932  0.902039  1
  O  O56  1  0.245565  0.307057  0.129971  1
  O  O57  1  0.490238  0.258932  0.597961  1
  O  O58  1  0.943180  0.056150  0.584578  1
  O  O59  1  0.094675  0.701000  0.509314  1
  O  O60  1  0.784943  0.510070  0.696948  1
  O  O61  1  0.542726  0.530734  0.833146  1
  O  O62  1  0.754435  0.807057  0.370029  1
  O  O63  1  0.786990  0.555573  0.473511  1
  O  O64  1  0.189704  0.101345  0.497052  1
  O  O65  1  0.457274  0.469266  0.166854  1
  O  O66  1  0.509762  0.741068  0.402039  1
  O  O67  1  0.056820  0.943850  0.415422  1
  O  O68  1  0.733834  0.254986  0.648902  1
  O  O69  1  0.966054  0.391693  0.626291  1
  O  O70  1  0.542726  0.969266  0.333146  1
  O  O71  1  0.318563  0.620827  0.453537  1
  O  O72  1  0.033946  0.891693  0.873709  1
  O  O73  1  0.322748  0.906231  0.442814  1
  O  O74  1  0.189704  0.398655  0.997052  1
  O  O75  1  0.033946  0.608307  0.373709  1
  O  O76  1  0.318563  0.879173  0.953537  1
  O  O77  1  0.490238  0.241068  0.097961  1
  O  O78  1  0.681437  0.379173  0.546463  1
  O  O79  1  0.266166  0.754986  0.851098  1
  O  O80  1  0.966054  0.108307  0.126291  1
  O  O81  1  0.213010  0.444427  0.526489  1
  O  O82  1  0.215057  0.010070  0.803052  1
  O  O83  1  0.943180  0.443850  0.084578  1
  O  O84  1  0.810296  0.898655  0.502948  1
  O  O85  1  0.322748  0.593769  0.942814  1
  O  O86  1  0.681437  0.120827  0.046463  1
  O  O87  1  0.213010  0.055573  0.026489  1
