# generated using pymatgen
data_Na5Ca4P4O16F
_symmetry_space_group_name_H-M   'P 1'
_cell_length_a   8.74760180
_cell_length_b   8.74760180
_cell_length_c   8.74760180
_cell_angle_alpha   95.61450305
_cell_angle_beta   95.61450305
_cell_angle_gamma   143.54563502
_symmetry_Int_Tables_number   1
_chemical_formula_structural   Na5Ca4P4O16F
_chemical_formula_sum   'Na5 Ca4 P4 O16 F1'
_cell_volume   377.77202008
_cell_formula_units_Z   1
loop_
 _symmetry_equiv_pos_site_id
 _symmetry_equiv_pos_as_xyz
  1  'x, y, z'
loop_
 _atom_site_type_symbol
 _atom_site_label
 _atom_site_symmetry_multiplicity
 _atom_site_fract_x
 _atom_site_fract_y
 _atom_site_fract_z
 _atom_site_occupancy
  Na  Na0  1  0.165663  0.371189  0.017810  1
  Na  Na1  1  0.628811  0.646621  0.794475  1
  Na  Na2  1  0.852147  0.834337  0.205525  1
  Na  Na3  1  0.750000  0.250000  0.500000  1
  Na  Na4  1  0.353379  0.147853  0.982190  1
  Ca  Ca5  1  0.157802  0.947877  0.566961  1
  Ca  Ca6  1  0.409159  0.842198  0.790075  1
  Ca  Ca7  1  0.052123  0.619084  0.209925  1
  Ca  Ca8  1  0.380916  0.590841  0.433039  1
  P  P9  1  0.989513  0.135014  0.645193  1
  P  P10  1  0.489821  0.344320  0.354807  1
  P  P11  1  0.864986  0.510179  0.854499  1
  P  P12  1  0.655680  0.010487  0.145501  1
  O  O13  1  0.831055  0.610282  0.985500  1
  O  O14  1  0.957988  0.278556  0.245289  1
  O  O15  1  0.496148  0.433109  0.520468  1
  O  O16  1  0.287301  0.042012  0.320569  1
  O  O17  1  0.566891  0.087359  0.063039  1
  O  O18  1  0.483455  0.840672  0.257788  1
  O  O19  1  0.721444  0.966733  0.679431  1
  O  O20  1  0.024320  0.503852  0.936961  1
  O  O21  1  0.154445  0.168945  0.779227  1
  O  O22  1  0.033267  0.712699  0.754711  1
  O  O23  1  0.389718  0.375218  0.220773  1
  O  O24  1  0.774334  0.516545  0.357218  1
  O  O25  1  0.582884  0.225666  0.742212  1
  O  O26  1  0.912641  0.975680  0.479532  1
  O  O27  1  0.159328  0.417116  0.642782  1
  O  O28  1  0.624782  0.845555  0.014500  1
  F  F29  1  0.250000  0.750000  0.500000  1
