# generated using pymatgen
data_Si2H15C5N
_symmetry_space_group_name_H-M   'P 1'
_cell_length_a   6.85681757
_cell_length_b   13.48517709
_cell_length_c   11.75019439
_cell_angle_alpha   90.00000000
_cell_angle_beta   110.33520030
_cell_angle_gamma   90.00000000
_symmetry_Int_Tables_number   1
_chemical_formula_structural   Si2H15C5N
_chemical_formula_sum   'Si8 H60 C20 N4'
_cell_volume   1018.77181664
_cell_formula_units_Z   4
loop_
 _symmetry_equiv_pos_site_id
 _symmetry_equiv_pos_as_xyz
  1  'x, y, z'
loop_
 _atom_site_type_symbol
 _atom_site_label
 _atom_site_symmetry_multiplicity
 _atom_site_fract_x
 _atom_site_fract_y
 _atom_site_fract_z
 _atom_site_occupancy
  Si  Si0  1  0.770908  0.999246  0.759554  1
  Si  Si1  1  0.549932  0.088139  0.491177  1
  Si  Si2  1  0.229092  0.499246  0.740446  1
  Si  Si3  1  0.450068  0.588139  0.008823  1
  Si  Si4  1  0.229092  0.000754  0.240446  1
  Si  Si5  1  0.549932  0.411861  0.991177  1
  Si  Si6  1  0.450068  0.911861  0.508823  1
  Si  Si7  1  0.770908  0.500754  0.259554  1
  H  H8  1  0.540712  0.255736  0.102316  1
  H  H9  1  0.701485  0.680355  0.937036  1
  H  H10  1  0.093086  0.672633  0.734118  1
  H  H11  1  0.997849  0.356839  0.744065  1
  H  H12  1  0.361135  0.249799  0.951927  1
  H  H13  1  0.298515  0.180355  0.562964  1
  H  H14  1  0.697480  0.472239  0.451619  1
  H  H15  1  0.925167  0.900052  0.114599  1
  H  H16  1  0.152301  0.568564  0.083905  1
  H  H17  1  0.215502  0.315287  0.707966  1
  H  H18  1  0.074833  0.400052  0.385401  1
  H  H19  1  0.303094  0.824446  0.647463  1
  H  H20  1  0.847699  0.068564  0.416095  1
  H  H21  1  0.298515  0.319645  0.062964  1
  H  H22  1  0.125489  0.678934  0.996437  1
  H  H23  1  0.784498  0.815287  0.792034  1
  H  H24  1  0.874511  0.178934  0.503563  1
  H  H25  1  0.784498  0.684713  0.292034  1
  H  H26  1  0.459288  0.744264  0.897684  1
  H  H27  1  0.925167  0.599948  0.614599  1
  H  H28  1  0.459288  0.755736  0.397684  1
  H  H29  1  0.906914  0.327367  0.265882  1
  H  H30  1  0.302520  0.527761  0.548381  1
  H  H31  1  0.482699  0.969756  0.840850  1
  H  H32  1  0.994073  0.875020  0.904335  1
  H  H33  1  0.125489  0.821066  0.496437  1
  H  H34  1  0.696906  0.175554  0.352537  1
  H  H35  1  0.638865  0.750201  0.048073  1
  H  H36  1  0.847699  0.431436  0.916095  1
  H  H37  1  0.906914  0.172633  0.765882  1
  H  H38  1  0.074833  0.099948  0.885401  1
  H  H39  1  0.701485  0.819645  0.437036  1
  H  H40  1  0.215502  0.184713  0.207966  1
  H  H41  1  0.874511  0.321066  0.003563  1
  H  H42  1  0.697480  0.027761  0.951619  1
  H  H43  1  0.005927  0.375020  0.595665  1
  H  H44  1  0.540712  0.244264  0.602316  1
  H  H45  1  0.002151  0.643161  0.255935  1
  H  H46  1  0.093086  0.827367  0.234118  1
  H  H47  1  0.526171  0.098649  0.830650  1
  H  H48  1  0.152301  0.931436  0.583905  1
  H  H49  1  0.696906  0.324446  0.852537  1
  H  H50  1  0.922095  0.585708  0.764115  1
  H  H51  1  0.077905  0.085708  0.735885  1
  H  H52  1  0.517301  0.469756  0.659150  1
  H  H53  1  0.994073  0.624980  0.404335  1
  H  H54  1  0.005927  0.124980  0.095665  1
  H  H55  1  0.361135  0.250201  0.451927  1
  H  H56  1  0.302520  0.972239  0.048381  1
  H  H57  1  0.303094  0.675554  0.147463  1
  H  H58  1  0.638865  0.749799  0.548073  1
  H  H59  1  0.473829  0.598649  0.669350  1
  H  H60  1  0.077905  0.414292  0.235885  1
  H  H61  1  0.922095  0.914292  0.264115  1
  H  H62  1  0.517301  0.030244  0.159150  1
  H  H63  1  0.482699  0.530244  0.340850  1
  H  H64  1  0.997849  0.143161  0.244065  1
  H  H65  1  0.473829  0.901351  0.169350  1
  H  H66  1  0.002151  0.856839  0.755935  1
  H  H67  1  0.526171  0.401351  0.330650  1
  C  C68  1  0.024049  0.901576  0.211058  1
  C  C69  1  0.604195  0.026352  0.854183  1
  C  C70  1  0.899699  0.624836  0.307068  1
  C  C71  1  0.762301  0.368737  0.935991  1
  C  C72  1  0.395805  0.526352  0.645817  1
  C  C73  1  0.604195  0.473648  0.354183  1
  C  C74  1  0.574529  0.700840  0.969293  1
  C  C75  1  0.395805  0.973648  0.145817  1
  C  C76  1  0.574529  0.799160  0.469293  1
  C  C77  1  0.237699  0.868737  0.564009  1
  C  C78  1  0.100301  0.124836  0.192932  1
  C  C79  1  0.425471  0.200840  0.530707  1
  C  C80  1  0.975951  0.098424  0.788942  1
  C  C81  1  0.425471  0.299160  0.030707  1
  C  C82  1  0.899699  0.875164  0.807068  1
  C  C83  1  0.762301  0.131263  0.435991  1
  C  C84  1  0.237699  0.631263  0.064009  1
  C  C85  1  0.100301  0.375164  0.692932  1
  C  C86  1  0.975951  0.401576  0.288942  1
  C  C87  1  0.024049  0.598424  0.711058  1
  N  N88  1  0.623696  0.502738  0.105789  1
  N  N89  1  0.376304  0.497262  0.894211  1
  N  N90  1  0.376304  0.002738  0.394211  1
  N  N91  1  0.623696  0.997262  0.605789  1
