# generated using pymatgen
data_Ba4B2N4O
_symmetry_space_group_name_H-M   'P 1'
_cell_length_a   8.76928911
_cell_length_b   8.76928911
_cell_length_c   7.41952413
_cell_angle_alpha   90.00000000
_cell_angle_beta   90.00000000
_cell_angle_gamma   130.19403142
_symmetry_Int_Tables_number   1
_chemical_formula_structural   Ba4B2N4O
_chemical_formula_sum   'Ba8 B4 N8 O2'
_cell_volume   435.83334233
_cell_formula_units_Z   2
loop_
 _symmetry_equiv_pos_site_id
 _symmetry_equiv_pos_as_xyz
  1  'x, y, z'
loop_
 _atom_site_type_symbol
 _atom_site_label
 _atom_site_symmetry_multiplicity
 _atom_site_fract_x
 _atom_site_fract_y
 _atom_site_fract_z
 _atom_site_occupancy
  Ba  Ba0  1  0.674266  0.325734  0.500000  1
  Ba  Ba1  1  0.693194  0.693194  0.806791  1
  Ba  Ba2  1  0.306806  0.306806  0.193209  1
  Ba  Ba3  1  0.193194  0.193194  0.693209  1
  Ba  Ba4  1  0.174266  0.825734  0.000000  1
  Ba  Ba5  1  0.325734  0.674266  0.500000  1
  Ba  Ba6  1  0.806806  0.806806  0.306791  1
  Ba  Ba7  1  0.825734  0.174266  0.000000  1
  B  B8  1  0.637326  0.362674  0.000000  1
  B  B9  1  0.362674  0.637326  0.000000  1
  B  B10  1  0.862674  0.137326  0.500000  1
  B  B11  1  0.137326  0.862674  0.500000  1
  N  N12  1  0.263174  0.994904  0.371469  1
  N  N13  1  0.494904  0.763174  0.128531  1
  N  N14  1  0.763174  0.494904  0.128531  1
  N  N15  1  0.236826  0.505096  0.871469  1
  N  N16  1  0.736826  0.005096  0.628531  1
  N  N17  1  0.994904  0.263174  0.371469  1
  N  N18  1  0.005096  0.736826  0.628531  1
  N  N19  1  0.505096  0.236826  0.871469  1
  O  O20  1  0.500000  0.500000  0.500000  1
  O  O21  1  0.000000  0.000000  0.000000  1
