# generated using pymatgen
data_NaY(PO3)4
_symmetry_space_group_name_H-M   'P 1'
_cell_length_a   7.26931370
_cell_length_b   13.20484278
_cell_length_c   12.17680868
_cell_angle_alpha   90.00000000
_cell_angle_beta   126.20127120
_cell_angle_gamma   90.00000000
_symmetry_Int_Tables_number   1
_chemical_formula_structural   NaY(PO3)4
_chemical_formula_sum   'Na4 Y4 P16 O48'
_cell_volume   943.20316915
_cell_formula_units_Z   4
loop_
 _symmetry_equiv_pos_site_id
 _symmetry_equiv_pos_as_xyz
  1  'x, y, z'
loop_
 _atom_site_type_symbol
 _atom_site_label
 _atom_site_symmetry_multiplicity
 _atom_site_fract_x
 _atom_site_fract_y
 _atom_site_fract_z
 _atom_site_occupancy
  Na  Na0  1  0.937616  0.221996  0.938371  1
  Na  Na1  1  0.062384  0.721996  0.561629  1
  Na  Na2  1  0.937616  0.278004  0.438371  1
  Na  Na3  1  0.062384  0.778004  0.061629  1
  Y  Y4  1  0.535093  0.279680  0.522745  1
  Y  Y5  1  0.464907  0.779680  0.977255  1
  Y  Y6  1  0.464907  0.720320  0.477255  1
  Y  Y7  1  0.535093  0.220320  0.022745  1
  P  P8  1  0.005925  0.102946  0.755419  1
  P  P9  1  0.563617  0.092241  0.296626  1
  P  P10  1  0.436383  0.907759  0.703374  1
  P  P11  1  0.436383  0.592241  0.203374  1
  P  P12  1  0.344572  0.372368  0.197515  1
  P  P13  1  0.888404  0.614742  0.263233  1
  P  P14  1  0.994075  0.602946  0.744581  1
  P  P15  1  0.563617  0.407759  0.796626  1
  P  P16  1  0.111596  0.385258  0.736767  1
  P  P17  1  0.005925  0.397054  0.255419  1
  P  P18  1  0.655428  0.627632  0.802485  1
  P  P19  1  0.655428  0.872368  0.302485  1
  P  P20  1  0.111596  0.114742  0.236767  1
  P  P21  1  0.994075  0.897054  0.244581  1
  P  P22  1  0.344572  0.127632  0.697515  1
  P  P23  1  0.888404  0.885258  0.763233  1
  O  O24  1  0.899159  0.351636  0.603538  1
  O  O25  1  0.221987  0.312791  0.853636  1
  O  O26  1  0.192536  0.111568  0.905597  1
  O  O27  1  0.626973  0.113229  0.201641  1
  O  O28  1  0.778013  0.687209  0.146364  1
  O  O29  1  0.203825  0.833305  0.298739  1
  O  O30  1  0.355381  0.020138  0.638952  1
  O  O31  1  0.347884  0.837204  0.585427  1
  O  O32  1  0.670240  0.791364  0.393903  1
  O  O33  1  0.522520  0.366065  0.348407  1
  O  O34  1  0.710865  0.581223  0.295197  1
  O  O35  1  0.093825  0.125488  0.663853  1
  O  O36  1  0.926758  0.987727  0.709529  1
  O  O37  1  0.477480  0.633935  0.651593  1
  O  O38  1  0.100841  0.648364  0.396462  1
  O  O39  1  0.100841  0.851636  0.896462  1
  O  O40  1  0.355381  0.479862  0.138952  1
  O  O41  1  0.221987  0.187209  0.353636  1
  O  O42  1  0.192536  0.388432  0.405597  1
  O  O43  1  0.522520  0.133935  0.848407  1
  O  O44  1  0.289135  0.418777  0.704803  1
  O  O45  1  0.644619  0.520138  0.861048  1
  O  O46  1  0.652116  0.337204  0.914573  1
  O  O47  1  0.347884  0.662796  0.085427  1
  O  O48  1  0.652116  0.162796  0.414573  1
  O  O49  1  0.626973  0.386771  0.701641  1
  O  O50  1  0.899159  0.148364  0.103538  1
  O  O51  1  0.778013  0.812791  0.646364  1
  O  O52  1  0.373027  0.886771  0.798359  1
  O  O53  1  0.329760  0.291364  0.106097  1
  O  O54  1  0.807464  0.611568  0.594403  1
  O  O55  1  0.807464  0.888432  0.094403  1
  O  O56  1  0.906175  0.625488  0.836147  1
  O  O57  1  0.073242  0.012273  0.290471  1
  O  O58  1  0.477480  0.866065  0.151593  1
  O  O59  1  0.373027  0.613229  0.298359  1
  O  O60  1  0.796175  0.333305  0.201261  1
  O  O61  1  0.093825  0.374512  0.163853  1
  O  O62  1  0.329760  0.208636  0.606097  1
  O  O63  1  0.906175  0.874512  0.336147  1
  O  O64  1  0.289135  0.081223  0.204803  1
  O  O65  1  0.670240  0.708636  0.893903  1
  O  O66  1  0.926758  0.512273  0.209529  1
  O  O67  1  0.203825  0.666695  0.798739  1
  O  O68  1  0.073242  0.487727  0.790471  1
  O  O69  1  0.644619  0.979862  0.361048  1
  O  O70  1  0.710865  0.918777  0.795197  1
  O  O71  1  0.796175  0.166695  0.701261  1
