# generated using pymatgen
data_Ca3(PO4)2
_symmetry_space_group_name_H-M   'P 1'
_cell_length_a   13.95813641
_cell_length_b   13.95813641
_cell_length_c   13.95813641
_cell_angle_alpha   44.40588935
_cell_angle_beta   44.40588935
_cell_angle_gamma   44.40588935
_symmetry_Int_Tables_number   1
_chemical_formula_structural   Ca3(PO4)2
_chemical_formula_sum   'Ca21 P14 O56'
_cell_volume   1210.41800952
_cell_formula_units_Z   7
loop_
 _symmetry_equiv_pos_site_id
 _symmetry_equiv_pos_as_xyz
  1  'x, y, z'
loop_
 _atom_site_type_symbol
 _atom_site_label
 _atom_site_symmetry_multiplicity
 _atom_site_fract_x
 _atom_site_fract_y
 _atom_site_fract_z
 _atom_site_occupancy
  Ca  Ca0  1  0.764989  0.764989  0.764989  1
  Ca  Ca1  1  0.419501  0.820759  0.854862  1
  Ca  Ca2  1  0.854862  0.419501  0.820759  1
  Ca  Ca3  1  0.820759  0.854862  0.419501  1
  Ca  Ca4  1  0.780327  0.217395  0.813043  1
  Ca  Ca5  1  0.217395  0.813043  0.780327  1
  Ca  Ca6  1  0.357504  0.328987  0.914527  1
  Ca  Ca7  1  0.813043  0.780327  0.217395  1
  Ca  Ca8  1  0.692259  0.109174  0.697679  1
  Ca  Ca9  1  0.109174  0.697679  0.692259  1
  Ca  Ca10  1  0.328987  0.914527  0.357504  1
  Ca  Ca11  1  0.914527  0.357504  0.328987  1
  Ca  Ca12  1  0.300467  0.321814  0.698988  1
  Ca  Ca13  1  0.697679  0.692259  0.109174  1
  Ca  Ca14  1  0.698988  0.300467  0.321814  1
  Ca  Ca15  1  0.321814  0.698988  0.300467  1
  Ca  Ca16  1  0.191391  0.201446  0.607527  1
  Ca  Ca17  1  0.607527  0.191391  0.201446  1
  Ca  Ca18  1  0.201446  0.607527  0.191391  1
  Ca  Ca19  1  0.265263  0.265263  0.265263  1
  Ca  Ca20  1  0.077149  0.077149  0.077149  1
  P  P21  1  0.000423  0.000423  0.000423  1
  P  P22  1  0.432791  0.959927  0.001138  1
  P  P23  1  0.001138  0.432791  0.959927  1
  P  P24  1  0.959927  0.001138  0.432791  1
  P  P25  1  0.493260  0.455973  0.945686  1
  P  P26  1  0.455973  0.945686  0.493260  1
  P  P27  1  0.945686  0.493260  0.455973  1
  P  P28  1  0.497996  0.497996  0.497996  1
  P  P29  1  0.538397  0.080209  0.580505  1
  P  P30  1  0.080209  0.580505  0.538397  1
  P  P31  1  0.580505  0.538397  0.080209  1
  P  P32  1  0.039075  0.078550  0.580787  1
  P  P33  1  0.580787  0.039075  0.078550  1
  P  P34  1  0.078550  0.580787  0.039075  1
  O  O35  1  0.959925  0.959925  0.959925  1
  O  O36  1  0.899402  0.605923  0.899751  1
  O  O37  1  0.605923  0.899751  0.899402  1
  O  O38  1  0.340978  0.920921  0.014314  1
  O  O39  1  0.899751  0.899402  0.605923  1
  O  O40  1  0.014314  0.340978  0.920921  1
  O  O41  1  0.643810  0.620559  0.904625  1
  O  O42  1  0.620559  0.904625  0.643810  1
  O  O43  1  0.920921  0.014314  0.340978  1
  O  O44  1  0.904625  0.643810  0.620559  1
  O  O45  1  0.659333  0.374653  0.922928  1
  O  O46  1  0.420657  0.629440  0.883894  1
  O  O47  1  0.374653  0.922927  0.659333  1
  O  O48  1  0.883894  0.420657  0.629440  1
  O  O49  1  0.495960  0.403547  0.876869  1
  O  O50  1  0.629440  0.883894  0.420657  1
  O  O51  1  0.922927  0.659333  0.374653  1
  O  O52  1  0.169896  0.624009  0.866907  1
  O  O53  1  0.641193  0.094613  0.908075  1
  O  O54  1  0.403547  0.876869  0.495960  1
  O  O55  1  0.876869  0.495960  0.403547  1
  O  O56  1  0.866907  0.169896  0.624009  1
  O  O57  1  0.094613  0.908075  0.641193  1
  O  O58  1  0.367783  0.132227  0.934550  1
  O  O59  1  0.161579  0.425754  0.868521  1
  O  O60  1  0.504371  0.371410  0.653899  1
  O  O61  1  0.371410  0.653899  0.504371  1
  O  O62  1  0.624009  0.866907  0.169896  1
  O  O63  1  0.908075  0.641193  0.094613  1
  O  O64  1  0.653899  0.504371  0.371410  1
  O  O65  1  0.868521  0.161579  0.425754  1
  O  O66  1  0.132227  0.934550  0.367783  1
  O  O67  1  0.577024  0.144651  0.599533  1
  O  O68  1  0.456249  0.456249  0.456249  1
  O  O69  1  0.144651  0.599533  0.577024  1
  O  O70  1  0.425754  0.868521  0.161579  1
  O  O71  1  0.934550  0.367783  0.132227  1
  O  O72  1  0.366232  0.124101  0.673609  1
  O  O73  1  0.141852  0.409997  0.595371  1
  O  O74  1  0.017159  0.153614  0.878851  1
  O  O75  1  0.599533  0.577024  0.144651  1
  O  O76  1  0.124101  0.673609  0.366232  1
  O  O77  1  0.595371  0.141852  0.409997  1
  O  O78  1  0.673609  0.366232  0.124101  1
  O  O79  1  0.409997  0.595371  0.141852  1
  O  O80  1  0.878851  0.017159  0.153614  1
  O  O81  1  0.076208  0.095924  0.647972  1
  O  O82  1  0.121926  0.401652  0.395735  1
  O  O83  1  0.395735  0.121926  0.401652  1
  O  O84  1  0.153614  0.878851  0.017159  1
  O  O85  1  0.401652  0.395735  0.121926  1
  O  O86  1  0.647972  0.076208  0.095924  1
  O  O87  1  0.095924  0.647972  0.076208  1
  O  O88  1  0.120977  0.143238  0.405581  1
  O  O89  1  0.405581  0.120977  0.143238  1
  O  O90  1  0.143238  0.405581  0.120977  1
