# generated using pymatgen
data_Ba3NaNd3(Si3O10)2
_symmetry_space_group_name_H-M   'P 1'
_cell_length_a   12.54874306
_cell_length_b   12.54874306
_cell_length_c   15.00677366
_cell_angle_alpha   90.00000000
_cell_angle_beta   90.00000000
_cell_angle_gamma   153.96310441
_symmetry_Int_Tables_number   1
_chemical_formula_structural   Ba3NaNd3(Si3O10)2
_chemical_formula_sum   'Ba6 Na2 Nd6 Si12 O40'
_cell_volume   1037.29593411
_cell_formula_units_Z   2
loop_
 _symmetry_equiv_pos_site_id
 _symmetry_equiv_pos_as_xyz
  1  'x, y, z'
loop_
 _atom_site_type_symbol
 _atom_site_label
 _atom_site_symmetry_multiplicity
 _atom_site_fract_x
 _atom_site_fract_y
 _atom_site_fract_z
 _atom_site_occupancy
  Ba  Ba0  1  0.687845  0.174403  0.386721  1
  Ba  Ba1  1  0.174403  0.687845  0.613279  1
  Ba  Ba2  1  0.174403  0.687845  0.886721  1
  Ba  Ba3  1  0.847564  0.013942  0.250000  1
  Ba  Ba4  1  0.013942  0.847564  0.750000  1
  Ba  Ba5  1  0.687845  0.174403  0.113279  1
  Na  Na6  1  0.467750  0.243861  0.250000  1
  Na  Na7  1  0.243861  0.467750  0.750000  1
  Nd  Nd8  1  0.612977  0.391120  0.531201  1
  Nd  Nd9  1  0.391120  0.612977  0.031201  1
  Nd  Nd10  1  0.612977  0.391120  0.968799  1
  Nd  Nd11  1  0.391120  0.612977  0.468799  1
  Nd  Nd12  1  0.008570  0.008570  0.500000  1
  Nd  Nd13  1  0.008570  0.008570  0.000000  1
  Si  Si14  1  0.810327  0.114816  0.942212  1
  Si  Si15  1  0.114816  0.810327  0.442212  1
  Si  Si16  1  0.441439  0.442930  0.358803  1
  Si  Si17  1  0.092973  0.714400  0.250000  1
  Si  Si18  1  0.810327  0.114816  0.557788  1
  Si  Si19  1  0.714400  0.092973  0.750000  1
  Si  Si20  1  0.442930  0.441439  0.641197  1
  Si  Si21  1  0.441439  0.442930  0.141197  1
  Si  Si22  1  0.114816  0.810327  0.057788  1
  Si  Si23  1  0.281198  0.644259  0.250000  1
  Si  Si24  1  0.442930  0.441439  0.858803  1
  Si  Si25  1  0.644259  0.281198  0.750000  1
  O  O26  1  0.790638  0.971324  0.531677  1
  O  O27  1  0.669351  0.723088  0.110332  1
  O  O28  1  0.188516  0.874420  0.334190  1
  O  O29  1  0.541916  0.921516  0.967163  1
  O  O30  1  0.810773  0.430253  0.250000  1
  O  O31  1  0.971324  0.790638  0.468323  1
  O  O32  1  0.193281  0.290349  0.120236  1
  O  O33  1  0.783922  0.284993  0.750000  1
  O  O34  1  0.409525  0.303667  0.085648  1
  O  O35  1  0.998940  0.353330  0.250000  1
  O  O36  1  0.290349  0.193281  0.620236  1
  O  O37  1  0.921516  0.541916  0.032837  1
  O  O38  1  0.445128  0.758874  0.337247  1
  O  O39  1  0.369715  0.021374  0.004119  1
  O  O40  1  0.874420  0.188516  0.834190  1
  O  O41  1  0.303667  0.409525  0.585648  1
  O  O42  1  0.303667  0.409525  0.914352  1
  O  O43  1  0.723088  0.669351  0.889668  1
  O  O44  1  0.353330  0.998940  0.750000  1
  O  O45  1  0.430253  0.810773  0.750000  1
  O  O46  1  0.193281  0.290349  0.379764  1
  O  O47  1  0.188516  0.874420  0.165810  1
  O  O48  1  0.723088  0.669351  0.610332  1
  O  O49  1  0.758874  0.445128  0.837247  1
  O  O50  1  0.790638  0.971324  0.968323  1
  O  O51  1  0.462156  0.431871  0.250000  1
  O  O52  1  0.541916  0.921516  0.532837  1
  O  O53  1  0.284993  0.783922  0.250000  1
  O  O54  1  0.369715  0.021374  0.495881  1
  O  O55  1  0.445128  0.758874  0.162753  1
  O  O56  1  0.921516  0.541916  0.467163  1
  O  O57  1  0.021375  0.369715  0.995881  1
  O  O58  1  0.669351  0.723088  0.389668  1
  O  O59  1  0.409525  0.303667  0.414352  1
  O  O60  1  0.874420  0.188516  0.665810  1
  O  O61  1  0.290349  0.193281  0.879764  1
  O  O62  1  0.971324  0.790638  0.031677  1
  O  O63  1  0.758874  0.445128  0.662753  1
  O  O64  1  0.431871  0.462156  0.750000  1
  O  O65  1  0.021375  0.369715  0.504119  1
