# generated using pymatgen
data_Nd4Ga2O9
_symmetry_space_group_name_H-M   'P 1'
_cell_length_a   7.81794436
_cell_length_b   11.07774194
_cell_length_c   11.65171147
_cell_angle_alpha   90.00000000
_cell_angle_beta   108.99849465
_cell_angle_gamma   90.00000000
_symmetry_Int_Tables_number   1
_chemical_formula_structural   Nd4Ga2O9
_chemical_formula_sum   'Nd16 Ga8 O36'
_cell_volume   954.12996402
_cell_formula_units_Z   4
loop_
 _symmetry_equiv_pos_site_id
 _symmetry_equiv_pos_as_xyz
  1  'x, y, z'
loop_
 _atom_site_type_symbol
 _atom_site_label
 _atom_site_symmetry_multiplicity
 _atom_site_fract_x
 _atom_site_fract_y
 _atom_site_fract_z
 _atom_site_occupancy
  Nd  Nd0  1  0.477675  0.605898  0.716675  1
  Nd  Nd1  1  0.477675  0.894102  0.216675  1
  Nd  Nd2  1  0.335862  0.123260  0.431828  1
  Nd  Nd3  1  0.023396  0.091097  0.806123  1
  Nd  Nd4  1  0.976604  0.591097  0.693877  1
  Nd  Nd5  1  0.664138  0.876740  0.568172  1
  Nd  Nd6  1  0.023396  0.408903  0.306123  1
  Nd  Nd7  1  0.335862  0.376740  0.931828  1
  Nd  Nd8  1  0.834906  0.379987  0.911143  1
  Nd  Nd9  1  0.834906  0.120013  0.411143  1
  Nd  Nd10  1  0.522325  0.394102  0.283325  1
  Nd  Nd11  1  0.664138  0.623260  0.068172  1
  Nd  Nd12  1  0.522325  0.105898  0.783325  1
  Nd  Nd13  1  0.976604  0.908903  0.193877  1
  Nd  Nd14  1  0.165094  0.620013  0.088857  1
  Nd  Nd15  1  0.165094  0.879987  0.588857  1
  Ga  Ga16  1  0.783871  0.814507  0.873830  1
  Ga  Ga17  1  0.656051  0.317173  0.614190  1
  Ga  Ga18  1  0.656051  0.182827  0.114190  1
  Ga  Ga19  1  0.343949  0.682827  0.385810  1
  Ga  Ga20  1  0.343949  0.817173  0.885810  1
  Ga  Ga21  1  0.783871  0.685493  0.373830  1
  Ga  Ga22  1  0.216129  0.314507  0.626170  1
  Ga  Ga23  1  0.216129  0.185493  0.126170  1
  O  O24  1  0.432852  0.250805  0.613239  1
  O  O25  1  0.361005  0.770220  0.040151  1
  O  O26  1  0.785975  0.226956  0.749301  1
  O  O27  1  0.077883  0.994078  0.394716  1
  O  O28  1  0.566365  0.490438  0.895943  1
  O  O29  1  0.297044  0.972638  0.824628  1
  O  O30  1  0.234329  0.229040  0.768339  1
  O  O31  1  0.216184  0.475746  0.662463  1
  O  O32  1  0.297044  0.527362  0.324628  1
  O  O33  1  0.922117  0.494078  0.105284  1
  O  O34  1  0.785975  0.273044  0.249301  1
  O  O35  1  0.765671  0.729040  0.731661  1
  O  O36  1  0.361005  0.729780  0.540151  1
  O  O37  1  0.234329  0.270960  0.268339  1
  O  O38  1  0.566365  0.009562  0.395943  1
  O  O39  1  0.074022  0.264365  0.475040  1
  O  O40  1  0.783816  0.524254  0.337537  1
  O  O41  1  0.074022  0.235635  0.975040  1
  O  O42  1  0.216184  0.024254  0.162463  1
  O  O43  1  0.638995  0.229780  0.959849  1
  O  O44  1  0.432852  0.249195  0.113239  1
  O  O45  1  0.922117  0.005922  0.605284  1
  O  O46  1  0.638995  0.270220  0.459849  1
  O  O47  1  0.433635  0.990438  0.604057  1
  O  O48  1  0.925978  0.735635  0.524960  1
  O  O49  1  0.925978  0.764365  0.024960  1
  O  O50  1  0.702956  0.027362  0.175372  1
  O  O51  1  0.214025  0.726956  0.750699  1
  O  O52  1  0.765671  0.770960  0.231661  1
  O  O53  1  0.783816  0.975746  0.837537  1
  O  O54  1  0.214025  0.773044  0.250699  1
  O  O55  1  0.702956  0.472638  0.675372  1
  O  O56  1  0.077883  0.505922  0.894716  1
  O  O57  1  0.567148  0.749195  0.386761  1
  O  O58  1  0.567148  0.750805  0.886761  1
  O  O59  1  0.433635  0.509562  0.104057  1
