# generated using pymatgen
data_Tl2CO3
_symmetry_space_group_name_H-M   'P 1'
_cell_length_a   7.07053647
_cell_length_b   7.07053647
_cell_length_c   7.72876063
_cell_angle_alpha   60.63190146
_cell_angle_beta   119.36809854
_cell_angle_gamma   134.18714091
_symmetry_Int_Tables_number   1
_chemical_formula_structural   Tl2CO3
_chemical_formula_sum   'Tl4 C2 O6'
_cell_volume   234.52909317
_cell_formula_units_Z   2
loop_
 _symmetry_equiv_pos_site_id
 _symmetry_equiv_pos_as_xyz
  1  'x, y, z'
loop_
 _atom_site_type_symbol
 _atom_site_label
 _atom_site_symmetry_multiplicity
 _atom_site_fract_x
 _atom_site_fract_y
 _atom_site_fract_z
 _atom_site_occupancy
  Tl  Tl0  1  0.094709  0.905291  0.307257  1
  Tl  Tl1  1  0.905291  0.094709  0.692743  1
  Tl  Tl2  1  0.638752  0.361248  0.771872  1
  Tl  Tl3  1  0.361248  0.638752  0.228128  1
  C  C4  1  0.664962  0.335038  0.194520  1
  C  C5  1  0.335038  0.664962  0.805480  1
  O  O6  1  0.666879  0.333121  0.363438  1
  O  O7  1  0.333121  0.666879  0.636562  1
  O  O8  1  0.868583  0.541869  0.106871  1
  O  O9  1  0.541869  0.868583  0.893129  1
  O  O10  1  0.131417  0.458131  0.893129  1
  O  O11  1  0.458131  0.131417  0.106871  1
