# generated using pymatgen
data_Li3In(BO3)2
_symmetry_space_group_name_H-M   'P 1'
_cell_length_a   5.25334106
_cell_length_b   9.04691416
_cell_length_c   11.46927131
_cell_angle_alpha   90.00000000
_cell_angle_beta   116.13034541
_cell_angle_gamma   90.00000000
_symmetry_Int_Tables_number   1
_chemical_formula_structural   Li3In(BO3)2
_chemical_formula_sum   'Li12 In4 B8 O24'
_cell_volume   489.38291915
_cell_formula_units_Z   4
loop_
 _symmetry_equiv_pos_site_id
 _symmetry_equiv_pos_as_xyz
  1  'x, y, z'
loop_
 _atom_site_type_symbol
 _atom_site_label
 _atom_site_symmetry_multiplicity
 _atom_site_fract_x
 _atom_site_fract_y
 _atom_site_fract_z
 _atom_site_occupancy
  Li  Li0  1  0.514858  0.525191  0.173207  1
  Li  Li1  1  0.448650  0.842986  0.117657  1
  Li  Li2  1  0.485142  0.474809  0.826793  1
  Li  Li3  1  0.485142  0.025191  0.326793  1
  Li  Li4  1  0.077924  0.486137  0.403833  1
  Li  Li5  1  0.551350  0.157014  0.882343  1
  Li  Li6  1  0.922076  0.986137  0.096167  1
  Li  Li7  1  0.448650  0.657014  0.617657  1
  Li  Li8  1  0.514858  0.974809  0.673207  1
  Li  Li9  1  0.922076  0.513863  0.596167  1
  Li  Li10  1  0.077924  0.013863  0.903833  1
  Li  Li11  1  0.551350  0.342986  0.382343  1
  In  In12  1  0.973255  0.172149  0.623174  1
  In  In13  1  0.973255  0.327851  0.123174  1
  In  In14  1  0.026745  0.827851  0.376826  1
  In  In15  1  0.026745  0.672149  0.876826  1
  B  B16  1  0.544205  0.672950  0.380514  1
  B  B17  1  0.035266  0.330933  0.869152  1
  B  B18  1  0.964734  0.669067  0.130848  1
  B  B19  1  0.544205  0.827050  0.880514  1
  B  B20  1  0.964734  0.830933  0.630848  1
  B  B21  1  0.455795  0.327050  0.619486  1
  B  B22  1  0.455795  0.172950  0.119486  1
  B  B23  1  0.035266  0.169067  0.369152  1
  O  O24  1  0.870472  0.799542  0.163998  1
  O  O25  1  0.296142  0.052350  0.119302  1
  O  O26  1  0.161233  0.038824  0.359400  1
  O  O27  1  0.180944  0.669660  0.090771  1
  O  O28  1  0.180944  0.830340  0.590771  1
  O  O29  1  0.601181  0.814977  0.348502  1
  O  O30  1  0.129528  0.299542  0.336002  1
  O  O31  1  0.870472  0.700458  0.663998  1
  O  O32  1  0.838767  0.961176  0.640600  1
  O  O33  1  0.703858  0.552350  0.380698  1
  O  O34  1  0.129528  0.200458  0.836002  1
  O  O35  1  0.601181  0.685023  0.848502  1
  O  O36  1  0.398819  0.185023  0.651498  1
  O  O37  1  0.838767  0.538824  0.140600  1
  O  O38  1  0.682049  0.154547  0.087772  1
  O  O39  1  0.398819  0.314977  0.151498  1
  O  O40  1  0.682049  0.345453  0.587772  1
  O  O41  1  0.296142  0.447650  0.619302  1
  O  O42  1  0.819056  0.330340  0.909229  1
  O  O43  1  0.161233  0.461176  0.859400  1
  O  O44  1  0.703858  0.947650  0.880698  1
  O  O45  1  0.819056  0.169660  0.409229  1
  O  O46  1  0.317951  0.654547  0.412228  1
  O  O47  1  0.317951  0.845453  0.912228  1
