# generated using pymatgen
data_RuO4
_symmetry_space_group_name_H-M   'P 1'
_cell_length_a   5.43216684
_cell_length_b   5.43216684
_cell_length_c   8.96843846
_cell_angle_alpha   66.06179621
_cell_angle_beta   113.93820379
_cell_angle_gamma   128.98913215
_symmetry_Int_Tables_number   1
_chemical_formula_structural   RuO4
_chemical_formula_sum   'Ru2 O8'
_cell_volume   183.74034992
_cell_formula_units_Z   2
loop_
 _symmetry_equiv_pos_site_id
 _symmetry_equiv_pos_as_xyz
  1  'x, y, z'
loop_
 _atom_site_type_symbol
 _atom_site_label
 _atom_site_symmetry_multiplicity
 _atom_site_fract_x
 _atom_site_fract_y
 _atom_site_fract_z
 _atom_site_occupancy
  Ru  Ru0  1  0.241698  0.241698  0.750000  1
  Ru  Ru1  1  0.758302  0.758302  0.250000  1
  O  O2  1  0.917572  0.141852  0.583841  1
  O  O3  1  0.433300  0.660315  0.303938  1
  O  O4  1  0.141852  0.917572  0.916159  1
  O  O5  1  0.566700  0.339685  0.696062  1
  O  O6  1  0.660315  0.433300  0.196062  1
  O  O7  1  0.858148  0.082428  0.083841  1
  O  O8  1  0.339685  0.566700  0.803938  1
  O  O9  1  0.082428  0.858148  0.416159  1
