# generated using pymatgen
data_GaRe(Cl3O)2
_symmetry_space_group_name_H-M   'P 1'
_cell_length_a   11.69776038
_cell_length_b   8.66396412
_cell_length_c   12.45684862
_cell_angle_alpha   90.00000000
_cell_angle_beta   110.79385439
_cell_angle_gamma   90.00000000
_symmetry_Int_Tables_number   1
_chemical_formula_structural   GaRe(Cl3O)2
_chemical_formula_sum   'Ga4 Re4 Cl24 O8'
_cell_volume   1180.25507766
_cell_formula_units_Z   4
loop_
 _symmetry_equiv_pos_site_id
 _symmetry_equiv_pos_as_xyz
  1  'x, y, z'
loop_
 _atom_site_type_symbol
 _atom_site_label
 _atom_site_symmetry_multiplicity
 _atom_site_fract_x
 _atom_site_fract_y
 _atom_site_fract_z
 _atom_site_occupancy
  Ga  Ga0  1  0.373700  0.646381  0.753514  1
  Ga  Ga1  1  0.626300  0.353619  0.246486  1
  Ga  Ga2  1  0.873700  0.853619  0.753514  1
  Ga  Ga3  1  0.126300  0.146381  0.246486  1
  Re  Re4  1  0.374610  0.222905  0.742842  1
  Re  Re5  1  0.874610  0.277095  0.742842  1
  Re  Re6  1  0.625390  0.777095  0.257158  1
  Re  Re7  1  0.125390  0.722905  0.257158  1
  Cl  Cl8  1  0.224300  0.469923  0.666514  1
  Cl  Cl9  1  0.174099  0.282630  0.124520  1
  Cl  Cl10  1  0.685369  0.740947  0.104613  1
  Cl  Cl11  1  0.275700  0.969923  0.333486  1
  Cl  Cl12  1  0.518501  0.466217  0.843691  1
  Cl  Cl13  1  0.018501  0.033783  0.843691  1
  Cl  Cl14  1  0.926132  0.731582  0.628036  1
  Cl  Cl15  1  0.325901  0.782630  0.875480  1
  Cl  Cl16  1  0.573868  0.231582  0.371964  1
  Cl  Cl17  1  0.814631  0.240947  0.895387  1
  Cl  Cl18  1  0.932482  0.200328  0.595389  1
  Cl  Cl19  1  0.185369  0.759053  0.104613  1
  Cl  Cl20  1  0.567518  0.700328  0.404611  1
  Cl  Cl21  1  0.674099  0.217370  0.124520  1
  Cl  Cl22  1  0.314631  0.259053  0.895387  1
  Cl  Cl23  1  0.426132  0.768418  0.628036  1
  Cl  Cl24  1  0.724300  0.030077  0.666514  1
  Cl  Cl25  1  0.825901  0.717370  0.875480  1
  Cl  Cl26  1  0.073868  0.268418  0.371964  1
  Cl  Cl27  1  0.775700  0.530077  0.333486  1
  Cl  Cl28  1  0.481499  0.533783  0.156309  1
  Cl  Cl29  1  0.067518  0.799672  0.404611  1
  Cl  Cl30  1  0.981499  0.966217  0.156309  1
  Cl  Cl31  1  0.432482  0.299672  0.595389  1
  O  O32  1  0.995226  0.397098  0.808425  1
  O  O33  1  0.004774  0.602902  0.191575  1
  O  O34  1  0.742534  0.895533  0.334428  1
  O  O35  1  0.757466  0.395533  0.665572  1
  O  O36  1  0.242534  0.604467  0.334428  1
  O  O37  1  0.495226  0.102902  0.808425  1
  O  O38  1  0.504774  0.897098  0.191575  1
  O  O39  1  0.257466  0.104467  0.665572  1
