# generated using pymatgen
data_NaFe2(MoO4)3
_symmetry_space_group_name_H-M   'P 1'
_cell_length_a   7.06529013
_cell_length_b   7.06702371
_cell_length_c   11.35537495
_cell_angle_alpha   80.04710419
_cell_angle_beta   84.03157503
_cell_angle_gamma   80.88676321
_symmetry_Int_Tables_number   1
_chemical_formula_structural   NaFe2(MoO4)3
_chemical_formula_sum   'Na2 Fe4 Mo6 O24'
_cell_volume   549.68498322
_cell_formula_units_Z   2
loop_
 _symmetry_equiv_pos_site_id
 _symmetry_equiv_pos_as_xyz
  1  'x, y, z'
loop_
 _atom_site_type_symbol
 _atom_site_label
 _atom_site_symmetry_multiplicity
 _atom_site_fract_x
 _atom_site_fract_y
 _atom_site_fract_z
 _atom_site_occupancy
  Na  Na0  1  0.145170  0.408413  0.174353  1
  Na  Na1  1  0.854830  0.591587  0.825647  1
  Fe  Fe2  1  0.813732  0.169239  0.509508  1
  Fe  Fe3  1  0.771678  0.778398  0.115687  1
  Fe  Fe4  1  0.228322  0.221602  0.884313  1
  Fe  Fe5  1  0.186268  0.830761  0.490492  1
  Mo  Mo6  1  0.273979  0.295257  0.547002  1
  Mo  Mo7  1  0.726021  0.704743  0.452998  1
  Mo  Mo8  1  0.295547  0.714084  0.811402  1
  Mo  Mo9  1  0.704453  0.285916  0.188598  1
  Mo  Mo10  1  0.241492  0.900499  0.146935  1
  Mo  Mo11  1  0.758508  0.099501  0.853065  1
  O  O12  1  0.208041  0.536513  0.472066  1
  O  O13  1  0.875380  0.867399  0.494985  1
  O  O14  1  0.484479  0.789040  0.495018  1
  O  O15  1  0.811353  0.851996  0.932781  1
  O  O16  1  0.541498  0.655145  0.771772  1
  O  O17  1  0.248521  0.292038  0.707983  1
  O  O18  1  0.162979  0.762558  0.681678  1
  O  O19  1  0.837021  0.237442  0.318322  1
  O  O20  1  0.458502  0.344855  0.228228  1
  O  O21  1  0.124620  0.132601  0.505015  1
  O  O22  1  0.516558  0.205065  0.891825  1
  O  O23  1  0.799001  0.494769  0.094050  1
  O  O24  1  0.791959  0.463487  0.527934  1
  O  O25  1  0.200999  0.505231  0.905950  1
  O  O26  1  0.751479  0.707962  0.292017  1
  O  O27  1  0.779318  0.081187  0.699685  1
  O  O28  1  0.255973  0.931985  0.882876  1
  O  O29  1  0.067586  0.746959  0.125903  1
  O  O30  1  0.932414  0.253041  0.874097  1
  O  O31  1  0.188647  0.148004  0.067219  1
  O  O32  1  0.744027  0.068015  0.117124  1
  O  O33  1  0.483442  0.794935  0.108175  1
  O  O34  1  0.515521  0.210960  0.504982  1
  O  O35  1  0.220682  0.918813  0.300315  1
