# generated using pymatgen
data_Nb2Tl5S4Br9
_symmetry_space_group_name_H-M   'P 1'
_cell_length_a   10.34579569
_cell_length_b   10.34579569
_cell_length_c   10.34579569
_cell_angle_alpha   137.79151289
_cell_angle_beta   119.71034889
_cell_angle_gamma   76.33051711
_symmetry_Int_Tables_number   1
_chemical_formula_structural   Nb2Tl5S4Br9
_chemical_formula_sum   'Nb2 Tl5 S4 Br9'
_cell_volume   629.72377591
_cell_formula_units_Z   1
loop_
 _symmetry_equiv_pos_site_id
 _symmetry_equiv_pos_as_xyz
  1  'x, y, z'
loop_
 _atom_site_type_symbol
 _atom_site_label
 _atom_site_symmetry_multiplicity
 _atom_site_fract_x
 _atom_site_fract_y
 _atom_site_fract_z
 _atom_site_occupancy
  Nb  Nb0  1  0.910498  0.910498  0.000000  1
  Nb  Nb1  1  0.089502  0.089502  0.000000  1
  Tl  Tl2  1  0.883306  0.665613  0.217693  1
  Tl  Tl3  1  0.500000  1.000000  0.500000  1
  Tl  Tl4  1  0.552081  0.334387  0.217693  1
  Tl  Tl5  1  0.116694  0.334387  0.782307  1
  Tl  Tl6  1  0.447919  0.665613  0.782307  1
  S  S7  1  0.097143  0.239192  0.336335  1
  S  S8  1  0.902857  0.760808  0.663665  1
  S  S9  1  0.097143  0.760808  0.857951  1
  S  S10  1  0.902857  0.239192  0.142049  1
  Br  Br11  1  0.787536  0.032775  0.245239  1
  Br  Br12  1  0.212464  0.967225  0.754761  1
  Br  Br13  1  0.127085  0.866248  0.260836  1
  Br  Br14  1  0.394588  0.133752  0.260836  1
  Br  Br15  1  0.787536  0.542297  0.754761  1
  Br  Br16  1  0.212464  0.457703  0.245239  1
  Br  Br17  1  0.605412  0.866248  0.739164  1
  Br  Br18  1  0.500000  0.500000  0.000000  1
  Br  Br19  1  0.872915  0.133752  0.739164  1
