# generated using pymatgen
data_Nb3Tl2Br9
_symmetry_space_group_name_H-M   'P 1'
_cell_length_a   10.18315182
_cell_length_b   10.18315182
_cell_length_c   10.39055308
_cell_angle_alpha   75.16366514
_cell_angle_beta   104.83633486
_cell_angle_gamma   68.08169448
_symmetry_Int_Tables_number   1
_chemical_formula_structural   Nb3Tl2Br9
_chemical_formula_sum   'Nb6 Tl4 Br18'
_cell_volume   888.87717818
_cell_formula_units_Z   2
loop_
 _symmetry_equiv_pos_site_id
 _symmetry_equiv_pos_as_xyz
  1  'x, y, z'
loop_
 _atom_site_type_symbol
 _atom_site_label
 _atom_site_symmetry_multiplicity
 _atom_site_fract_x
 _atom_site_fract_y
 _atom_site_fract_z
 _atom_site_occupancy
  Nb  Nb0  1  0.896400  0.103600  0.124721  1
  Nb  Nb1  1  0.103600  0.896400  0.875279  1
  Nb  Nb2  1  0.784775  0.039075  0.864603  1
  Nb  Nb3  1  0.039075  0.784775  0.135397  1
  Nb  Nb4  1  0.215225  0.960925  0.135397  1
  Nb  Nb5  1  0.960925  0.215225  0.864603  1
  Tl  Tl6  1  0.449653  0.239802  0.338907  1
  Tl  Tl7  1  0.239802  0.449653  0.661093  1
  Tl  Tl8  1  0.550347  0.760198  0.661093  1
  Tl  Tl9  1  0.760198  0.550347  0.338907  1
  Br  Br10  1  0.684305  0.315695  0.669119  1
  Br  Br11  1  0.315695  0.684305  0.330881  1
  Br  Br12  1  0.783500  0.783500  0.000000  1
  Br  Br13  1  0.216500  0.216500  0.000000  1
  Br  Br14  1  0.138063  0.076966  0.317943  1
  Br  Br15  1  0.076966  0.138063  0.682057  1
  Br  Br16  1  0.861937  0.923034  0.682057  1
  Br  Br17  1  0.923034  0.861937  0.317943  1
  Br  Br18  1  0.490024  0.093081  0.676581  1
  Br  Br19  1  0.093081  0.490024  0.323419  1
  Br  Br20  1  0.509976  0.906919  0.323419  1
  Br  Br21  1  0.906919  0.509976  0.676581  1
  Br  Br22  1  0.610288  0.171227  0.987683  1
  Br  Br23  1  0.171227  0.610288  0.012317  1
  Br  Br24  1  0.389712  0.828773  0.012317  1
  Br  Br25  1  0.828773  0.389712  0.987683  1
  Br  Br26  1  0.754682  0.245318  0.290824  1
  Br  Br27  1  0.245318  0.754682  0.709176  1
