# generated using pymatgen
data_Mn15(Br3O10)2
_symmetry_space_group_name_H-M   'P 1'
_cell_length_a   9.43518023
_cell_length_b   9.43518023
_cell_length_c   9.43518023
_cell_angle_alpha   60.00000000
_cell_angle_beta   60.00000000
_cell_angle_gamma   60.00000000
_symmetry_Int_Tables_number   1
_chemical_formula_structural   Mn15(Br3O10)2
_chemical_formula_sum   'Mn15 Br6 O20'
_cell_volume   593.93046593
_cell_formula_units_Z   1
loop_
 _symmetry_equiv_pos_site_id
 _symmetry_equiv_pos_as_xyz
  1  'x, y, z'
loop_
 _atom_site_type_symbol
 _atom_site_label
 _atom_site_symmetry_multiplicity
 _atom_site_fract_x
 _atom_site_fract_y
 _atom_site_fract_z
 _atom_site_occupancy
  Mn  Mn0  1  1.000000  0.000000  0.350166  1
  Mn  Mn1  1  0.250000  0.250000  0.250000  1
  Mn  Mn2  1  0.750000  0.750000  0.750000  1
  Mn  Mn3  1  1.000000  0.350166  0.649834  1
  Mn  Mn4  1  0.649834  0.000000  0.000000  1
  Mn  Mn5  1  0.350166  0.000000  1.000000  1
  Mn  Mn6  1  1.000000  0.649834  0.350166  1
  Mn  Mn7  1  0.350166  0.649834  0.000000  1
  Mn  Mn8  1  1.000000  0.000000  0.649834  1
  Mn  Mn9  1  0.649834  0.350166  0.000000  1
  Mn  Mn10  1  1.000000  0.649834  0.000000  1
  Mn  Mn11  1  0.350166  0.000000  0.649834  1
  Mn  Mn12  1  0.649834  0.000000  0.350166  1
  Mn  Mn13  1  1.000000  0.350166  0.000000  1
  Mn  Mn14  1  1.000000  0.000000  0.000000  1
  Br  Br15  1  0.700380  0.299620  0.299620  1
  Br  Br16  1  0.700380  0.299620  0.700380  1
  Br  Br17  1  0.700380  0.700380  0.299620  1
  Br  Br18  1  0.299620  0.299620  0.700380  1
  Br  Br19  1  0.299620  0.700380  0.299620  1
  Br  Br20  1  0.299620  0.700380  0.700380  1
  O  O21  1  0.299028  0.900324  0.900324  1
  O  O22  1  0.900324  0.900324  0.299028  1
  O  O23  1  0.597871  0.902129  0.902129  1
  O  O24  1  0.097871  0.402129  0.402129  1
  O  O25  1  0.402129  0.097871  0.097871  1
  O  O26  1  0.902129  0.597871  0.597871  1
  O  O27  1  0.902129  0.597871  0.902129  1
  O  O28  1  0.402129  0.402129  0.097871  1
  O  O29  1  0.097871  0.097871  0.402129  1
  O  O30  1  0.597871  0.902129  0.597871  1
  O  O31  1  0.097871  0.402129  0.097871  1
  O  O32  1  0.597871  0.597871  0.902129  1
  O  O33  1  0.902129  0.902129  0.597871  1
  O  O34  1  0.402129  0.097871  0.402129  1
  O  O35  1  0.099676  0.099676  0.099676  1
  O  O36  1  0.900324  0.900324  0.900324  1
  O  O37  1  0.900324  0.299028  0.900324  1
  O  O38  1  0.099676  0.700972  0.099676  1
  O  O39  1  0.099676  0.099676  0.700972  1
  O  O40  1  0.700972  0.099676  0.099676  1
