# generated using pymatgen
data_Na14Mn2O9
_symmetry_space_group_name_H-M   'P 1'
_cell_length_a   6.73875715
_cell_length_b   6.73875715
_cell_length_c   9.43825985
_cell_angle_alpha   90.00000000
_cell_angle_beta   90.00000000
_cell_angle_gamma   120.00000000
_symmetry_Int_Tables_number   1
_chemical_formula_structural   Na14Mn2O9
_chemical_formula_sum   'Na14 Mn2 O9'
_cell_volume   371.17795358
_cell_formula_units_Z   1
loop_
 _symmetry_equiv_pos_site_id
 _symmetry_equiv_pos_as_xyz
  1  'x, y, z'
loop_
 _atom_site_type_symbol
 _atom_site_label
 _atom_site_symmetry_multiplicity
 _atom_site_fract_x
 _atom_site_fract_y
 _atom_site_fract_z
 _atom_site_occupancy
  Na  Na0  1  0.000000  0.000000  0.251783  1
  Na  Na1  1  0.000000  0.000000  0.748217  1
  Na  Na2  1  0.067471  0.377010  0.591478  1
  Na  Na3  1  0.622990  0.690461  0.591478  1
  Na  Na4  1  0.309539  0.932529  0.591478  1
  Na  Na5  1  0.932529  0.622990  0.408522  1
  Na  Na6  1  0.377010  0.309539  0.408522  1
  Na  Na7  1  0.690461  0.067471  0.408522  1
  Na  Na8  1  0.679773  0.638709  0.091423  1
  Na  Na9  1  0.361291  0.041064  0.091423  1
  Na  Na10  1  0.958936  0.320227  0.091423  1
  Na  Na11  1  0.320227  0.361291  0.908577  1
  Na  Na12  1  0.638709  0.958936  0.908577  1
  Na  Na13  1  0.041064  0.679773  0.908577  1
  Mn  Mn14  1  0.333333  0.666667  0.262293  1
  Mn  Mn15  1  0.666667  0.333333  0.737707  1
  O  O16  1  0.333333  0.666667  0.038686  1
  O  O17  1  0.666667  0.333333  0.961314  1
  O  O18  1  0.000000  0.000000  0.000000  1
  O  O19  1  0.947757  0.642824  0.662660  1
  O  O20  1  0.357176  0.304933  0.662660  1
  O  O21  1  0.695067  0.052243  0.662660  1
  O  O22  1  0.052243  0.357176  0.337340  1
  O  O23  1  0.642824  0.695067  0.337340  1
  O  O24  1  0.304933  0.947757  0.337340  1
