# generated using pymatgen
data_MnPtF6
_symmetry_space_group_name_H-M   'P 1'
_cell_length_a   5.65058655
_cell_length_b   5.65058655
_cell_length_c   5.65058655
_cell_angle_alpha   56.66770628
_cell_angle_beta   56.66770628
_cell_angle_gamma   56.66770628
_symmetry_Int_Tables_number   1
_chemical_formula_structural   MnPtF6
_chemical_formula_sum   'Mn1 Pt1 F6'
_cell_volume   117.75687942
_cell_formula_units_Z   1
loop_
 _symmetry_equiv_pos_site_id
 _symmetry_equiv_pos_as_xyz
  1  'x, y, z'
loop_
 _atom_site_type_symbol
 _atom_site_label
 _atom_site_symmetry_multiplicity
 _atom_site_fract_x
 _atom_site_fract_y
 _atom_site_fract_z
 _atom_site_occupancy
  Mn  Mn0  1  0.000000  0.000000  0.000000  1
  Pt  Pt1  1  0.500000  0.500000  0.500000  1
  F  F2  1  0.376614  0.739033  0.142050  1
  F  F3  1  0.739033  0.142050  0.376614  1
  F  F4  1  0.857950  0.623386  0.260967  1
  F  F5  1  0.260967  0.857950  0.623386  1
  F  F6  1  0.623386  0.260967  0.857950  1
  F  F7  1  0.142050  0.376614  0.739033  1
