# generated using pymatgen
data_LiMnPO4
_symmetry_space_group_name_H-M   'P 1'
_cell_length_a   10.23785859
_cell_length_b   10.23785859
_cell_length_c   16.77392971
_cell_angle_alpha   82.09663709
_cell_angle_beta   97.90336291
_cell_angle_gamma   120.93082611
_symmetry_Int_Tables_number   1
_chemical_formula_structural   LiMnPO4
_chemical_formula_sum   'Li16 Mn16 P16 O64'
_cell_volume   1489.15842400
_cell_formula_units_Z   16
loop_
 _symmetry_equiv_pos_site_id
 _symmetry_equiv_pos_as_xyz
  1  'x, y, z'
loop_
 _atom_site_type_symbol
 _atom_site_label
 _atom_site_symmetry_multiplicity
 _atom_site_fract_x
 _atom_site_fract_y
 _atom_site_fract_z
 _atom_site_occupancy
  Li  Li0  1  0.198009  0.184957  0.996888  1
  Li  Li1  1  0.815043  0.801991  0.496888  1
  Li  Li2  1  0.704212  0.425051  0.747534  1
  Li  Li3  1  0.257311  0.926606  0.748961  1
  Li  Li4  1  0.140762  0.684948  0.998274  1
  Li  Li5  1  0.574949  0.295788  0.247534  1
  Li  Li6  1  0.700301  0.186980  0.996239  1
  Li  Li7  1  0.073394  0.742689  0.248961  1
  Li  Li8  1  0.315052  0.859238  0.498274  1
  Li  Li9  1  0.813020  0.299699  0.496239  1
  Li  Li10  1  0.205089  0.432517  0.747903  1
  Li  Li11  1  0.757540  0.920930  0.746589  1
  Li  Li12  1  0.640125  0.685086  0.997006  1
  Li  Li13  1  0.567483  0.794911  0.247903  1
  Li  Li14  1  0.079070  0.242460  0.246589  1
  Li  Li15  1  0.314914  0.359875  0.497006  1
  Mn  Mn16  1  0.885461  0.732450  0.871777  1
  Mn  Mn17  1  0.444161  0.230517  0.872231  1
  Mn  Mn18  1  0.267550  0.114539  0.371777  1
  Mn  Mn19  1  0.769483  0.555839  0.372231  1
  Mn  Mn20  1  0.003928  0.673775  0.621251  1
  Mn  Mn21  1  0.510854  0.119663  0.621601  1
  Mn  Mn22  1  0.326225  0.996072  0.121251  1
  Mn  Mn23  1  0.880337  0.489146  0.121601  1
  Mn  Mn24  1  0.383231  0.729417  0.872485  1
  Mn  Mn25  1  0.944511  0.232091  0.870441  1
  Mn  Mn26  1  0.270583  0.616769  0.372485  1
  Mn  Mn27  1  0.767909  0.055489  0.370441  1
  Mn  Mn28  1  0.008864  0.173586  0.620296  1
  Mn  Mn29  1  0.504653  0.618846  0.621013  1
  Mn  Mn30  1  0.826414  0.991136  0.120296  1
  Mn  Mn31  1  0.381154  0.495347  0.121013  1
  P  P32  1  0.100481  0.086236  0.809087  1
  P  P33  1  0.913764  0.899519  0.309087  1
  P  P34  1  0.170148  0.017429  0.560575  1
  P  P35  1  0.666588  0.463676  0.559103  1
  P  P36  1  0.982571  0.829852  0.060575  1
  P  P37  1  0.536324  0.333412  0.059103  1
  P  P38  1  0.045302  0.584800  0.811019  1
  P  P39  1  0.601669  0.083528  0.809095  1
  P  P40  1  0.415200  0.954698  0.311019  1
  P  P41  1  0.916472  0.398331  0.309095  1
  P  P42  1  0.166464  0.517726  0.560337  1
  P  P43  1  0.668102  0.961906  0.558503  1
  P  P44  1  0.482274  0.833536  0.060337  1
  P  P45  1  0.038094  0.331898  0.058503  1
  P  P46  1  0.546316  0.583401  0.810444  1
  P  P47  1  0.416599  0.453684  0.310444  1
  O  O48  1  0.953105  0.929995  0.794895  1
  O  O49  1  0.536459  0.431161  0.797394  1
  O  O50  1  0.416219  0.251997  0.988467  1
  O  O51  1  0.509755  0.446588  0.569131  1
  O  O52  1  0.241530  0.065264  0.816689  1
  O  O53  1  0.070005  0.046895  0.294895  1
  O  O54  1  0.989667  0.756692  0.986897  1
  O  O55  1  0.008973  0.874713  0.570406  1
  O  O56  1  0.568839  0.463541  0.297394  1
  O  O57  1  0.748003  0.583781  0.488467  1
  O  O58  1  0.553412  0.490245  0.069131  1
  O  O59  1  0.772344  0.522591  0.637818  1
  O  O60  1  0.278098  0.019995  0.636356  1
  O  O61  1  0.934736  0.758470  0.316689  1
  O  O62  1  0.883945  0.553881  0.823509  1
  O  O63  1  0.243308  0.010333  0.486897  1
  O  O64  1  0.125287  0.991027  0.070406  1
  O  O65  1  0.643074  0.306889  0.542659  1
  O  O66  1  0.600758  0.153383  0.885869  1
  O  O67  1  0.111469  0.703211  0.737425  1
  O  O68  1  0.609252  0.197163  0.735150  1
  O  O69  1  0.477409  0.227656  0.137818  1
  O  O70  1  0.980005  0.721902  0.136356  1
  O  O71  1  0.446119  0.116055  0.323509  1
  O  O72  1  0.155305  0.654840  0.886967  1
  O  O73  1  0.451681  0.928322  0.796580  1
  O  O74  1  0.693111  0.356926  0.042659  1
  O  O75  1  0.147588  0.660418  0.547840  1
  O  O76  1  0.846617  0.399242  0.385869  1
  O  O77  1  0.296789  0.888531  0.237425  1
  O  O78  1  0.802837  0.390748  0.235150  1
  O  O79  1  0.035951  0.433841  0.795838  1
  O  O80  1  0.918542  0.254716  0.986950  1
  O  O81  1  0.345160  0.844695  0.386967  1
  O  O82  1  0.512345  0.945389  0.570910  1
  O  O83  1  0.486560  0.754734  0.988227  1
  O  O84  1  0.071678  0.548319  0.296580  1
  O  O85  1  0.741023  0.059766  0.817717  1
  O  O86  1  0.007167  0.371658  0.568898  1
  O  O87  1  0.339582  0.852412  0.047840  1
  O  O88  1  0.566159  0.964049  0.295838  1
  O  O89  1  0.745284  0.081458  0.486950  1
  O  O90  1  0.054611  0.487655  0.070910  1
  O  O91  1  0.272234  0.522955  0.637788  1
  O  O92  1  0.778508  0.021143  0.635682  1
  O  O93  1  0.245266  0.513440  0.488227  1
  O  O94  1  0.385702  0.554124  0.823323  1
  O  O95  1  0.940234  0.258977  0.317717  1
  O  O96  1  0.628342  0.992833  0.068898  1
  O  O97  1  0.641903  0.804205  0.541974  1
  O  O98  1  0.097006  0.149806  0.887669  1
  O  O99  1  0.107402  0.204420  0.738042  1
  O  O100  1  0.610396  0.695844  0.734392  1
  O  O101  1  0.477045  0.727766  0.137788  1
  O  O102  1  0.978857  0.221492  0.135682  1
  O  O103  1  0.445876  0.614298  0.323323  1
  O  O104  1  0.657205  0.658380  0.885194  1
  O  O105  1  0.195795  0.358097  0.041974  1
  O  O106  1  0.155477  0.162640  0.549187  1
  O  O107  1  0.850194  0.902994  0.387669  1
  O  O108  1  0.795580  0.892598  0.238042  1
  O  O109  1  0.304156  0.389604  0.234392  1
  O  O110  1  0.341620  0.342795  0.385194  1
  O  O111  1  0.837360  0.844523  0.049187  1
