# generated using pymatgen
data_RbSb2Au3S5
_symmetry_space_group_name_H-M   'P 1'
_cell_length_a   7.15820378
_cell_length_b   12.79682675
_cell_length_c   26.64498167
_cell_angle_alpha   90.00000000
_cell_angle_beta   90.00000000
_cell_angle_gamma   90.00000000
_symmetry_Int_Tables_number   1
_chemical_formula_structural   RbSb2Au3S5
_chemical_formula_sum   'Rb8 Sb16 Au24 S40'
_cell_volume   2440.74143427
_cell_formula_units_Z   8
loop_
 _symmetry_equiv_pos_site_id
 _symmetry_equiv_pos_as_xyz
  1  'x, y, z'
loop_
 _atom_site_type_symbol
 _atom_site_label
 _atom_site_symmetry_multiplicity
 _atom_site_fract_x
 _atom_site_fract_y
 _atom_site_fract_z
 _atom_site_occupancy
  Rb  Rb0  1  0.000000  0.322210  0.983468  1
  Rb  Rb1  1  0.000000  0.677790  0.016532  1
  Rb  Rb2  1  0.500000  0.838583  0.930719  1
  Rb  Rb3  1  0.500000  0.822210  0.516532  1
  Rb  Rb4  1  0.000000  0.338583  0.569281  1
  Rb  Rb5  1  0.000000  0.661417  0.430719  1
  Rb  Rb6  1  0.500000  0.161417  0.069281  1
  Rb  Rb7  1  0.500000  0.177790  0.483468  1
  Sb  Sb8  1  0.000000  0.967164  0.625377  1
  Sb  Sb9  1  0.500000  0.932952  0.345878  1
  Sb  Sb10  1  0.000000  0.952407  0.116344  1
  Sb  Sb11  1  0.000000  0.432952  0.154122  1
  Sb  Sb12  1  0.000000  0.032836  0.374623  1
  Sb  Sb13  1  0.000000  0.047593  0.883656  1
  Sb  Sb14  1  0.000000  0.567048  0.845878  1
  Sb  Sb15  1  0.500000  0.182042  0.895544  1
  Sb  Sb16  1  0.500000  0.817958  0.104456  1
  Sb  Sb17  1  0.500000  0.067048  0.654122  1
  Sb  Sb18  1  0.500000  0.452407  0.383656  1
  Sb  Sb19  1  0.500000  0.547593  0.616344  1
  Sb  Sb20  1  0.500000  0.532836  0.125377  1
  Sb  Sb21  1  0.000000  0.682042  0.604456  1
  Sb  Sb22  1  0.000000  0.317958  0.395544  1
  Sb  Sb23  1  0.500000  0.467164  0.874623  1
  Au  Au24  1  0.000000  0.193629  0.180884  1
  Au  Au25  1  0.750861  0.014185  0.766618  1
  Au  Au26  1  0.253462  0.185698  0.306197  1
  Au  Au27  1  0.246538  0.685698  0.193803  1
  Au  Au28  1  0.249139  0.014185  0.766618  1
  Au  Au29  1  0.750861  0.985815  0.233382  1
  Au  Au30  1  0.500000  0.693629  0.319116  1
  Au  Au31  1  0.249139  0.985815  0.233382  1
  Au  Au32  1  0.746538  0.185698  0.306197  1
  Au  Au33  1  0.500000  0.231370  0.212769  1
  Au  Au34  1  0.253462  0.814302  0.693803  1
  Au  Au35  1  0.500000  0.768630  0.787231  1
  Au  Au36  1  0.250861  0.514185  0.733382  1
  Au  Au37  1  0.250861  0.485815  0.266618  1
  Au  Au38  1  0.000000  0.268630  0.712769  1
  Au  Au39  1  0.500000  0.306371  0.680884  1
  Au  Au40  1  0.000000  0.731370  0.287231  1
  Au  Au41  1  0.246538  0.314302  0.806197  1
  Au  Au42  1  0.746538  0.814302  0.693803  1
  Au  Au43  1  0.000000  0.806371  0.819116  1
  Au  Au44  1  0.749139  0.485815  0.266618  1
  Au  Au45  1  0.753462  0.685698  0.193803  1
  Au  Au46  1  0.749139  0.514185  0.733382  1
  Au  Au47  1  0.753462  0.314302  0.806197  1
  S  S48  1  0.250474  0.085565  0.589184  1
  S  S49  1  0.000000  0.913578  0.278775  1
  S  S50  1  0.000000  0.139365  0.097213  1
  S  S51  1  0.249853  0.593790  0.553477  1
  S  S52  1  0.749853  0.906210  0.053477  1
  S  S53  1  0.000000  0.086422  0.721225  1
  S  S54  1  0.500000  0.758736  0.237165  1
  S  S55  1  0.500000  0.586422  0.778775  1
  S  S56  1  0.750474  0.414435  0.089184  1
  S  S57  1  0.249526  0.585565  0.910816  1
  S  S58  1  0.500000  0.661983  0.049585  1
  S  S59  1  0.500000  0.360635  0.597213  1
  S  S60  1  0.000000  0.258736  0.262835  1
  S  S61  1  0.000000  0.741264  0.737165  1
  S  S62  1  0.000000  0.860635  0.902787  1
  S  S63  1  0.749526  0.914435  0.410816  1
  S  S64  1  0.249526  0.414435  0.089184  1
  S  S65  1  0.249853  0.406210  0.446523  1
  S  S66  1  0.500000  0.134960  0.358205  1
  S  S67  1  0.749526  0.085565  0.589184  1
  S  S68  1  0.250147  0.906210  0.053477  1
  S  S69  1  0.500000  0.944711  0.812387  1
  S  S70  1  0.750147  0.406210  0.446523  1
  S  S71  1  0.000000  0.161983  0.450415  1
  S  S72  1  0.750474  0.585565  0.910816  1
  S  S73  1  0.500000  0.865040  0.641795  1
  S  S74  1  0.000000  0.634960  0.141795  1
  S  S75  1  0.750147  0.593790  0.553477  1
  S  S76  1  0.250147  0.093790  0.946523  1
  S  S77  1  0.500000  0.055289  0.187613  1
  S  S78  1  0.749853  0.093790  0.946523  1
  S  S79  1  0.500000  0.241264  0.762835  1
  S  S80  1  0.500000  0.413578  0.221225  1
  S  S81  1  0.000000  0.838017  0.549585  1
  S  S82  1  0.250474  0.914435  0.410816  1
  S  S83  1  0.000000  0.444711  0.687613  1
  S  S84  1  0.500000  0.639365  0.402787  1
  S  S85  1  0.000000  0.365040  0.858205  1
  S  S86  1  0.500000  0.338017  0.950415  1
  S  S87  1  0.000000  0.555289  0.312387  1
