# generated using pymatgen
data_Ba3Sb4O
_symmetry_space_group_name_H-M   'P 1'
_cell_length_a   7.12705208
_cell_length_b   13.03024575
_cell_length_c   13.13227960
_cell_angle_alpha   90.00000000
_cell_angle_beta   112.36896742
_cell_angle_gamma   90.00000000
_symmetry_Int_Tables_number   1
_chemical_formula_structural   Ba3Sb4O
_chemical_formula_sum   'Ba12 Sb16 O4'
_cell_volume   1127.78957784
_cell_formula_units_Z   4
loop_
 _symmetry_equiv_pos_site_id
 _symmetry_equiv_pos_as_xyz
  1  'x, y, z'
loop_
 _atom_site_type_symbol
 _atom_site_label
 _atom_site_symmetry_multiplicity
 _atom_site_fract_x
 _atom_site_fract_y
 _atom_site_fract_z
 _atom_site_occupancy
  Ba  Ba0  1  0.809002  0.233404  0.478461  1
  Ba  Ba1  1  0.203651  0.441938  0.453217  1
  Ba  Ba2  1  0.190998  0.766596  0.521539  1
  Ba  Ba3  1  0.388150  0.948191  0.277995  1
  Ba  Ba4  1  0.203651  0.058062  0.953217  1
  Ba  Ba5  1  0.809002  0.266596  0.978461  1
  Ba  Ba6  1  0.796349  0.941938  0.046783  1
  Ba  Ba7  1  0.611850  0.051809  0.722005  1
  Ba  Ba8  1  0.388150  0.551809  0.777995  1
  Ba  Ba9  1  0.190998  0.733404  0.021539  1
  Ba  Ba10  1  0.611850  0.448191  0.222005  1
  Ba  Ba11  1  0.796349  0.558062  0.546783  1
  Sb  Sb12  1  0.068825  0.982489  0.656827  1
  Sb  Sb13  1  0.931175  0.482489  0.843173  1
  Sb  Sb14  1  0.723191  0.655788  0.062730  1
  Sb  Sb15  1  0.649645  0.343635  0.685688  1
  Sb  Sb16  1  0.931175  0.017511  0.343173  1
  Sb  Sb17  1  0.276809  0.155788  0.437270  1
  Sb  Sb18  1  0.350355  0.656365  0.314312  1
  Sb  Sb19  1  0.704247  0.768602  0.764702  1
  Sb  Sb20  1  0.350355  0.843635  0.814312  1
  Sb  Sb21  1  0.276809  0.344212  0.937270  1
  Sb  Sb22  1  0.704247  0.731398  0.264702  1
  Sb  Sb23  1  0.723191  0.844212  0.562730  1
  Sb  Sb24  1  0.068825  0.517511  0.156827  1
  Sb  Sb25  1  0.295753  0.268602  0.735298  1
  Sb  Sb26  1  0.295753  0.231398  0.235298  1
  Sb  Sb27  1  0.649645  0.156365  0.185688  1
  O  O28  1  0.166556  0.913513  0.079355  1
  O  O29  1  0.833444  0.086487  0.920645  1
  O  O30  1  0.833444  0.413513  0.420645  1
  O  O31  1  0.166556  0.586487  0.579355  1
