# generated using pymatgen
data_Zr7(NO2)4
_symmetry_space_group_name_H-M   'P 1'
_cell_length_a   6.27443620
_cell_length_b   6.29643077
_cell_length_c   6.36884080
_cell_angle_alpha   99.71582097
_cell_angle_beta   99.26143345
_cell_angle_gamma   99.23740544
_symmetry_Int_Tables_number   1
_chemical_formula_structural   Zr7(NO2)4
_chemical_formula_sum   'Zr7 N4 O8'
_cell_volume   240.17047958
_cell_formula_units_Z   1
loop_
 _symmetry_equiv_pos_site_id
 _symmetry_equiv_pos_as_xyz
  1  'x, y, z'
loop_
 _atom_site_type_symbol
 _atom_site_label
 _atom_site_symmetry_multiplicity
 _atom_site_fract_x
 _atom_site_fract_y
 _atom_site_fract_z
 _atom_site_occupancy
  Zr  Zr0  1  0.400291  0.700069  0.870381  1
  Zr  Zr1  1  0.995451  0.009113  0.013230  1
  Zr  Zr2  1  0.134066  0.599816  0.317834  1
  Zr  Zr3  1  0.311475  0.127111  0.592303  1
  Zr  Zr4  1  0.704725  0.867165  0.382940  1
  Zr  Zr5  1  0.857474  0.381876  0.703365  1
  Zr  Zr6  1  0.615602  0.291671  0.143524  1
  N  N7  1  0.580287  0.177998  0.435101  1
  N  N8  1  0.670905  0.930850  0.062888  1
  N  N9  1  0.073965  0.922974  0.324669  1
  N  N10  1  0.938019  0.338060  0.070698  1
  O  O11  1  0.817516  0.568578  0.432185  1
  O  O12  1  0.574498  0.439132  0.824174  1
  O  O13  1  0.172147  0.411412  0.573297  1
  O  O14  1  0.909610  0.058022  0.681876  1
  O  O15  1  0.424726  0.580867  0.182247  1
  O  O16  1  0.426577  0.807584  0.580224  1
  O  O17  1  0.322940  0.096615  0.923122  1
  O  O18  1  0.069593  0.690820  0.886043  1
