# generated using pymatgen
data_Na2MnCrF7
_symmetry_space_group_name_H-M   'P 1'
_cell_length_a   7.55120399
_cell_length_b   7.55120399
_cell_length_c   18.49239998
_cell_angle_alpha   90.00000000
_cell_angle_beta   90.00000000
_cell_angle_gamma   120.00000000
_symmetry_Int_Tables_number   1
_chemical_formula_structural   Na2MnCrF7
_chemical_formula_sum   'Na12 Mn6 Cr6 F42'
_cell_volume   913.17983947
_cell_formula_units_Z   6
loop_
 _symmetry_equiv_pos_site_id
 _symmetry_equiv_pos_as_xyz
  1  'x, y, z'
loop_
 _atom_site_type_symbol
 _atom_site_label
 _atom_site_symmetry_multiplicity
 _atom_site_fract_x
 _atom_site_fract_y
 _atom_site_fract_z
 _atom_site_occupancy
  Na  Na0  1  0.506387  0.887444  0.663104  1
  Na  Na1  1  0.112556  0.618943  0.996437  1
  Na  Na2  1  0.381057  0.493613  0.329770  1
  Na  Na3  1  0.618943  0.112556  0.003563  1
  Na  Na4  1  0.493613  0.381057  0.670230  1
  Na  Na5  1  0.887444  0.506387  0.336896  1
  Na  Na6  1  0.861329  0.000000  0.333333  1
  Na  Na7  1  0.000000  0.861329  0.666667  1
  Na  Na8  1  0.138671  0.138671  0.000000  1
  Na  Na9  1  0.832208  0.000000  0.833333  1
  Na  Na10  1  0.000000  0.832208  0.166667  1
  Na  Na11  1  0.167792  0.167792  0.500000  1
  Mn  Mn12  1  0.834601  0.496036  0.828069  1
  Mn  Mn13  1  0.503964  0.338565  0.161402  1
  Mn  Mn14  1  0.661435  0.165399  0.494735  1
  Mn  Mn15  1  0.338565  0.503964  0.838598  1
  Mn  Mn16  1  0.165399  0.661435  0.505265  1
  Mn  Mn17  1  0.496036  0.834601  0.171931  1
  Cr  Cr18  1  0.667271  0.667271  0.500000  1
  Cr  Cr19  1  0.000000  0.332729  0.166667  1
  Cr  Cr20  1  0.332729  0.000000  0.833333  1
  Cr  Cr21  1  0.684793  0.684793  0.000000  1
  Cr  Cr22  1  0.000000  0.315207  0.666667  1
  Cr  Cr23  1  0.315207  0.000000  0.333333  1
  F  F24  1  0.431645  0.047782  0.122987  1
  F  F25  1  0.952218  0.383863  0.456320  1
  F  F26  1  0.616137  0.568355  0.789653  1
  F  F27  1  0.383863  0.952218  0.543680  1
  F  F28  1  0.568355  0.616137  0.210347  1
  F  F29  1  0.047782  0.431645  0.877013  1
  F  F30  1  0.235987  0.188905  0.859652  1
  F  F31  1  0.811095  0.047082  0.192986  1
  F  F32  1  0.952918  0.764013  0.526319  1
  F  F33  1  0.047082  0.811095  0.807014  1
  F  F34  1  0.764013  0.952918  0.473681  1
  F  F35  1  0.188905  0.235987  0.140348  1
  F  F36  1  0.367174  0.066586  0.729409  1
  F  F37  1  0.933414  0.300587  0.062742  1
  F  F38  1  0.699413  0.632826  0.396075  1
  F  F39  1  0.300587  0.933414  0.937258  1
  F  F40  1  0.632826  0.699413  0.603925  1
  F  F41  1  0.066586  0.367174  0.270591  1
  F  F42  1  0.430140  0.810895  0.810609  1
  F  F43  1  0.189105  0.619245  0.143942  1
  F  F44  1  0.380755  0.569860  0.477275  1
  F  F45  1  0.619245  0.189105  0.856058  1
  F  F46  1  0.569860  0.380755  0.522725  1
  F  F47  1  0.810895  0.430140  0.189391  1
  F  F48  1  0.769633  0.198737  0.601419  1
  F  F49  1  0.801263  0.570896  0.934752  1
  F  F50  1  0.429104  0.230367  0.268086  1
  F  F51  1  0.570896  0.801263  0.065248  1
  F  F52  1  0.230367  0.429104  0.731914  1
  F  F53  1  0.198737  0.769633  0.398581  1
  F  F54  1  0.800439  0.946628  0.949709  1
  F  F55  1  0.053372  0.853811  0.283042  1
  F  F56  1  0.146189  0.199561  0.616375  1
  F  F57  1  0.853811  0.053372  0.716958  1
  F  F58  1  0.199561  0.146189  0.383625  1
  F  F59  1  0.946628  0.800439  0.050291  1
  F  F60  1  0.566242  0.422059  0.050957  1
  F  F61  1  0.577941  0.144184  0.384290  1
  F  F62  1  0.855816  0.433758  0.717624  1
  F  F63  1  0.144184  0.577941  0.615710  1
  F  F64  1  0.433758  0.855816  0.282376  1
  F  F65  1  0.422059  0.566242  0.949043  1
