# generated using pymatgen
data_TbRhO3
_symmetry_space_group_name_H-M   'P 1'
_cell_length_a   5.29130167
_cell_length_b   5.83295985
_cell_length_c   7.67887694
_cell_angle_alpha   90.00000000
_cell_angle_beta   90.00000000
_cell_angle_gamma   90.00000000
_symmetry_Int_Tables_number   1
_chemical_formula_structural   TbRhO3
_chemical_formula_sum   'Tb4 Rh4 O12'
_cell_volume   237.00047543
_cell_formula_units_Z   4
loop_
 _symmetry_equiv_pos_site_id
 _symmetry_equiv_pos_as_xyz
  1  'x, y, z'
loop_
 _atom_site_type_symbol
 _atom_site_label
 _atom_site_symmetry_multiplicity
 _atom_site_fract_x
 _atom_site_fract_y
 _atom_site_fract_z
 _atom_site_occupancy
  Tb  Tb0  1  0.468971  0.585052  0.750000  1
  Tb  Tb1  1  0.968971  0.914948  0.250000  1
  Tb  Tb2  1  0.031029  0.085052  0.750000  1
  Tb  Tb3  1  0.531029  0.414948  0.250000  1
  Rh  Rh4  1  0.500000  0.000000  0.500000  1
  Rh  Rh5  1  0.000000  0.500000  0.500000  1
  Rh  Rh6  1  0.000000  0.500000  0.000000  1
  Rh  Rh7  1  0.500000  0.000000  0.000000  1
  O  O8  1  0.823085  0.190575  0.437804  1
  O  O9  1  0.323085  0.309425  0.562196  1
  O  O10  1  0.676915  0.690575  0.062196  1
  O  O11  1  0.176915  0.809425  0.937804  1
  O  O12  1  0.176915  0.809425  0.562196  1
  O  O13  1  0.676915  0.690575  0.437804  1
  O  O14  1  0.323085  0.309425  0.937804  1
  O  O15  1  0.823085  0.190575  0.062196  1
  O  O16  1  0.366180  0.051009  0.250000  1
  O  O17  1  0.866180  0.448991  0.750000  1
  O  O18  1  0.133820  0.551009  0.250000  1
  O  O19  1  0.633820  0.948991  0.750000  1
