# generated using pymatgen
data_LiH4SNO4
_symmetry_space_group_name_H-M   'P 1'
_cell_length_a   5.30718334
_cell_length_b   8.88744367
_cell_length_c   9.30868728
_cell_angle_alpha   90.00000000
_cell_angle_beta   90.00000000
_cell_angle_gamma   90.00000000
_symmetry_Int_Tables_number   1
_chemical_formula_structural   LiH4SNO4
_chemical_formula_sum   'Li4 H16 S4 N4 O16'
_cell_volume   439.06558020
_cell_formula_units_Z   4
loop_
 _symmetry_equiv_pos_site_id
 _symmetry_equiv_pos_as_xyz
  1  'x, y, z'
loop_
 _atom_site_type_symbol
 _atom_site_label
 _atom_site_symmetry_multiplicity
 _atom_site_fract_x
 _atom_site_fract_y
 _atom_site_fract_z
 _atom_site_occupancy
  Li  Li0  1  0.262246  0.321036  0.413292  1
  Li  Li1  1  0.262246  0.821036  0.086708  1
  Li  Li2  1  0.762246  0.678964  0.586708  1
  Li  Li3  1  0.762246  0.178964  0.913292  1
  H  H4  1  0.712816  0.096217  0.348101  1
  H  H5  1  0.930789  0.479394  0.230237  1
  H  H6  1  0.930789  0.979394  0.269763  1
  H  H7  1  0.712816  0.596217  0.151899  1
  H  H8  1  0.212816  0.403783  0.848101  1
  H  H9  1  0.162937  0.593634  0.839064  1
  H  H10  1  0.212816  0.903783  0.651899  1
  H  H11  1  0.662937  0.406366  0.160936  1
  H  H12  1  0.152816  0.987570  0.811164  1
  H  H13  1  0.152816  0.487570  0.688836  1
  H  H14  1  0.662937  0.906366  0.339064  1
  H  H15  1  0.652816  0.512430  0.311164  1
  H  H16  1  0.162937  0.093634  0.660936  1
  H  H17  1  0.652816  0.012430  0.188836  1
  H  H18  1  0.430789  0.020606  0.730237  1
  H  H19  1  0.430789  0.520606  0.769763  1
  S  S20  1  0.261162  0.205778  0.084270  1
  S  S21  1  0.761162  0.794222  0.915730  1
  S  S22  1  0.761162  0.294222  0.584270  1
  S  S23  1  0.261162  0.705778  0.415730  1
  N  N24  1  0.241769  0.000744  0.713715  1
  N  N25  1  0.741769  0.999256  0.286285  1
  N  N26  1  0.241769  0.500744  0.786285  1
  N  N27  1  0.741769  0.499256  0.213715  1
  O  O28  1  0.660947  0.724081  0.783109  1
  O  O29  1  0.257378  0.539605  0.402142  1
  O  O30  1  0.527335  0.257138  0.059613  1
  O  O31  1  0.604007  0.247326  0.458053  1
  O  O32  1  0.104007  0.752674  0.541947  1
  O  O33  1  0.027335  0.242862  0.559613  1
  O  O34  1  0.604007  0.747326  0.041947  1
  O  O35  1  0.160947  0.275919  0.216891  1
  O  O36  1  0.757378  0.460395  0.597858  1
  O  O37  1  0.757378  0.960395  0.902142  1
  O  O38  1  0.104007  0.252674  0.958053  1
  O  O39  1  0.027335  0.742862  0.940387  1
  O  O40  1  0.160947  0.775919  0.283109  1
  O  O41  1  0.660947  0.224081  0.716891  1
  O  O42  1  0.257378  0.039605  0.097858  1
  O  O43  1  0.527335  0.757138  0.440387  1
