# generated using pymatgen
data_Cd2Si(P2O7)2
_symmetry_space_group_name_H-M   'P 1'
_cell_length_a   9.13217102
_cell_length_b   9.13217102
_cell_length_c   12.68921344
_cell_angle_alpha   77.30615301
_cell_angle_beta   102.69384699
_cell_angle_gamma   146.51748165
_symmetry_Int_Tables_number   1
_chemical_formula_structural   Cd2Si(P2O7)2
_chemical_formula_sum   'Cd4 Si2 P8 O28'
_cell_volume   568.23244977
_cell_formula_units_Z   2
loop_
 _symmetry_equiv_pos_site_id
 _symmetry_equiv_pos_as_xyz
  1  'x, y, z'
loop_
 _atom_site_type_symbol
 _atom_site_label
 _atom_site_symmetry_multiplicity
 _atom_site_fract_x
 _atom_site_fract_y
 _atom_site_fract_z
 _atom_site_occupancy
  Cd  Cd0  1  0.400225  0.911029  0.631830  1
  Cd  Cd1  1  0.911029  0.400225  0.868170  1
  Cd  Cd2  1  0.599775  0.088971  0.368170  1
  Cd  Cd3  1  0.088971  0.599775  0.131830  1
  Si  Si4  1  0.138975  0.138975  0.250000  1
  Si  Si5  1  0.861025  0.861025  0.750000  1
  P  P6  1  0.958117  0.696188  0.414179  1
  P  P7  1  0.696188  0.958117  0.085821  1
  P  P8  1  0.041883  0.303812  0.585821  1
  P  P9  1  0.303812  0.041883  0.914179  1
  P  P10  1  0.764740  0.528746  0.629529  1
  P  P11  1  0.528746  0.764740  0.870471  1
  P  P12  1  0.235260  0.471254  0.370471  1
  P  P13  1  0.471254  0.235260  0.129529  1
  O  O14  1  0.021882  0.896402  0.329561  1
  O  O15  1  0.896402  0.021882  0.170439  1
  O  O16  1  0.978118  0.103598  0.670439  1
  O  O17  1  0.103598  0.978118  0.829561  1
  O  O18  1  0.876832  0.699496  0.514214  1
  O  O19  1  0.699496  0.876832  0.985786  1
  O  O20  1  0.123168  0.300504  0.485786  1
  O  O21  1  0.300504  0.123168  0.014214  1
  O  O22  1  0.720974  0.637307  0.675687  1
  O  O23  1  0.637307  0.720974  0.824313  1
  O  O24  1  0.279026  0.362693  0.324313  1
  O  O25  1  0.362693  0.279026  0.175687  1
  O  O26  1  0.722207  0.426637  0.370381  1
  O  O27  1  0.426637  0.722207  0.129619  1
  O  O28  1  0.277793  0.573363  0.629619  1
  O  O29  1  0.573363  0.277793  0.870381  1
  O  O30  1  0.210402  0.812878  0.450867  1
  O  O31  1  0.812878  0.210402  0.049133  1
  O  O32  1  0.789598  0.187122  0.549133  1
  O  O33  1  0.187122  0.789598  0.950867  1
  O  O34  1  0.986743  0.614112  0.696968  1
  O  O35  1  0.614112  0.986743  0.803032  1
  O  O36  1  0.013257  0.385888  0.303032  1
  O  O37  1  0.385888  0.013257  0.196968  1
  O  O38  1  0.501310  0.237436  0.615117  1
  O  O39  1  0.237436  0.501310  0.884883  1
  O  O40  1  0.498690  0.762564  0.384883  1
  O  O41  1  0.762564  0.498690  0.115117  1
