# generated using pymatgen
data_Y2SiO5
_symmetry_space_group_name_H-M   'P 1'
_cell_length_a   6.74924729
_cell_length_b   6.95507015
_cell_length_c   9.14394627
_cell_angle_alpha   90.00000000
_cell_angle_beta   106.37794193
_cell_angle_gamma   90.00000000
_symmetry_Int_Tables_number   1
_chemical_formula_structural   Y2SiO5
_chemical_formula_sum   'Y8 Si4 O20'
_cell_volume   411.81339244
_cell_formula_units_Z   4
loop_
 _symmetry_equiv_pos_site_id
 _symmetry_equiv_pos_as_xyz
  1  'x, y, z'
loop_
 _atom_site_type_symbol
 _atom_site_label
 _atom_site_symmetry_multiplicity
 _atom_site_fract_x
 _atom_site_fract_y
 _atom_site_fract_z
 _atom_site_occupancy
  Y  Y0  1  0.934972  0.640840  0.122766  1
  Y  Y1  1  0.065028  0.359160  0.877234  1
  Y  Y2  1  0.565028  0.140840  0.877234  1
  Y  Y3  1  0.434972  0.859160  0.122766  1
  Y  Y4  1  0.731876  0.125443  0.527142  1
  Y  Y5  1  0.768124  0.625443  0.472858  1
  Y  Y6  1  0.231876  0.374557  0.527142  1
  Y  Y7  1  0.268124  0.874557  0.472858  1
  Si  Si8  1  0.470957  0.412227  0.200579  1
  Si  Si9  1  0.029043  0.912227  0.799421  1
  Si  Si10  1  0.529043  0.587773  0.799421  1
  Si  Si11  1  0.970957  0.087773  0.200579  1
  O  O12  1  0.558753  0.881049  0.386092  1
  O  O13  1  0.009948  0.135105  0.384964  1
  O  O14  1  0.656988  0.573194  0.207516  1
  O  O15  1  0.024722  0.721476  0.898125  1
  O  O16  1  0.441247  0.118951  0.613908  1
  O  O17  1  0.231418  0.048103  0.873460  1
  O  O18  1  0.941247  0.381049  0.613908  1
  O  O19  1  0.343012  0.426806  0.792484  1
  O  O20  1  0.475278  0.221476  0.101875  1
  O  O21  1  0.975278  0.278524  0.101875  1
  O  O22  1  0.268582  0.548103  0.126540  1
  O  O23  1  0.156988  0.926806  0.207516  1
  O  O24  1  0.058753  0.618951  0.386092  1
  O  O25  1  0.768582  0.951897  0.126540  1
  O  O26  1  0.843012  0.073194  0.792484  1
  O  O27  1  0.509948  0.364895  0.384964  1
  O  O28  1  0.490052  0.635105  0.615036  1
  O  O29  1  0.524722  0.778524  0.898125  1
  O  O30  1  0.990052  0.864895  0.615036  1
  O  O31  1  0.731418  0.451897  0.873460  1
