# generated using pymatgen
data_CaCoAsHO5
_symmetry_space_group_name_H-M   'P 1'
_cell_length_a   6.00421778
_cell_length_b   7.58981011
_cell_length_c   9.08435259
_cell_angle_alpha   90.00000000
_cell_angle_beta   90.00000000
_cell_angle_gamma   90.00000000
_symmetry_Int_Tables_number   1
_chemical_formula_structural   CaCoAsHO5
_chemical_formula_sum   'Ca4 Co4 As4 H4 O20'
_cell_volume   413.98187643
_cell_formula_units_Z   4
loop_
 _symmetry_equiv_pos_site_id
 _symmetry_equiv_pos_as_xyz
  1  'x, y, z'
loop_
 _atom_site_type_symbol
 _atom_site_label
 _atom_site_symmetry_multiplicity
 _atom_site_fract_x
 _atom_site_fract_y
 _atom_site_fract_z
 _atom_site_occupancy
  Ca  Ca0  1  0.523171  0.627693  0.327392  1
  Ca  Ca1  1  0.023171  0.872307  0.672608  1
  Ca  Ca2  1  0.476829  0.127693  0.172608  1
  Ca  Ca3  1  0.976829  0.372307  0.827392  1
  Co  Co4  1  0.244275  0.741460  0.005526  1
  Co  Co5  1  0.744275  0.758540  0.994474  1
  Co  Co6  1  0.755725  0.241460  0.494474  1
  Co  Co7  1  0.255725  0.258540  0.505526  1
  As  As8  1  0.482872  0.623260  0.677455  1
  As  As9  1  0.982872  0.876740  0.322545  1
  As  As10  1  0.517128  0.123260  0.822545  1
  As  As11  1  0.017128  0.376740  0.177455  1
  H  H12  1  0.516637  0.488551  0.020906  1
  H  H13  1  0.016637  0.011449  0.979094  1
  H  H14  1  0.483363  0.988551  0.479094  1
  H  H15  1  0.983363  0.511449  0.520906  1
  O  O16  1  0.504720  0.603736  0.071963  1
  O  O17  1  0.004720  0.896264  0.928037  1
  O  O18  1  0.495280  0.103736  0.428037  1
  O  O19  1  0.995280  0.396264  0.571963  1
  O  O20  1  0.254448  0.607176  0.793115  1
  O  O21  1  0.754448  0.892824  0.206885  1
  O  O22  1  0.745552  0.107176  0.706885  1
  O  O23  1  0.245552  0.392824  0.293115  1
  O  O24  1  0.509493  0.446040  0.556086  1
  O  O25  1  0.009493  0.053960  0.443914  1
  O  O26  1  0.490507  0.946040  0.943914  1
  O  O27  1  0.990507  0.553960  0.056086  1
  O  O28  1  0.909737  0.707987  0.439737  1
  O  O29  1  0.409737  0.792013  0.560263  1
  O  O30  1  0.090263  0.207987  0.060263  1
  O  O31  1  0.590263  0.292013  0.939737  1
  O  O32  1  0.767056  0.349720  0.269982  1
  O  O33  1  0.267056  0.150280  0.730018  1
  O  O34  1  0.232944  0.849720  0.230018  1
  O  O35  1  0.732944  0.650280  0.769982  1
