# generated using pymatgen
data_NaScB2O5
_symmetry_space_group_name_H-M   'P 1'
_cell_length_a   5.99960835
_cell_length_b   9.88385445
_cell_length_c   7.29569997
_cell_angle_alpha   90.00000000
_cell_angle_beta   108.54735159
_cell_angle_gamma   90.00000000
_symmetry_Int_Tables_number   1
_chemical_formula_structural   NaScB2O5
_chemical_formula_sum   'Na4 Sc4 B8 O20'
_cell_volume   410.15927253
_cell_formula_units_Z   4
loop_
 _symmetry_equiv_pos_site_id
 _symmetry_equiv_pos_as_xyz
  1  'x, y, z'
loop_
 _atom_site_type_symbol
 _atom_site_label
 _atom_site_symmetry_multiplicity
 _atom_site_fract_x
 _atom_site_fract_y
 _atom_site_fract_z
 _atom_site_occupancy
  Na  Na0  1  0.300873  0.581338  0.779350  1
  Na  Na1  1  0.800873  0.918662  0.779350  1
  Na  Na2  1  0.199127  0.081338  0.220650  1
  Na  Na3  1  0.699127  0.418662  0.220650  1
  Sc  Sc4  1  0.783212  0.827830  0.245981  1
  Sc  Sc5  1  0.216788  0.172170  0.754019  1
  Sc  Sc6  1  0.283212  0.672170  0.245981  1
  Sc  Sc7  1  0.716788  0.327830  0.754019  1
  B  B8  1  0.830314  0.619752  0.909758  1
  B  B9  1  0.669686  0.119752  0.090242  1
  B  B10  1  0.169686  0.380248  0.090242  1
  B  B11  1  0.254165  0.904843  0.554508  1
  B  B12  1  0.754165  0.595157  0.554508  1
  B  B13  1  0.330314  0.880248  0.909758  1
  B  B14  1  0.745835  0.095157  0.445492  1
  B  B15  1  0.245835  0.404843  0.445492  1
  O  O16  1  0.157111  0.330801  0.269585  1
  O  O17  1  0.278732  0.499054  0.079424  1
  O  O18  1  0.925345  0.704660  0.065675  1
  O  O19  1  0.342889  0.830801  0.730415  1
  O  O20  1  0.340608  0.331019  0.613297  1
  O  O21  1  0.733097  0.958628  0.447211  1
  O  O22  1  0.840608  0.168981  0.613297  1
  O  O23  1  0.778732  0.000946  0.079424  1
  O  O24  1  0.842889  0.669199  0.730415  1
  O  O25  1  0.425345  0.795340  0.065675  1
  O  O26  1  0.659392  0.668981  0.386703  1
  O  O27  1  0.266903  0.041372  0.552789  1
  O  O28  1  0.233097  0.541372  0.447211  1
  O  O29  1  0.721268  0.500946  0.920576  1
  O  O30  1  0.766903  0.458628  0.552789  1
  O  O31  1  0.574655  0.204660  0.934325  1
  O  O32  1  0.074655  0.295340  0.934325  1
  O  O33  1  0.221268  0.999054  0.920576  1
  O  O34  1  0.657111  0.169199  0.269585  1
  O  O35  1  0.159392  0.831019  0.386703  1
