# generated using pymatgen
data_PH7CN2O5
_symmetry_space_group_name_H-M   'P 1'
_cell_length_a   7.63273764
_cell_length_b   9.02345375
_cell_length_c   17.74263192
_cell_angle_alpha   90.00000000
_cell_angle_beta   90.00000000
_cell_angle_gamma   90.00000000
_symmetry_Int_Tables_number   1
_chemical_formula_structural   PH7CN2O5
_chemical_formula_sum   'P8 H56 C8 N16 O40'
_cell_volume   1221.99991108
_cell_formula_units_Z   8
loop_
 _symmetry_equiv_pos_site_id
 _symmetry_equiv_pos_as_xyz
  1  'x, y, z'
loop_
 _atom_site_type_symbol
 _atom_site_label
 _atom_site_symmetry_multiplicity
 _atom_site_fract_x
 _atom_site_fract_y
 _atom_site_fract_z
 _atom_site_occupancy
  P  P0  1  0.779296  0.808282  0.311711  1
  P  P1  1  0.279296  0.691718  0.688289  1
  P  P2  1  0.220704  0.308282  0.188289  1
  P  P3  1  0.720704  0.191718  0.811711  1
  P  P4  1  0.220704  0.191718  0.688289  1
  P  P5  1  0.720704  0.308282  0.311711  1
  P  P6  1  0.779296  0.691718  0.811711  1
  P  P7  1  0.279296  0.808282  0.188289  1
  H  H8  1  0.511346  0.892413  0.293971  1
  H  H9  1  0.011346  0.607587  0.706029  1
  H  H10  1  0.488654  0.392413  0.206029  1
  H  H11  1  0.988654  0.107587  0.793971  1
  H  H12  1  0.488654  0.107587  0.706029  1
  H  H13  1  0.988654  0.392413  0.293971  1
  H  H14  1  0.511346  0.607587  0.793971  1
  H  H15  1  0.011346  0.892413  0.206029  1
  H  H16  1  0.307409  0.912236  0.549799  1
  H  H17  1  0.807409  0.587764  0.450201  1
  H  H18  1  0.692591  0.412236  0.950201  1
  H  H19  1  0.192591  0.087764  0.049799  1
  H  H20  1  0.692591  0.087764  0.450201  1
  H  H21  1  0.192591  0.412236  0.549799  1
  H  H22  1  0.307409  0.587764  0.049799  1
  H  H23  1  0.807409  0.912236  0.950201  1
  H  H24  1  0.322566  0.092816  0.512101  1
  H  H25  1  0.822566  0.407184  0.487899  1
  H  H26  1  0.677434  0.592816  0.987899  1
  H  H27  1  0.177434  0.907184  0.012101  1
  H  H28  1  0.677434  0.907184  0.487899  1
  H  H29  1  0.177434  0.592816  0.512101  1
  H  H30  1  0.322566  0.407184  0.012101  1
  H  H31  1  0.822566  0.092816  0.987899  1
  H  H32  1  0.059054  0.007078  0.351518  1
  H  H33  1  0.559054  0.492922  0.648482  1
  H  H34  1  0.940946  0.507078  0.148482  1
  H  H35  1  0.440946  0.992922  0.851518  1
  H  H36  1  0.940946  0.992922  0.648482  1
  H  H37  1  0.440946  0.507078  0.351518  1
  H  H38  1  0.059054  0.492922  0.851518  1
  H  H39  1  0.559054  0.007078  0.148482  1
  H  H40  1  0.176483  0.147159  0.397866  1
  H  H41  1  0.676483  0.352841  0.602134  1
  H  H42  1  0.823517  0.647159  0.102134  1
  H  H43  1  0.323517  0.852841  0.897866  1
  H  H44  1  0.823517  0.852841  0.602134  1
  H  H45  1  0.323517  0.647159  0.397866  1
  H  H46  1  0.176483  0.352841  0.897866  1
  H  H47  1  0.676483  0.147159  0.102134  1
  H  H48  1  0.698153  0.591523  0.261355  1
  H  H49  1  0.198153  0.908477  0.738645  1
  H  H50  1  0.301847  0.091523  0.238645  1
  H  H51  1  0.801847  0.408477  0.761355  1
  H  H52  1  0.301847  0.408477  0.738645  1
  H  H53  1  0.801847  0.091523  0.261355  1
  H  H54  1  0.698153  0.908477  0.761355  1
  H  H55  1  0.198153  0.591523  0.238645  1
  H  H56  1  0.011152  0.783019  0.411874  1
  H  H57  1  0.511152  0.716981  0.588126  1
  H  H58  1  0.988848  0.283019  0.088126  1
  H  H59  1  0.488848  0.216981  0.911874  1
  H  H60  1  0.988848  0.216981  0.588126  1
  H  H61  1  0.488848  0.283019  0.411874  1
  H  H62  1  0.011152  0.716981  0.911874  1
  H  H63  1  0.511152  0.783019  0.088126  1
  C  C64  1  0.181756  0.944684  0.449538  1
  C  C65  1  0.681756  0.555316  0.550462  1
  C  C66  1  0.818244  0.444684  0.050462  1
  C  C67  1  0.318244  0.055316  0.949538  1
  C  C68  1  0.818244  0.055316  0.550462  1
  C  C69  1  0.318244  0.444684  0.449538  1
  C  C70  1  0.181756  0.555316  0.949538  1
  C  C71  1  0.681756  0.944684  0.050462  1
  N  N72  1  0.284088  0.985509  0.506646  1
  N  N73  1  0.784088  0.514491  0.493354  1
  N  N74  1  0.715912  0.485509  0.993354  1
  N  N75  1  0.215912  0.014491  0.006646  1
  N  N76  1  0.715912  0.014491  0.493354  1
  N  N77  1  0.215912  0.485509  0.506646  1
  N  N78  1  0.284088  0.514491  0.006646  1
  N  N79  1  0.784088  0.985509  0.993354  1
  N  N80  1  0.131361  0.041142  0.396980  1
  N  N81  1  0.631361  0.458858  0.603020  1
  N  N82  1  0.868639  0.541142  0.103020  1
  N  N83  1  0.368639  0.958858  0.896980  1
  N  N84  1  0.868639  0.958858  0.603020  1
  N  N85  1  0.368639  0.541142  0.396980  1
  N  N86  1  0.131361  0.458858  0.896980  1
  N  N87  1  0.631361  0.041142  0.103020  1
  O  O88  1  0.591576  0.863579  0.337373  1
  O  O89  1  0.091576  0.636421  0.662627  1
  O  O90  1  0.408424  0.363579  0.162627  1
  O  O91  1  0.908424  0.136421  0.837373  1
  O  O92  1  0.408424  0.136421  0.662627  1
  O  O93  1  0.908424  0.363579  0.337373  1
  O  O94  1  0.591576  0.636421  0.837373  1
  O  O95  1  0.091576  0.863579  0.162627  1
  O  O96  1  0.887455  0.934963  0.277172  1
  O  O97  1  0.387455  0.565037  0.722828  1
  O  O98  1  0.112545  0.434963  0.222828  1
  O  O99  1  0.612545  0.065037  0.777172  1
  O  O100  1  0.112545  0.065037  0.722828  1
  O  O101  1  0.612545  0.434963  0.277172  1
  O  O102  1  0.887455  0.565037  0.777172  1
  O  O103  1  0.387455  0.934963  0.222828  1
  O  O104  1  0.754458  0.690310  0.246974  1
  O  O105  1  0.254458  0.809690  0.753026  1
  O  O106  1  0.245542  0.190310  0.253026  1
  O  O107  1  0.745542  0.309690  0.746974  1
  O  O108  1  0.245542  0.309690  0.753026  1
  O  O109  1  0.745542  0.190310  0.246974  1
  O  O110  1  0.754458  0.809690  0.746974  1
  O  O111  1  0.254458  0.690310  0.253026  1
  O  O112  1  0.863218  0.740793  0.382132  1
  O  O113  1  0.363218  0.759207  0.617868  1
  O  O114  1  0.136782  0.240793  0.117868  1
  O  O115  1  0.636782  0.259207  0.882132  1
  O  O116  1  0.136782  0.259207  0.617868  1
  O  O117  1  0.636782  0.240793  0.382132  1
  O  O118  1  0.863218  0.759207  0.882132  1
  O  O119  1  0.363218  0.740793  0.117868  1
  O  O120  1  0.132422  0.805663  0.446400  1
  O  O121  1  0.632422  0.694337  0.553600  1
  O  O122  1  0.867578  0.305663  0.053600  1
  O  O123  1  0.367578  0.194337  0.946400  1
  O  O124  1  0.867578  0.194337  0.553600  1
  O  O125  1  0.367578  0.305663  0.446400  1
  O  O126  1  0.132422  0.694337  0.946400  1
  O  O127  1  0.632422  0.805663  0.053600  1
