# generated using pymatgen
data_KDy2Cl7
_symmetry_space_group_name_H-M   'P 1'
_cell_length_a   6.96294508
_cell_length_b   12.63329886
_cell_length_c   13.43414242
_cell_angle_alpha   90.00000000
_cell_angle_beta   90.73283511
_cell_angle_gamma   90.00000000
_symmetry_Int_Tables_number   1
_chemical_formula_structural   KDy2Cl7
_chemical_formula_sum   'K4 Dy8 Cl28'
_cell_volume   1181.63722144
_cell_formula_units_Z   4
loop_
 _symmetry_equiv_pos_site_id
 _symmetry_equiv_pos_as_xyz
  1  'x, y, z'
loop_
 _atom_site_type_symbol
 _atom_site_label
 _atom_site_symmetry_multiplicity
 _atom_site_fract_x
 _atom_site_fract_y
 _atom_site_fract_z
 _atom_site_occupancy
  K  K0  1  0.241401  0.200637  0.036699  1
  K  K1  1  0.758599  0.700637  0.463301  1
  K  K2  1  0.758599  0.799363  0.963301  1
  K  K3  1  0.241401  0.299363  0.536699  1
  Dy  Dy4  1  0.273089  0.840752  0.247454  1
  Dy  Dy5  1  0.726911  0.340752  0.252546  1
  Dy  Dy6  1  0.726911  0.159248  0.752546  1
  Dy  Dy7  1  0.273089  0.659248  0.747454  1
  Dy  Dy8  1  0.224892  0.538113  0.237576  1
  Dy  Dy9  1  0.775108  0.038113  0.262424  1
  Dy  Dy10  1  0.775108  0.461887  0.762424  1
  Dy  Dy11  1  0.224892  0.961887  0.737576  1
  Cl  Cl12  1  0.253784  0.686334  0.389584  1
  Cl  Cl13  1  0.746216  0.186334  0.110416  1
  Cl  Cl14  1  0.746216  0.313666  0.610416  1
  Cl  Cl15  1  0.253784  0.813666  0.889584  1
  Cl  Cl16  1  0.003419  0.703398  0.174714  1
  Cl  Cl17  1  0.996581  0.203398  0.325286  1
  Cl  Cl18  1  0.996581  0.296602  0.825286  1
  Cl  Cl19  1  0.003419  0.796602  0.674714  1
  Cl  Cl20  1  0.485401  0.679340  0.174123  1
  Cl  Cl21  1  0.514599  0.179340  0.325877  1
  Cl  Cl22  1  0.514599  0.320660  0.825877  1
  Cl  Cl23  1  0.485401  0.820660  0.674123  1
  Cl  Cl24  1  0.022191  0.925577  0.377078  1
  Cl  Cl25  1  0.977809  0.425577  0.122922  1
  Cl  Cl26  1  0.977809  0.074423  0.622922  1
  Cl  Cl27  1  0.022191  0.574423  0.877078  1
  Cl  Cl28  1  0.543294  0.912208  0.376040  1
  Cl  Cl29  1  0.456706  0.412208  0.123960  1
  Cl  Cl30  1  0.456706  0.087792  0.623960  1
  Cl  Cl31  1  0.543294  0.587792  0.876040  1
  Cl  Cl32  1  0.053496  0.974562  0.134690  1
  Cl  Cl33  1  0.946504  0.474562  0.365310  1
  Cl  Cl34  1  0.946504  0.025438  0.865310  1
  Cl  Cl35  1  0.053496  0.525438  0.634690  1
  Cl  Cl36  1  0.534733  0.942931  0.130402  1
  Cl  Cl37  1  0.465267  0.442931  0.369598  1
  Cl  Cl38  1  0.465267  0.057069  0.869598  1
  Cl  Cl39  1  0.534733  0.557069  0.630402  1
