# generated using pymatgen
data_Co3H2Se3O10
_symmetry_space_group_name_H-M   'P 1'
_cell_length_a   8.23072846
_cell_length_b   8.35265970
_cell_length_c   8.67994139
_cell_angle_alpha   69.00577051
_cell_angle_beta   63.09934600
_cell_angle_gamma   67.55651024
_symmetry_Int_Tables_number   1
_chemical_formula_structural   Co3H2Se3O10
_chemical_formula_sum   'Co6 H4 Se6 O20'
_cell_volume   479.23003549
_cell_formula_units_Z   2
loop_
 _symmetry_equiv_pos_site_id
 _symmetry_equiv_pos_as_xyz
  1  'x, y, z'
loop_
 _atom_site_type_symbol
 _atom_site_label
 _atom_site_symmetry_multiplicity
 _atom_site_fract_x
 _atom_site_fract_y
 _atom_site_fract_z
 _atom_site_occupancy
  Co  Co0  1  0.000000  0.000000  0.000000  1
  Co  Co1  1  0.500000  0.500000  0.500000  1
  Co  Co2  1  0.654121  0.034608  0.800995  1
  Co  Co3  1  0.345879  0.965392  0.199005  1
  Co  Co4  1  0.716586  0.856838  0.391182  1
  Co  Co5  1  0.283414  0.143162  0.608818  1
  H  H6  1  0.032608  0.873646  0.694418  1
  H  H7  1  0.967392  0.126354  0.305582  1
  H  H8  1  0.941594  0.812828  0.599369  1
  H  H9  1  0.058406  0.187172  0.400631  1
  Se  Se10  1  0.569962  0.233067  0.239530  1
  Se  Se11  1  0.430038  0.766933  0.760470  1
  Se  Se12  1  0.794951  0.669077  0.068560  1
  Se  Se13  1  0.205049  0.330923  0.931440  1
  Se  Se14  1  0.171870  0.674381  0.299896  1
  Se  Se15  1  0.828130  0.325619  0.700104  1
  O  O16  1  0.305749  0.715996  0.381339  1
  O  O17  1  0.694251  0.284004  0.618661  1
  O  O18  1  0.547546  0.694950  0.562016  1
  O  O19  1  0.452454  0.305050  0.437984  1
  O  O20  1  0.208183  0.898499  0.755515  1
  O  O21  1  0.791817  0.101501  0.244485  1
  O  O22  1  0.532790  0.945743  0.673811  1
  O  O23  1  0.467210  0.054257  0.326189  1
  O  O24  1  0.946858  0.732320  0.455807  1
  O  O25  1  0.053142  0.267680  0.544193  1
  O  O26  1  0.706159  0.516142  0.250763  1
  O  O27  1  0.293841  0.483858  0.749237  1
  O  O28  1  0.597100  0.829068  0.029968  1
  O  O29  1  0.402900  0.170932  0.970032  1
  O  O30  1  0.867760  0.785101  0.149206  1
  O  O31  1  0.132240  0.214899  0.850794  1
  O  O32  1  0.190833  0.860947  0.122002  1
  O  O33  1  0.809167  0.139053  0.877998  1
  O  O34  1  0.913439  0.870252  0.695977  1
  O  O35  1  0.086561  0.129748  0.304023  1
