# generated using pymatgen
data_CsHSO4
_symmetry_space_group_name_H-M   'P 1'
_cell_length_a   5.60325247
_cell_length_b   5.94645815
_cell_length_c   7.29717513
_cell_angle_alpha   90.00000000
_cell_angle_beta   100.15598791
_cell_angle_gamma   90.00000000
_symmetry_Int_Tables_number   1
_chemical_formula_structural   CsHSO4
_chemical_formula_sum   'Cs2 H2 S2 O8'
_cell_volume   239.32862324
_cell_formula_units_Z   2
loop_
 _symmetry_equiv_pos_site_id
 _symmetry_equiv_pos_as_xyz
  1  'x, y, z'
loop_
 _atom_site_type_symbol
 _atom_site_label
 _atom_site_symmetry_multiplicity
 _atom_site_fract_x
 _atom_site_fract_y
 _atom_site_fract_z
 _atom_site_occupancy
  Cs  Cs0  1  0.986150  0.250000  0.284715  1
  Cs  Cs1  1  0.013850  0.750000  0.715285  1
  H  H2  1  0.500000  0.500000  0.000000  1
  H  H3  1  0.500000  0.000000  0.000000  1
  S  S4  1  0.454363  0.750000  0.240659  1
  S  S5  1  0.545637  0.250000  0.759341  1
  O  O6  1  0.622335  0.456736  0.883150  1
  O  O7  1  0.377665  0.543264  0.116850  1
  O  O8  1  0.312598  0.750000  0.389222  1
  O  O9  1  0.622335  0.043264  0.883150  1
  O  O10  1  0.377665  0.956736  0.116850  1
  O  O11  1  0.281985  0.250000  0.701292  1
  O  O12  1  0.687402  0.250000  0.610778  1
  O  O13  1  0.718015  0.750000  0.298708  1
