# generated using pymatgen
data_NaI(OF)2
_symmetry_space_group_name_H-M   'P 1'
_cell_length_a   5.19798345
_cell_length_b   5.19798345
_cell_length_c   7.35419284
_cell_angle_alpha   90.00000000
_cell_angle_beta   90.00000000
_cell_angle_gamma   93.01534547
_symmetry_Int_Tables_number   1
_chemical_formula_structural   NaI(OF)2
_chemical_formula_sum   'Na2 I2 O4 F4'
_cell_volume   198.42806292
_cell_formula_units_Z   2
loop_
 _symmetry_equiv_pos_site_id
 _symmetry_equiv_pos_as_xyz
  1  'x, y, z'
loop_
 _atom_site_type_symbol
 _atom_site_label
 _atom_site_symmetry_multiplicity
 _atom_site_fract_x
 _atom_site_fract_y
 _atom_site_fract_z
 _atom_site_occupancy
  Na  Na0  1  0.000000  0.000000  0.500000  1
  Na  Na1  1  0.000000  0.000000  0.000000  1
  I  I2  1  0.540218  0.459782  0.750000  1
  I  I3  1  0.459782  0.540218  0.250000  1
  O  O4  1  0.688843  0.311157  0.558019  1
  O  O5  1  0.688843  0.311157  0.941981  1
  O  O6  1  0.311157  0.688843  0.441981  1
  O  O7  1  0.311157  0.688843  0.058019  1
  F  F8  1  0.755761  0.823338  0.250000  1
  F  F9  1  0.176662  0.244239  0.250000  1
  F  F10  1  0.823338  0.755761  0.750000  1
  F  F11  1  0.244239  0.176662  0.750000  1
