# generated using pymatgen
data_CaFeSbAs2O7
_symmetry_space_group_name_H-M   'P 1'
_cell_length_a   12.84812537
_cell_length_b   12.84812537
_cell_length_c   12.84812537
_cell_angle_alpha   100.40021602
_cell_angle_beta   100.40021602
_cell_angle_gamma   129.71388787
_symmetry_Int_Tables_number   1
_chemical_formula_structural   CaFeSbAs2O7
_chemical_formula_sum   'Ca8 Fe8 Sb8 As16 O56'
_cell_volume   1476.90389147
_cell_formula_units_Z   8
loop_
 _symmetry_equiv_pos_site_id
 _symmetry_equiv_pos_as_xyz
  1  'x, y, z'
loop_
 _atom_site_type_symbol
 _atom_site_label
 _atom_site_symmetry_multiplicity
 _atom_site_fract_x
 _atom_site_fract_y
 _atom_site_fract_z
 _atom_site_occupancy
  Ca  Ca0  1  0.587596  0.048235  0.839916  1
  Ca  Ca1  1  0.298235  0.958319  0.960639  1
  Ca  Ca2  1  0.252320  0.412404  0.460639  1
  Ca  Ca3  1  0.951765  0.791681  0.539361  1
  Ca  Ca4  1  0.662404  0.701765  0.660084  1
  Ca  Ca5  1  0.041681  0.002320  0.339916  1
  Ca  Ca6  1  0.997680  0.337596  0.039361  1
  Ca  Ca7  1  0.208319  0.747680  0.160084  1
  Fe  Fe8  1  0.381335  0.609717  0.754641  1
  Fe  Fe9  1  0.855076  0.626694  0.245359  1
  Fe  Fe10  1  0.373306  0.618665  0.228382  1
  Fe  Fe11  1  0.859717  0.605076  0.728382  1
  Fe  Fe12  1  0.876694  0.131335  0.271618  1
  Fe  Fe13  1  0.868665  0.140283  0.745359  1
  Fe  Fe14  1  0.390283  0.144924  0.771618  1
  Fe  Fe15  1  0.394924  0.123306  0.254641  1
  Sb  Sb16  1  0.184132  0.185123  0.648890  1
  Sb  Sb17  1  0.536234  0.535242  0.351110  1
  Sb  Sb18  1  0.065868  0.564877  0.851110  1
  Sb  Sb19  1  0.464758  0.815868  0.000992  1
  Sb  Sb20  1  0.713766  0.214758  0.148890  1
  Sb  Sb21  1  0.785242  0.934132  0.499008  1
  Sb  Sb22  1  0.814877  0.463766  0.999008  1
  Sb  Sb23  1  0.435123  0.286234  0.500992  1
  As  As24  1  0.588793  0.519816  0.833623  1
  As  As25  1  0.238083  0.776910  0.668361  1
  As  As26  1  0.141451  0.180278  0.168361  1
  As  As27  1  0.005170  0.338793  0.568977  1
  As  As28  1  0.819722  0.988083  0.961173  1
  As  As29  1  0.686193  0.755170  0.166377  1
  As  As30  1  0.480184  0.313807  0.068977  1
  As  As31  1  0.430278  0.761917  0.538827  1
  As  As32  1  0.769816  0.436193  0.431023  1
  As  As33  1  0.563807  0.994830  0.333623  1
  As  As34  1  0.011917  0.973090  0.831639  1
  As  As35  1  0.026910  0.858549  0.038827  1
  As  As36  1  0.661207  0.230184  0.666377  1
  As  As37  1  0.108549  0.569722  0.331639  1
  As  As38  1  0.223090  0.891451  0.461173  1
  As  As39  1  0.244830  0.411207  0.931023  1
  O  O40  1  0.054946  0.832790  0.380343  1
  O  O41  1  0.023744  0.980164  0.136155  1
  O  O42  1  0.386700  0.547757  0.346142  1
  O  O43  1  0.436036  0.005965  0.269568  1
  O  O44  1  0.797757  0.951615  0.661057  1
  O  O45  1  0.959442  0.613300  0.161057  1
  O  O46  1  0.430332  0.322975  0.759488  1
  O  O47  1  0.513603  0.583532  0.769568  1
  O  O48  1  0.975510  0.991300  0.514443  1
  O  O49  1  0.416468  0.186036  0.930071  1
  O  O50  1  0.008700  0.523143  0.984210  1
  O  O51  1  0.994035  0.263603  0.430071  1
  O  O52  1  0.226256  0.769836  0.363845  1
  O  O53  1  0.290558  0.136700  0.338943  1
  O  O54  1  0.924602  0.804946  0.722155  1
  O  O55  1  0.811814  0.946269  0.261757  1
  O  O56  1  0.405992  0.862412  0.636155  1
  O  O57  1  0.686513  0.079156  0.259488  1
  O  O58  1  0.325398  0.945054  0.777845  1
  O  O59  1  0.195054  0.917210  0.119657  1
  O  O60  1  0.677025  0.436513  0.107357  1
  O  O61  1  0.844008  0.887588  0.863845  1
  O  O62  1  0.813964  0.744035  0.230432  1
  O  O63  1  0.797553  0.075398  0.880343  1
  O  O64  1  0.565488  0.199943  0.761757  1
  O  O65  1  0.241300  0.226857  0.515790  1
  O  O66  1  0.476857  0.461067  0.485557  1
  O  O67  1  0.196269  0.434512  0.634455  1
  O  O68  1  0.538933  0.024490  0.015790  1
  O  O69  1  0.137588  0.773744  0.543580  1
  O  O70  1  0.274490  0.758700  0.985557  1
  O  O71  1  0.572975  0.313487  0.392643  1
  O  O72  1  0.053731  0.315488  0.865545  1
  O  O73  1  0.230164  0.594008  0.456420  1
  O  O74  1  0.255965  0.486397  0.069929  1
  O  O75  1  0.329156  0.569668  0.892643  1
  O  O76  1  0.863300  0.202243  0.153858  1
  O  O77  1  0.449943  0.188186  0.134455  1
  O  O78  1  0.800057  0.561814  0.365545  1
  O  O79  1  0.048385  0.709442  0.846142  1
  O  O80  1  0.819668  0.427025  0.740512  1
  O  O81  1  0.201615  0.040558  0.653858  1
  O  O82  1  0.711067  0.725510  0.484210  1
  O  O83  1  0.920844  0.180332  0.607357  1
  O  O84  1  0.438186  0.803731  0.238243  1
  O  O85  1  0.452447  0.674602  0.619657  1
  O  O86  1  0.684512  0.550057  0.738243  1
  O  O87  1  0.019836  0.155992  0.043580  1
  O  O88  1  0.736397  0.166468  0.730432  1
  O  O89  1  0.563487  0.670844  0.240512  1
  O  O90  1  0.082790  0.202447  0.277845  1
  O  O91  1  0.167210  0.547553  0.222155  1
  O  O92  1  0.452243  0.798385  0.838943  1
  O  O93  1  0.112412  0.976256  0.956420  1
  O  O94  1  0.773143  0.288933  0.014443  1
  O  O95  1  0.833532  0.563964  0.569929  1
