# generated using pymatgen
data_Zn2TeCl2O3
_symmetry_space_group_name_H-M   'P 1'
_cell_length_a   7.76250743
_cell_length_b   10.64461249
_cell_length_c   15.86387116
_cell_angle_alpha   90.00000000
_cell_angle_beta   90.00000000
_cell_angle_gamma   90.00000000
_symmetry_Int_Tables_number   1
_chemical_formula_structural   Zn2TeCl2O3
_chemical_formula_sum   'Zn16 Te8 Cl16 O24'
_cell_volume   1310.81396262
_cell_formula_units_Z   8
loop_
 _symmetry_equiv_pos_site_id
 _symmetry_equiv_pos_as_xyz
  1  'x, y, z'
loop_
 _atom_site_type_symbol
 _atom_site_label
 _atom_site_symmetry_multiplicity
 _atom_site_fract_x
 _atom_site_fract_y
 _atom_site_fract_z
 _atom_site_occupancy
  Zn  Zn0  1  0.897687  0.237513  0.475175  1
  Zn  Zn1  1  0.658959  0.005944  0.389847  1
  Zn  Zn2  1  0.602313  0.762487  0.975175  1
  Zn  Zn3  1  0.897687  0.262487  0.024825  1
  Zn  Zn4  1  0.841041  0.994056  0.889847  1
  Zn  Zn5  1  0.341041  0.994056  0.610153  1
  Zn  Zn6  1  0.102313  0.737513  0.975175  1
  Zn  Zn7  1  0.658959  0.494056  0.110153  1
  Zn  Zn8  1  0.397687  0.262487  0.475175  1
  Zn  Zn9  1  0.841041  0.505944  0.610153  1
  Zn  Zn10  1  0.158959  0.494056  0.389847  1
  Zn  Zn11  1  0.102313  0.762487  0.524825  1
  Zn  Zn12  1  0.397687  0.237513  0.024825  1
  Zn  Zn13  1  0.602313  0.737513  0.524825  1
  Zn  Zn14  1  0.341041  0.505944  0.889847  1
  Zn  Zn15  1  0.158959  0.005944  0.110153  1
  Te  Te16  1  0.292837  0.971588  0.902669  1
  Te  Te17  1  0.792837  0.528412  0.902669  1
  Te  Te18  1  0.707163  0.471588  0.402669  1
  Te  Te19  1  0.207163  0.028412  0.402669  1
  Te  Te20  1  0.707163  0.028412  0.097331  1
  Te  Te21  1  0.292837  0.528412  0.597331  1
  Te  Te22  1  0.207163  0.471588  0.097331  1
  Te  Te23  1  0.792837  0.971588  0.597331  1
  Cl  Cl24  1  0.332638  0.080074  0.210764  1
  Cl  Cl25  1  0.419797  0.202867  0.620292  1
  Cl  Cl26  1  0.167362  0.919926  0.710764  1
  Cl  Cl27  1  0.419797  0.297133  0.879708  1
  Cl  Cl28  1  0.832638  0.419926  0.210764  1
  Cl  Cl29  1  0.667362  0.580074  0.710764  1
  Cl  Cl30  1  0.332638  0.419926  0.289236  1
  Cl  Cl31  1  0.080203  0.797133  0.120292  1
  Cl  Cl32  1  0.667362  0.919926  0.789236  1
  Cl  Cl33  1  0.167362  0.580074  0.789236  1
  Cl  Cl34  1  0.580203  0.797133  0.379708  1
  Cl  Cl35  1  0.080203  0.702867  0.379708  1
  Cl  Cl36  1  0.832638  0.080074  0.289236  1
  Cl  Cl37  1  0.919797  0.297133  0.620292  1
  Cl  Cl38  1  0.919797  0.202867  0.879708  1
  Cl  Cl39  1  0.580203  0.702867  0.120292  1
  O  O40  1  0.195186  0.558292  0.990195  1
  O  O41  1  0.936708  0.412156  0.416568  1
  O  O42  1  0.142023  0.310869  0.056584  1
  O  O43  1  0.304814  0.441708  0.490195  1
  O  O44  1  0.857977  0.689131  0.943416  1
  O  O45  1  0.857977  0.810869  0.556584  1
  O  O46  1  0.563292  0.587844  0.916568  1
  O  O47  1  0.804814  0.058292  0.490195  1
  O  O48  1  0.142023  0.189131  0.443416  1
  O  O49  1  0.357977  0.810869  0.943416  1
  O  O50  1  0.063292  0.912156  0.916568  1
  O  O51  1  0.936708  0.087844  0.083432  1
  O  O52  1  0.695186  0.558292  0.509805  1
  O  O53  1  0.357977  0.689131  0.556584  1
  O  O54  1  0.063292  0.587844  0.583432  1
  O  O55  1  0.304814  0.058292  0.009805  1
  O  O56  1  0.642023  0.310869  0.443416  1
  O  O57  1  0.642023  0.189131  0.056584  1
  O  O58  1  0.804814  0.441708  0.009805  1
  O  O59  1  0.695186  0.941708  0.990195  1
  O  O60  1  0.195186  0.941708  0.509805  1
  O  O61  1  0.436708  0.087844  0.416568  1
  O  O62  1  0.563292  0.912156  0.583432  1
  O  O63  1  0.436708  0.412156  0.083432  1
