# generated using pymatgen
data_ReO2F3
_symmetry_space_group_name_H-M   'P 1'
_cell_length_a   5.72555445
_cell_length_b   5.09844173
_cell_length_c   13.08906554
_cell_angle_alpha   90.00000000
_cell_angle_beta   99.55206102
_cell_angle_gamma   90.00000000
_symmetry_Int_Tables_number   1
_chemical_formula_structural   ReO2F3
_chemical_formula_sum   'Re4 O8 F12'
_cell_volume   376.79065626
_cell_formula_units_Z   4
loop_
 _symmetry_equiv_pos_site_id
 _symmetry_equiv_pos_as_xyz
  1  'x, y, z'
loop_
 _atom_site_type_symbol
 _atom_site_label
 _atom_site_symmetry_multiplicity
 _atom_site_fract_x
 _atom_site_fract_y
 _atom_site_fract_z
 _atom_site_occupancy
  Re  Re0  1  0.675658  0.709695  0.362847  1
  Re  Re1  1  0.324342  0.209695  0.137153  1
  Re  Re2  1  0.675658  0.790305  0.862847  1
  Re  Re3  1  0.324342  0.290305  0.637153  1
  O  O4  1  0.831013  0.432583  0.402327  1
  O  O5  1  0.168987  0.567417  0.597673  1
  O  O6  1  0.743951  0.591650  0.968244  1
  O  O7  1  0.831013  0.067417  0.902327  1
  O  O8  1  0.743951  0.908350  0.468244  1
  O  O9  1  0.168987  0.932583  0.097673  1
  O  O10  1  0.256049  0.091650  0.531756  1
  O  O11  1  0.256049  0.408350  0.031756  1
  F  F12  1  0.885200  0.655241  0.781539  1
  F  F13  1  0.538700  0.986699  0.718677  1
  F  F14  1  0.885200  0.844759  0.281539  1
  F  F15  1  0.621858  0.103727  0.110825  1
  F  F16  1  0.461300  0.013301  0.281323  1
  F  F17  1  0.114800  0.344759  0.218461  1
  F  F18  1  0.461300  0.486699  0.781323  1
  F  F19  1  0.378142  0.896273  0.889175  1
  F  F20  1  0.538700  0.513301  0.218677  1
  F  F21  1  0.114800  0.155241  0.718461  1
  F  F22  1  0.621858  0.396273  0.610825  1
  F  F23  1  0.378142  0.603727  0.389175  1
