# generated using pymatgen
data_AgPS3
_symmetry_space_group_name_H-M   'P 1'
_cell_length_a   6.59845964
_cell_length_b   6.59845964
_cell_length_c   7.68219811
_cell_angle_alpha   61.07196066
_cell_angle_beta   118.92803934
_cell_angle_gamma   112.93944845
_symmetry_Int_Tables_number   1
_chemical_formula_structural   AgPS3
_chemical_formula_sum   'Ag2 P2 S6'
_cell_volume   250.86575783
_cell_formula_units_Z   2
loop_
 _symmetry_equiv_pos_site_id
 _symmetry_equiv_pos_as_xyz
  1  'x, y, z'
loop_
 _atom_site_type_symbol
 _atom_site_label
 _atom_site_symmetry_multiplicity
 _atom_site_fract_x
 _atom_site_fract_y
 _atom_site_fract_z
 _atom_site_occupancy
  Ag  Ag0  1  0.253807  0.253807  0.000000  1
  Ag  Ag1  1  0.746193  0.746193  0.000000  1
  P  P2  1  0.355462  0.644538  0.292592  1
  P  P3  1  0.644538  0.355462  0.707408  1
  S  S4  1  0.671112  0.328888  0.990511  1
  S  S5  1  0.328888  0.671112  0.009489  1
  S  S6  1  0.714159  0.714159  0.500000  1
  S  S7  1  0.285841  0.285841  0.500000  1
  S  S8  1  0.831927  0.168073  0.718998  1
  S  S9  1  0.168073  0.831927  0.281002  1
