# generated using pymatgen
data_Sr(BrO3)2
_symmetry_space_group_name_H-M   'P 1'
_cell_length_a   7.18664542
_cell_length_b   7.18664542
_cell_length_c   7.53503767
_cell_angle_alpha   74.60718736
_cell_angle_beta   105.39281264
_cell_angle_gamma   65.31541131
_symmetry_Int_Tables_number   1
_chemical_formula_structural   Sr(BrO3)2
_chemical_formula_sum   'Sr2 Br4 O12'
_cell_volume   307.86948631
_cell_formula_units_Z   2
loop_
 _symmetry_equiv_pos_site_id
 _symmetry_equiv_pos_as_xyz
  1  'x, y, z'
loop_
 _atom_site_type_symbol
 _atom_site_label
 _atom_site_symmetry_multiplicity
 _atom_site_fract_x
 _atom_site_fract_y
 _atom_site_fract_z
 _atom_site_occupancy
  Sr  Sr0  1  0.613910  0.627500  0.991507  1
  Sr  Sr1  1  0.372500  0.386090  0.491507  1
  Br  Br2  1  0.222371  0.407872  0.954599  1
  Br  Br3  1  0.592128  0.777629  0.454599  1
  Br  Br4  1  0.888547  0.973225  0.028532  1
  Br  Br5  1  0.026775  0.111453  0.528532  1
  O  O6  1  0.365270  0.470952  0.123352  1
  O  O7  1  0.529048  0.634730  0.623352  1
  O  O8  1  0.475796  0.747692  0.247507  1
  O  O9  1  0.252308  0.524204  0.747507  1
  O  O10  1  0.950101  0.582023  0.898429  1
  O  O11  1  0.417977  0.049899  0.398429  1
  O  O12  1  0.631229  0.017961  0.893615  1
  O  O13  1  0.982039  0.368771  0.393615  1
  O  O14  1  0.231260  0.020996  0.758433  1
  O  O15  1  0.979004  0.768740  0.258433  1
  O  O16  1  0.831802  0.204666  0.070327  1
  O  O17  1  0.795334  0.168198  0.570327  1
