# generated using pymatgen
data_LiNb3(Bi2O7)2
_symmetry_space_group_name_H-M   'P 1'
_cell_length_a   7.69466370
_cell_length_b   7.69466370
_cell_length_c   12.25300229
_cell_angle_alpha   80.05054766
_cell_angle_beta   99.94945234
_cell_angle_gamma   119.15122599
_symmetry_Int_Tables_number   1
_chemical_formula_structural   LiNb3(Bi2O7)2
_chemical_formula_sum   'Li2 Nb6 Bi8 O28'
_cell_volume   620.73428657
_cell_formula_units_Z   2
loop_
 _symmetry_equiv_pos_site_id
 _symmetry_equiv_pos_as_xyz
  1  'x, y, z'
loop_
 _atom_site_type_symbol
 _atom_site_label
 _atom_site_symmetry_multiplicity
 _atom_site_fract_x
 _atom_site_fract_y
 _atom_site_fract_z
 _atom_site_occupancy
  Li  Li0  1  0.466978  0.466978  0.750000  1
  Li  Li1  1  0.533022  0.533022  0.250000  1
  Nb  Nb2  1  0.379026  0.874152  0.739600  1
  Nb  Nb3  1  0.874152  0.379026  0.760400  1
  Nb  Nb4  1  0.128760  0.128760  0.250000  1
  Nb  Nb5  1  0.125848  0.620974  0.239600  1
  Nb  Nb6  1  0.620974  0.125848  0.260400  1
  Nb  Nb7  1  0.871240  0.871240  0.750000  1
  Bi  Bi8  1  0.507496  0.275599  0.505678  1
  Bi  Bi9  1  0.258282  0.023983  0.976738  1
  Bi  Bi10  1  0.741718  0.976017  0.023262  1
  Bi  Bi11  1  0.275599  0.507496  0.994322  1
  Bi  Bi12  1  0.976017  0.741718  0.476738  1
  Bi  Bi13  1  0.492504  0.724401  0.494322  1
  Bi  Bi14  1  0.023983  0.258282  0.523262  1
  Bi  Bi15  1  0.724401  0.492504  0.005678  1
  O  O16  1  0.851697  0.859979  0.584167  1
  O  O17  1  0.422704  0.384869  0.910854  1
  O  O18  1  0.140021  0.148303  0.084167  1
  O  O19  1  0.732377  0.151515  0.414050  1
  O  O20  1  0.556236  0.149474  0.086524  1
  O  O21  1  0.384869  0.422704  0.589146  1
  O  O22  1  0.146508  0.923849  0.771294  1
  O  O23  1  0.148303  0.140021  0.415833  1
  O  O24  1  0.848485  0.267623  0.914050  1
  O  O25  1  0.923849  0.146508  0.728706  1
  O  O26  1  0.443764  0.850526  0.913476  1
  O  O27  1  0.076151  0.853492  0.271294  1
  O  O28  1  0.577296  0.615131  0.089146  1
  O  O29  1  0.440990  0.226740  0.281350  1
  O  O30  1  0.149474  0.556236  0.413476  1
  O  O31  1  0.850526  0.443764  0.586524  1
  O  O32  1  0.773260  0.559010  0.781350  1
  O  O33  1  0.559010  0.773260  0.718650  1
  O  O34  1  0.440790  0.848520  0.283273  1
  O  O35  1  0.559210  0.151480  0.716727  1
  O  O36  1  0.226740  0.440990  0.218650  1
  O  O37  1  0.151480  0.559210  0.783273  1
  O  O38  1  0.267623  0.848485  0.585950  1
  O  O39  1  0.615131  0.577296  0.410854  1
  O  O40  1  0.859979  0.851697  0.915833  1
  O  O41  1  0.848520  0.440790  0.216727  1
  O  O42  1  0.151515  0.732377  0.085950  1
  O  O43  1  0.853492  0.076151  0.228706  1
