# generated using pymatgen
data_Pr10S14O
_symmetry_space_group_name_H-M   'P 1'
_cell_length_a   14.79030780
_cell_length_b   14.79030780
_cell_length_c   14.79030780
_cell_angle_alpha   117.87926565
_cell_angle_beta   117.87926565
_cell_angle_gamma   93.71422557
_symmetry_Int_Tables_number   1
_chemical_formula_structural   Pr10S14O
_chemical_formula_sum   'Pr40 S56 O4'
_cell_volume   2355.77294345
_cell_formula_units_Z   4
loop_
 _symmetry_equiv_pos_site_id
 _symmetry_equiv_pos_as_xyz
  1  'x, y, z'
loop_
 _atom_site_type_symbol
 _atom_site_label
 _atom_site_symmetry_multiplicity
 _atom_site_fract_x
 _atom_site_fract_y
 _atom_site_fract_z
 _atom_site_occupancy
  Pr  Pr0  1  0.365259  0.865259  0.230517  1
  Pr  Pr1  1  0.176394  0.815126  0.626106  1
  Pr  Pr2  1  0.134741  0.365259  0.500000  1
  Pr  Pr3  1  0.689021  0.315126  0.638732  1
  Pr  Pr4  1  0.449152  0.543772  0.649556  1
  Pr  Pr5  1  0.949712  0.310979  0.626106  1
  Pr  Pr6  1  0.573606  0.434874  0.873894  1
  Pr  Pr7  1  0.300848  0.706228  0.850444  1
  Pr  Pr8  1  0.355785  0.206228  0.405381  1
  Pr  Pr9  1  0.800288  0.939021  0.873894  1
  Pr  Pr10  1  0.634741  0.134741  0.769483  1
  Pr  Pr11  1  0.684874  0.323606  0.373894  1
  Pr  Pr12  1  0.293772  0.144215  0.594619  1
  Pr  Pr13  1  0.565126  0.439021  0.138732  1
  Pr  Pr14  1  0.073606  0.199712  0.138732  1
  Pr  Pr15  1  0.793772  0.199152  0.149556  1
  Pr  Pr16  1  0.184874  0.810979  0.361268  1
  Pr  Pr17  1  0.189021  0.550288  0.373894  1
  Pr  Pr18  1  0.394215  0.043772  0.094619  1
  Pr  Pr19  1  0.300288  0.426394  0.861268  1
  Pr  Pr20  1  0.956228  0.050848  0.350444  1
  Pr  Pr21  1  0.549596  0.699152  0.405381  1
  Pr  Pr22  1  0.115259  0.115259  0.730517  1
  Pr  Pr23  1  0.065126  0.926394  0.126106  1
  Pr  Pr24  1  0.615259  0.884741  0.000000  1
  Pr  Pr25  1  0.449712  0.823606  0.638732  1
  Pr  Pr26  1  0.855785  0.450404  0.149556  1
  Pr  Pr27  1  0.700404  0.605785  0.649556  1
  Pr  Pr28  1  0.800848  0.950404  0.594619  1
  Pr  Pr29  1  0.456228  0.105785  0.905381  1
  Pr  Pr30  1  0.200404  0.550848  0.094619  1
  Pr  Pr31  1  0.949152  0.299596  0.905381  1
  Pr  Pr32  1  0.884741  0.615259  1.000000  1
  Pr  Pr33  1  0.049596  0.644215  0.850444  1
  Pr  Pr34  1  0.865259  0.634741  0.500000  1
  Pr  Pr35  1  0.560979  0.699712  0.126106  1
  Pr  Pr36  1  0.384741  0.384741  0.269483  1
  Pr  Pr37  1  0.894215  0.799596  0.350444  1
  Pr  Pr38  1  0.060979  0.934874  0.861268  1
  Pr  Pr39  1  0.676394  0.050288  0.361268  1
  S  S40  1  0.995343  0.103607  0.842648  1
  S  S41  1  0.125000  0.227450  0.602450  1
  S  S42  1  0.665286  0.524267  0.782577  1
  S  S43  1  0.274267  0.991691  0.358981  1
  S  S44  1  0.209142  0.874660  0.020224  1
  S  S45  1  0.438918  0.604436  0.479776  1
  S  S46  1  0.124660  0.959142  0.520224  1
  S  S47  1  0.125340  0.145564  0.334483  1
  S  S48  1  0.260959  0.152695  0.157352  1
  S  S49  1  0.117291  0.334714  0.858981  1
  S  S50  1  0.902695  0.245343  0.391736  1
  S  S51  1  0.625000  0.522550  0.397550  1
  S  S52  1  0.895564  0.061082  0.520224  1
  S  S53  1  0.353607  0.745343  0.342648  1
  S  S54  1  0.084714  0.725733  0.717423  1
  S  S55  1  0.241691  0.024267  0.858981  1
  S  S56  1  0.040858  0.561082  0.165517  1
  S  S57  1  0.402695  0.010959  0.657352  1
  S  S58  1  0.347305  0.239041  0.842648  1
  S  S59  1  0.625340  0.290858  0.979776  1
  S  S60  1  0.008309  0.367291  0.282577  1
  S  S61  1  0.125000  0.727450  0.102450  1
  S  S62  1  0.311082  0.645564  0.020224  1
  S  S63  1  0.477450  0.875000  0.102450  1
  S  S64  1  0.540858  0.375340  0.479776  1
  S  S65  1  0.811082  0.790858  0.665517  1
  S  S66  1  0.938918  0.459142  0.834483  1
  S  S67  1  0.624660  0.104436  0.165517  1
  S  S68  1  0.772550  0.375000  0.897550  1
  S  S69  1  0.395564  0.875340  0.834483  1
  S  S70  1  0.853607  0.510959  0.608264  1
  S  S71  1  0.165286  0.382709  0.141019  1
  S  S72  1  0.475733  0.258309  0.141019  1
  S  S73  1  0.132709  0.491691  0.717423  1
  S  S74  1  0.508309  0.225733  0.641019  1
  S  S75  1  0.272550  0.375000  0.397550  1
  S  S76  1  0.495343  0.652695  0.891736  1
  S  S77  1  0.989041  0.646393  0.391736  1
  S  S78  1  0.709142  0.688918  0.334483  1
  S  S79  1  0.741691  0.882709  0.217423  1
  S  S80  1  0.896393  0.739041  0.891736  1
  S  S81  1  0.489041  0.097305  0.342648  1
  S  S82  1  0.847305  0.004657  0.108264  1
  S  S83  1  0.584714  0.867291  0.358981  1
  S  S84  1  0.354436  0.374660  0.665517  1
  S  S85  1  0.760959  0.603607  0.108264  1
  S  S86  1  0.396393  0.504657  0.157352  1
  S  S87  1  0.754657  0.146393  0.657352  1
  S  S88  1  0.977450  0.875000  0.602450  1
  S  S89  1  0.975733  0.834714  0.217423  1
  S  S90  1  0.632709  0.915286  0.641019  1
  S  S91  1  0.617291  0.758309  0.782577  1
  S  S92  1  0.625000  0.022550  0.897550  1
  S  S93  1  0.854436  0.188918  0.979776  1
  S  S94  1  0.774267  0.415286  0.282577  1
  S  S95  1  0.254657  0.597305  0.608264  1
  O  O96  1  1.000000  1.000000  0.000000  1
  O  O97  1  0.750000  0.250000  0.500000  1
  O  O98  1  0.500000  0.500000  0.000000  1
  O  O99  1  0.250000  0.750000  0.500000  1
