# generated using pymatgen
data_Ca5As3O12F
_symmetry_space_group_name_H-M   'P 1'
_cell_length_a   7.04169879
_cell_length_b   9.78123965
_cell_length_c   9.83988358
_cell_angle_alpha   119.69218134
_cell_angle_beta   91.32335846
_cell_angle_gamma   89.35367633
_symmetry_Int_Tables_number   1
_chemical_formula_structural   Ca5As3O12F
_chemical_formula_sum   'Ca10 As6 O24 F2'
_cell_volume   588.59263763
_cell_formula_units_Z   2
loop_
 _symmetry_equiv_pos_site_id
 _symmetry_equiv_pos_as_xyz
  1  'x, y, z'
loop_
 _atom_site_type_symbol
 _atom_site_label
 _atom_site_symmetry_multiplicity
 _atom_site_fract_x
 _atom_site_fract_y
 _atom_site_fract_z
 _atom_site_occupancy
  Ca  Ca0  1  0.997016  0.351780  0.691112  1
  Ca  Ca1  1  0.002984  0.648220  0.308888  1
  Ca  Ca2  1  0.760125  0.236507  0.001440  1
  Ca  Ca3  1  0.261184  0.245024  0.245988  1
  Ca  Ca4  1  0.738816  0.754976  0.754012  1
  Ca  Ca5  1  0.497447  0.685025  0.346515  1
  Ca  Ca6  1  0.502553  0.314975  0.653485  1
  Ca  Ca7  1  0.748258  0.000662  0.241963  1
  Ca  Ca8  1  0.251742  0.999338  0.758037  1
  Ca  Ca9  1  0.239875  0.763493  0.998560  1
  As  As10  1  0.241599  0.025961  0.396685  1
  As  As11  1  0.240291  0.606387  0.628799  1
  As  As12  1  0.267437  0.371306  0.973452  1
  As  As13  1  0.732563  0.628694  0.026548  1
  As  As14  1  0.758401  0.974039  0.603315  1
  As  As15  1  0.759709  0.393613  0.371201  1
  O  O16  1  0.070568  0.077583  0.303614  1
  O  O17  1  0.939924  0.735805  0.088121  1
  O  O18  1  0.548754  0.902672  0.631810  1
  O  O19  1  0.584415  0.295685  0.232923  1
  O  O20  1  0.725739  0.513493  0.826739  1
  O  O21  1  0.274261  0.486507  0.173261  1
  O  O22  1  0.753900  0.174036  0.683025  1
  O  O23  1  0.040874  0.636361  0.739421  1
  O  O24  1  0.929432  0.922417  0.696386  1
  O  O25  1  0.228139  0.682610  0.505307  1
  O  O26  1  0.060076  0.264195  0.911879  1
  O  O27  1  0.959126  0.363639  0.260579  1
  O  O28  1  0.415585  0.704315  0.767077  1
  O  O29  1  0.451246  0.097328  0.368190  1
  O  O30  1  0.785395  0.873070  0.402591  1
  O  O31  1  0.552788  0.765618  0.097201  1
  O  O32  1  0.276242  0.405375  0.530266  1
  O  O33  1  0.447212  0.234382  0.902799  1
  O  O34  1  0.246100  0.825964  0.316975  1
  O  O35  1  0.723758  0.594625  0.469734  1
  O  O36  1  0.726227  0.524068  0.125745  1
  O  O37  1  0.273773  0.475932  0.874255  1
  O  O38  1  0.214605  0.126930  0.597409  1
  O  O39  1  0.771861  0.317390  0.494693  1
  F  F40  1  0.753779  0.990684  0.997349  1
  F  F41  1  0.246221  0.009316  0.002651  1
