# generated using pymatgen
data_CsRb(MnCl3)2
_symmetry_space_group_name_H-M   'P 1'
_cell_length_a   14.66752639
_cell_length_b   14.66752639
_cell_length_c   12.11084837
_cell_angle_alpha   90.00000000
_cell_angle_beta   90.00000000
_cell_angle_gamma   120.00000000
_symmetry_Int_Tables_number   1
_chemical_formula_structural   CsRb(MnCl3)2
_chemical_formula_sum   'Cs8 Rb8 Mn16 Cl48'
_cell_volume   2256.41487857
_cell_formula_units_Z   8
loop_
 _symmetry_equiv_pos_site_id
 _symmetry_equiv_pos_as_xyz
  1  'x, y, z'
loop_
 _atom_site_type_symbol
 _atom_site_label
 _atom_site_symmetry_multiplicity
 _atom_site_fract_x
 _atom_site_fract_y
 _atom_site_fract_z
 _atom_site_occupancy
  Cs  Cs0  1  0.500000  0.000000  0.000000  1
  Cs  Cs1  1  0.666667  0.333333  0.750000  1
  Cs  Cs2  1  0.000000  0.500000  0.000000  1
  Cs  Cs3  1  0.500000  0.000000  0.500000  1
  Cs  Cs4  1  0.333333  0.666667  0.250000  1
  Cs  Cs5  1  0.500000  0.500000  0.000000  1
  Cs  Cs6  1  0.000000  0.500000  0.500000  1
  Cs  Cs7  1  0.500000  0.500000  0.500000  1
  Rb  Rb8  1  0.000000  0.000000  0.000000  1
  Rb  Rb9  1  0.166300  0.332601  0.750000  1
  Rb  Rb10  1  0.833700  0.166300  0.250000  1
  Rb  Rb11  1  0.166300  0.833700  0.750000  1
  Rb  Rb12  1  0.667399  0.833700  0.750000  1
  Rb  Rb13  1  0.000000  0.000000  0.500000  1
  Rb  Rb14  1  0.332601  0.166300  0.250000  1
  Rb  Rb15  1  0.833700  0.667399  0.250000  1
  Mn  Mn16  1  0.834046  0.668092  0.882816  1
  Mn  Mn17  1  0.668092  0.834046  0.382816  1
  Mn  Mn18  1  0.834046  0.668092  0.617184  1
  Mn  Mn19  1  0.668092  0.834046  0.117184  1
  Mn  Mn20  1  0.165954  0.331908  0.117184  1
  Mn  Mn21  1  0.165954  0.331908  0.382816  1
  Mn  Mn22  1  0.165954  0.834046  0.382816  1
  Mn  Mn23  1  0.666667  0.333333  0.117297  1
  Mn  Mn24  1  0.331908  0.165954  0.617184  1
  Mn  Mn25  1  0.165954  0.834046  0.117184  1
  Mn  Mn26  1  0.834046  0.165954  0.617184  1
  Mn  Mn27  1  0.834046  0.165954  0.882816  1
  Mn  Mn28  1  0.331908  0.165954  0.882816  1
  Mn  Mn29  1  0.333333  0.666667  0.617297  1
  Mn  Mn30  1  0.666667  0.333333  0.382703  1
  Mn  Mn31  1  0.333333  0.666667  0.882703  1
  Cl  Cl32  1  0.411170  0.822340  0.750000  1
  Cl  Cl33  1  0.000000  0.752529  0.000000  1
  Cl  Cl34  1  0.678276  0.087089  0.750000  1
  Cl  Cl35  1  0.000000  0.247471  0.500000  1
  Cl  Cl36  1  0.247471  0.000000  0.500000  1
  Cl  Cl37  1  0.249285  0.750715  0.501552  1
  Cl  Cl38  1  0.501430  0.750715  0.501552  1
  Cl  Cl39  1  0.176005  0.088003  0.750000  1
  Cl  Cl40  1  0.591187  0.678276  0.250000  1
  Cl  Cl41  1  0.249285  0.498570  0.501552  1
  Cl  Cl42  1  0.591187  0.912911  0.250000  1
  Cl  Cl43  1  0.678276  0.591187  0.750000  1
  Cl  Cl44  1  0.588830  0.177660  0.250000  1
  Cl  Cl45  1  0.000000  0.247471  0.000000  1
  Cl  Cl46  1  0.321724  0.912911  0.250000  1
  Cl  Cl47  1  0.247471  0.000000  0.000000  1
  Cl  Cl48  1  0.822340  0.411170  0.250000  1
  Cl  Cl49  1  0.501430  0.750715  0.998448  1
  Cl  Cl50  1  0.588830  0.411170  0.250000  1
  Cl  Cl51  1  0.408813  0.087089  0.750000  1
  Cl  Cl52  1  0.087089  0.678276  0.250000  1
  Cl  Cl53  1  0.750715  0.249285  0.498448  1
  Cl  Cl54  1  0.911997  0.088003  0.750000  1
  Cl  Cl55  1  0.408813  0.321724  0.750000  1
  Cl  Cl56  1  0.247471  0.247471  0.000000  1
  Cl  Cl57  1  0.752529  0.000000  0.000000  1
  Cl  Cl58  1  0.088003  0.176005  0.250000  1
  Cl  Cl59  1  0.498570  0.249285  0.001552  1
  Cl  Cl60  1  0.752529  0.000000  0.500000  1
  Cl  Cl61  1  0.247471  0.247471  0.500000  1
  Cl  Cl62  1  0.823995  0.911997  0.250000  1
  Cl  Cl63  1  0.321724  0.408813  0.250000  1
  Cl  Cl64  1  0.752529  0.752529  0.000000  1
  Cl  Cl65  1  0.088003  0.911997  0.250000  1
  Cl  Cl66  1  0.750715  0.501430  0.001552  1
  Cl  Cl67  1  0.912911  0.591187  0.750000  1
  Cl  Cl68  1  0.498570  0.249285  0.498448  1
  Cl  Cl69  1  0.249285  0.750715  0.998448  1
  Cl  Cl70  1  0.000000  0.752529  0.500000  1
  Cl  Cl71  1  0.177660  0.588830  0.750000  1
  Cl  Cl72  1  0.911997  0.823995  0.750000  1
  Cl  Cl73  1  0.087089  0.408813  0.250000  1
  Cl  Cl74  1  0.912911  0.321724  0.750000  1
  Cl  Cl75  1  0.750715  0.249285  0.001552  1
  Cl  Cl76  1  0.750715  0.501430  0.498448  1
  Cl  Cl77  1  0.411170  0.588830  0.750000  1
  Cl  Cl78  1  0.752529  0.752529  0.500000  1
  Cl  Cl79  1  0.249285  0.498570  0.998448  1
