# generated using pymatgen
data_Ba3SrNb2O9
_symmetry_space_group_name_H-M   'P 1'
_cell_length_a   6.10042685
_cell_length_b   6.10042685
_cell_length_c   16.11068613
_cell_angle_alpha   90.00000000
_cell_angle_beta   90.00000000
_cell_angle_gamma   120.00000000
_symmetry_Int_Tables_number   1
_chemical_formula_structural   Ba3SrNb2O9
_chemical_formula_sum   'Ba6 Sr2 Nb4 O18'
_cell_volume   519.23638300
_cell_formula_units_Z   2
loop_
 _symmetry_equiv_pos_site_id
 _symmetry_equiv_pos_as_xyz
  1  'x, y, z'
loop_
 _atom_site_type_symbol
 _atom_site_label
 _atom_site_symmetry_multiplicity
 _atom_site_fract_x
 _atom_site_fract_y
 _atom_site_fract_z
 _atom_site_occupancy
  Ba  Ba0  1  0.000000  0.000000  0.250000  1
  Ba  Ba1  1  0.000000  0.000000  0.750000  1
  Ba  Ba2  1  0.333333  0.666667  0.872906  1
  Ba  Ba3  1  0.666667  0.333333  0.372906  1
  Ba  Ba4  1  0.666667  0.333333  0.127094  1
  Ba  Ba5  1  0.333333  0.666667  0.627094  1
  Sr  Sr6  1  0.000000  0.000000  0.000000  1
  Sr  Sr7  1  0.000000  0.000000  0.500000  1
  Nb  Nb8  1  0.333333  0.666667  0.155825  1
  Nb  Nb9  1  0.666667  0.333333  0.655825  1
  Nb  Nb10  1  0.666667  0.333333  0.844175  1
  Nb  Nb11  1  0.333333  0.666667  0.344175  1
  O  O12  1  0.484091  0.968183  0.250000  1
  O  O13  1  0.515909  0.484091  0.750000  1
  O  O14  1  0.968183  0.484091  0.750000  1
  O  O15  1  0.031817  0.515909  0.250000  1
  O  O16  1  0.484091  0.515909  0.250000  1
  O  O17  1  0.515909  0.031817  0.750000  1
  O  O18  1  0.172353  0.344705  0.397676  1
  O  O19  1  0.827647  0.172353  0.897676  1
  O  O20  1  0.344705  0.172353  0.897676  1
  O  O21  1  0.655295  0.827647  0.397676  1
  O  O22  1  0.172353  0.827647  0.397676  1
  O  O23  1  0.827647  0.655295  0.602324  1
  O  O24  1  0.827647  0.172353  0.602324  1
  O  O25  1  0.827647  0.655295  0.897676  1
  O  O26  1  0.344705  0.172353  0.602324  1
  O  O27  1  0.655295  0.827647  0.102324  1
  O  O28  1  0.172353  0.344705  0.102324  1
  O  O29  1  0.172353  0.827647  0.102324  1
