# generated using pymatgen
data_SrZnO2
_symmetry_space_group_name_H-M   'P 1'
_cell_length_a   3.37481070
_cell_length_b   5.91786399
_cell_length_c   11.45747384
_cell_angle_alpha   90.00000000
_cell_angle_beta   90.00000000
_cell_angle_gamma   90.00000000
_symmetry_Int_Tables_number   1
_chemical_formula_structural   SrZnO2
_chemical_formula_sum   'Sr4 Zn4 O8'
_cell_volume   228.82489475
_cell_formula_units_Z   4
loop_
 _symmetry_equiv_pos_site_id
 _symmetry_equiv_pos_as_xyz
  1  'x, y, z'
loop_
 _atom_site_type_symbol
 _atom_site_label
 _atom_site_symmetry_multiplicity
 _atom_site_fract_x
 _atom_site_fract_y
 _atom_site_fract_z
 _atom_site_occupancy
  Sr  Sr0  1  0.250000  0.315693  0.632382  1
  Sr  Sr1  1  0.750000  0.684307  0.367618  1
  Sr  Sr2  1  0.250000  0.815693  0.867618  1
  Sr  Sr3  1  0.750000  0.184307  0.132382  1
  Zn  Zn4  1  0.750000  0.799770  0.629567  1
  Zn  Zn5  1  0.750000  0.299770  0.870433  1
  Zn  Zn6  1  0.250000  0.200230  0.370433  1
  Zn  Zn7  1  0.250000  0.700230  0.129567  1
  O  O8  1  0.250000  0.235802  0.960110  1
  O  O9  1  0.750000  0.764198  0.039890  1
  O  O10  1  0.250000  0.735802  0.539890  1
  O  O11  1  0.750000  0.264198  0.460110  1
  O  O12  1  0.250000  0.444836  0.240460  1
  O  O13  1  0.750000  0.055164  0.740460  1
  O  O14  1  0.250000  0.944836  0.259540  1
  O  O15  1  0.750000  0.555164  0.759540  1
