# generated using pymatgen
data_Cs2K2TeO5
_symmetry_space_group_name_H-M   'P 1'
_cell_length_a   9.36162253
_cell_length_b   9.36162253
_cell_length_c   9.71189825
_cell_angle_alpha   90.00000000
_cell_angle_beta   90.00000000
_cell_angle_gamma   90.00000000
_symmetry_Int_Tables_number   1
_chemical_formula_structural   Cs2K2TeO5
_chemical_formula_sum   'Cs8 K8 Te4 O20'
_cell_volume   851.15053337
_cell_formula_units_Z   4
loop_
 _symmetry_equiv_pos_site_id
 _symmetry_equiv_pos_as_xyz
  1  'x, y, z'
loop_
 _atom_site_type_symbol
 _atom_site_label
 _atom_site_symmetry_multiplicity
 _atom_site_fract_x
 _atom_site_fract_y
 _atom_site_fract_z
 _atom_site_occupancy
  Cs  Cs0  1  0.665342  0.665342  0.500000  1
  Cs  Cs1  1  0.334658  0.334658  0.500000  1
  Cs  Cs2  1  0.834658  0.165342  0.000000  1
  Cs  Cs3  1  0.500000  0.000000  0.750000  1
  Cs  Cs4  1  0.165342  0.834658  0.000000  1
  Cs  Cs5  1  0.000000  0.500000  0.250000  1
  Cs  Cs6  1  0.000000  0.500000  0.750000  1
  Cs  Cs7  1  0.500000  0.000000  0.250000  1
  K  K8  1  0.123739  0.123739  0.715347  1
  K  K9  1  0.876261  0.876261  0.284653  1
  K  K10  1  0.623739  0.376261  0.784653  1
  K  K11  1  0.376261  0.623739  0.215347  1
  K  K12  1  0.376261  0.623739  0.784653  1
  K  K13  1  0.623739  0.376261  0.215347  1
  K  K14  1  0.123739  0.123739  0.284653  1
  K  K15  1  0.876261  0.876261  0.715347  1
  Te  Te16  1  0.192398  0.807602  0.500000  1
  Te  Te17  1  0.692398  0.692398  0.000000  1
  Te  Te18  1  0.307602  0.307602  0.000000  1
  Te  Te19  1  0.807602  0.192398  0.500000  1
  O  O20  1  0.501654  0.768620  0.000000  1
  O  O21  1  0.231380  0.498346  0.000000  1
  O  O22  1  0.731380  0.001654  0.500000  1
  O  O23  1  0.180335  0.819665  0.701128  1
  O  O24  1  0.319665  0.319665  0.201128  1
  O  O25  1  0.498346  0.231380  0.000000  1
  O  O26  1  0.319665  0.319665  0.798872  1
  O  O27  1  0.163750  0.163750  0.000000  1
  O  O28  1  0.268620  0.998346  0.500000  1
  O  O29  1  0.819665  0.180335  0.701128  1
  O  O30  1  0.768620  0.501654  0.000000  1
  O  O31  1  0.680335  0.680335  0.798872  1
  O  O32  1  0.663750  0.336250  0.500000  1
  O  O33  1  0.001654  0.731380  0.500000  1
  O  O34  1  0.336250  0.663750  0.500000  1
  O  O35  1  0.180335  0.819665  0.298872  1
  O  O36  1  0.680335  0.680335  0.201128  1
  O  O37  1  0.998346  0.268620  0.500000  1
  O  O38  1  0.819665  0.180335  0.298872  1
  O  O39  1  0.836250  0.836250  0.000000  1
