# generated using pymatgen
data_Nd2SiO5
_symmetry_space_group_name_H-M   'P 1'
_cell_length_a   6.92008613
_cell_length_b   7.39112529
_cell_length_c   9.33078565
_cell_angle_alpha   90.00000000
_cell_angle_beta   108.39960983
_cell_angle_gamma   90.00000000
_symmetry_Int_Tables_number   1
_chemical_formula_structural   Nd2SiO5
_chemical_formula_sum   'Nd8 Si4 O20'
_cell_volume   452.84620063
_cell_formula_units_Z   4
loop_
 _symmetry_equiv_pos_site_id
 _symmetry_equiv_pos_as_xyz
  1  'x, y, z'
loop_
 _atom_site_type_symbol
 _atom_site_label
 _atom_site_symmetry_multiplicity
 _atom_site_fract_x
 _atom_site_fract_y
 _atom_site_fract_z
 _atom_site_occupancy
  Nd  Nd0  1  0.233849  0.624451  0.021492  1
  Nd  Nd1  1  0.266151  0.124451  0.978508  1
  Nd  Nd2  1  0.092059  0.654035  0.389334  1
  Nd  Nd3  1  0.592059  0.845965  0.389334  1
  Nd  Nd4  1  0.407941  0.154035  0.610666  1
  Nd  Nd5  1  0.907941  0.345965  0.610666  1
  Nd  Nd6  1  0.733849  0.875549  0.021492  1
  Nd  Nd7  1  0.766151  0.375549  0.978508  1
  Si  Si8  1  0.043457  0.081331  0.298714  1
  Si  Si9  1  0.456543  0.581331  0.701286  1
  Si  Si10  1  0.543457  0.418669  0.298714  1
  Si  Si11  1  0.956543  0.918669  0.701286  1
  O  O12  1  0.364555  0.571592  0.293972  1
  O  O13  1  0.493258  0.365151  0.118247  1
  O  O14  1  0.047679  0.376913  0.884346  1
  O  O15  1  0.006742  0.865151  0.881753  1
  O  O16  1  0.057432  0.253026  0.408980  1
  O  O17  1  0.942568  0.746974  0.591020  1
  O  O18  1  0.747091  0.039457  0.633324  1
  O  O19  1  0.993258  0.134849  0.118247  1
  O  O20  1  0.247091  0.460543  0.633324  1
  O  O21  1  0.952321  0.623087  0.115654  1
  O  O22  1  0.135445  0.071592  0.706028  1
  O  O23  1  0.547679  0.123087  0.884346  1
  O  O24  1  0.442568  0.753026  0.591020  1
  O  O25  1  0.752909  0.539457  0.366676  1
  O  O26  1  0.252909  0.960543  0.366676  1
  O  O27  1  0.864555  0.928408  0.293972  1
  O  O28  1  0.506742  0.634849  0.881753  1
  O  O29  1  0.452321  0.876913  0.115654  1
  O  O30  1  0.635445  0.428408  0.706028  1
  O  O31  1  0.557432  0.246974  0.408980  1
