# generated using pymatgen
data_Na2Si2O5
_symmetry_space_group_name_H-M   'P 1'
_cell_length_a   4.89442885
_cell_length_b   12.18879389
_cell_length_c   9.75100077
_cell_angle_alpha   90.00000000
_cell_angle_beta   119.55551323
_cell_angle_gamma   90.00000000
_symmetry_Int_Tables_number   1
_chemical_formula_structural   Na2Si2O5
_chemical_formula_sum   'Na8 Si8 O20'
_cell_volume   506.02314608
_cell_formula_units_Z   4
loop_
 _symmetry_equiv_pos_site_id
 _symmetry_equiv_pos_as_xyz
  1  'x, y, z'
loop_
 _atom_site_type_symbol
 _atom_site_label
 _atom_site_symmetry_multiplicity
 _atom_site_fract_x
 _atom_site_fract_y
 _atom_site_fract_z
 _atom_site_occupancy
  Na  Na0  1  0.612391  0.997166  0.369739  1
  Na  Na1  1  0.885712  0.037813  0.119467  1
  Na  Na2  1  0.612391  0.502834  0.869739  1
  Na  Na3  1  0.387609  0.497166  0.130261  1
  Na  Na4  1  0.885712  0.462187  0.619467  1
  Na  Na5  1  0.114288  0.537813  0.380533  1
  Na  Na6  1  0.387609  0.002834  0.630261  1
  Na  Na7  1  0.114288  0.962187  0.880533  1
  Si  Si8  1  0.980407  0.178855  0.676076  1
  Si  Si9  1  0.643257  0.697319  0.449544  1
  Si  Si10  1  0.643257  0.802681  0.949544  1
  Si  Si11  1  0.356743  0.302681  0.550456  1
  Si  Si12  1  0.019593  0.821145  0.323924  1
  Si  Si13  1  0.019593  0.678855  0.823924  1
  Si  Si14  1  0.980407  0.321145  0.176076  1
  Si  Si15  1  0.356743  0.197319  0.050456  1
  O  O16  1  0.729472  0.703354  0.861749  1
  O  O17  1  0.125577  0.553456  0.864695  1
  O  O18  1  0.874423  0.053456  0.635305  1
  O  O19  1  0.874423  0.446544  0.135305  1
  O  O20  1  0.708287  0.228191  0.074486  1
  O  O21  1  0.360773  0.075451  0.113178  1
  O  O22  1  0.106685  0.290742  0.361544  1
  O  O23  1  0.708287  0.271809  0.574486  1
  O  O24  1  0.893315  0.709258  0.638456  1
  O  O25  1  0.639227  0.924549  0.886822  1
  O  O26  1  0.291713  0.771809  0.925514  1
  O  O27  1  0.639227  0.575451  0.386822  1
  O  O28  1  0.360773  0.424549  0.613178  1
  O  O29  1  0.893315  0.790742  0.138456  1
  O  O30  1  0.270528  0.203354  0.638251  1
  O  O31  1  0.106685  0.209258  0.861544  1
  O  O32  1  0.291713  0.728191  0.425514  1
  O  O33  1  0.270528  0.296646  0.138251  1
  O  O34  1  0.125577  0.946544  0.364695  1
  O  O35  1  0.729472  0.796646  0.361749  1
