# generated using pymatgen
data_KCrIO6
_symmetry_space_group_name_H-M   'P 1'
_cell_length_a   9.36849303
_cell_length_b   4.87216644
_cell_length_c   14.30746163
_cell_angle_alpha   90.00000000
_cell_angle_beta   107.51621169
_cell_angle_gamma   90.00000000
_symmetry_Int_Tables_number   1
_chemical_formula_structural   KCrIO6
_chemical_formula_sum   'K4 Cr4 I4 O24'
_cell_volume   622.78075224
_cell_formula_units_Z   4
loop_
 _symmetry_equiv_pos_site_id
 _symmetry_equiv_pos_as_xyz
  1  'x, y, z'
loop_
 _atom_site_type_symbol
 _atom_site_label
 _atom_site_symmetry_multiplicity
 _atom_site_fract_x
 _atom_site_fract_y
 _atom_site_fract_z
 _atom_site_occupancy
  K  K0  1  0.100217  0.089439  0.664365  1
  K  K1  1  0.899783  0.589439  0.835635  1
  K  K2  1  0.100217  0.410561  0.164365  1
  K  K3  1  0.899783  0.910561  0.335635  1
  Cr  Cr4  1  0.223371  0.962767  0.971512  1
  Cr  Cr5  1  0.776629  0.037233  0.028488  1
  Cr  Cr6  1  0.223371  0.537233  0.471512  1
  Cr  Cr7  1  0.776629  0.462767  0.528488  1
  I  I8  1  0.570739  0.332418  0.163997  1
  I  I9  1  0.570739  0.167582  0.663997  1
  I  I10  1  0.429261  0.832418  0.336003  1
  I  I11  1  0.429261  0.667582  0.836003  1
  O  O12  1  0.287567  0.289724  0.550838  1
  O  O13  1  0.243088  0.582996  0.762067  1
  O  O14  1  0.123332  0.749787  0.012857  1
  O  O15  1  0.382885  0.778031  0.954380  1
  O  O16  1  0.712433  0.789724  0.949162  1
  O  O17  1  0.756912  0.082996  0.737933  1
  O  O18  1  0.617115  0.278031  0.545620  1
  O  O19  1  0.243088  0.917004  0.262067  1
  O  O20  1  0.443745  0.011383  0.787337  1
  O  O21  1  0.382885  0.721969  0.454380  1
  O  O22  1  0.123332  0.750213  0.512857  1
  O  O23  1  0.876668  0.249787  0.487143  1
  O  O24  1  0.121049  0.081919  0.866230  1
  O  O25  1  0.878951  0.918081  0.133770  1
  O  O26  1  0.287567  0.210276  0.050838  1
  O  O27  1  0.878951  0.581919  0.633770  1
  O  O28  1  0.617115  0.221969  0.045620  1
  O  O29  1  0.556255  0.511383  0.712663  1
  O  O30  1  0.121049  0.418081  0.366230  1
  O  O31  1  0.443745  0.488617  0.287337  1
  O  O32  1  0.712433  0.710276  0.449162  1
  O  O33  1  0.556255  0.988617  0.212663  1
  O  O34  1  0.756912  0.417004  0.237933  1
  O  O35  1  0.876668  0.250213  0.987143  1
