# generated using pymatgen
data_VXe2F17
_symmetry_space_group_name_H-M   'P 1'
_cell_length_a   9.16339853
_cell_length_b   9.02037958
_cell_length_c   18.27305764
_cell_angle_alpha   90.00000000
_cell_angle_beta   117.38697369
_cell_angle_gamma   90.00000000
_symmetry_Int_Tables_number   1
_chemical_formula_structural   VXe2F17
_chemical_formula_sum   'V4 Xe8 F68'
_cell_volume   1341.11631522
_cell_formula_units_Z   4
loop_
 _symmetry_equiv_pos_site_id
 _symmetry_equiv_pos_as_xyz
  1  'x, y, z'
loop_
 _atom_site_type_symbol
 _atom_site_label
 _atom_site_symmetry_multiplicity
 _atom_site_fract_x
 _atom_site_fract_y
 _atom_site_fract_z
 _atom_site_occupancy
  V  V0  1  0.227292  0.658407  0.978564  1
  V  V1  1  0.772708  0.158407  0.521436  1
  V  V2  1  0.772708  0.341593  0.021436  1
  V  V3  1  0.227292  0.841593  0.478564  1
  Xe  Xe4  1  0.405824  0.301638  0.156881  1
  Xe  Xe5  1  0.594176  0.801638  0.343119  1
  Xe  Xe6  1  0.594176  0.698362  0.843119  1
  Xe  Xe7  1  0.405824  0.198362  0.656881  1
  Xe  Xe8  1  0.115818  0.218673  0.878939  1
  Xe  Xe9  1  0.884182  0.718673  0.621061  1
  Xe  Xe10  1  0.884182  0.781327  0.121061  1
  Xe  Xe11  1  0.115818  0.281327  0.378939  1
  F  F12  1  0.406067  0.634058  0.964000  1
  F  F13  1  0.593933  0.134058  0.536000  1
  F  F14  1  0.593933  0.365942  0.036000  1
  F  F15  1  0.406067  0.865942  0.464000  1
  F  F16  1  0.125810  0.759165  0.885607  1
  F  F17  1  0.874190  0.259165  0.614393  1
  F  F18  1  0.874190  0.240835  0.114393  1
  F  F19  1  0.125810  0.740835  0.385607  1
  F  F20  1  0.308716  0.816354  0.041061  1
  F  F21  1  0.691284  0.316354  0.458939  1
  F  F22  1  0.691284  0.183646  0.958939  1
  F  F23  1  0.308716  0.683646  0.541061  1
  F  F24  1  0.890723  0.194340  0.320504  1
  F  F25  1  0.109277  0.694340  0.179496  1
  F  F26  1  0.109277  0.805660  0.679496  1
  F  F27  1  0.890723  0.305660  0.820504  1
  F  F28  1  0.188969  0.178483  0.304683  1
  F  F29  1  0.811031  0.678483  0.195317  1
  F  F30  1  0.811031  0.821517  0.695317  1
  F  F31  1  0.188969  0.321517  0.804683  1
  F  F32  1  0.018518  0.417546  0.284025  1
  F  F33  1  0.981482  0.917546  0.215975  1
  F  F34  1  0.981482  0.582454  0.715975  1
  F  F35  1  0.018518  0.082454  0.784025  1
  F  F36  1  0.308412  0.413796  0.407069  1
  F  F37  1  0.691588  0.913796  0.092931  1
  F  F38  1  0.691588  0.586204  0.592931  1
  F  F39  1  0.308412  0.086204  0.907069  1
  F  F40  1  0.019405  0.428572  0.425746  1
  F  F41  1  0.980595  0.928572  0.074254  1
  F  F42  1  0.980595  0.571428  0.574254  1
  F  F43  1  0.019405  0.071428  0.925746  1
  F  F44  1  0.279829  0.254492  0.520745  1
  F  F45  1  0.720171  0.754492  0.979255  1
  F  F46  1  0.720171  0.745508  0.479255  1
  F  F47  1  0.279829  0.245508  0.020745  1
  F  F48  1  0.552271  0.356016  0.651306  1
  F  F49  1  0.447729  0.856016  0.848694  1
  F  F50  1  0.447729  0.643984  0.348694  1
  F  F51  1  0.552271  0.143984  0.151306  1
  F  F52  1  0.248436  0.356492  0.649670  1
  F  F53  1  0.751564  0.856492  0.850330  1
  F  F54  1  0.751564  0.643508  0.350330  1
  F  F55  1  0.248436  0.143508  0.149670  1
  F  F56  1  0.510497  0.258818  0.773858  1
  F  F57  1  0.489503  0.758818  0.726142  1
  F  F58  1  0.489503  0.741182  0.226142  1
  F  F59  1  0.510497  0.241182  0.273858  1
  F  F60  1  0.280155  0.068520  0.696855  1
  F  F61  1  0.719845  0.568520  0.803145  1
  F  F62  1  0.719845  0.931480  0.303145  1
  F  F63  1  0.280155  0.431480  0.196855  1
  F  F64  1  0.602623  0.065031  0.700791  1
  F  F65  1  0.397377  0.565031  0.799209  1
  F  F66  1  0.397377  0.934969  0.299209  1
  F  F67  1  0.602623  0.434969  0.200791  1
  F  F68  1  0.143349  0.022160  0.416018  1
  F  F69  1  0.856651  0.522160  0.083982  1
  F  F70  1  0.856651  0.977840  0.583982  1
  F  F71  1  0.143349  0.477840  0.916018  1
  F  F72  1  0.328222  0.965853  0.572103  1
  F  F73  1  0.671778  0.465853  0.927897  1
  F  F74  1  0.671778  0.034147  0.427897  1
  F  F75  1  0.328222  0.534147  0.072103  1
  F  F76  1  0.046696  0.842409  0.493362  1
  F  F77  1  0.953304  0.342409  0.006638  1
  F  F78  1  0.953304  0.157591  0.506638  1
  F  F79  1  0.046696  0.657591  0.993362  1
