# generated using pymatgen
data_Si2Ag6O7
_symmetry_space_group_name_H-M   'P 1'
_cell_length_a   8.18226622
_cell_length_b   8.18226622
_cell_length_c   10.85646751
_cell_angle_alpha   76.93463685
_cell_angle_beta   103.06536315
_cell_angle_gamma   105.32987544
_symmetry_Int_Tables_number   1
_chemical_formula_structural   Si2Ag6O7
_chemical_formula_sum   'Si6 Ag18 O21'
_cell_volume   672.04455039
_cell_formula_units_Z   3
loop_
 _symmetry_equiv_pos_site_id
 _symmetry_equiv_pos_as_xyz
  1  'x, y, z'
loop_
 _atom_site_type_symbol
 _atom_site_label
 _atom_site_symmetry_multiplicity
 _atom_site_fract_x
 _atom_site_fract_y
 _atom_site_fract_z
 _atom_site_occupancy
  Si  Si0  1  0.105167  0.894833  0.126701  1
  Si  Si1  1  0.894833  0.105167  0.873299  1
  Si  Si2  1  0.197212  0.802788  0.617372  1
  Si  Si3  1  0.656079  0.343921  0.872452  1
  Si  Si4  1  0.802788  0.197212  0.382628  1
  Si  Si5  1  0.343921  0.656079  0.127548  1
  Ag  Ag6  1  0.559980  0.725005  0.861395  1
  Ag  Ag7  1  0.440020  0.274995  0.138605  1
  Ag  Ag8  1  0.895987  0.449171  0.620598  1
  Ag  Ag9  1  0.458851  0.541149  0.635654  1
  Ag  Ag10  1  0.362552  0.996407  0.865267  1
  Ag  Ag11  1  0.449171  0.895987  0.379402  1
  Ag  Ag12  1  0.838176  0.859885  0.656998  1
  Ag  Ag13  1  0.637448  0.003593  0.134733  1
  Ag  Ag14  1  0.140115  0.161824  0.656998  1
  Ag  Ag15  1  0.104013  0.550829  0.379402  1
  Ag  Ag16  1  0.274995  0.440020  0.861395  1
  Ag  Ag17  1  0.996407  0.362552  0.134733  1
  Ag  Ag18  1  0.541149  0.458851  0.364346  1
  Ag  Ag19  1  0.725005  0.559980  0.138605  1
  Ag  Ag20  1  0.550829  0.104013  0.620598  1
  Ag  Ag21  1  0.859885  0.838176  0.343002  1
  Ag  Ag22  1  0.161824  0.140115  0.343002  1
  Ag  Ag23  1  0.003593  0.637448  0.865267  1
  O  O24  1  0.753638  0.246362  0.221769  1
  O  O25  1  0.474908  0.249205  0.926705  1
  O  O26  1  0.374022  0.625978  0.285892  1
  O  O27  1  0.249205  0.474908  0.073295  1
  O  O28  1  0.986410  0.739863  0.570624  1
  O  O29  1  0.247164  0.025482  0.213362  1
  O  O30  1  0.525092  0.750795  0.073295  1
  O  O31  1  0.025482  0.247164  0.786638  1
  O  O32  1  0.705572  0.294428  0.453555  1
  O  O33  1  0.752836  0.974518  0.786638  1
  O  O34  1  0.739863  0.986410  0.429376  1
  O  O35  1  0.750795  0.525092  0.926705  1
  O  O36  1  0.209742  0.790258  0.067572  1
  O  O37  1  0.294428  0.705572  0.546445  1
  O  O38  1  0.246362  0.753638  0.778231  1
  O  O39  1  0.790258  0.209742  0.932428  1
  O  O40  1  0.625978  0.374022  0.714108  1
  O  O41  1  0.974518  0.752836  0.213362  1
  O  O42  1  0.000000  0.000000  0.000000  1
  O  O43  1  0.260137  0.013590  0.570624  1
  O  O44  1  0.013590  0.260137  0.429376  1
