# generated using pymatgen
data_As2Cl3OF5
_symmetry_space_group_name_H-M   'P 1'
_cell_length_a   6.21434802
_cell_length_b   19.37523260
_cell_length_c   8.03707362
_cell_angle_alpha   90.00000000
_cell_angle_beta   108.24625645
_cell_angle_gamma   90.00000000
_symmetry_Int_Tables_number   1
_chemical_formula_structural   As2Cl3OF5
_chemical_formula_sum   'As8 Cl12 O4 F20'
_cell_volume   919.04301028
_cell_formula_units_Z   4
loop_
 _symmetry_equiv_pos_site_id
 _symmetry_equiv_pos_as_xyz
  1  'x, y, z'
loop_
 _atom_site_type_symbol
 _atom_site_label
 _atom_site_symmetry_multiplicity
 _atom_site_fract_x
 _atom_site_fract_y
 _atom_site_fract_z
 _atom_site_occupancy
  As  As0  1  0.552233  0.621207  0.183748  1
  As  As1  1  0.139397  0.613073  0.816234  1
  As  As2  1  0.552233  0.878793  0.683748  1
  As  As3  1  0.447767  0.378793  0.816252  1
  As  As4  1  0.860603  0.386927  0.183766  1
  As  As5  1  0.447767  0.121207  0.316252  1
  As  As6  1  0.860603  0.113073  0.683766  1
  As  As7  1  0.139397  0.886927  0.316234  1
  Cl  Cl8  1  0.686458  0.367236  0.365799  1
  Cl  Cl9  1  0.969664  0.704685  0.841880  1
  Cl  Cl10  1  0.030336  0.295315  0.158120  1
  Cl  Cl11  1  0.313542  0.867236  0.134201  1
  Cl  Cl12  1  0.969664  0.795315  0.341880  1
  Cl  Cl13  1  0.107126  0.462756  0.289109  1
  Cl  Cl14  1  0.107126  0.037244  0.789109  1
  Cl  Cl15  1  0.030336  0.204685  0.658120  1
  Cl  Cl16  1  0.892874  0.962756  0.210891  1
  Cl  Cl17  1  0.892874  0.537244  0.710891  1
  Cl  Cl18  1  0.313542  0.632764  0.634201  1
  Cl  Cl19  1  0.686458  0.132764  0.865799  1
  O  O20  1  0.303960  0.577552  0.007949  1
  O  O21  1  0.303960  0.922448  0.507949  1
  O  O22  1  0.696040  0.422448  0.992051  1
  O  O23  1  0.696040  0.077552  0.492051  1
  F  F24  1  0.646601  0.345405  0.721304  1
  F  F25  1  0.519257  0.696138  0.051029  1
  F  F26  1  0.646601  0.154595  0.221304  1
  F  F27  1  0.739669  0.912993  0.579828  1
  F  F28  1  0.563980  0.543152  0.299916  1
  F  F29  1  0.436020  0.456848  0.700084  1
  F  F30  1  0.519257  0.803862  0.551029  1
  F  F31  1  0.353399  0.654595  0.278696  1
  F  F32  1  0.739669  0.587007  0.079828  1
  F  F33  1  0.480743  0.196138  0.448971  1
  F  F34  1  0.777898  0.842692  0.852357  1
  F  F35  1  0.777898  0.657308  0.352357  1
  F  F36  1  0.480743  0.303862  0.948971  1
  F  F37  1  0.260331  0.087007  0.420172  1
  F  F38  1  0.222102  0.342692  0.647643  1
  F  F39  1  0.260331  0.412993  0.920172  1
  F  F40  1  0.353399  0.845405  0.778696  1
  F  F41  1  0.436020  0.043152  0.200084  1
  F  F42  1  0.563980  0.956848  0.799916  1
  F  F43  1  0.222102  0.157308  0.147643  1
