# generated using pymatgen
data_SiO2
_symmetry_space_group_name_H-M   'P 1'
_cell_length_a   12.63468807
_cell_length_b   12.63468807
_cell_length_c   12.63468807
_cell_angle_alpha   132.69106409
_cell_angle_beta   132.69106409
_cell_angle_gamma   69.13973191
_symmetry_Int_Tables_number   1
_chemical_formula_structural   SiO2
_chemical_formula_sum   'Si16 O32'
_cell_volume   1069.41915177
_cell_formula_units_Z   16
loop_
 _symmetry_equiv_pos_site_id
 _symmetry_equiv_pos_as_xyz
  1  'x, y, z'
loop_
 _atom_site_type_symbol
 _atom_site_label
 _atom_site_symmetry_multiplicity
 _atom_site_fract_x
 _atom_site_fract_y
 _atom_site_fract_z
 _atom_site_occupancy
  Si  Si0  1  0.981659  0.173000  0.510974  1
  Si  Si1  1  0.529314  0.018340  0.191341  1
  Si  Si2  1  0.662026  0.173000  0.191341  1
  Si  Si3  1  0.220685  0.912026  0.989026  1
  Si  Si4  1  0.529314  0.337974  0.510974  1
  Si  Si5  1  0.923000  0.912026  0.691341  1
  Si  Si6  1  0.220685  0.231659  0.308659  1
  Si  Si7  1  0.923000  0.231659  0.010974  1
  Si  Si8  1  0.662026  0.470685  0.489026  1
  Si  Si9  1  0.981659  0.470685  0.808659  1
  Si  Si10  1  0.768340  0.077000  0.989026  1
  Si  Si11  1  0.087973  0.779314  0.010974  1
  Si  Si12  1  0.827000  0.337974  0.808659  1
  Si  Si13  1  0.827000  0.018341  0.489026  1
  Si  Si14  1  0.768340  0.779314  0.691341  1
  Si  Si15  1  0.087973  0.076999  0.308659  1
  O  O16  1  0.084475  0.867826  0.783351  1
  O  O17  1  0.827283  0.472030  0.644747  1
  O  O18  1  0.827283  0.182535  0.355252  1
  O  O19  1  0.922717  0.777970  0.855253  1
  O  O20  1  0.817464  0.172717  0.644747  1
  O  O21  1  0.698876  0.915525  0.783351  1
  O  O22  1  0.932535  0.077283  0.855253  1
  O  O23  1  0.375000  0.344642  0.469642  1
  O  O24  1  0.094642  0.625000  0.969642  1
  O  O25  1  0.549785  0.049785  0.099571  1
  O  O26  1  0.132173  0.915525  0.216648  1
  O  O27  1  0.922717  0.067464  0.144747  1
  O  O28  1  0.222030  0.077283  0.144747  1
  O  O29  1  0.527970  0.172717  0.355253  1
  O  O30  1  0.950215  0.450215  0.900429  1
  O  O31  1  0.200214  0.200214  0.400429  1
  O  O32  1  0.094642  0.125000  0.469642  1
  O  O33  1  0.665525  0.382174  0.716649  1
  O  O34  1  0.200214  0.799785  0.000000  1
  O  O35  1  0.655358  0.125000  0.030358  1
  O  O36  1  0.617826  0.334475  0.283351  1
  O  O37  1  0.665525  0.948876  0.283351  1
  O  O38  1  0.549785  0.450215  0.500000  1
  O  O39  1  0.799785  0.200214  1.000000  1
  O  O40  1  0.084475  0.301123  0.216648  1
  O  O41  1  0.875000  0.905358  0.530358  1
  O  O42  1  0.950214  0.049785  0.500000  1
  O  O43  1  0.799785  0.799785  0.599571  1
  O  O44  1  0.051123  0.334475  0.716649  1
  O  O45  1  0.875000  0.344642  0.969642  1
  O  O46  1  0.655358  0.625000  0.530358  1
  O  O47  1  0.375000  0.905358  0.030358  1
