# generated using pymatgen
data_Ca2Al2SiO7
_symmetry_space_group_name_H-M   'P 1'
_cell_length_a   7.67636214
_cell_length_b   7.67636214
_cell_length_c   5.19082756
_cell_angle_alpha   90.00000000
_cell_angle_beta   90.00000000
_cell_angle_gamma   90.00000000
_symmetry_Int_Tables_number   1
_chemical_formula_structural   Ca2Al2SiO7
_chemical_formula_sum   'Ca4 Al4 Si2 O14'
_cell_volume   305.87748555
_cell_formula_units_Z   2
loop_
 _symmetry_equiv_pos_site_id
 _symmetry_equiv_pos_as_xyz
  1  'x, y, z'
loop_
 _atom_site_type_symbol
 _atom_site_label
 _atom_site_symmetry_multiplicity
 _atom_site_fract_x
 _atom_site_fract_y
 _atom_site_fract_z
 _atom_site_occupancy
  Ca  Ca0  1  0.844402  0.344402  0.483863  1
  Ca  Ca1  1  0.155598  0.655598  0.483863  1
  Ca  Ca2  1  0.655598  0.844402  0.516137  1
  Ca  Ca3  1  0.344402  0.155598  0.516137  1
  Al  Al4  1  0.643940  0.143940  0.025427  1
  Al  Al5  1  0.356060  0.856060  0.025427  1
  Al  Al6  1  0.856060  0.643940  0.974573  1
  Al  Al7  1  0.143940  0.356060  0.974573  1
  Si  Si8  1  0.000000  0.000000  0.000000  1
  Si  Si9  1  0.500000  0.500000  0.000000  1
  O  O10  1  0.644498  0.144498  0.691929  1
  O  O11  1  0.406852  0.651362  0.177933  1
  O  O12  1  0.355502  0.855502  0.691929  1
  O  O13  1  0.348638  0.406852  0.822067  1
  O  O14  1  0.144498  0.355502  0.308071  1
  O  O15  1  0.651362  0.593148  0.822067  1
  O  O16  1  0.848638  0.093148  0.177933  1
  O  O17  1  0.500000  0.000000  0.179495  1
  O  O18  1  0.000000  0.500000  0.820505  1
  O  O19  1  0.151362  0.906852  0.177933  1
  O  O20  1  0.093148  0.151362  0.822067  1
  O  O21  1  0.855502  0.644498  0.308071  1
  O  O22  1  0.906852  0.848638  0.822067  1
  O  O23  1  0.593148  0.348638  0.177933  1
