# generated using pymatgen
data_Na2SnSe3
_symmetry_space_group_name_H-M   'P 1'
_cell_length_a   6.25308116
_cell_length_b   16.53820183
_cell_length_c   7.35229897
_cell_angle_alpha   90.00000000
_cell_angle_beta   112.72317460
_cell_angle_gamma   90.00000000
_symmetry_Int_Tables_number   1
_chemical_formula_structural   Na2SnSe3
_chemical_formula_sum   'Na8 Sn4 Se12'
_cell_volume   701.32011599
_cell_formula_units_Z   4
loop_
 _symmetry_equiv_pos_site_id
 _symmetry_equiv_pos_as_xyz
  1  'x, y, z'
loop_
 _atom_site_type_symbol
 _atom_site_label
 _atom_site_symmetry_multiplicity
 _atom_site_fract_x
 _atom_site_fract_y
 _atom_site_fract_z
 _atom_site_occupancy
  Na  Na0  1  0.823660  0.974250  0.235238  1
  Na  Na1  1  0.011763  0.666178  0.548446  1
  Na  Na2  1  0.323660  0.525750  0.235238  1
  Na  Na3  1  0.176340  0.025750  0.764762  1
  Na  Na4  1  0.488237  0.166178  0.451554  1
  Na  Na5  1  0.676340  0.474250  0.764762  1
  Na  Na6  1  0.988237  0.333822  0.451554  1
  Na  Na7  1  0.511763  0.833822  0.548446  1
  Sn  Sn8  1  0.369055  0.334031  0.043043  1
  Sn  Sn9  1  0.869055  0.165969  0.043043  1
  Sn  Sn10  1  0.630945  0.665969  0.956957  1
  Sn  Sn11  1  0.130945  0.834031  0.956957  1
  Se  Se12  1  0.963780  0.144288  0.406603  1
  Se  Se13  1  0.463780  0.355712  0.406603  1
  Se  Se14  1  0.536220  0.644288  0.593397  1
  Se  Se15  1  0.822530  0.554084  0.197118  1
  Se  Se16  1  0.251784  0.182568  0.981307  1
  Se  Se17  1  0.751784  0.317432  0.981307  1
  Se  Se18  1  0.322530  0.945916  0.197118  1
  Se  Se19  1  0.177470  0.445916  0.802882  1
  Se  Se20  1  0.248216  0.682568  0.018693  1
  Se  Se21  1  0.036220  0.855712  0.593397  1
  Se  Se22  1  0.677470  0.054084  0.802882  1
  Se  Se23  1  0.748216  0.817432  0.018693  1
