# generated using pymatgen
data_BN(OF2)2
_symmetry_space_group_name_H-M   'P 1'
_cell_length_a   6.66523868
_cell_length_b   7.00022638
_cell_length_c   9.32462623
_cell_angle_alpha   90.00000000
_cell_angle_beta   104.53259937
_cell_angle_gamma   90.00000000
_symmetry_Int_Tables_number   1
_chemical_formula_structural   BN(OF2)2
_chemical_formula_sum   'B4 N4 O8 F16'
_cell_volume   421.15002943
_cell_formula_units_Z   4
loop_
 _symmetry_equiv_pos_site_id
 _symmetry_equiv_pos_as_xyz
  1  'x, y, z'
loop_
 _atom_site_type_symbol
 _atom_site_label
 _atom_site_symmetry_multiplicity
 _atom_site_fract_x
 _atom_site_fract_y
 _atom_site_fract_z
 _atom_site_occupancy
  B  B0  1  0.744616  0.187388  0.496894  1
  B  B1  1  0.744616  0.312612  0.996894  1
  B  B2  1  0.255384  0.687388  0.003106  1
  B  B3  1  0.255384  0.812612  0.503106  1
  N  N4  1  0.756471  0.761624  0.757404  1
  N  N5  1  0.756471  0.738376  0.257404  1
  N  N6  1  0.243529  0.238376  0.242596  1
  N  N7  1  0.243529  0.261624  0.742596  1
  O  O8  1  0.337008  0.330194  0.669551  1
  O  O9  1  0.662992  0.830194  0.830449  1
  O  O10  1  0.149094  0.193303  0.815122  1
  O  O11  1  0.149094  0.306697  0.315122  1
  O  O12  1  0.850906  0.806697  0.184878  1
  O  O13  1  0.662992  0.669806  0.330449  1
  O  O14  1  0.337008  0.169806  0.169551  1
  O  O15  1  0.850906  0.693303  0.684878  1
  F  F16  1  0.235923  0.936527  0.619115  1
  F  F17  1  0.764077  0.063473  0.380885  1
  F  F18  1  0.437809  0.798806  0.051145  1
  F  F19  1  0.266289  0.579631  0.876474  1
  F  F20  1  0.918802  0.310955  0.534718  1
  F  F21  1  0.764077  0.436527  0.880885  1
  F  F22  1  0.733711  0.420369  0.123526  1
  F  F23  1  0.733711  0.079631  0.623526  1
  F  F24  1  0.562191  0.298806  0.448855  1
  F  F25  1  0.081198  0.810955  0.965282  1
  F  F26  1  0.235923  0.563473  0.119115  1
  F  F27  1  0.562191  0.201194  0.948855  1
  F  F28  1  0.918802  0.189045  0.034718  1
  F  F29  1  0.437809  0.701194  0.551145  1
  F  F30  1  0.266289  0.920369  0.376474  1
  F  F31  1  0.081198  0.689045  0.465282  1
