# generated using pymatgen
data_TlVH6SO9
_symmetry_space_group_name_H-M   'P 1'
_cell_length_a   6.29528008
_cell_length_b   10.06049760
_cell_length_c   6.75886699
_cell_angle_alpha   90.00000000
_cell_angle_beta   107.75317728
_cell_angle_gamma   90.00000000
_symmetry_Int_Tables_number   1
_chemical_formula_structural   TlVH6SO9
_chemical_formula_sum   'Tl2 V2 H12 S2 O18'
_cell_volume   407.67884912
_cell_formula_units_Z   2
loop_
 _symmetry_equiv_pos_site_id
 _symmetry_equiv_pos_as_xyz
  1  'x, y, z'
loop_
 _atom_site_type_symbol
 _atom_site_label
 _atom_site_symmetry_multiplicity
 _atom_site_fract_x
 _atom_site_fract_y
 _atom_site_fract_z
 _atom_site_occupancy
  Tl  Tl0  1  0.680280  0.653496  0.179702  1
  Tl  Tl1  1  0.319720  0.153496  0.820298  1
  V  V2  1  0.620397  0.998464  0.379175  1
  V  V3  1  0.379603  0.498464  0.620825  1
  H  H4  1  0.778809  0.206284  0.691307  1
  H  H5  1  0.472705  0.262472  0.346627  1
  H  H6  1  0.180455  0.574266  0.180941  1
  H  H7  1  0.967644  0.849754  0.691604  1
  H  H8  1  0.032356  0.349754  0.308396  1
  H  H9  1  0.890977  0.343203  0.073936  1
  H  H10  1  0.308969  0.763576  0.736956  1
  H  H11  1  0.819545  0.074266  0.819059  1
  H  H12  1  0.527295  0.762472  0.653373  1
  H  H13  1  0.691031  0.263576  0.263044  1
  H  H14  1  0.221191  0.706284  0.308693  1
  H  H15  1  0.109023  0.843203  0.926064  1
  S  S16  1  0.917468  0.498031  0.734145  1
  S  S17  1  0.082532  0.998031  0.265855  1
  O  O18  1  0.721814  0.114431  0.689777  1
  O  O19  1  0.543961  0.943001  0.137930  1
  O  O20  1  0.456039  0.443001  0.862070  1
  O  O21  1  0.938157  0.041476  0.397588  1
  O  O22  1  0.566041  0.206827  0.283609  1
  O  O23  1  0.433959  0.706827  0.716391  1
  O  O24  1  0.060811  0.854284  0.222234  1
  O  O25  1  0.061843  0.541476  0.602412  1
  O  O26  1  0.121985  0.857115  0.786637  1
  O  O27  1  0.315339  0.029031  0.408654  1
  O  O28  1  0.678953  0.859593  0.526291  1
  O  O29  1  0.321047  0.359593  0.473709  1
  O  O30  1  0.939189  0.354284  0.777766  1
  O  O31  1  0.031527  0.077797  0.076177  1
  O  O32  1  0.968473  0.577797  0.923823  1
  O  O33  1  0.684661  0.529031  0.591346  1
  O  O34  1  0.878015  0.357115  0.213363  1
  O  O35  1  0.278186  0.614431  0.310223  1
