# generated using pymatgen
data_Bi24Cl10O31
_symmetry_space_group_name_H-M   'P 1'
_cell_length_a   10.25274311
_cell_length_b   8.07054907
_cell_length_c   29.99864816
_cell_angle_alpha   90.00000000
_cell_angle_beta   91.06597467
_cell_angle_gamma   90.00000000
_symmetry_Int_Tables_number   1
_chemical_formula_structural   Bi24Cl10O31
_chemical_formula_sum   'Bi48 Cl20 O62'
_cell_volume   2481.81654685
_cell_formula_units_Z   2
loop_
 _symmetry_equiv_pos_site_id
 _symmetry_equiv_pos_as_xyz
  1  'x, y, z'
loop_
 _atom_site_type_symbol
 _atom_site_label
 _atom_site_symmetry_multiplicity
 _atom_site_fract_x
 _atom_site_fract_y
 _atom_site_fract_z
 _atom_site_occupancy
  Bi  Bi0  1  0.916101  0.848687  0.313879  1
  Bi  Bi1  1  0.096565  0.375841  0.901259  1
  Bi  Bi2  1  0.903435  0.624159  0.098741  1
  Bi  Bi3  1  0.076729  0.342961  0.195987  1
  Bi  Bi4  1  0.401433  0.121388  0.166438  1
  Bi  Bi5  1  0.916101  0.151313  0.813879  1
  Bi  Bi6  1  0.598567  0.878612  0.833562  1
  Bi  Bi7  1  0.796902  0.106213  0.218395  1
  Bi  Bi8  1  0.442852  0.624207  0.452912  1
  Bi  Bi9  1  0.796902  0.893787  0.718395  1
  Bi  Bi10  1  0.557148  0.624207  0.047088  1
  Bi  Bi11  1  0.248629  0.119299  0.573406  1
  Bi  Bi12  1  0.442852  0.375793  0.952912  1
  Bi  Bi13  1  0.065014  0.159634  0.408684  1
  Bi  Bi14  1  0.557148  0.375793  0.547088  1
  Bi  Bi15  1  0.903435  0.375841  0.598741  1
  Bi  Bi16  1  0.744157  0.345990  0.426762  1
  Bi  Bi17  1  0.744157  0.654010  0.926762  1
  Bi  Bi18  1  0.756483  0.374975  0.716710  1
  Bi  Bi19  1  0.430296  0.123871  0.454717  1
  Bi  Bi20  1  0.394785  0.618201  0.163120  1
  Bi  Bi21  1  0.598567  0.121388  0.333562  1
  Bi  Bi22  1  0.203098  0.106213  0.281605  1
  Bi  Bi23  1  0.923271  0.342961  0.304013  1
  Bi  Bi24  1  0.569704  0.123871  0.045283  1
  Bi  Bi25  1  0.934986  0.840366  0.591316  1
  Bi  Bi26  1  0.394785  0.381799  0.663120  1
  Bi  Bi27  1  0.751371  0.880701  0.426594  1
  Bi  Bi28  1  0.430296  0.876129  0.954717  1
  Bi  Bi29  1  0.401433  0.878612  0.666438  1
  Bi  Bi30  1  0.065014  0.840366  0.908684  1
  Bi  Bi31  1  0.569704  0.876129  0.545283  1
  Bi  Bi32  1  0.076729  0.657039  0.695987  1
  Bi  Bi33  1  0.605215  0.381799  0.836880  1
  Bi  Bi34  1  0.248629  0.880701  0.073406  1
  Bi  Bi35  1  0.605215  0.618201  0.336880  1
  Bi  Bi36  1  0.751371  0.119299  0.926594  1
  Bi  Bi37  1  0.934986  0.159634  0.091316  1
  Bi  Bi38  1  0.083899  0.151313  0.686121  1
  Bi  Bi39  1  0.255843  0.345990  0.073238  1
  Bi  Bi40  1  0.203098  0.893787  0.781605  1
  Bi  Bi41  1  0.083899  0.848687  0.186121  1
  Bi  Bi42  1  0.243517  0.374975  0.783290  1
  Bi  Bi43  1  0.756483  0.625025  0.216710  1
  Bi  Bi44  1  0.923271  0.657039  0.804013  1
  Bi  Bi45  1  0.243517  0.625025  0.283290  1
  Bi  Bi46  1  0.096565  0.624159  0.401259  1
  Bi  Bi47  1  0.255843  0.654010  0.573238  1
  Cl  Cl48  1  0.797225  0.625883  0.511469  1
  Cl  Cl49  1  0.199390  0.872524  0.483608  1
  Cl  Cl50  1  0.500000  0.114070  0.750000  1
  Cl  Cl51  1  0.800610  0.872524  0.016392  1
  Cl  Cl52  1  0.797225  0.374117  0.011469  1
  Cl  Cl53  1  0.664252  0.621085  0.628947  1
  Cl  Cl54  1  0.335748  0.378915  0.371053  1
  Cl  Cl55  1  0.652861  0.872476  0.132093  1
  Cl  Cl56  1  0.347139  0.872476  0.367907  1
  Cl  Cl57  1  0.202775  0.374117  0.488531  1
  Cl  Cl58  1  0.199390  0.127476  0.983608  1
  Cl  Cl59  1  0.652861  0.127524  0.632093  1
  Cl  Cl60  1  0.664252  0.378915  0.128947  1
  Cl  Cl61  1  0.500000  0.374501  0.250000  1
  Cl  Cl62  1  0.202775  0.625883  0.988531  1
  Cl  Cl63  1  0.500000  0.885930  0.250000  1
  Cl  Cl64  1  0.335748  0.621085  0.871053  1
  Cl  Cl65  1  0.347139  0.127524  0.867907  1
  Cl  Cl66  1  0.500000  0.625499  0.750000  1
  Cl  Cl67  1  0.800610  0.127476  0.516392  1
  O  O68  1  0.392437  0.873697  0.587891  1
  O  O69  1  0.694751  0.632688  0.854228  1
  O  O70  1  0.607563  0.873697  0.912109  1
  O  O71  1  0.075813  0.631214  0.329724  1
  O  O72  1  0.140633  0.394750  0.268715  1
  O  O73  1  0.215983  0.374809  0.703752  1
  O  O74  1  0.930967  0.221650  0.894193  1
  O  O75  1  0.527155  0.124107  0.971867  1
  O  O76  1  0.694751  0.367312  0.354228  1
  O  O77  1  0.861990  0.114302  0.408613  1
  O  O78  1  0.020480  0.403355  0.099158  1
  O  O79  1  0.306829  0.876923  0.146270  1
  O  O80  1  0.306829  0.123077  0.646270  1
  O  O81  1  0.132211  0.850261  0.265952  1
  O  O82  1  0.693171  0.876923  0.353730  1
  O  O83  1  0.776160  0.123687  0.294884  1
  O  O84  1  0.056931  0.878839  0.838130  1
  O  O85  1  0.784017  0.374809  0.796248  1
  O  O86  1  0.472845  0.875893  0.028133  1
  O  O87  1  0.069033  0.221650  0.605807  1
  O  O88  1  0.069033  0.778350  0.105807  1
  O  O89  1  0.979520  0.596645  0.900842  1
  O  O90  1  0.531046  0.627108  0.972083  1
  O  O91  1  0.626056  0.621565  0.411268  1
  O  O92  1  0.056931  0.121161  0.338130  1
  O  O93  1  0.215983  0.625191  0.203752  1
  O  O94  1  0.527155  0.875893  0.471867  1
  O  O95  1  0.607563  0.126303  0.412109  1
  O  O96  1  0.943069  0.878839  0.661870  1
  O  O97  1  0.075813  0.368786  0.829724  1
  O  O98  1  0.784017  0.625191  0.296248  1
  O  O99  1  0.020480  0.596645  0.599158  1
  O  O100  1  0.930967  0.778350  0.394193  1
  O  O101  1  0.392437  0.126303  0.087891  1
  O  O102  1  0.468954  0.627108  0.527917  1
  O  O103  1  0.138010  0.114302  0.091387  1
  O  O104  1  0.132211  0.149739  0.765952  1
  O  O105  1  0.924187  0.631214  0.170276  1
  O  O106  1  0.859367  0.394750  0.231285  1
  O  O107  1  0.223840  0.123687  0.205116  1
  O  O108  1  0.531046  0.372892  0.472083  1
  O  O109  1  0.000000  0.850803  0.750000  1
  O  O110  1  0.373944  0.621565  0.088732  1
  O  O111  1  0.924187  0.368786  0.670276  1
  O  O112  1  0.373944  0.378435  0.588732  1
  O  O113  1  0.861990  0.885698  0.908613  1
  O  O114  1  0.943069  0.121161  0.161870  1
  O  O115  1  0.626056  0.378435  0.911268  1
  O  O116  1  0.776160  0.876313  0.794884  1
  O  O117  1  0.472845  0.124107  0.528133  1
  O  O118  1  0.859367  0.605250  0.731285  1
  O  O119  1  0.693171  0.123077  0.853730  1
  O  O120  1  0.138010  0.885698  0.591387  1
  O  O121  1  0.223840  0.876313  0.705116  1
  O  O122  1  0.979520  0.403355  0.400842  1
  O  O123  1  0.305249  0.632688  0.645772  1
  O  O124  1  0.000000  0.149197  0.250000  1
  O  O125  1  0.867789  0.850261  0.234048  1
  O  O126  1  0.140633  0.605250  0.768715  1
  O  O127  1  0.468954  0.372892  0.027917  1
  O  O128  1  0.305249  0.367312  0.145772  1
  O  O129  1  0.867789  0.149739  0.734048  1
