# generated using pymatgen
data_LiEr(PO3)4
_symmetry_space_group_name_H-M   'P 1'
_cell_length_a   8.92098821
_cell_length_b   8.92098821
_cell_length_c   9.62577898
_cell_angle_alpha   57.45504150
_cell_angle_beta   122.54495850
_cell_angle_gamma   133.01338889
_symmetry_Int_Tables_number   1
_chemical_formula_structural   LiEr(PO3)4
_chemical_formula_sum   'Li2 Er2 P8 O24'
_cell_volume   453.64832751
_cell_formula_units_Z   2
loop_
 _symmetry_equiv_pos_site_id
 _symmetry_equiv_pos_as_xyz
  1  'x, y, z'
loop_
 _atom_site_type_symbol
 _atom_site_label
 _atom_site_symmetry_multiplicity
 _atom_site_fract_x
 _atom_site_fract_y
 _atom_site_fract_z
 _atom_site_occupancy
  Li  Li0  1  0.706566  0.706566  0.250000  1
  Li  Li1  1  0.293434  0.293434  0.750000  1
  Er  Er2  1  0.203226  0.203226  0.250000  1
  Er  Er3  1  0.796774  0.796774  0.750000  1
  P  P4  1  0.003592  0.294206  0.806882  1
  P  P5  1  0.586430  0.312980  0.116269  1
  P  P6  1  0.294206  0.003592  0.693118  1
  P  P7  1  0.413570  0.687020  0.883731  1
  P  P8  1  0.996408  0.705794  0.193118  1
  P  P9  1  0.687020  0.413570  0.616269  1
  P  P10  1  0.312980  0.586430  0.383731  1
  P  P11  1  0.705794  0.996408  0.306882  1
  O  O12  1  0.151208  0.009781  0.724766  1
  O  O13  1  0.563507  0.431678  0.927969  1
  O  O14  1  0.822888  0.332309  0.651772  1
  O  O15  1  0.436493  0.568322  0.072031  1
  O  O16  1  0.176630  0.399136  0.315611  1
  O  O17  1  0.756974  0.008096  0.478009  1
  O  O18  1  0.431678  0.563507  0.572031  1
  O  O19  1  0.332309  0.822888  0.848228  1
  O  O20  1  0.991904  0.243026  0.978009  1
  O  O21  1  0.472429  0.783528  0.265949  1
  O  O22  1  0.527571  0.216472  0.734051  1
  O  O23  1  0.990219  0.848792  0.224766  1
  O  O24  1  0.667691  0.177112  0.151772  1
  O  O25  1  0.783528  0.472429  0.234051  1
  O  O26  1  0.243026  0.991904  0.521991  1
  O  O27  1  0.568322  0.436493  0.427969  1
  O  O28  1  0.216472  0.527571  0.765949  1
  O  O29  1  0.177112  0.667691  0.348228  1
  O  O30  1  0.823370  0.600864  0.684389  1
  O  O31  1  0.848792  0.990219  0.275234  1
  O  O32  1  0.008096  0.756974  0.021991  1
  O  O33  1  0.009781  0.151208  0.775234  1
  O  O34  1  0.600864  0.823370  0.815611  1
  O  O35  1  0.399136  0.176630  0.184389  1
