# generated using pymatgen
data_Ba2GeS4
_symmetry_space_group_name_H-M   'P 1'
_cell_length_a   6.90167216
_cell_length_b   9.09494396
_cell_length_c   12.59050426
_cell_angle_alpha   90.00000000
_cell_angle_beta   90.00000000
_cell_angle_gamma   90.00000000
_symmetry_Int_Tables_number   1
_chemical_formula_structural   Ba2GeS4
_chemical_formula_sum   'Ba8 Ge4 S16'
_cell_volume   790.31000057
_cell_formula_units_Z   4
loop_
 _symmetry_equiv_pos_site_id
 _symmetry_equiv_pos_as_xyz
  1  'x, y, z'
loop_
 _atom_site_type_symbol
 _atom_site_label
 _atom_site_symmetry_multiplicity
 _atom_site_fract_x
 _atom_site_fract_y
 _atom_site_fract_z
 _atom_site_occupancy
  Ba  Ba0  1  0.750000  0.373308  0.419463  1
  Ba  Ba1  1  0.250000  0.626692  0.580537  1
  Ba  Ba2  1  0.750000  0.873308  0.080537  1
  Ba  Ba3  1  0.250000  0.126692  0.919463  1
  Ba  Ba4  1  0.750000  0.021374  0.669237  1
  Ba  Ba5  1  0.250000  0.978626  0.330763  1
  Ba  Ba6  1  0.750000  0.521374  0.830763  1
  Ba  Ba7  1  0.250000  0.478626  0.169237  1
  Ge  Ge8  1  0.750000  0.771054  0.428206  1
  Ge  Ge9  1  0.250000  0.228946  0.571794  1
  Ge  Ge10  1  0.750000  0.271054  0.071794  1
  Ge  Ge11  1  0.250000  0.728946  0.928206  1
  S  S12  1  0.750000  0.012968  0.405538  1
  S  S13  1  0.250000  0.987032  0.594462  1
  S  S14  1  0.750000  0.512968  0.094462  1
  S  S15  1  0.250000  0.487032  0.905538  1
  S  S16  1  0.750000  0.692669  0.596790  1
  S  S17  1  0.250000  0.307331  0.403210  1
  S  S18  1  0.750000  0.192669  0.903210  1
  S  S19  1  0.250000  0.807331  0.096790  1
  S  S20  1  0.014058  0.670880  0.359431  1
  S  S21  1  0.514058  0.329120  0.640569  1
  S  S22  1  0.485942  0.170880  0.140569  1
  S  S23  1  0.985942  0.829120  0.859431  1
  S  S24  1  0.985942  0.329120  0.640569  1
  S  S25  1  0.485942  0.670880  0.359431  1
  S  S26  1  0.514058  0.829120  0.859431  1
  S  S27  1  0.014058  0.170880  0.140569  1
