# generated using pymatgen
data_K3LiSiO4
_symmetry_space_group_name_H-M   'P 1'
_cell_length_a   11.45655719
_cell_length_b   9.86442958
_cell_length_c   11.92313618
_cell_angle_alpha   90.00000000
_cell_angle_beta   121.33571887
_cell_angle_gamma   90.00000000
_symmetry_Int_Tables_number   1
_chemical_formula_structural   K3LiSiO4
_chemical_formula_sum   'K24 Li8 Si8 O32'
_cell_volume   1150.91439018
_cell_formula_units_Z   8
loop_
 _symmetry_equiv_pos_site_id
 _symmetry_equiv_pos_as_xyz
  1  'x, y, z'
loop_
 _atom_site_type_symbol
 _atom_site_label
 _atom_site_symmetry_multiplicity
 _atom_site_fract_x
 _atom_site_fract_y
 _atom_site_fract_z
 _atom_site_occupancy
  K  K0  1  0.145482  0.917660  0.109067  1
  K  K1  1  0.648962  0.081348  0.060044  1
  K  K2  1  0.351038  0.581348  0.439956  1
  K  K3  1  0.685580  0.770686  0.659131  1
  K  K4  1  0.314420  0.270686  0.840869  1
  K  K5  1  0.654032  0.088649  0.543102  1
  K  K6  1  0.183945  0.258377  0.526043  1
  K  K7  1  0.816055  0.758377  0.973957  1
  K  K8  1  0.345968  0.911351  0.456898  1
  K  K9  1  0.835543  0.087593  0.405755  1
  K  K10  1  0.654032  0.411351  0.043102  1
  K  K11  1  0.345968  0.588649  0.956898  1
  K  K12  1  0.835543  0.412407  0.905755  1
  K  K13  1  0.854518  0.417660  0.390933  1
  K  K14  1  0.145482  0.582340  0.609067  1
  K  K15  1  0.351038  0.918652  0.939956  1
  K  K16  1  0.685580  0.729314  0.159131  1
  K  K17  1  0.816055  0.741623  0.473957  1
  K  K18  1  0.183945  0.241623  0.026043  1
  K  K19  1  0.854518  0.082340  0.890933  1
  K  K20  1  0.164457  0.587593  0.094245  1
  K  K21  1  0.648962  0.418652  0.560044  1
  K  K22  1  0.314420  0.229314  0.340869  1
  K  K23  1  0.164457  0.912407  0.594245  1
  Li  Li24  1  0.012555  0.863467  0.282532  1
  Li  Li25  1  0.515414  0.120618  0.235313  1
  Li  Li26  1  0.515414  0.379382  0.735313  1
  Li  Li27  1  0.012555  0.636533  0.782532  1
  Li  Li28  1  0.987445  0.363467  0.217468  1
  Li  Li29  1  0.987445  0.136533  0.717468  1
  Li  Li30  1  0.484586  0.620618  0.264687  1
  Li  Li31  1  0.484586  0.879382  0.764687  1
  Si  Si32  1  0.482241  0.873291  0.266332  1
  Si  Si33  1  0.977702  0.389357  0.718366  1
  Si  Si34  1  0.022298  0.610643  0.281634  1
  Si  Si35  1  0.517759  0.373291  0.233668  1
  Si  Si36  1  0.977702  0.110643  0.218366  1
  Si  Si37  1  0.482241  0.626709  0.766332  1
  Si  Si38  1  0.022298  0.889357  0.781634  1
  Si  Si39  1  0.517759  0.126709  0.733668  1
  O  O40  1  0.398083  0.057996  0.756827  1
  O  O41  1  0.878869  0.280529  0.738344  1
  O  O42  1  0.891459  0.521997  0.626117  1
  O  O43  1  0.905614  0.957630  0.637380  1
  O  O44  1  0.121131  0.780529  0.761656  1
  O  O45  1  0.094386  0.042370  0.362620  1
  O  O46  1  0.452577  0.274227  0.101215  1
  O  O47  1  0.094386  0.457630  0.862620  1
  O  O48  1  0.601917  0.942004  0.243173  1
  O  O49  1  0.599191  0.506755  0.221383  1
  O  O50  1  0.380189  0.770970  0.142315  1
  O  O51  1  0.398083  0.442004  0.256827  1
  O  O52  1  0.952543  0.798056  0.849604  1
  O  O53  1  0.619811  0.229030  0.857685  1
  O  O54  1  0.619811  0.270970  0.357685  1
  O  O55  1  0.905614  0.542370  0.137380  1
  O  O56  1  0.047457  0.298056  0.650396  1
  O  O57  1  0.108541  0.021997  0.873883  1
  O  O58  1  0.547423  0.774227  0.398785  1
  O  O59  1  0.547423  0.725773  0.898785  1
  O  O60  1  0.047457  0.201944  0.150396  1
  O  O61  1  0.878869  0.219471  0.238344  1
  O  O62  1  0.121131  0.719471  0.261656  1
  O  O63  1  0.891459  0.978003  0.126117  1
  O  O64  1  0.400809  0.493245  0.778617  1
  O  O65  1  0.599191  0.993245  0.721383  1
  O  O66  1  0.108541  0.478003  0.373883  1
  O  O67  1  0.452577  0.225773  0.601215  1
  O  O68  1  0.601917  0.557996  0.743173  1
  O  O69  1  0.400809  0.006755  0.278617  1
  O  O70  1  0.380189  0.729030  0.642315  1
  O  O71  1  0.952543  0.701944  0.349604  1
