# generated using pymatgen
data_Mo4P9O32
_symmetry_space_group_name_H-M   'P 1'
_cell_length_a   14.40389716
_cell_length_b   14.40389716
_cell_length_c   6.50437614
_cell_angle_alpha   90.00000000
_cell_angle_beta   90.00000000
_cell_angle_gamma   90.00000000
_symmetry_Int_Tables_number   1
_chemical_formula_structural   Mo4P9O32
_chemical_formula_sum   'Mo8 P18 O64'
_cell_volume   1349.47757470
_cell_formula_units_Z   2
loop_
 _symmetry_equiv_pos_site_id
 _symmetry_equiv_pos_as_xyz
  1  'x, y, z'
loop_
 _atom_site_type_symbol
 _atom_site_label
 _atom_site_symmetry_multiplicity
 _atom_site_fract_x
 _atom_site_fract_y
 _atom_site_fract_z
 _atom_site_occupancy
  Mo  Mo0  1  0.386493  0.303815  0.871901  1
  Mo  Mo1  1  0.886493  0.196185  0.628099  1
  Mo  Mo2  1  0.696185  0.386493  0.128099  1
  Mo  Mo3  1  0.196185  0.113507  0.371901  1
  Mo  Mo4  1  0.303815  0.613507  0.128099  1
  Mo  Mo5  1  0.803815  0.886493  0.371901  1
  Mo  Mo6  1  0.613507  0.696185  0.871901  1
  Mo  Mo7  1  0.113507  0.803815  0.628099  1
  P  P8  1  0.560539  0.195564  0.117189  1
  P  P9  1  0.249619  0.605252  0.639721  1
  P  P10  1  0.939461  0.695564  0.382811  1
  P  P11  1  0.060539  0.304436  0.382811  1
  P  P12  1  0.195564  0.439461  0.882811  1
  P  P13  1  0.804436  0.560539  0.882811  1
  P  P14  1  0.250381  0.105252  0.860279  1
  P  P15  1  0.750381  0.394748  0.639721  1
  P  P16  1  0.304436  0.939461  0.617189  1
  P  P17  1  0.894748  0.250381  0.139721  1
  P  P18  1  0.500000  0.500000  0.000000  1
  P  P19  1  0.749619  0.894748  0.860279  1
  P  P20  1  0.695564  0.060539  0.617189  1
  P  P21  1  0.605252  0.750381  0.360279  1
  P  P22  1  0.105252  0.749619  0.139721  1
  P  P23  1  0.000000  0.000000  0.500000  1
  P  P24  1  0.394748  0.249619  0.360279  1
  P  P25  1  0.439461  0.804436  0.117189  1
  O  O26  1  0.697812  0.401752  0.435731  1
  O  O27  1  0.253104  0.995575  0.440930  1
  O  O28  1  0.401586  0.916405  0.581397  1
  O  O29  1  0.817214  0.870070  0.685050  1
  O  O30  1  0.854270  0.761846  0.342646  1
  O  O31  1  0.945671  0.068395  0.638719  1
  O  O32  1  0.746896  0.004425  0.440930  1
  O  O33  1  0.997326  0.286900  0.179595  1
  O  O34  1  0.901752  0.197812  0.935731  1
  O  O35  1  0.317214  0.629930  0.814950  1
  O  O36  1  0.098248  0.802188  0.935731  1
  O  O37  1  0.916405  0.598414  0.418603  1
  O  O38  1  0.832574  0.328597  0.629800  1
  O  O39  1  0.504425  0.246896  0.940930  1
  O  O40  1  0.667426  0.828597  0.870200  1
  O  O41  1  0.286900  0.002674  0.820405  1
  O  O42  1  0.583595  0.098414  0.081397  1
  O  O43  1  0.145730  0.238154  0.342646  1
  O  O44  1  0.497326  0.213100  0.320405  1
  O  O45  1  0.246896  0.495575  0.059070  1
  O  O46  1  0.171403  0.667426  0.129800  1
  O  O47  1  0.738154  0.645730  0.842646  1
  O  O48  1  0.761846  0.145730  0.657354  1
  O  O49  1  0.213100  0.502674  0.679595  1
  O  O50  1  0.182786  0.129930  0.685050  1
  O  O51  1  0.167426  0.671403  0.629800  1
  O  O52  1  0.238154  0.854270  0.657354  1
  O  O53  1  0.068395  0.054329  0.361281  1
  O  O54  1  0.870070  0.182786  0.314950  1
  O  O55  1  0.554329  0.568395  0.861281  1
  O  O56  1  0.098414  0.416405  0.918603  1
  O  O57  1  0.370070  0.317214  0.185050  1
  O  O58  1  0.401752  0.302188  0.564269  1
  O  O59  1  0.786900  0.497326  0.679595  1
  O  O60  1  0.598414  0.083595  0.581397  1
  O  O61  1  0.431605  0.554329  0.138719  1
  O  O62  1  0.753104  0.504425  0.059070  1
  O  O63  1  0.332574  0.171403  0.870200  1
  O  O64  1  0.568395  0.445671  0.138719  1
  O  O65  1  0.828597  0.332574  0.129800  1
  O  O66  1  0.354270  0.738154  0.157354  1
  O  O67  1  0.671403  0.832574  0.370200  1
  O  O68  1  0.445671  0.431605  0.861281  1
  O  O69  1  0.995575  0.746896  0.559070  1
  O  O70  1  0.495575  0.753104  0.940930  1
  O  O71  1  0.802188  0.901752  0.064269  1
  O  O72  1  0.931605  0.945671  0.361281  1
  O  O73  1  0.713100  0.997326  0.820405  1
  O  O74  1  0.054329  0.931605  0.638719  1
  O  O75  1  0.302188  0.598248  0.435731  1
  O  O76  1  0.004425  0.253104  0.559070  1
  O  O77  1  0.629930  0.682786  0.185050  1
  O  O78  1  0.502674  0.786900  0.320405  1
  O  O79  1  0.197812  0.098248  0.064269  1
  O  O80  1  0.083595  0.401586  0.418603  1
  O  O81  1  0.129930  0.817214  0.314950  1
  O  O82  1  0.901586  0.583595  0.918603  1
  O  O83  1  0.645730  0.261846  0.157354  1
  O  O84  1  0.598248  0.697812  0.564269  1
  O  O85  1  0.682786  0.370070  0.814950  1
  O  O86  1  0.002674  0.713100  0.179595  1
  O  O87  1  0.261846  0.354270  0.842646  1
  O  O88  1  0.416405  0.901586  0.081397  1
  O  O89  1  0.328597  0.167426  0.370200  1
