# generated using pymatgen
data_Zr3TlF15
_symmetry_space_group_name_H-M   'P 1'
_cell_length_a   8.11996578
_cell_length_b   8.12741100
_cell_length_c   16.26271956
_cell_angle_alpha   100.02274818
_cell_angle_beta   99.95406969
_cell_angle_gamma   99.91618487
_symmetry_Int_Tables_number   1
_chemical_formula_structural   Zr3TlF15
_chemical_formula_sum   'Zr12 Tl4 F60'
_cell_volume   1018.06576174
_cell_formula_units_Z   4
loop_
 _symmetry_equiv_pos_site_id
 _symmetry_equiv_pos_as_xyz
  1  'x, y, z'
loop_
 _atom_site_type_symbol
 _atom_site_label
 _atom_site_symmetry_multiplicity
 _atom_site_fract_x
 _atom_site_fract_y
 _atom_site_fract_z
 _atom_site_occupancy
  Zr  Zr0  1  0.248248  0.679983  0.909847  1
  Zr  Zr1  1  0.179152  0.750235  0.660176  1
  Zr  Zr2  1  0.324570  0.179603  0.872653  1
  Zr  Zr3  1  0.251697  0.678288  0.410964  1
  Zr  Zr4  1  0.175597  0.752478  0.162065  1
  Zr  Zr5  1  0.321442  0.176204  0.376268  1
  Zr  Zr6  1  0.250357  0.250630  0.125199  1
  Zr  Zr7  1  0.679428  0.820482  0.625248  1
  Zr  Zr8  1  0.820873  0.249595  0.839039  1
  Zr  Zr9  1  0.749696  0.320623  0.589805  1
  Zr  Zr10  1  0.677858  0.819015  0.123703  1
  Zr  Zr11  1  0.822241  0.252507  0.341060  1
  Tl  Tl12  1  0.249753  0.250122  0.624726  1
  Tl  Tl13  1  0.747484  0.747998  0.874730  1
  Tl  Tl14  1  0.752384  0.750176  0.376206  1
  Tl  Tl15  1  0.749969  0.322037  0.088249  1
  F  F16  1  0.026668  0.790117  0.894507  1
  F  F17  1  0.033394  0.470446  0.872337  1
  F  F18  1  0.054688  0.158195  0.842409  1
  F  F19  1  0.031022  0.789186  0.392169  1
  F  F20  1  0.170742  0.658571  0.774810  1
  F  F21  1  0.250327  0.966821  0.766043  1
  F  F22  1  0.036890  0.467561  0.378062  1
  F  F23  1  0.221440  0.216932  0.996122  1
  F  F24  1  0.212279  0.972072  0.605130  1
  F  F25  1  0.322939  0.951341  0.921077  1
  F  F26  1  0.156502  0.672882  0.525424  1
  F  F27  1  0.052563  0.157617  0.335257  1
  F  F28  1  0.337198  0.447882  0.914876  1
  F  F29  1  0.176632  0.652342  0.274695  1
  F  F30  1  0.285174  0.290706  0.764022  1
  F  F31  1  0.288942  0.528553  0.643368  1
  F  F32  1  0.249943  0.963178  0.269137  1
  F  F33  1  0.211136  0.214701  0.485377  1
  F  F34  1  0.222219  0.989574  0.112111  1
  F  F35  1  0.329732  0.949337  0.423808  1
  F  F36  1  0.159794  0.683189  0.028224  1
  F  F37  1  0.468148  0.711135  0.854163  1
  F  F38  1  0.449891  0.829072  0.671623  1
  F  F39  1  0.345490  0.444861  0.407718  1
  F  F40  1  0.280268  0.276276  0.255320  1
  F  F41  1  0.278213  0.509621  0.140755  1
  F  F42  1  0.465560  0.745025  0.516691  1
  F  F43  1  0.529508  0.249880  0.974880  1
  F  F44  1  0.473903  0.714899  0.356115  1
  F  F45  1  0.550109  0.169662  0.821800  1
  F  F46  1  0.443619  0.816142  0.170539  1
  F  F47  1  0.528087  0.288088  0.644787  1
  F  F48  1  0.464051  0.752472  0.014310  1
  F  F49  1  0.533672  0.249050  0.483251  1
  F  F50  1  0.708072  0.469816  0.855891  1
  F  F51  1  0.712157  0.710480  0.735662  1
  F  F52  1  0.656653  0.550244  0.585780  1
  F  F53  1  0.548426  0.174557  0.328117  1
  F  F54  1  0.506038  0.275313  0.144559  1
  F  F55  1  0.862842  0.327366  0.970823  1
  F  F56  1  0.670307  0.050008  0.578428  1
  F  F57  1  0.781037  0.025523  0.893121  1
  F  F58  1  0.790491  0.788864  0.515085  1
  F  F59  1  0.756720  0.033225  0.732610  1
  F  F60  1  0.710824  0.473219  0.359490  1
  F  F61  1  0.719956  0.716048  0.237082  1
  F  F62  1  0.828646  0.343888  0.724192  1
  F  F63  1  0.635767  0.555098  0.086747  1
  F  F64  1  0.949902  0.842716  0.664250  1
  F  F65  1  0.844533  0.327752  0.475746  1
  F  F66  1  0.669009  0.040436  0.077121  1
  F  F67  1  0.787362  0.028502  0.393811  1
  F  F68  1  0.790367  0.780026  0.013731  1
  F  F69  1  0.966156  0.533681  0.624848  1
  F  F70  1  0.744186  0.033934  0.233453  1
  F  F71  1  0.830569  0.344700  0.230453  1
  F  F72  1  0.971396  0.210201  0.606322  1
  F  F73  1  0.952414  0.856272  0.163610  1
  F  F74  1  0.970438  0.549128  0.125783  1
  F  F75  1  0.994242  0.211640  0.112430  1
