# generated using pymatgen
data_Mn2O2F9
_symmetry_space_group_name_H-M   'P 1'
_cell_length_a   9.88215756
_cell_length_b   9.88215756
_cell_length_c   9.31976614
_cell_angle_alpha   80.81047748
_cell_angle_beta   99.18952252
_cell_angle_gamma   127.56749739
_symmetry_Int_Tables_number   1
_chemical_formula_structural   Mn2O2F9
_chemical_formula_sum   'Mn8 O8 F36'
_cell_volume   709.88783529
_cell_formula_units_Z   4
loop_
 _symmetry_equiv_pos_site_id
 _symmetry_equiv_pos_as_xyz
  1  'x, y, z'
loop_
 _atom_site_type_symbol
 _atom_site_label
 _atom_site_symmetry_multiplicity
 _atom_site_fract_x
 _atom_site_fract_y
 _atom_site_fract_z
 _atom_site_occupancy
  Mn  Mn0  1  0.830723  0.677654  0.056449  1
  Mn  Mn1  1  0.258750  0.010464  0.938352  1
  Mn  Mn2  1  0.010464  0.258750  0.561648  1
  Mn  Mn3  1  0.741250  0.989536  0.061648  1
  Mn  Mn4  1  0.989536  0.741250  0.438352  1
  Mn  Mn5  1  0.322346  0.169277  0.556449  1
  Mn  Mn6  1  0.169277  0.322346  0.943551  1
  Mn  Mn7  1  0.677654  0.830723  0.443551  1
  O  O8  1  0.732024  0.354298  0.717202  1
  O  O9  1  0.354298  0.732024  0.782798  1
  O  O10  1  0.267976  0.645702  0.282798  1
  O  O11  1  0.645702  0.267976  0.217202  1
  O  O12  1  0.812919  0.431752  0.819080  1
  O  O13  1  0.431752  0.812919  0.680920  1
  O  O14  1  0.187081  0.568248  0.180920  1
  O  O15  1  0.568248  0.187081  0.319080  1
  F  F16  1  0.063161  0.419843  0.910493  1
  F  F17  1  0.480486  0.145694  0.916379  1
  F  F18  1  0.145694  0.480486  0.583621  1
  F  F19  1  0.519514  0.854306  0.083621  1
  F  F20  1  0.854306  0.519514  0.416379  1
  F  F21  1  0.499474  0.351307  0.651139  1
  F  F22  1  0.351307  0.499474  0.848861  1
  F  F23  1  0.500526  0.648693  0.348861  1
  F  F24  1  0.789246  0.721410  0.477737  1
  F  F25  1  0.721410  0.789246  0.022263  1
  F  F26  1  0.210754  0.278590  0.522263  1
  F  F27  1  0.278590  0.210754  0.977737  1
  F  F28  1  0.941683  0.791749  0.231938  1
  F  F29  1  0.791749  0.941683  0.268062  1
  F  F30  1  0.058317  0.208251  0.768062  1
  F  F31  1  0.208251  0.058317  0.731938  1
  F  F32  1  0.936839  0.580157  0.089507  1
  F  F33  1  0.580157  0.936839  0.410493  1
  F  F34  1  0.648693  0.500526  0.151139  1
  F  F35  1  0.419843  0.063161  0.589507  1
  F  F36  1  0.177947  0.772862  0.396355  1
  F  F37  1  0.772862  0.177947  0.103645  1
  F  F38  1  0.417094  0.269289  0.384740  1
  F  F39  1  0.227138  0.822053  0.896355  1
  F  F40  1  0.031365  0.712776  0.627833  1
  F  F41  1  0.712776  0.031365  0.872167  1
  F  F42  1  0.968635  0.287224  0.372167  1
  F  F43  1  0.287224  0.968635  0.127833  1
  F  F44  1  0.012624  0.877024  0.951744  1
  F  F45  1  0.877024  0.012624  0.548256  1
  F  F46  1  0.987376  0.122976  0.048256  1
  F  F47  1  0.122976  0.987376  0.451744  1
  F  F48  1  0.730711  0.582906  0.884740  1
  F  F49  1  0.582906  0.730711  0.615260  1
  F  F50  1  0.269289  0.417094  0.115260  1
  F  F51  1  0.822053  0.227138  0.603645  1
