# generated using pymatgen
data_LiBi(PO3)4
_symmetry_space_group_name_H-M   'P 1'
_cell_length_a   9.02958887
_cell_length_b   9.02958887
_cell_length_c   9.84648747
_cell_angle_alpha   57.35633225
_cell_angle_beta   122.64366775
_cell_angle_gamma   133.18732657
_symmetry_Int_Tables_number   1
_chemical_formula_structural   LiBi(PO3)4
_chemical_formula_sum   'Li2 Bi2 P8 O24'
_cell_volume   473.56075671
_cell_formula_units_Z   2
loop_
 _symmetry_equiv_pos_site_id
 _symmetry_equiv_pos_as_xyz
  1  'x, y, z'
loop_
 _atom_site_type_symbol
 _atom_site_label
 _atom_site_symmetry_multiplicity
 _atom_site_fract_x
 _atom_site_fract_y
 _atom_site_fract_z
 _atom_site_occupancy
  Li  Li0  1  0.702532  0.702532  0.250000  1
  Li  Li1  1  0.297468  0.297468  0.750000  1
  Bi  Bi2  1  0.196626  0.196626  0.250000  1
  Bi  Bi3  1  0.803374  0.803374  0.750000  1
  P  P4  1  0.004658  0.297136  0.806565  1
  P  P5  1  0.413920  0.692298  0.883120  1
  P  P6  1  0.692298  0.413920  0.616880  1
  P  P7  1  0.297136  0.004658  0.693435  1
  P  P8  1  0.702864  0.995342  0.306565  1
  P  P9  1  0.307702  0.586080  0.383120  1
  P  P10  1  0.586080  0.307702  0.116880  1
  P  P11  1  0.995342  0.702864  0.193435  1
  O  O12  1  0.595548  0.832195  0.810543  1
  O  O13  1  0.216468  0.529252  0.771745  1
  O  O14  1  0.979971  0.238532  0.970955  1
  O  O15  1  0.825212  0.331307  0.651819  1
  O  O16  1  0.980502  0.839102  0.223410  1
  O  O17  1  0.331307  0.825212  0.848181  1
  O  O18  1  0.238532  0.979971  0.529045  1
  O  O19  1  0.579483  0.444274  0.431867  1
  O  O20  1  0.444274  0.579483  0.068133  1
  O  O21  1  0.529252  0.216468  0.728255  1
  O  O22  1  0.832195  0.595548  0.689457  1
  O  O23  1  0.839102  0.980502  0.276590  1
  O  O24  1  0.160898  0.019498  0.723410  1
  O  O25  1  0.167805  0.404452  0.310543  1
  O  O26  1  0.470748  0.783532  0.271745  1
  O  O27  1  0.555726  0.420517  0.931867  1
  O  O28  1  0.420517  0.555726  0.568133  1
  O  O29  1  0.761468  0.020029  0.470955  1
  O  O30  1  0.668693  0.174788  0.151819  1
  O  O31  1  0.019498  0.160898  0.776590  1
  O  O32  1  0.174788  0.668693  0.348181  1
  O  O33  1  0.020029  0.761468  0.029045  1
  O  O34  1  0.783532  0.470748  0.228255  1
  O  O35  1  0.404452  0.167805  0.189457  1
