# generated using pymatgen
data_K3InCl6
_symmetry_space_group_name_H-M   'P 1'
_cell_length_a   12.58925961
_cell_length_b   7.74913270
_cell_length_c   12.99737600
_cell_angle_alpha   90.00000000
_cell_angle_beta   108.91446470
_cell_angle_gamma   90.00000000
_symmetry_Int_Tables_number   1
_chemical_formula_structural   K3InCl6
_chemical_formula_sum   'K12 In4 Cl24'
_cell_volume   1199.50410339
_cell_formula_units_Z   4
loop_
 _symmetry_equiv_pos_site_id
 _symmetry_equiv_pos_as_xyz
  1  'x, y, z'
loop_
 _atom_site_type_symbol
 _atom_site_label
 _atom_site_symmetry_multiplicity
 _atom_site_fract_x
 _atom_site_fract_y
 _atom_site_fract_z
 _atom_site_occupancy
  K  K0  1  0.611485  0.067677  0.320956  1
  K  K1  1  0.138444  0.977603  0.900189  1
  K  K2  1  0.236322  0.438207  0.684222  1
  K  K3  1  0.861556  0.022397  0.099811  1
  K  K4  1  0.111485  0.432323  0.320956  1
  K  K5  1  0.763678  0.561793  0.315778  1
  K  K6  1  0.361556  0.477603  0.099811  1
  K  K7  1  0.888515  0.567677  0.679044  1
  K  K8  1  0.736322  0.061793  0.684222  1
  K  K9  1  0.638444  0.522397  0.900189  1
  K  K10  1  0.388515  0.932323  0.679044  1
  K  K11  1  0.263678  0.938207  0.315778  1
  In  In12  1  0.500000  0.000000  0.000000  1
  In  In13  1  0.000000  0.000000  0.500000  1
  In  In14  1  0.500000  0.500000  0.500000  1
  In  In15  1  0.000000  0.500000  0.000000  1
  Cl  Cl16  1  0.496016  0.294921  0.650526  1
  Cl  Cl17  1  0.373268  0.989484  0.114825  1
  Cl  Cl18  1  0.408897  0.718732  0.898532  1
  Cl  Cl19  1  0.187747  0.136346  0.500363  1
  Cl  Cl20  1  0.394859  0.290090  0.347960  1
  Cl  Cl21  1  0.105141  0.790090  0.652040  1
  Cl  Cl22  1  0.650686  0.822286  0.136872  1
  Cl  Cl23  1  0.626732  0.010516  0.885175  1
  Cl  Cl24  1  0.003984  0.794921  0.349474  1
  Cl  Cl25  1  0.349314  0.177714  0.863128  1
  Cl  Cl26  1  0.812253  0.863654  0.499637  1
  Cl  Cl27  1  0.687747  0.363654  0.500363  1
  Cl  Cl28  1  0.873268  0.510516  0.114825  1
  Cl  Cl29  1  0.126732  0.489484  0.885175  1
  Cl  Cl30  1  0.849314  0.322286  0.863128  1
  Cl  Cl31  1  0.908897  0.781268  0.898532  1
  Cl  Cl32  1  0.996016  0.205079  0.650526  1
  Cl  Cl33  1  0.894859  0.209910  0.347960  1
  Cl  Cl34  1  0.591103  0.281268  0.101468  1
  Cl  Cl35  1  0.503984  0.705079  0.349474  1
  Cl  Cl36  1  0.150686  0.677714  0.136872  1
  Cl  Cl37  1  0.091103  0.218732  0.101468  1
  Cl  Cl38  1  0.312253  0.636346  0.499637  1
  Cl  Cl39  1  0.605141  0.709910  0.652040  1
