# generated using pymatgen
data_AsS(ClF2)3
_symmetry_space_group_name_H-M   'P 1'
_cell_length_a   8.07603182
_cell_length_b   8.93232450
_cell_length_c   12.26879780
_cell_angle_alpha   90.00000000
_cell_angle_beta   90.00000000
_cell_angle_gamma   90.00000000
_symmetry_Int_Tables_number   1
_chemical_formula_structural   AsS(ClF2)3
_chemical_formula_sum   'As4 S4 Cl12 F24'
_cell_volume   885.04330764
_cell_formula_units_Z   4
loop_
 _symmetry_equiv_pos_site_id
 _symmetry_equiv_pos_as_xyz
  1  'x, y, z'
loop_
 _atom_site_type_symbol
 _atom_site_label
 _atom_site_symmetry_multiplicity
 _atom_site_fract_x
 _atom_site_fract_y
 _atom_site_fract_z
 _atom_site_occupancy
  As  As0  1  0.794085  0.530839  0.187284  1
  As  As1  1  0.205915  0.030839  0.312716  1
  As  As2  1  0.294085  0.969161  0.812716  1
  As  As3  1  0.705915  0.469161  0.687284  1
  S  S4  1  0.659324  0.025273  0.524929  1
  S  S5  1  0.840676  0.974727  0.024929  1
  S  S6  1  0.340676  0.525273  0.975071  1
  S  S7  1  0.159324  0.474727  0.475071  1
  Cl  Cl8  1  0.665384  0.831568  0.444738  1
  Cl  Cl9  1  0.334616  0.331568  0.055262  1
  Cl  Cl10  1  0.641880  0.990184  0.121163  1
  Cl  Cl11  1  0.858120  0.009816  0.621163  1
  Cl  Cl12  1  0.278093  0.672988  0.088827  1
  Cl  Cl13  1  0.221907  0.327012  0.588827  1
  Cl  Cl14  1  0.141880  0.509816  0.878837  1
  Cl  Cl15  1  0.778093  0.827012  0.911173  1
  Cl  Cl16  1  0.165384  0.668432  0.555262  1
  Cl  Cl17  1  0.358120  0.490184  0.378837  1
  Cl  Cl18  1  0.834616  0.168432  0.944738  1
  Cl  Cl19  1  0.721907  0.172988  0.411173  1
  F  F20  1  0.681520  0.528515  0.062353  1
  F  F21  1  0.296302  0.856600  0.275583  1
  F  F22  1  0.703698  0.356600  0.224417  1
  F  F23  1  0.818480  0.471485  0.562353  1
  F  F24  1  0.039693  0.936110  0.375897  1
  F  F25  1  0.624575  0.626042  0.249807  1
  F  F26  1  0.124575  0.873958  0.750193  1
  F  F27  1  0.875425  0.373958  0.749807  1
  F  F28  1  0.383166  0.793811  0.849913  1
  F  F29  1  0.097239  0.037110  0.187323  1
  F  F30  1  0.883166  0.706189  0.150087  1
  F  F31  1  0.318480  0.028515  0.437647  1
  F  F32  1  0.597239  0.462890  0.812677  1
  F  F33  1  0.203698  0.143400  0.775583  1
  F  F34  1  0.375425  0.126042  0.250193  1
  F  F35  1  0.402761  0.962890  0.687323  1
  F  F36  1  0.902761  0.537110  0.312677  1
  F  F37  1  0.116834  0.206189  0.349913  1
  F  F38  1  0.960307  0.436110  0.124103  1
  F  F39  1  0.796302  0.643400  0.724417  1
  F  F40  1  0.181520  0.971485  0.937647  1
  F  F41  1  0.539693  0.563890  0.624103  1
  F  F42  1  0.460307  0.063890  0.875897  1
  F  F43  1  0.616834  0.293811  0.650087  1
