# generated using pymatgen
data_TlSbO3
_symmetry_space_group_name_H-M   'P 1'
_cell_length_a   5.41372587
_cell_length_b   5.41372587
_cell_length_c   15.04376828
_cell_angle_alpha   90.00000000
_cell_angle_beta   90.00000000
_cell_angle_gamma   120.00000000
_symmetry_Int_Tables_number   1
_chemical_formula_structural   TlSbO3
_chemical_formula_sum   'Tl4 Sb4 O12'
_cell_volume   381.83856456
_cell_formula_units_Z   4
loop_
 _symmetry_equiv_pos_site_id
 _symmetry_equiv_pos_as_xyz
  1  'x, y, z'
loop_
 _atom_site_type_symbol
 _atom_site_label
 _atom_site_symmetry_multiplicity
 _atom_site_fract_x
 _atom_site_fract_y
 _atom_site_fract_z
 _atom_site_occupancy
  Tl  Tl0  1  0.666667  0.333333  0.926330  1
  Tl  Tl1  1  0.333333  0.666667  0.426330  1
  Tl  Tl2  1  0.333333  0.666667  0.073670  1
  Tl  Tl3  1  0.666667  0.333333  0.573670  1
  Sb  Sb4  1  0.666667  0.333333  0.250000  1
  Sb  Sb5  1  0.000000  0.000000  0.250000  1
  Sb  Sb6  1  0.333333  0.666667  0.750000  1
  Sb  Sb7  1  0.000000  0.000000  0.750000  1
  O  O8  1  0.282425  0.333330  0.825222  1
  O  O9  1  0.717575  0.050905  0.325222  1
  O  O10  1  0.717575  0.666670  0.174778  1
  O  O11  1  0.050905  0.333330  0.674778  1
  O  O12  1  0.949095  0.282425  0.174778  1
  O  O13  1  0.333330  0.050905  0.174778  1
  O  O14  1  0.666670  0.717575  0.674778  1
  O  O15  1  0.050905  0.717575  0.825222  1
  O  O16  1  0.333330  0.282425  0.325222  1
  O  O17  1  0.666670  0.949095  0.825222  1
  O  O18  1  0.949095  0.666670  0.325222  1
  O  O19  1  0.282425  0.949095  0.674778  1
