# generated using pymatgen
data_Na2Ca3(Si3O8)2
_symmetry_space_group_name_H-M   'P 1'
_cell_length_a   7.30466889
_cell_length_b   10.28536146
_cell_length_c   10.79645277
_cell_angle_alpha   78.20375284
_cell_angle_beta   70.27006449
_cell_angle_gamma   80.91385822
_symmetry_Int_Tables_number   1
_chemical_formula_structural   Na2Ca3(Si3O8)2
_chemical_formula_sum   'Na4 Ca6 Si12 O32'
_cell_volume   743.91840911
_cell_formula_units_Z   2
loop_
 _symmetry_equiv_pos_site_id
 _symmetry_equiv_pos_as_xyz
  1  'x, y, z'
loop_
 _atom_site_type_symbol
 _atom_site_label
 _atom_site_symmetry_multiplicity
 _atom_site_fract_x
 _atom_site_fract_y
 _atom_site_fract_z
 _atom_site_occupancy
  Na  Na0  1  0.177212  0.418845  0.175476  1
  Na  Na1  1  0.917629  0.865389  0.479522  1
  Na  Na2  1  0.082371  0.134611  0.520478  1
  Na  Na3  1  0.822788  0.581155  0.824524  1
  Ca  Ca4  1  0.845104  0.875187  0.120129  1
  Ca  Ca5  1  0.351471  0.865574  0.112008  1
  Ca  Ca6  1  0.154896  0.124813  0.879871  1
  Ca  Ca7  1  0.418940  0.849880  0.484622  1
  Ca  Ca8  1  0.581060  0.150120  0.515378  1
  Ca  Ca9  1  0.648529  0.134426  0.887992  1
  Si  Si10  1  0.253780  0.601264  0.360631  1
  Si  Si11  1  0.185554  0.401995  0.626864  1
  Si  Si12  1  0.351625  0.416360  0.849922  1
  Si  Si13  1  0.450132  0.126590  0.231306  1
  Si  Si14  1  0.773442  0.312789  0.076101  1
  Si  Si15  1  0.814446  0.598005  0.373136  1
  Si  Si16  1  0.648375  0.583640  0.150078  1
  Si  Si17  1  0.981332  0.867322  0.768809  1
  Si  Si18  1  0.746220  0.398736  0.639369  1
  Si  Si19  1  0.549868  0.873410  0.768694  1
  Si  Si20  1  0.018668  0.132678  0.231191  1
  Si  Si21  1  0.226558  0.687211  0.923899  1
  O  O22  1  0.294376  0.501367  0.490196  1
  O  O23  1  0.559620  0.265987  0.175224  1
  O  O24  1  0.743624  0.754776  0.371289  1
  O  O25  1  0.065637  0.023600  0.130696  1
  O  O26  1  0.257999  0.757894  0.359151  1
  O  O27  1  0.705624  0.498633  0.509804  1
  O  O28  1  0.112153  0.912583  0.616881  1
  O  O29  1  0.440380  0.734013  0.824776  1
  O  O30  1  0.222075  0.182152  0.237121  1
  O  O31  1  0.256376  0.245224  0.628711  1
  O  O32  1  0.579965  0.450976  0.771405  1
  O  O33  1  0.934363  0.976400  0.869304  1
  O  O34  1  0.260463  0.521750  0.958047  1
  O  O35  1  0.420035  0.549024  0.228595  1
  O  O36  1  0.074135  0.722163  0.836366  1
  O  O37  1  0.887847  0.087417  0.383119  1
  O  O38  1  0.742001  0.242106  0.640849  1
  O  O39  1  0.653214  0.736939  0.081956  1
  O  O40  1  0.451453  0.978079  0.873532  1
  O  O41  1  0.051202  0.560810  0.348820  1
  O  O42  1  0.739537  0.478250  0.041953  1
  O  O43  1  0.777925  0.817848  0.762879  1
  O  O44  1  0.852650  0.248861  0.942043  1
  O  O45  1  0.346786  0.263061  0.918044  1
  O  O46  1  0.554628  0.932983  0.617149  1
  O  O47  1  0.147350  0.751139  0.057957  1
  O  O48  1  0.780621  0.542140  0.251229  1
  O  O49  1  0.219379  0.457860  0.748771  1
  O  O50  1  0.925865  0.277837  0.163634  1
  O  O51  1  0.445372  0.067017  0.382851  1
  O  O52  1  0.948798  0.439190  0.651180  1
  O  O53  1  0.548547  0.021921  0.126468  1
