# generated using pymatgen
data_Na2Be2(SiO3)3
_symmetry_space_group_name_H-M   'P 1'
_cell_length_a   6.88016428
_cell_length_b   9.50987596
_cell_length_c   11.86627099
_cell_angle_alpha   90.00000000
_cell_angle_beta   90.00000000
_cell_angle_gamma   90.00000000
_symmetry_Int_Tables_number   1
_chemical_formula_structural   Na2Be2(SiO3)3
_chemical_formula_sum   'Na8 Be8 Si12 O36'
_cell_volume   776.40428320
_cell_formula_units_Z   4
loop_
 _symmetry_equiv_pos_site_id
 _symmetry_equiv_pos_as_xyz
  1  'x, y, z'
loop_
 _atom_site_type_symbol
 _atom_site_label
 _atom_site_symmetry_multiplicity
 _atom_site_fract_x
 _atom_site_fract_y
 _atom_site_fract_z
 _atom_site_occupancy
  Na  Na0  1  0.848043  0.967254  0.346968  1
  Na  Na1  1  0.348043  0.032746  0.153032  1
  Na  Na2  1  0.151957  0.032746  0.653032  1
  Na  Na3  1  0.848043  0.532746  0.346968  1
  Na  Na4  1  0.651957  0.532746  0.846968  1
  Na  Na5  1  0.151957  0.467254  0.653032  1
  Na  Na6  1  0.651957  0.967254  0.846968  1
  Na  Na7  1  0.348043  0.467254  0.153032  1
  Be  Be8  1  0.594363  0.059644  0.569517  1
  Be  Be9  1  0.094363  0.559644  0.930483  1
  Be  Be10  1  0.405637  0.940356  0.430483  1
  Be  Be11  1  0.405637  0.559644  0.430483  1
  Be  Be12  1  0.594363  0.440356  0.569517  1
  Be  Be13  1  0.905637  0.440356  0.069517  1
  Be  Be14  1  0.905637  0.059644  0.069517  1
  Be  Be15  1  0.094363  0.940356  0.930483  1
  Si  Si16  1  0.474907  0.250000  0.754039  1
  Si  Si17  1  0.399562  0.750000  0.996721  1
  Si  Si18  1  0.328668  0.250000  0.437672  1
  Si  Si19  1  0.899562  0.250000  0.503279  1
  Si  Si20  1  0.025093  0.250000  0.254039  1
  Si  Si21  1  0.671332  0.750000  0.562328  1
  Si  Si22  1  0.600438  0.250000  0.003279  1
  Si  Si23  1  0.525093  0.750000  0.245961  1
  Si  Si24  1  0.171332  0.250000  0.937672  1
  Si  Si25  1  0.974907  0.750000  0.745961  1
  Si  Si26  1  0.100438  0.750000  0.496721  1
  Si  Si27  1  0.828668  0.750000  0.062328  1
  O  O28  1  0.750552  0.750000  0.193436  1
  O  O29  1  0.682960  0.396133  0.053216  1
  O  O30  1  0.953472  0.608874  0.040385  1
  O  O31  1  0.453472  0.391126  0.459615  1
  O  O32  1  0.546528  0.608874  0.540385  1
  O  O33  1  0.250552  0.250000  0.306564  1
  O  O34  1  0.998552  0.896873  0.812614  1
  O  O35  1  0.498552  0.396873  0.687386  1
  O  O36  1  0.453472  0.108874  0.459615  1
  O  O37  1  0.501448  0.896873  0.312614  1
  O  O38  1  0.953472  0.891126  0.040385  1
  O  O39  1  0.998552  0.603127  0.812614  1
  O  O40  1  0.817040  0.103867  0.553216  1
  O  O41  1  0.124041  0.750000  0.636419  1
  O  O42  1  0.001448  0.396873  0.187386  1
  O  O43  1  0.249448  0.250000  0.806564  1
  O  O44  1  0.640243  0.750000  0.973879  1
  O  O45  1  0.046528  0.108874  0.959615  1
  O  O46  1  0.749448  0.750000  0.693436  1
  O  O47  1  0.546528  0.891126  0.540385  1
  O  O48  1  0.817040  0.396133  0.553216  1
  O  O49  1  0.001448  0.103127  0.187386  1
  O  O50  1  0.375959  0.750000  0.136419  1
  O  O51  1  0.359757  0.250000  0.026121  1
  O  O52  1  0.317040  0.603867  0.946784  1
  O  O53  1  0.498552  0.103127  0.687386  1
  O  O54  1  0.859757  0.750000  0.473879  1
  O  O55  1  0.875959  0.250000  0.363581  1
  O  O56  1  0.501448  0.603127  0.312614  1
  O  O57  1  0.182960  0.603867  0.446784  1
  O  O58  1  0.182960  0.896133  0.446784  1
  O  O59  1  0.682960  0.103867  0.053216  1
  O  O60  1  0.624041  0.250000  0.863581  1
  O  O61  1  0.046528  0.391126  0.959615  1
  O  O62  1  0.140243  0.250000  0.526121  1
  O  O63  1  0.317040  0.896133  0.946784  1
