# generated using pymatgen
data_Ga2Te2Cl7
_symmetry_space_group_name_H-M   'P 1'
_cell_length_a   9.62695246
_cell_length_b   11.41230869
_cell_length_c   13.78086807
_cell_angle_alpha   90.00000000
_cell_angle_beta   94.31598524
_cell_angle_gamma   90.00000000
_symmetry_Int_Tables_number   1
_chemical_formula_structural   Ga2Te2Cl7
_chemical_formula_sum   'Ga8 Te8 Cl28'
_cell_volume   1509.75188356
_cell_formula_units_Z   4
loop_
 _symmetry_equiv_pos_site_id
 _symmetry_equiv_pos_as_xyz
  1  'x, y, z'
loop_
 _atom_site_type_symbol
 _atom_site_label
 _atom_site_symmetry_multiplicity
 _atom_site_fract_x
 _atom_site_fract_y
 _atom_site_fract_z
 _atom_site_occupancy
  Ga  Ga0  1  0.260020  0.581833  0.842210  1
  Ga  Ga1  1  0.739980  0.081833  0.657790  1
  Ga  Ga2  1  0.739980  0.418167  0.157790  1
  Ga  Ga3  1  0.260020  0.918167  0.342210  1
  Ga  Ga4  1  0.877826  0.679550  0.795386  1
  Ga  Ga5  1  0.122174  0.179550  0.704614  1
  Ga  Ga6  1  0.122174  0.320450  0.204614  1
  Ga  Ga7  1  0.877826  0.820450  0.295386  1
  Te  Te8  1  0.565517  0.845248  0.035234  1
  Te  Te9  1  0.434483  0.345248  0.464766  1
  Te  Te10  1  0.434483  0.154752  0.964766  1
  Te  Te11  1  0.565517  0.654752  0.535234  1
  Te  Te12  1  0.324593  0.935293  0.949846  1
  Te  Te13  1  0.675407  0.435293  0.550154  1
  Te  Te14  1  0.675407  0.064707  0.050154  1
  Te  Te15  1  0.324593  0.564707  0.449846  1
  Cl  Cl16  1  0.364342  0.421610  0.805795  1
  Cl  Cl17  1  0.635658  0.921610  0.694205  1
  Cl  Cl18  1  0.635658  0.578390  0.194205  1
  Cl  Cl19  1  0.364342  0.078390  0.305795  1
  Cl  Cl20  1  0.318431  0.646196  0.990839  1
  Cl  Cl21  1  0.681569  0.146196  0.509161  1
  Cl  Cl22  1  0.681569  0.353804  0.009161  1
  Cl  Cl23  1  0.318431  0.853804  0.490839  1
  Cl  Cl24  1  0.271165  0.721829  0.737083  1
  Cl  Cl25  1  0.728835  0.221829  0.762917  1
  Cl  Cl26  1  0.728835  0.278171  0.262917  1
  Cl  Cl27  1  0.271165  0.778171  0.237083  1
  Cl  Cl28  1  0.027427  0.527797  0.853297  1
  Cl  Cl29  1  0.972573  0.027797  0.646703  1
  Cl  Cl30  1  0.972573  0.472203  0.146703  1
  Cl  Cl31  1  0.027427  0.972203  0.353297  1
  Cl  Cl32  1  0.887758  0.669233  0.636007  1
  Cl  Cl33  1  0.112242  0.169233  0.863993  1
  Cl  Cl34  1  0.112242  0.330767  0.363993  1
  Cl  Cl35  1  0.887758  0.830767  0.136007  1
  Cl  Cl36  1  0.957249  0.836598  0.867631  1
  Cl  Cl37  1  0.042751  0.336598  0.632369  1
  Cl  Cl38  1  0.042751  0.163402  0.132369  1
  Cl  Cl39  1  0.957249  0.663402  0.367631  1
  Cl  Cl40  1  0.676262  0.622726  0.836959  1
  Cl  Cl41  1  0.323738  0.122726  0.663041  1
  Cl  Cl42  1  0.323738  0.377274  0.163041  1
  Cl  Cl43  1  0.676262  0.877274  0.336959  1
