# generated using pymatgen
data_SrFe3(PO4)3
_symmetry_space_group_name_H-M   'P 1'
_cell_length_a   9.23694562
_cell_length_b   9.23694562
_cell_length_c   9.23694562
_cell_angle_alpha   138.01044103
_cell_angle_beta   110.06543317
_cell_angle_gamma   85.04577556
_symmetry_Int_Tables_number   1
_chemical_formula_structural   SrFe3(PO4)3
_chemical_formula_sum   'Sr2 Fe6 P6 O24'
_cell_volume   477.06767152
_cell_formula_units_Z   2
loop_
 _symmetry_equiv_pos_site_id
 _symmetry_equiv_pos_as_xyz
  1  'x, y, z'
loop_
 _atom_site_type_symbol
 _atom_site_label
 _atom_site_symmetry_multiplicity
 _atom_site_fract_x
 _atom_site_fract_y
 _atom_site_fract_z
 _atom_site_occupancy
  Sr  Sr0  1  0.250000  0.350234  0.600234  1
  Sr  Sr1  1  0.750000  0.649766  0.399766  1
  Fe  Fe2  1  0.117558  0.117558  0.000000  1
  Fe  Fe3  1  0.882442  0.882442  0.000000  1
  Fe  Fe4  1  0.617558  0.117558  0.500000  1
  Fe  Fe5  1  0.382442  0.882442  0.500000  1
  Fe  Fe6  1  0.500000  0.000000  0.000000  1
  Fe  Fe7  1  0.000000  0.500000  0.000000  1
  P  P8  1  0.823490  0.323490  0.500000  1
  P  P9  1  0.250000  0.844399  0.094399  1
  P  P10  1  0.676510  0.676510  0.000000  1
  P  P11  1  0.176510  0.676510  0.500000  1
  P  P12  1  0.750000  0.155601  0.905601  1
  P  P13  1  0.323490  0.323490  0.000000  1
  O  O14  1  0.073502  0.795948  0.641825  1
  O  O15  1  0.573502  0.431677  0.777554  1
  O  O16  1  0.342469  0.801042  0.958573  1
  O  O17  1  0.845877  0.568323  0.641825  1
  O  O18  1  0.639461  0.797263  0.935143  1
  O  O19  1  0.842469  0.383896  0.041427  1
  O  O20  1  0.137880  0.295682  0.935143  1
  O  O21  1  0.360539  0.202737  0.064857  1
  O  O22  1  0.866170  0.010425  0.876595  1
  O  O23  1  0.654123  0.795948  0.222446  1
  O  O24  1  0.139461  0.704318  0.342198  1
  O  O25  1  0.133830  0.989575  0.123405  1
  O  O26  1  0.362120  0.797263  0.657802  1
  O  O27  1  0.345877  0.204052  0.777554  1
  O  O28  1  0.860539  0.295682  0.657802  1
  O  O29  1  0.862120  0.704318  0.064857  1
  O  O30  1  0.157531  0.616104  0.958573  1
  O  O31  1  0.426498  0.568323  0.222446  1
  O  O32  1  0.657531  0.198958  0.041427  1
  O  O33  1  0.366170  0.989575  0.355745  1
  O  O34  1  0.633830  0.010425  0.644255  1
  O  O35  1  0.637880  0.202737  0.342198  1
  O  O36  1  0.154123  0.431677  0.358175  1
  O  O37  1  0.926498  0.204052  0.358175  1
