# generated using pymatgen
data_YP5O14
_symmetry_space_group_name_H-M   'P 1'
_cell_length_a   9.18981112
_cell_length_b   9.18981112
_cell_length_c   12.62279241
_cell_angle_alpha   88.91792410
_cell_angle_beta   91.08207590
_cell_angle_gamma   90.47199187
_symmetry_Int_Tables_number   1
_chemical_formula_structural   YP5O14
_chemical_formula_sum   'Y4 P20 O56'
_cell_volume   1065.61470004
_cell_formula_units_Z   4
loop_
 _symmetry_equiv_pos_site_id
 _symmetry_equiv_pos_as_xyz
  1  'x, y, z'
loop_
 _atom_site_type_symbol
 _atom_site_label
 _atom_site_symmetry_multiplicity
 _atom_site_fract_x
 _atom_site_fract_y
 _atom_site_fract_z
 _atom_site_occupancy
  Y  Y0  1  0.032130  0.032130  0.250000  1
  Y  Y1  1  0.521238  0.521238  0.750000  1
  Y  Y2  1  0.967870  0.967870  0.750000  1
  Y  Y3  1  0.478762  0.478762  0.250000  1
  P  P4  1  0.045520  0.681638  0.390401  1
  P  P5  1  0.927385  0.570674  0.758564  1
  P  P6  1  0.613350  0.321296  0.000323  1
  P  P7  1  0.825034  0.873026  0.466456  1
  P  P8  1  0.174966  0.126974  0.533544  1
  P  P9  1  0.321296  0.613350  0.499677  1
  P  P10  1  0.318362  0.954480  0.890401  1
  P  P11  1  0.570674  0.927385  0.741436  1
  P  P12  1  0.072615  0.429326  0.241436  1
  P  P13  1  0.873026  0.825034  0.033544  1
  P  P14  1  0.954480  0.318362  0.609599  1
  P  P15  1  0.816343  0.519840  0.104747  1
  P  P16  1  0.183657  0.480160  0.895253  1
  P  P17  1  0.480160  0.183657  0.604747  1
  P  P18  1  0.519840  0.816343  0.395253  1
  P  P19  1  0.386650  0.678704  0.999677  1
  P  P20  1  0.126974  0.174966  0.966456  1
  P  P21  1  0.678704  0.386650  0.500323  1
  P  P22  1  0.681638  0.045520  0.109599  1
  P  P23  1  0.429326  0.072615  0.258564  1
  O  O24  1  0.772595  0.539487  0.782097  1
  O  O25  1  0.345783  0.174962  0.524629  1
  O  O26  1  0.719713  0.979583  0.769021  1
  O  O27  1  0.154681  0.035673  0.631390  1
  O  O28  1  0.227405  0.460513  0.217903  1
  O  O29  1  0.487924  0.641023  0.913532  1
  O  O30  1  0.014097  0.531252  0.336313  1
  O  O31  1  0.494005  0.980394  0.361577  1
  O  O32  1  0.979583  0.719713  0.730979  1
  O  O33  1  0.650193  0.421054  0.386955  1
  O  O34  1  0.871267  0.920902  0.573304  1
  O  O35  1  0.512076  0.358977  0.086468  1
  O  O36  1  0.421054  0.650193  0.113045  1
  O  O37  1  0.894635  0.710602  0.444294  1
  O  O38  1  0.505995  0.019606  0.638423  1
  O  O39  1  0.825038  0.654217  0.024629  1
  O  O40  1  0.539487  0.772595  0.717903  1
  O  O41  1  0.349807  0.578946  0.613045  1
  O  O42  1  0.897739  0.201287  0.679305  1
  O  O43  1  0.980394  0.494005  0.138423  1
  O  O44  1  0.201287  0.897739  0.820695  1
  O  O45  1  0.105365  0.289398  0.555706  1
  O  O46  1  0.985903  0.468748  0.663687  1
  O  O47  1  0.716674  0.538192  0.193540  1
  O  O48  1  0.460513  0.227405  0.282097  1
  O  O49  1  0.710602  0.894635  0.055706  1
  O  O50  1  0.020417  0.280287  0.269021  1
  O  O51  1  0.461808  0.283326  0.693540  1
  O  O52  1  0.798713  0.102261  0.179305  1
  O  O53  1  0.289398  0.105365  0.944294  1
  O  O54  1  0.174962  0.345783  0.975371  1
  O  O55  1  0.358977  0.512076  0.413532  1
  O  O56  1  0.648834  0.147632  0.009435  1
  O  O57  1  0.538192  0.716674  0.306460  1
  O  O58  1  0.079098  0.128733  0.073304  1
  O  O59  1  0.610290  0.223027  0.528678  1
  O  O60  1  0.351166  0.852368  0.990565  1
  O  O61  1  0.019606  0.505995  0.861577  1
  O  O62  1  0.654217  0.825038  0.475371  1
  O  O63  1  0.147632  0.648834  0.490565  1
  O  O64  1  0.283326  0.461808  0.806460  1
  O  O65  1  0.280287  0.020417  0.230979  1
  O  O66  1  0.776973  0.389710  0.028678  1
  O  O67  1  0.641023  0.487924  0.586468  1
  O  O68  1  0.531252  0.014097  0.163687  1
  O  O69  1  0.128733  0.079098  0.426696  1
  O  O70  1  0.578946  0.349807  0.886955  1
  O  O71  1  0.102261  0.798713  0.320695  1
  O  O72  1  0.223027  0.610290  0.971322  1
  O  O73  1  0.035673  0.154681  0.868610  1
  O  O74  1  0.389710  0.776973  0.471322  1
  O  O75  1  0.964327  0.845319  0.131390  1
  O  O76  1  0.920902  0.871267  0.926696  1
  O  O77  1  0.845319  0.964327  0.368610  1
  O  O78  1  0.468748  0.985903  0.836313  1
  O  O79  1  0.852368  0.351166  0.509435  1
