# generated using pymatgen
data_KAlO2
_symmetry_space_group_name_H-M   'P 1'
_cell_length_a   5.49875877
_cell_length_b   11.03734426
_cell_length_c   15.63495622
_cell_angle_alpha   90.00000000
_cell_angle_beta   90.00000000
_cell_angle_gamma   90.00000000
_symmetry_Int_Tables_number   1
_chemical_formula_structural   KAlO2
_chemical_formula_sum   'K16 Al16 O32'
_cell_volume   948.91197153
_cell_formula_units_Z   16
loop_
 _symmetry_equiv_pos_site_id
 _symmetry_equiv_pos_as_xyz
  1  'x, y, z'
loop_
 _atom_site_type_symbol
 _atom_site_label
 _atom_site_symmetry_multiplicity
 _atom_site_fract_x
 _atom_site_fract_y
 _atom_site_fract_z
 _atom_site_occupancy
  K  K0  1  0.753430  0.007356  0.061932  1
  K  K1  1  0.253430  0.492644  0.938068  1
  K  K2  1  0.246570  0.507356  0.438068  1
  K  K3  1  0.746570  0.992644  0.561932  1
  K  K4  1  0.246570  0.992644  0.938068  1
  K  K5  1  0.746570  0.507356  0.061932  1
  K  K6  1  0.753430  0.492644  0.561932  1
  K  K7  1  0.253430  0.007356  0.438068  1
  K  K8  1  0.795204  0.260983  0.185261  1
  K  K9  1  0.295204  0.239017  0.814739  1
  K  K10  1  0.204796  0.760983  0.314739  1
  K  K11  1  0.704796  0.739017  0.685261  1
  K  K12  1  0.204796  0.739017  0.814739  1
  K  K13  1  0.704796  0.760983  0.185261  1
  K  K14  1  0.795204  0.239017  0.685261  1
  K  K15  1  0.295204  0.260983  0.314739  1
  Al  Al16  1  0.254788  0.008233  0.188511  1
  Al  Al17  1  0.754788  0.491767  0.811489  1
  Al  Al18  1  0.745212  0.508233  0.311489  1
  Al  Al19  1  0.245212  0.991767  0.688511  1
  Al  Al20  1  0.745212  0.991767  0.811489  1
  Al  Al21  1  0.245212  0.508233  0.188511  1
  Al  Al22  1  0.254788  0.491767  0.688511  1
  Al  Al23  1  0.754788  0.008233  0.311489  1
  Al  Al24  1  0.279667  0.262381  0.063545  1
  Al  Al25  1  0.779667  0.237619  0.936455  1
  Al  Al26  1  0.720333  0.762381  0.436455  1
  Al  Al27  1  0.220333  0.737619  0.563545  1
  Al  Al28  1  0.720333  0.737619  0.936455  1
  Al  Al29  1  0.220333  0.762381  0.063545  1
  Al  Al30  1  0.279667  0.237619  0.563545  1
  Al  Al31  1  0.779667  0.262381  0.436455  1
  O  O32  1  0.550526  0.485091  0.222239  1
  O  O33  1  0.050526  0.014909  0.777761  1
  O  O34  1  0.449474  0.985091  0.277761  1
  O  O35  1  0.949474  0.514909  0.722239  1
  O  O36  1  0.449474  0.514909  0.777761  1
  O  O37  1  0.949474  0.985091  0.222239  1
  O  O38  1  0.550526  0.014909  0.722239  1
  O  O39  1  0.050526  0.485091  0.277761  1
  O  O40  1  0.799321  0.157606  0.350796  1
  O  O41  1  0.299321  0.342394  0.649204  1
  O  O42  1  0.200679  0.657606  0.149204  1
  O  O43  1  0.700679  0.842394  0.850796  1
  O  O44  1  0.200679  0.842394  0.649204  1
  O  O45  1  0.700679  0.657606  0.350796  1
  O  O46  1  0.799321  0.342394  0.850796  1
  O  O47  1  0.569231  0.285105  0.015919  1
  O  O48  1  0.677549  0.403595  0.394610  1
  O  O49  1  0.177549  0.096405  0.605390  1
  O  O50  1  0.322451  0.903595  0.105390  1
  O  O51  1  0.822451  0.596405  0.894610  1
  O  O52  1  0.322451  0.596405  0.605390  1
  O  O53  1  0.822451  0.903595  0.394610  1
  O  O54  1  0.677549  0.096405  0.894610  1
  O  O55  1  0.177549  0.403595  0.105390  1
  O  O56  1  0.069231  0.285105  0.484081  1
  O  O57  1  0.569231  0.214895  0.515919  1
  O  O58  1  0.930769  0.785105  0.015919  1
  O  O59  1  0.430769  0.714895  0.984081  1
  O  O60  1  0.930769  0.714895  0.515919  1
  O  O61  1  0.430769  0.785105  0.484081  1
  O  O62  1  0.069231  0.214895  0.984081  1
  O  O63  1  0.299321  0.157606  0.149204  1
