# generated using pymatgen
data_VO2
_symmetry_space_group_name_H-M   'P 1'
_cell_length_a   6.47350599
_cell_length_b   6.47350599
_cell_length_c   6.49009609
_cell_angle_alpha   73.84421939
_cell_angle_beta   106.15578061
_cell_angle_gamma   146.35779638
_symmetry_Int_Tables_number   1
_chemical_formula_structural   VO2
_chemical_formula_sum   'V4 O8'
_cell_volume   144.16943990
_cell_formula_units_Z   4
loop_
 _symmetry_equiv_pos_site_id
 _symmetry_equiv_pos_as_xyz
  1  'x, y, z'
loop_
 _atom_site_type_symbol
 _atom_site_label
 _atom_site_symmetry_multiplicity
 _atom_site_fract_x
 _atom_site_fract_y
 _atom_site_fract_z
 _atom_site_occupancy
  V  V0  1  0.303819  0.696181  0.724377  1
  V  V1  1  0.696181  0.303819  0.275623  1
  V  V2  1  0.398801  0.601199  0.314713  1
  V  V3  1  0.601199  0.398801  0.685287  1
  O  O4  1  0.360872  0.639128  0.995810  1
  O  O5  1  0.639128  0.360872  0.004190  1
  O  O6  1  0.237874  0.762126  0.350994  1
  O  O7  1  0.762126  0.237874  0.649006  1
  O  O8  1  0.442534  0.557466  0.631593  1
  O  O9  1  0.557466  0.442534  0.368407  1
  O  O10  1  0.134686  0.865314  0.700818  1
  O  O11  1  0.865314  0.134686  0.299182  1
