# generated using pymatgen
data_PNF2
_symmetry_space_group_name_H-M   'P 1'
_cell_length_a   7.52002028
_cell_length_b   9.04338885
_cell_length_c   13.73837718
_cell_angle_alpha   90.00000000
_cell_angle_beta   90.00000000
_cell_angle_gamma   90.00000000
_symmetry_Int_Tables_number   1
_chemical_formula_structural   PNF2
_chemical_formula_sum   'P12 N12 F24'
_cell_volume   934.29850191
_cell_formula_units_Z   12
loop_
 _symmetry_equiv_pos_site_id
 _symmetry_equiv_pos_as_xyz
  1  'x, y, z'
loop_
 _atom_site_type_symbol
 _atom_site_label
 _atom_site_symmetry_multiplicity
 _atom_site_fract_x
 _atom_site_fract_y
 _atom_site_fract_z
 _atom_site_occupancy
  P  P0  1  0.316248  0.449728  0.161424  1
  P  P1  1  0.183752  0.949728  0.661424  1
  P  P2  1  0.159150  0.960069  0.860601  1
  P  P3  1  0.975992  0.478331  0.770560  1
  P  P4  1  0.024008  0.521669  0.270560  1
  P  P5  1  0.475992  0.021669  0.770560  1
  P  P6  1  0.524008  0.978331  0.270560  1
  P  P7  1  0.659150  0.539931  0.860601  1
  P  P8  1  0.683752  0.550272  0.661424  1
  P  P9  1  0.840850  0.039931  0.360601  1
  P  P10  1  0.816248  0.050272  0.161424  1
  P  P11  1  0.340850  0.460069  0.360601  1
  N  N12  1  0.428038  0.427837  0.257931  1
  N  N13  1  0.861285  0.492341  0.866481  1
  N  N14  1  0.611395  0.012145  0.168392  1
  N  N15  1  0.388605  0.987855  0.668392  1
  N  N16  1  0.928038  0.072163  0.257931  1
  N  N17  1  0.138715  0.507659  0.366481  1
  N  N18  1  0.888605  0.512145  0.668392  1
  N  N19  1  0.111395  0.487855  0.168392  1
  N  N20  1  0.361285  0.007659  0.866481  1
  N  N21  1  0.638715  0.992341  0.366481  1
  N  N22  1  0.071962  0.927837  0.757931  1
  N  N23  1  0.571962  0.572163  0.757931  1
  F  F24  1  0.658142  0.687597  0.594879  1
  F  F25  1  0.126730  0.825248  0.928713  1
  F  F26  1  0.649123  0.928867  0.781660  1
  F  F27  1  0.341858  0.312403  0.094879  1
  F  F28  1  0.956109  0.924374  0.416063  1
  F  F29  1  0.456109  0.575626  0.416063  1
  F  F30  1  0.373270  0.325248  0.428713  1
  F  F31  1  0.873270  0.174752  0.428713  1
  F  F32  1  0.350877  0.071133  0.281660  1
  F  F33  1  0.064800  0.322256  0.767287  1
  F  F34  1  0.909933  0.932973  0.096006  1
  F  F35  1  0.435200  0.822256  0.267287  1
  F  F36  1  0.626730  0.674752  0.928713  1
  F  F37  1  0.043891  0.075626  0.916063  1
  F  F38  1  0.841858  0.187597  0.094879  1
  F  F39  1  0.090067  0.067027  0.596006  1
  F  F40  1  0.935200  0.677744  0.267287  1
  F  F41  1  0.149123  0.571133  0.781660  1
  F  F42  1  0.158142  0.812403  0.594879  1
  F  F43  1  0.564800  0.177744  0.767287  1
  F  F44  1  0.409933  0.567027  0.096006  1
  F  F45  1  0.590067  0.432973  0.596006  1
  F  F46  1  0.850877  0.428867  0.281660  1
  F  F47  1  0.543891  0.424374  0.916063  1
