# generated using pymatgen
data_BS2
_symmetry_space_group_name_H-M   'P 1'
_cell_length_a   12.45863338
_cell_length_b   4.92292777
_cell_length_c   21.91559155
_cell_angle_alpha   90.00000000
_cell_angle_beta   107.87091956
_cell_angle_gamma   90.00000000
_symmetry_Int_Tables_number   1
_chemical_formula_structural   BS2
_chemical_formula_sum   'B16 S32'
_cell_volume   1279.29316888
_cell_formula_units_Z   16
loop_
 _symmetry_equiv_pos_site_id
 _symmetry_equiv_pos_as_xyz
  1  'x, y, z'
loop_
 _atom_site_type_symbol
 _atom_site_label
 _atom_site_symmetry_multiplicity
 _atom_site_fract_x
 _atom_site_fract_y
 _atom_site_fract_z
 _atom_site_occupancy
  B  B0  1  0.914420  0.361555  0.630461  1
  B  B1  1  0.085580  0.861555  0.869539  1
  B  B2  1  0.085580  0.638445  0.369539  1
  B  B3  1  0.914420  0.138445  0.130461  1
  B  B4  1  0.728994  0.185583  0.533440  1
  B  B5  1  0.271006  0.685583  0.966560  1
  B  B6  1  0.271006  0.814417  0.466560  1
  B  B7  1  0.728994  0.314417  0.033440  1
  B  B8  1  0.306443  0.110574  0.592534  1
  B  B9  1  0.693557  0.610574  0.907466  1
  B  B10  1  0.693557  0.889426  0.407466  1
  B  B11  1  0.306443  0.389426  0.092534  1
  B  B12  1  0.166921  0.331551  0.655815  1
  B  B13  1  0.833079  0.831551  0.844185  1
  B  B14  1  0.833079  0.668449  0.344185  1
  B  B15  1  0.166921  0.168449  0.155815  1
  S  S16  1  0.801680  0.466118  0.660762  1
  S  S17  1  0.198320  0.966118  0.839238  1
  S  S18  1  0.198320  0.533882  0.339238  1
  S  S19  1  0.801680  0.033882  0.160762  1
  S  S20  1  0.662357  0.332718  0.587977  1
  S  S21  1  0.337643  0.832718  0.912023  1
  S  S22  1  0.337643  0.667282  0.412023  1
  S  S23  1  0.662357  0.167282  0.087977  1
  S  S24  1  0.881189  0.189299  0.553950  1
  S  S25  1  0.118811  0.689299  0.946050  1
  S  S26  1  0.118811  0.810701  0.446050  1
  S  S27  1  0.881189  0.310701  0.053950  1
  S  S28  1  0.626869  0.052650  0.461112  1
  S  S29  1  0.373131  0.552650  0.038888  1
  S  S30  1  0.373131  0.947350  0.538888  1
  S  S31  1  0.626869  0.447350  0.961112  1
  S  S32  1  0.408562  0.240757  0.663972  1
  S  S33  1  0.591438  0.740757  0.836028  1
  S  S34  1  0.591438  0.759243  0.336028  1
  S  S35  1  0.408562  0.259243  0.163972  1
  S  S36  1  0.303778  0.407152  0.711356  1
  S  S37  1  0.696222  0.907152  0.788644  1
  S  S38  1  0.696222  0.592848  0.288644  1
  S  S39  1  0.303778  0.092848  0.211356  1
  S  S40  1  0.157586  0.154776  0.581884  1
  S  S41  1  0.842414  0.654776  0.918116  1
  S  S42  1  0.842414  0.845224  0.418116  1
  S  S43  1  0.157586  0.345224  0.081884  1
  S  S44  1  0.052820  0.452456  0.684456  1
  S  S45  1  0.947180  0.952456  0.815544  1
  S  S46  1  0.947180  0.547544  0.315544  1
  S  S47  1  0.052820  0.047544  0.184456  1
