# generated using pymatgen
data_SiO2
_symmetry_space_group_name_H-M   'P 1'
_cell_length_a   11.92173486
_cell_length_b   11.92173486
_cell_length_c   7.59835978
_cell_angle_alpha   90.00000000
_cell_angle_beta   90.00000000
_cell_angle_gamma   105.53898986
_symmetry_Int_Tables_number   1
_chemical_formula_structural   SiO2
_chemical_formula_sum   'Si18 O36'
_cell_volume   1040.46438656
_cell_formula_units_Z   18
loop_
 _symmetry_equiv_pos_site_id
 _symmetry_equiv_pos_as_xyz
  1  'x, y, z'
loop_
 _atom_site_type_symbol
 _atom_site_label
 _atom_site_symmetry_multiplicity
 _atom_site_fract_x
 _atom_site_fract_y
 _atom_site_fract_z
 _atom_site_occupancy
  Si  Si0  1  0.281099  0.116515  0.293743  1
  Si  Si1  1  0.281099  0.116515  0.706257  1
  Si  Si2  1  0.149076  0.850924  0.295008  1
  Si  Si3  1  0.116516  0.281099  0.293743  1
  Si  Si4  1  0.731619  0.268381  0.000000  1
  Si  Si5  1  0.268381  0.731619  1.000000  1
  Si  Si6  1  0.116516  0.281099  0.706257  1
  Si  Si7  1  0.874873  0.529133  0.000000  1
  Si  Si8  1  0.883485  0.718901  0.293743  1
  Si  Si9  1  0.850924  0.149076  0.704992  1
  Si  Si10  1  0.718901  0.883484  0.293743  1
  Si  Si11  1  0.125127  0.470867  0.000000  1
  Si  Si12  1  0.850924  0.149076  0.295008  1
  Si  Si13  1  0.718901  0.883484  0.706257  1
  Si  Si14  1  0.529133  0.874873  0.000000  1
  Si  Si15  1  0.470867  0.125126  0.000000  1
  Si  Si16  1  0.883485  0.718901  0.706257  1
  Si  Si17  1  0.149076  0.850924  0.704992  1
  O  O18  1  0.807636  0.010557  0.252121  1
  O  O19  1  0.216030  0.216030  0.245399  1
  O  O20  1  0.602156  0.862730  0.824031  1
  O  O21  1  0.397844  0.137270  0.175969  1
  O  O22  1  0.192364  0.989443  0.252121  1
  O  O23  1  0.680863  0.875121  0.500000  1
  O  O24  1  0.192364  0.989443  0.747879  1
  O  O25  1  0.137270  0.397844  0.824031  1
  O  O26  1  0.780494  0.219506  0.175418  1
  O  O27  1  0.397844  0.137270  0.824031  1
  O  O28  1  0.124879  0.319137  0.500000  1
  O  O29  1  0.173883  0.826117  0.500000  1
  O  O30  1  0.216030  0.216030  0.754601  1
  O  O31  1  0.319137  0.124879  0.500000  1
  O  O32  1  0.807636  0.010557  0.747879  1
  O  O33  1  0.010557  0.807636  0.252121  1
  O  O34  1  0.409333  0.771290  0.000000  1
  O  O35  1  0.989443  0.192364  0.747879  1
  O  O36  1  0.826117  0.173883  0.500000  1
  O  O37  1  0.219506  0.780494  0.824582  1
  O  O38  1  0.000000  0.500000  0.000000  1
  O  O39  1  0.875121  0.680863  0.500000  1
  O  O40  1  0.137270  0.397844  0.175969  1
  O  O41  1  0.771290  0.409333  0.000000  1
  O  O42  1  0.780494  0.219506  0.824582  1
  O  O43  1  0.219506  0.780494  0.175418  1
  O  O44  1  0.228710  0.590667  0.000000  1
  O  O45  1  0.783970  0.783970  0.754601  1
  O  O46  1  0.862730  0.602156  0.175969  1
  O  O47  1  0.783970  0.783970  0.245399  1
  O  O48  1  0.500000  0.000000  1.000000  1
  O  O49  1  0.010557  0.807636  0.747879  1
  O  O50  1  0.590667  0.228710  0.000000  1
  O  O51  1  0.602156  0.862730  0.175969  1
  O  O52  1  0.862730  0.602156  0.824031  1
  O  O53  1  0.989443  0.192364  0.252121  1
