# generated using pymatgen
data_Ga(SbBr)4
_symmetry_space_group_name_H-M   'P 1'
_cell_length_a   10.39943546
_cell_length_b   13.91837199
_cell_length_c   18.88824689
_cell_angle_alpha   90.00000000
_cell_angle_beta   90.00000000
_cell_angle_gamma   90.00000000
_symmetry_Int_Tables_number   1
_chemical_formula_structural   Ga(SbBr)4
_chemical_formula_sum   'Ga8 Sb32 Br32'
_cell_volume   2733.94550914
_cell_formula_units_Z   8
loop_
 _symmetry_equiv_pos_site_id
 _symmetry_equiv_pos_as_xyz
  1  'x, y, z'
loop_
 _atom_site_type_symbol
 _atom_site_label
 _atom_site_symmetry_multiplicity
 _atom_site_fract_x
 _atom_site_fract_y
 _atom_site_fract_z
 _atom_site_occupancy
  Ga  Ga0  1  0.022437  0.803353  0.676622  1
  Ga  Ga1  1  0.477563  0.803353  0.176622  1
  Ga  Ga2  1  0.977563  0.303353  0.323378  1
  Ga  Ga3  1  0.007732  0.487656  0.998067  1
  Ga  Ga4  1  0.492268  0.487656  0.498067  1
  Ga  Ga5  1  0.522437  0.303353  0.823378  1
  Ga  Ga6  1  0.507732  0.987656  0.501933  1
  Ga  Ga7  1  0.992268  0.987656  0.001933  1
  Sb  Sb8  1  0.385404  0.597872  0.823228  1
  Sb  Sb9  1  0.203231  0.754552  0.415128  1
  Sb  Sb10  1  0.834884  0.647040  0.299752  1
  Sb  Sb11  1  0.150450  0.356087  0.715922  1
  Sb  Sb12  1  0.056854  0.161696  0.557464  1
  Sb  Sb13  1  0.958387  0.871794  0.427279  1
  Sb  Sb14  1  0.943146  0.661696  0.442536  1
  Sb  Sb15  1  0.452725  0.734326  0.710197  1
  Sb  Sb16  1  0.541613  0.871794  0.927279  1
  Sb  Sb17  1  0.047275  0.734326  0.210197  1
  Sb  Sb18  1  0.556854  0.661696  0.942536  1
  Sb  Sb19  1  0.165116  0.147040  0.700248  1
  Sb  Sb20  1  0.636948  0.390731  0.197323  1
  Sb  Sb21  1  0.458387  0.371794  0.072721  1
  Sb  Sb22  1  0.041613  0.371794  0.572721  1
  Sb  Sb23  1  0.296769  0.754552  0.915128  1
  Sb  Sb24  1  0.703231  0.254552  0.084872  1
  Sb  Sb25  1  0.349550  0.356087  0.215922  1
  Sb  Sb26  1  0.665116  0.647040  0.799752  1
  Sb  Sb27  1  0.614596  0.097872  0.176772  1
  Sb  Sb28  1  0.136948  0.890731  0.302677  1
  Sb  Sb29  1  0.650450  0.856087  0.784078  1
  Sb  Sb30  1  0.334884  0.147040  0.200248  1
  Sb  Sb31  1  0.114596  0.597872  0.323228  1
  Sb  Sb32  1  0.952725  0.234326  0.789803  1
  Sb  Sb33  1  0.443146  0.161696  0.057464  1
  Sb  Sb34  1  0.849550  0.856087  0.284078  1
  Sb  Sb35  1  0.547275  0.234326  0.289803  1
  Sb  Sb36  1  0.363052  0.890731  0.802677  1
  Sb  Sb37  1  0.796769  0.254552  0.584872  1
  Sb  Sb38  1  0.863052  0.390731  0.697323  1
  Sb  Sb39  1  0.885404  0.097872  0.676772  1
  Br  Br40  1  0.523214  0.818758  0.499095  1
  Br  Br41  1  0.817504  0.537168  0.058084  1
  Br  Br42  1  0.315306  0.887733  0.114667  1
  Br  Br43  1  0.172354  0.312101  0.387376  1
  Br  Br44  1  0.182496  0.037168  0.941916  1
  Br  Br45  1  0.188536  0.556815  0.055924  1
  Br  Br46  1  0.184694  0.887733  0.614667  1
  Br  Br47  1  0.920667  0.140774  0.307227  1
  Br  Br48  1  0.505294  0.046405  0.619713  1
  Br  Br49  1  0.503683  0.875759  0.289564  1
  Br  Br50  1  0.579333  0.140774  0.807227  1
  Br  Br51  1  0.311464  0.556815  0.555924  1
  Br  Br52  1  0.003683  0.375759  0.210436  1
  Br  Br53  1  0.684694  0.387733  0.885333  1
  Br  Br54  1  0.827646  0.812101  0.612624  1
  Br  Br55  1  0.815306  0.387733  0.385333  1
  Br  Br56  1  0.005294  0.546405  0.880287  1
  Br  Br57  1  0.079333  0.640774  0.692773  1
  Br  Br58  1  0.672354  0.812101  0.112624  1
  Br  Br59  1  0.811464  0.056815  0.944076  1
  Br  Br60  1  0.317504  0.037168  0.441916  1
  Br  Br61  1  0.420667  0.640774  0.192773  1
  Br  Br62  1  0.976786  0.818758  0.999095  1
  Br  Br63  1  0.476786  0.318758  0.500905  1
  Br  Br64  1  0.682496  0.537168  0.558084  1
  Br  Br65  1  0.023214  0.318758  0.000905  1
  Br  Br66  1  0.996317  0.875759  0.789564  1
  Br  Br67  1  0.494706  0.546405  0.380287  1
  Br  Br68  1  0.496317  0.375759  0.710436  1
  Br  Br69  1  0.688536  0.056815  0.444076  1
  Br  Br70  1  0.994706  0.046405  0.119713  1
  Br  Br71  1  0.327646  0.312101  0.887376  1
