# generated using pymatgen
data_LiMgAl3(SeO4)6
_symmetry_space_group_name_H-M   'P 1'
_cell_length_a   8.53038825
_cell_length_b   9.09120073
_cell_length_c   12.46604842
_cell_angle_alpha   84.95498029
_cell_angle_beta   89.93202244
_cell_angle_gamma   89.74295204
_symmetry_Int_Tables_number   1
_chemical_formula_structural   LiMgAl3(SeO4)6
_chemical_formula_sum   'Li2 Mg2 Al6 Se12 O48'
_cell_volume   963.00508933
_cell_formula_units_Z   2
loop_
 _symmetry_equiv_pos_site_id
 _symmetry_equiv_pos_as_xyz
  1  'x, y, z'
loop_
 _atom_site_type_symbol
 _atom_site_label
 _atom_site_symmetry_multiplicity
 _atom_site_fract_x
 _atom_site_fract_y
 _atom_site_fract_z
 _atom_site_occupancy
  Li  Li0  1  0.775641  0.598509  0.030065  1
  Li  Li1  1  0.331509  0.726271  0.907221  1
  Mg  Mg2  1  0.497274  0.789013  0.145870  1
  Mg  Mg3  1  0.998612  0.707403  0.845678  1
  Al  Al4  1  0.501537  0.799348  0.646154  1
  Al  Al5  1  0.499165  0.217380  0.855647  1
  Al  Al6  1  0.997635  0.288176  0.641328  1
  Al  Al7  1  0.002022  0.296733  0.152066  1
  Al  Al8  1  0.001654  0.713686  0.360297  1
  Al  Al9  1  0.498352  0.194794  0.351338  1
  Se  Se10  1  0.856910  0.641004  0.603407  1
  Se  Se11  1  0.790525  0.000161  0.251916  1
  Se  Se12  1  0.648308  0.136837  0.606723  1
  Se  Se13  1  0.356540  0.152063  0.105356  1
  Se  Se14  1  0.854654  0.351781  0.895107  1
  Se  Se15  1  0.292795  0.500944  0.747934  1
  Se  Se16  1  0.713939  0.491444  0.251137  1
  Se  Se17  1  0.133966  0.638866  0.111272  1
  Se  Se18  1  0.641159  0.862906  0.885273  1
  Se  Se19  1  0.351884  0.856611  0.397757  1
  Se  Se20  1  0.222244  0.009824  0.746033  1
  Se  Se21  1  0.143043  0.356090  0.394809  1
  O  O22  1  0.813176  0.607804  0.320075  1
  O  O23  1  0.671199  0.658908  0.643835  1
  O  O24  1  0.987402  0.703420  0.685563  1
  O  O25  1  0.879622  0.735299  0.483942  1
  O  O26  1  0.938553  0.915137  0.318826  1
  O  O27  1  0.654774  0.952746  0.633836  1
  O  O28  1  0.667915  0.057375  0.345938  1
  O  O29  1  0.586216  0.031524  0.907799  1
  O  O30  1  0.856193  0.141525  0.169722  1
  O  O31  1  0.309964  0.134552  0.815336  1
  O  O32  1  0.526178  0.191883  0.506231  1
  O  O33  1  0.830505  0.187113  0.575763  1
  O  O34  1  0.169238  0.165597  0.142938  1
  O  O35  1  0.588909  0.218374  0.713755  1
  O  O36  1  0.478259  0.215277  0.197162  1
  O  O37  1  0.921522  0.279648  0.786447  1
  O  O38  1  0.390816  0.252799  0.989450  1
  O  O39  1  0.675030  0.292592  0.926789  1
  O  O40  1  0.978154  0.299076  0.995019  1
  O  O41  1  0.651308  0.355494  0.338436  1
  O  O42  1  0.446501  0.415482  0.808209  1
  O  O43  1  0.882007  0.460113  0.592922  1
  O  O44  1  0.832993  0.436771  0.150842  1
  O  O45  1  0.149732  0.455589  0.137827  1
  O  O46  1  0.837705  0.536039  0.880199  1
  O  O47  1  0.195121  0.570035  0.849259  1
  O  O48  1  0.113565  0.535473  0.405732  1
  O  O49  1  0.573636  0.573310  0.177019  1
  O  O50  1  0.356810  0.636303  0.659964  1
  O  O51  1  0.998389  0.687957  0.018333  1
  O  O52  1  0.307746  0.695156  0.064009  1
  O  O53  1  0.612978  0.751925  0.997482  1
  O  O54  1  0.090928  0.724209  0.220079  1
  O  O55  1  0.509413  0.789456  0.801904  1
  O  O56  1  0.416130  0.768714  0.297104  1
  O  O57  1  0.823699  0.862287  0.844681  1
  O  O58  1  0.169297  0.807841  0.432027  1
  O  O59  1  0.477031  0.808041  0.497710  1
  O  O60  1  0.704441  0.888919  0.173374  1
  O  O61  1  0.169197  0.873023  0.836833  1
  O  O62  1  0.381610  0.975302  0.093258  1
  O  O63  1  0.335906  0.946590  0.650273  1
  O  O64  1  0.347060  0.041372  0.369457  1
  O  O65  1  0.066747  0.088098  0.685309  1
  O  O66  1  0.109615  0.260291  0.512072  1
  O  O67  1  0.018778  0.289890  0.306814  1
  O  O68  1  0.331694  0.339127  0.361443  1
  O  O69  1  0.186470  0.391203  0.678115  1
