# generated using pymatgen
data_In2H10S3O17
_symmetry_space_group_name_H-M   'P 1'
_cell_length_a   5.82138450
_cell_length_b   10.95405898
_cell_length_c   11.57486430
_cell_angle_alpha   88.86045259
_cell_angle_beta   88.91788951
_cell_angle_gamma   79.03694979
_symmetry_Int_Tables_number   1
_chemical_formula_structural   In2H10S3O17
_chemical_formula_sum   'In4 H20 S6 O34'
_cell_volume   724.40405496
_cell_formula_units_Z   2
loop_
 _symmetry_equiv_pos_site_id
 _symmetry_equiv_pos_as_xyz
  1  'x, y, z'
loop_
 _atom_site_type_symbol
 _atom_site_label
 _atom_site_symmetry_multiplicity
 _atom_site_fract_x
 _atom_site_fract_y
 _atom_site_fract_z
 _atom_site_occupancy
  In  In0  1  0.408002  0.386416  0.253659  1
  In  In1  1  0.591998  0.613584  0.746341  1
  In  In2  1  0.000000  0.000000  0.500000  1
  In  In3  1  0.000000  0.000000  0.000000  1
  H  H4  1  0.620912  0.551170  0.392967  1
  H  H5  1  0.862354  0.385633  0.689510  1
  H  H6  1  0.137646  0.614367  0.310490  1
  H  H7  1  0.634308  0.178379  0.909139  1
  H  H8  1  0.751088  0.393399  0.068923  1
  H  H9  1  0.374612  0.465687  0.899093  1
  H  H10  1  0.575596  0.181741  0.560882  1
  H  H11  1  0.401790  0.949380  0.369412  1
  H  H12  1  0.124141  0.612438  0.167537  1
  H  H13  1  0.713264  0.410882  0.437013  1
  H  H14  1  0.350733  0.947289  0.159774  1
  H  H15  1  0.625388  0.534313  0.100907  1
  H  H16  1  0.248912  0.606601  0.931077  1
  H  H17  1  0.424404  0.818259  0.439118  1
  H  H18  1  0.598210  0.050620  0.630588  1
  H  H19  1  0.365692  0.821621  0.090861  1
  H  H20  1  0.875859  0.387562  0.832463  1
  H  H21  1  0.379088  0.448830  0.607033  1
  H  H22  1  0.286736  0.589118  0.562987  1
  H  H23  1  0.649267  0.052711  0.840226  1
  S  S24  1  0.301244  0.912520  0.747656  1
  S  S25  1  0.803018  0.726345  0.994149  1
  S  S26  1  0.196982  0.273655  0.005851  1
  S  S27  1  0.140584  0.291105  0.494315  1
  S  S28  1  0.698756  0.087480  0.252344  1
  S  S29  1  0.859416  0.708895  0.505685  1
  O  O30  1  0.393213  0.537294  0.618133  1
  O  O31  1  0.209295  0.575518  0.237744  1
  O  O32  1  0.368315  0.555584  0.880059  1
  O  O33  1  0.146610  0.361032  0.382001  1
  O  O34  1  0.215138  0.298097  0.131954  1
  O  O35  1  0.167006  0.156051  0.468087  1
  O  O36  1  0.089646  0.661359  0.450336  1
  O  O37  1  0.832994  0.843949  0.531913  1
  O  O38  1  0.499896  0.022039  0.252508  1
  O  O39  1  0.037711  0.661707  0.032729  1
  O  O40  1  0.782345  0.107194  0.131775  1
  O  O41  1  0.962289  0.338293  0.967271  1
  O  O42  1  0.776469  0.864310  0.008637  1
  O  O43  1  0.895961  0.015096  0.319368  1
  O  O44  1  0.217655  0.892806  0.868225  1
  O  O45  1  0.500104  0.977961  0.747492  1
  O  O46  1  0.630460  0.213043  0.305654  1
  O  O47  1  0.661993  0.693447  0.431292  1
  O  O48  1  0.672643  0.097248  0.570424  1
  O  O49  1  0.612297  0.686997  0.063026  1
  O  O50  1  0.745605  0.104940  0.879985  1
  O  O51  1  0.910354  0.338641  0.549664  1
  O  O52  1  0.853390  0.638968  0.617999  1
  O  O53  1  0.254395  0.895060  0.120015  1
  O  O54  1  0.369540  0.786957  0.694346  1
  O  O55  1  0.631685  0.444416  0.119941  1
  O  O56  1  0.327357  0.902752  0.429576  1
  O  O57  1  0.790705  0.424482  0.762256  1
  O  O58  1  0.104039  0.984904  0.680632  1
  O  O59  1  0.387703  0.313003  0.936974  1
  O  O60  1  0.338007  0.306553  0.568708  1
  O  O61  1  0.606787  0.462706  0.381867  1
  O  O62  1  0.223531  0.135690  0.991363  1
  O  O63  1  0.784862  0.701903  0.868046  1
