# generated using pymatgen
data_Sr4CN4
_symmetry_space_group_name_H-M   'P 1'
_cell_length_a   3.83909220
_cell_length_b   12.35934442
_cell_length_c   14.55628075
_cell_angle_alpha   90.00000000
_cell_angle_beta   90.00000000
_cell_angle_gamma   90.00000000
_symmetry_Int_Tables_number   1
_chemical_formula_structural   Sr4CN4
_chemical_formula_sum   'Sr16 C4 N16'
_cell_volume   690.67605635
_cell_formula_units_Z   4
loop_
 _symmetry_equiv_pos_site_id
 _symmetry_equiv_pos_as_xyz
  1  'x, y, z'
loop_
 _atom_site_type_symbol
 _atom_site_label
 _atom_site_symmetry_multiplicity
 _atom_site_fract_x
 _atom_site_fract_y
 _atom_site_fract_z
 _atom_site_occupancy
  Sr  Sr0  1  0.250000  0.613172  0.596458  1
  Sr  Sr1  1  0.250000  0.906661  0.314494  1
  Sr  Sr2  1  0.750000  0.160332  0.261559  1
  Sr  Sr3  1  0.250000  0.113172  0.903542  1
  Sr  Sr4  1  0.250000  0.406661  0.185506  1
  Sr  Sr5  1  0.750000  0.660332  0.238441  1
  Sr  Sr6  1  0.750000  0.093339  0.685506  1
  Sr  Sr7  1  0.250000  0.125113  0.467784  1
  Sr  Sr8  1  0.750000  0.374887  0.967784  1
  Sr  Sr9  1  0.750000  0.886828  0.096458  1
  Sr  Sr10  1  0.250000  0.839668  0.738441  1
  Sr  Sr11  1  0.250000  0.339668  0.761559  1
  Sr  Sr12  1  0.750000  0.593339  0.814494  1
  Sr  Sr13  1  0.750000  0.874887  0.532216  1
  Sr  Sr14  1  0.750000  0.386828  0.403542  1
  Sr  Sr15  1  0.250000  0.625113  0.032216  1
  C  C16  1  0.250000  0.649414  0.403314  1
  C  C17  1  0.250000  0.149414  0.096686  1
  C  C18  1  0.750000  0.850586  0.903314  1
  C  C19  1  0.750000  0.350586  0.596686  1
  N  N20  1  0.250000  0.555399  0.372096  1
  N  N21  1  0.750000  0.014213  0.379312  1
  N  N22  1  0.750000  0.514213  0.120688  1
  N  N23  1  0.750000  0.944601  0.872096  1
  N  N24  1  0.250000  0.485787  0.879312  1
  N  N25  1  0.250000  0.780285  0.169231  1
  N  N26  1  0.250000  0.055399  0.127904  1
  N  N27  1  0.750000  0.258123  0.563090  1
  N  N28  1  0.250000  0.241877  0.063090  1
  N  N29  1  0.250000  0.741877  0.436910  1
  N  N30  1  0.750000  0.219715  0.830769  1
  N  N31  1  0.250000  0.985787  0.620688  1
  N  N32  1  0.750000  0.758123  0.936910  1
  N  N33  1  0.750000  0.719715  0.669231  1
  N  N34  1  0.750000  0.444601  0.627904  1
  N  N35  1  0.250000  0.280285  0.330769  1
