# generated using pymatgen
data_KMoPClO5
_symmetry_space_group_name_H-M   'P 1'
_cell_length_a   6.55381354
_cell_length_b   6.55381354
_cell_length_c   7.43011853
_cell_angle_alpha   90.00000000
_cell_angle_beta   90.00000000
_cell_angle_gamma   90.00000000
_symmetry_Int_Tables_number   1
_chemical_formula_structural   KMoPClO5
_chemical_formula_sum   'K2 Mo2 P2 Cl2 O10'
_cell_volume   319.14195750
_cell_formula_units_Z   2
loop_
 _symmetry_equiv_pos_site_id
 _symmetry_equiv_pos_as_xyz
  1  'x, y, z'
loop_
 _atom_site_type_symbol
 _atom_site_label
 _atom_site_symmetry_multiplicity
 _atom_site_fract_x
 _atom_site_fract_y
 _atom_site_fract_z
 _atom_site_occupancy
  K  K0  1  0.000000  0.000000  0.500000  1
  K  K1  1  0.500000  0.500000  0.500000  1
  Mo  Mo2  1  0.500000  0.000000  0.095273  1
  Mo  Mo3  1  0.000000  0.500000  0.904727  1
  P  P4  1  0.500000  0.500000  0.000000  1
  P  P5  1  0.000000  0.000000  0.000000  1
  Cl  Cl6  1  0.000000  0.500000  0.554955  1
  Cl  Cl7  1  0.500000  0.000000  0.445045  1
  O  O8  1  0.500000  0.313727  0.128443  1
  O  O9  1  0.000000  0.813727  0.871557  1
  O  O10  1  0.686273  0.500000  0.871557  1
  O  O11  1  0.000000  0.500000  0.133770  1
  O  O12  1  0.813727  0.000000  0.128443  1
  O  O13  1  0.186273  0.000000  0.128443  1
  O  O14  1  0.000000  0.186273  0.871557  1
  O  O15  1  0.313727  0.500000  0.871557  1
  O  O16  1  0.500000  0.000000  0.866230  1
  O  O17  1  0.500000  0.686273  0.128443  1
