# generated using pymatgen
data_Sm6Si4S17
_symmetry_space_group_name_H-M   'P 1'
_cell_length_a   8.93801835
_cell_length_b   9.89135235
_cell_length_c   14.17923129
_cell_angle_alpha   82.03676345
_cell_angle_beta   87.33921471
_cell_angle_gamma   88.98518440
_symmetry_Int_Tables_number   1
_chemical_formula_structural   Sm6Si4S17
_chemical_formula_sum   'Sm12 Si8 S34'
_cell_volume   1240.06584077
_cell_formula_units_Z   2
loop_
 _symmetry_equiv_pos_site_id
 _symmetry_equiv_pos_as_xyz
  1  'x, y, z'
loop_
 _atom_site_type_symbol
 _atom_site_label
 _atom_site_symmetry_multiplicity
 _atom_site_fract_x
 _atom_site_fract_y
 _atom_site_fract_z
 _atom_site_occupancy
  Sm  Sm0  1  0.912840  0.918931  0.834494  1
  Sm  Sm1  1  0.664590  0.591150  0.657681  1
  Sm  Sm2  1  0.087160  0.081069  0.165506  1
  Sm  Sm3  1  0.012061  0.766465  0.463802  1
  Sm  Sm4  1  0.363610  0.060514  0.678276  1
  Sm  Sm5  1  0.449967  0.737619  0.002024  1
  Sm  Sm6  1  0.105934  0.383896  0.814195  1
  Sm  Sm7  1  0.636390  0.939486  0.321724  1
  Sm  Sm8  1  0.987939  0.233535  0.536198  1
  Sm  Sm9  1  0.550033  0.262381  0.997976  1
  Sm  Sm10  1  0.894066  0.616104  0.185805  1
  Sm  Sm11  1  0.335410  0.408850  0.342319  1
  Si  Si12  1  0.767970  0.560522  0.900552  1
  Si  Si13  1  0.248433  0.059240  0.922564  1
  Si  Si14  1  0.232030  0.439478  0.099448  1
  Si  Si15  1  0.720617  0.943913  0.607270  1
  Si  Si16  1  0.750005  0.499478  0.416429  1
  Si  Si17  1  0.249995  0.500522  0.583571  1
  Si  Si18  1  0.751567  0.940760  0.077436  1
  Si  Si19  1  0.279383  0.056087  0.392730  1
  S  S20  1  0.487527  0.153884  0.397464  1
  S  S21  1  0.700140  0.695093  0.458943  1
  S  S22  1  0.697125  0.365547  0.541741  1
  S  S23  1  0.658870  0.000500  0.942406  1
  S  S24  1  0.991321  0.625639  0.883452  1
  S  S25  1  0.109473  0.202693  0.343117  1
  S  S26  1  0.008679  0.374361  0.116548  1
  S  S27  1  0.985899  0.508995  0.377383  1
  S  S28  1  0.644769  0.467090  0.291929  1
  S  S29  1  0.341130  0.999500  0.057594  1
  S  S30  1  0.322072  0.483021  0.955718  1
  S  S31  1  0.816411  0.021261  0.468786  1
  S  S32  1  0.686407  0.087476  0.702604  1
  S  S33  1  0.749237  0.383691  0.830660  1
  S  S34  1  0.370252  0.280007  0.166537  1
  S  S35  1  0.744862  0.118835  0.149070  1
  S  S36  1  0.512473  0.846116  0.602536  1
  S  S37  1  0.677928  0.516979  0.044282  1
  S  S38  1  0.299860  0.304907  0.541057  1
  S  S39  1  0.937336  0.858598  0.279746  1
  S  S40  1  0.038070  0.151007  0.952113  1
  S  S41  1  0.620004  0.786208  0.162428  1
  S  S42  1  0.961930  0.848993  0.047887  1
  S  S43  1  0.250763  0.616309  0.169340  1
  S  S44  1  0.014101  0.491005  0.622617  1
  S  S45  1  0.629748  0.719993  0.833463  1
  S  S46  1  0.255138  0.881165  0.850930  1
  S  S47  1  0.379996  0.213792  0.837572  1
  S  S48  1  0.313593  0.912524  0.297396  1
  S  S49  1  0.890527  0.797307  0.656883  1
  S  S50  1  0.355231  0.532910  0.708071  1
  S  S51  1  0.183589  0.978739  0.531214  1
  S  S52  1  0.062664  0.141402  0.720254  1
  S  S53  1  0.302875  0.634453  0.458259  1
