# generated using pymatgen
data_Na3Mg2P5O16
_symmetry_space_group_name_H-M   'P 1'
_cell_length_a   5.24044719
_cell_length_b   6.94319065
_cell_length_c   18.84087664
_cell_angle_alpha   90.00000000
_cell_angle_beta   90.23336635
_cell_angle_gamma   90.00000000
_symmetry_Int_Tables_number   1
_chemical_formula_structural   Na3Mg2P5O16
_chemical_formula_sum   'Na6 Mg4 P10 O32'
_cell_volume   685.52759800
_cell_formula_units_Z   2
loop_
 _symmetry_equiv_pos_site_id
 _symmetry_equiv_pos_as_xyz
  1  'x, y, z'
loop_
 _atom_site_type_symbol
 _atom_site_label
 _atom_site_symmetry_multiplicity
 _atom_site_fract_x
 _atom_site_fract_y
 _atom_site_fract_z
 _atom_site_occupancy
  Na  Na0  1  0.747739  0.648125  0.967640  1
  Na  Na1  1  0.500000  0.034224  0.250000  1
  Na  Na2  1  0.252261  0.351875  0.032360  1
  Na  Na3  1  0.747739  0.351875  0.467640  1
  Na  Na4  1  0.500000  0.965776  0.750000  1
  Na  Na5  1  0.252261  0.648125  0.532360  1
  Mg  Mg6  1  0.731368  0.177862  0.908021  1
  Mg  Mg7  1  0.268632  0.177862  0.591979  1
  Mg  Mg8  1  0.268632  0.822138  0.091979  1
  Mg  Mg9  1  0.731368  0.822138  0.408021  1
  P  P10  1  0.000000  0.740566  0.250000  1
  P  P11  1  0.000000  0.259434  0.750000  1
  P  P12  1  0.242162  0.474382  0.869981  1
  P  P13  1  0.757838  0.474382  0.630019  1
  P  P14  1  0.771754  0.877700  0.582951  1
  P  P15  1  0.757838  0.525618  0.130019  1
  P  P16  1  0.771754  0.122300  0.082951  1
  P  P17  1  0.228246  0.122300  0.417049  1
  P  P18  1  0.242162  0.525618  0.369981  1
  P  P19  1  0.228246  0.877700  0.917049  1
  O  O20  1  0.036631  0.398622  0.918980  1
  O  O21  1  0.963369  0.601378  0.081020  1
  O  O22  1  0.036631  0.601378  0.418980  1
  O  O23  1  0.786650  0.700431  0.643723  1
  O  O24  1  0.963369  0.398622  0.581020  1
  O  O25  1  0.807767  0.595858  0.210211  1
  O  O26  1  0.513805  0.430653  0.890686  1
  O  O27  1  0.596096  0.978206  0.119069  1
  O  O28  1  0.161977  0.148901  0.698789  1
  O  O29  1  0.339895  0.217111  0.483830  1
  O  O30  1  0.403904  0.978206  0.380931  1
  O  O31  1  0.596096  0.021794  0.619069  1
  O  O32  1  0.048885  0.936916  0.574255  1
  O  O33  1  0.161977  0.851099  0.198789  1
  O  O34  1  0.660105  0.217111  0.016170  1
  O  O35  1  0.486195  0.430653  0.609314  1
  O  O36  1  0.192233  0.404142  0.789789  1
  O  O37  1  0.951115  0.936916  0.925745  1
  O  O38  1  0.951115  0.063084  0.425745  1
  O  O39  1  0.192233  0.595858  0.289789  1
  O  O40  1  0.339895  0.782889  0.983830  1
  O  O41  1  0.838023  0.148901  0.801211  1
  O  O42  1  0.786650  0.299569  0.143723  1
  O  O43  1  0.403904  0.021794  0.880931  1
  O  O44  1  0.048885  0.063084  0.074255  1
  O  O45  1  0.486195  0.569347  0.109314  1
  O  O46  1  0.213350  0.299569  0.356277  1
  O  O47  1  0.513805  0.569347  0.390686  1
  O  O48  1  0.660105  0.782889  0.516170  1
  O  O49  1  0.213350  0.700431  0.856277  1
  O  O50  1  0.807767  0.404142  0.710211  1
  O  O51  1  0.838023  0.851099  0.301211  1
