# generated using pymatgen
data_HoTeClO3
_symmetry_space_group_name_H-M   'P 1'
_cell_length_a   7.01111695
_cell_length_b   7.39180218
_cell_length_c   9.13794044
_cell_angle_alpha   90.00000000
_cell_angle_beta   90.00000000
_cell_angle_gamma   90.00000000
_symmetry_Int_Tables_number   1
_chemical_formula_structural   HoTeClO3
_chemical_formula_sum   'Ho4 Te4 Cl4 O12'
_cell_volume   473.57184027
_cell_formula_units_Z   4
loop_
 _symmetry_equiv_pos_site_id
 _symmetry_equiv_pos_as_xyz
  1  'x, y, z'
loop_
 _atom_site_type_symbol
 _atom_site_label
 _atom_site_symmetry_multiplicity
 _atom_site_fract_x
 _atom_site_fract_y
 _atom_site_fract_z
 _atom_site_occupancy
  Ho  Ho0  1  0.250000  0.593080  0.963739  1
  Ho  Ho1  1  0.750000  0.406920  0.036261  1
  Ho  Ho2  1  0.750000  0.906920  0.463739  1
  Ho  Ho3  1  0.250000  0.093080  0.536261  1
  Te  Te4  1  0.750000  0.816728  0.869228  1
  Te  Te5  1  0.250000  0.683272  0.369228  1
  Te  Te6  1  0.750000  0.316728  0.630772  1
  Te  Te7  1  0.250000  0.183272  0.130772  1
  Cl  Cl8  1  0.250000  0.931531  0.813128  1
  Cl  Cl9  1  0.250000  0.431531  0.686872  1
  Cl  Cl10  1  0.750000  0.568469  0.313128  1
  Cl  Cl11  1  0.750000  0.068469  0.186872  1
  O  O12  1  0.250000  0.742066  0.169827  1
  O  O13  1  0.750000  0.757934  0.669827  1
  O  O14  1  0.565989  0.644532  0.935372  1
  O  O15  1  0.934011  0.644532  0.935372  1
  O  O16  1  0.434011  0.355468  0.064628  1
  O  O17  1  0.065989  0.355468  0.064628  1
  O  O18  1  0.434011  0.855468  0.435372  1
  O  O19  1  0.565989  0.144532  0.564628  1
  O  O20  1  0.934011  0.144532  0.564628  1
  O  O21  1  0.750000  0.257934  0.830173  1
  O  O22  1  0.250000  0.242066  0.330173  1
  O  O23  1  0.065989  0.855468  0.435372  1
