# generated using pymatgen
data_Na2CuSbS3
_symmetry_space_group_name_H-M   'P 1'
_cell_length_a   5.86719535
_cell_length_b   17.24542493
_cell_length_c   7.03338386
_cell_angle_alpha   90.00000000
_cell_angle_beta   117.00364130
_cell_angle_gamma   90.00000000
_symmetry_Int_Tables_number   1
_chemical_formula_structural   Na2CuSbS3
_chemical_formula_sum   'Na8 Cu4 Sb4 S12'
_cell_volume   634.06763858
_cell_formula_units_Z   4
loop_
 _symmetry_equiv_pos_site_id
 _symmetry_equiv_pos_as_xyz
  1  'x, y, z'
loop_
 _atom_site_type_symbol
 _atom_site_label
 _atom_site_symmetry_multiplicity
 _atom_site_fract_x
 _atom_site_fract_y
 _atom_site_fract_z
 _atom_site_occupancy
  Na  Na0  1  0.346222  0.038402  0.690341  1
  Na  Na1  1  0.653778  0.538402  0.809659  1
  Na  Na2  1  0.064667  0.113254  0.117639  1
  Na  Na3  1  0.935333  0.613254  0.382361  1
  Na  Na4  1  0.935333  0.886746  0.882361  1
  Na  Na5  1  0.064667  0.386746  0.617639  1
  Na  Na6  1  0.653778  0.961598  0.309659  1
  Na  Na7  1  0.346222  0.461598  0.190341  1
  Cu  Cu8  1  0.381199  0.212301  0.899561  1
  Cu  Cu9  1  0.381199  0.287699  0.399561  1
  Cu  Cu10  1  0.618801  0.787699  0.100439  1
  Cu  Cu11  1  0.618801  0.712301  0.600439  1
  Sb  Sb12  1  0.754919  0.173931  0.481652  1
  Sb  Sb13  1  0.245081  0.826069  0.518348  1
  Sb  Sb14  1  0.754919  0.326069  0.981652  1
  Sb  Sb15  1  0.245081  0.673931  0.018348  1
  S  S16  1  0.209586  0.195884  0.539879  1
  S  S17  1  0.158032  0.943089  0.305087  1
  S  S18  1  0.424849  0.612797  0.373386  1
  S  S19  1  0.158032  0.556911  0.805087  1
  S  S20  1  0.209586  0.304116  0.039879  1
  S  S21  1  0.790414  0.695884  0.960121  1
  S  S22  1  0.575151  0.112797  0.126614  1
  S  S23  1  0.841968  0.056911  0.694913  1
  S  S24  1  0.841968  0.443089  0.194913  1
  S  S25  1  0.790414  0.804116  0.460121  1
  S  S26  1  0.424849  0.887203  0.873386  1
  S  S27  1  0.575151  0.387203  0.626614  1
