# generated using pymatgen
data_Na2Zr12B2I5Cl23
_symmetry_space_group_name_H-M   'P 1'
_cell_length_a   13.49807200
_cell_length_b   13.62145260
_cell_length_c   13.49946432
_cell_angle_alpha   90.00000000
_cell_angle_beta   90.03323149
_cell_angle_gamma   90.00000000
_symmetry_Int_Tables_number   1
_chemical_formula_structural   Na2Zr12B2I5Cl23
_chemical_formula_sum   'Na4 Zr24 B4 I10 Cl46'
_cell_volume   2482.05628875
_cell_formula_units_Z   2
loop_
 _symmetry_equiv_pos_site_id
 _symmetry_equiv_pos_as_xyz
  1  'x, y, z'
loop_
 _atom_site_type_symbol
 _atom_site_label
 _atom_site_symmetry_multiplicity
 _atom_site_fract_x
 _atom_site_fract_y
 _atom_site_fract_z
 _atom_site_occupancy
  Na  Na0  1  0.715739  0.465999  0.717218  1
  Na  Na1  1  0.715739  0.534001  0.217218  1
  Na  Na2  1  0.776162  0.969721  0.715723  1
  Na  Na3  1  0.776162  0.030279  0.215723  1
  Zr  Zr4  1  0.051076  0.900995  0.563426  1
  Zr  Zr5  1  0.051076  0.099005  0.063426  1
  Zr  Zr6  1  0.066641  0.206243  0.847965  1
  Zr  Zr7  1  0.066641  0.793757  0.347965  1
  Zr  Zr8  1  0.154592  0.684578  0.546637  1
  Zr  Zr9  1  0.154592  0.315422  0.046637  1
  Zr  Zr10  1  0.345341  0.186703  0.546256  1
  Zr  Zr11  1  0.345341  0.813297  0.046256  1
  Zr  Zr12  1  0.433192  0.703948  0.847308  1
  Zr  Zr13  1  0.433192  0.296052  0.347308  1
  Zr  Zr14  1  0.450619  0.401894  0.563009  1
  Zr  Zr15  1  0.450619  0.598106  0.063009  1
  Zr  Zr16  1  0.541760  0.900078  0.935523  1
  Zr  Zr17  1  0.541760  0.099922  0.435523  1
  Zr  Zr18  1  0.560547  0.205036  0.651999  1
  Zr  Zr19  1  0.560547  0.794964  0.151999  1
  Zr  Zr20  1  0.649774  0.686868  0.954612  1
  Zr  Zr21  1  0.649774  0.313132  0.454612  1
  Zr  Zr22  1  0.850178  0.811958  0.455809  1
  Zr  Zr23  1  0.850178  0.188042  0.955809  1
  Zr  Zr24  1  0.938019  0.300762  0.152132  1
  Zr  Zr25  1  0.938019  0.699238  0.652132  1
  Zr  Zr26  1  0.957192  0.401582  0.935313  1
  Zr  Zr27  1  0.957192  0.598418  0.435313  1
  B  B28  1  0.003095  0.250670  0.000936  1
  B  B29  1  0.003095  0.749330  0.500936  1
  B  B30  1  0.496654  0.250816  0.499674  1
  B  B31  1  0.496654  0.749184  0.999674  1
  I  I32  1  0.131750  0.116916  0.630568  1
  I  I33  1  0.131750  0.883084  0.130568  1
  I  I34  1  0.368663  0.616500  0.631407  1
  I  I35  1  0.368663  0.383500  0.131407  1
  I  I36  1  0.635433  0.885257  0.365096  1
  I  I37  1  0.635433  0.114743  0.865096  1
  I  I38  1  0.862899  0.388432  0.363359  1
  I  I39  1  0.862899  0.611568  0.863359  1
  I  I40  1  0.983108  0.871858  0.767816  1
  I  I41  1  0.983108  0.128142  0.267816  1
  Cl  Cl42  1  0.019880  0.366431  0.761141  1
  Cl  Cl43  1  0.019880  0.633569  0.261141  1
  Cl  Cl44  1  0.097661  0.624709  0.716129  1
  Cl  Cl45  1  0.097661  0.375291  0.216129  1
  Cl  Cl46  1  0.117816  0.487781  0.978721  1
  Cl  Cl47  1  0.117816  0.512219  0.478721  1
  Cl  Cl48  1  0.126260  0.038372  0.903436  1
  Cl  Cl49  1  0.126260  0.961628  0.403436  1
  Cl  Cl50  1  0.219866  0.844564  0.620873  1
  Cl  Cl51  1  0.219866  0.155436  0.120873  1
  Cl  Cl52  1  0.239080  0.273100  0.882654  1
  Cl  Cl53  1  0.239080  0.726900  0.382654  1
  Cl  Cl54  1  0.260584  0.770233  0.882427  1
  Cl  Cl55  1  0.260584  0.229767  0.382427  1
  Cl  Cl56  1  0.282279  0.346722  0.622154  1
  Cl  Cl57  1  0.282279  0.653278  0.122154  1
  Cl  Cl58  1  0.379943  0.533333  0.901816  1
  Cl  Cl59  1  0.379943  0.466667  0.401816  1
  Cl  Cl60  1  0.381752  0.986425  0.980033  1
  Cl  Cl61  1  0.381752  0.013575  0.480033  1
  Cl  Cl62  1  0.402257  0.130610  0.717573  1
  Cl  Cl63  1  0.402257  0.869390  0.217573  1
  Cl  Cl64  1  0.479841  0.865173  0.760940  1
  Cl  Cl65  1  0.479841  0.134827  0.260940  1
  Cl  Cl66  1  0.523017  0.369208  0.738792  1
  Cl  Cl67  1  0.523017  0.630792  0.238792  1
  Cl  Cl68  1  0.597566  0.629950  0.782036  1
  Cl  Cl69  1  0.597566  0.370050  0.282036  1
  Cl  Cl70  1  0.618029  0.512569  0.022870  1
  Cl  Cl71  1  0.618029  0.487431  0.522870  1
  Cl  Cl72  1  0.619438  0.034068  0.597183  1
  Cl  Cl73  1  0.619438  0.965932  0.097183  1
  Cl  Cl74  1  0.717030  0.847499  0.881717  1
  Cl  Cl75  1  0.717030  0.152501  0.381717  1
  Cl  Cl76  1  0.737996  0.272159  0.618758  1
  Cl  Cl77  1  0.737996  0.727841  0.118758  1
  Cl  Cl78  1  0.761413  0.769879  0.618860  1
  Cl  Cl79  1  0.761413  0.230121  0.118860  1
  Cl  Cl80  1  0.781671  0.347812  0.881561  1
  Cl  Cl81  1  0.781671  0.652188  0.381561  1
  Cl  Cl82  1  0.878826  0.469826  0.095650  1
  Cl  Cl83  1  0.878826  0.530174  0.595650  1
  Cl  Cl84  1  0.883281  0.013576  0.022832  1
  Cl  Cl85  1  0.883281  0.986424  0.522832  1
  Cl  Cl86  1  0.901982  0.133223  0.782558  1
  Cl  Cl87  1  0.901982  0.866777  0.282558  1
