# generated using pymatgen
data_Rb2NaMn3F12
_symmetry_space_group_name_H-M   'P 1'
_cell_length_a   7.28928460
_cell_length_b   7.65951684
_cell_length_c   10.36300452
_cell_angle_alpha   89.87657408
_cell_angle_beta   86.65216794
_cell_angle_gamma   89.51308829
_symmetry_Int_Tables_number   1
_chemical_formula_structural   Rb2NaMn3F12
_chemical_formula_sum   'Rb4 Na2 Mn6 F24'
_cell_volume   577.58232411
_cell_formula_units_Z   2
loop_
 _symmetry_equiv_pos_site_id
 _symmetry_equiv_pos_as_xyz
  1  'x, y, z'
loop_
 _atom_site_type_symbol
 _atom_site_label
 _atom_site_symmetry_multiplicity
 _atom_site_fract_x
 _atom_site_fract_y
 _atom_site_fract_z
 _atom_site_occupancy
  Rb  Rb0  1  0.517890  0.748818  0.606466  1
  Rb  Rb1  1  0.482110  0.251182  0.393534  1
  Rb  Rb2  1  0.026803  0.262586  0.138689  1
  Rb  Rb3  1  0.973197  0.737414  0.861311  1
  Na  Na4  1  0.707792  0.238347  0.746062  1
  Na  Na5  1  0.292208  0.761653  0.253938  1
  Mn  Mn6  1  0.811373  0.748069  0.216356  1
  Mn  Mn7  1  0.188627  0.251931  0.783644  1
  Mn  Mn8  1  0.000000  0.500000  0.500000  1
  Mn  Mn9  1  0.000000  0.000000  0.500000  1
  Mn  Mn10  1  0.500000  0.000000  0.000000  1
  Mn  Mn11  1  0.500000  0.500000  0.000000  1
  F  F12  1  0.039846  0.729284  0.127154  1
  F  F13  1  0.960154  0.270716  0.872846  1
  F  F14  1  0.590572  0.767982  0.314588  1
  F  F15  1  0.409428  0.232018  0.685412  1
  F  F16  1  0.767440  0.433616  0.566744  1
  F  F17  1  0.232560  0.566384  0.433256  1
  F  F18  1  0.752963  0.049253  0.546040  1
  F  F19  1  0.247037  0.950747  0.453960  1
  F  F20  1  0.631656  0.952751  0.842729  1
  F  F21  1  0.368344  0.047249  0.157271  1
  F  F22  1  0.620844  0.533457  0.837859  1
  F  F23  1  0.379156  0.466543  0.162141  1
  F  F24  1  0.585525  0.233244  0.987388  1
  F  F25  1  0.414475  0.766756  0.012612  1
  F  F26  1  0.277922  0.444786  0.918691  1
  F  F27  1  0.722078  0.555214  0.081309  1
  F  F28  1  0.255303  0.067562  0.897772  1
  F  F29  1  0.744697  0.932438  0.102228  1
  F  F30  1  0.058641  0.053537  0.672230  1
  F  F31  1  0.941359  0.946463  0.327770  1
  F  F32  1  0.949076  0.732699  0.563919  1
  F  F33  1  0.050924  0.267301  0.436081  1
  F  F34  1  0.119129  0.445815  0.679102  1
  F  F35  1  0.880871  0.554185  0.320898  1
