# generated using pymatgen
data_CdI2
_symmetry_space_group_name_H-M   'P 1'
_cell_length_a   4.33201617
_cell_length_b   4.33201617
_cell_length_c   44.45656631
_cell_angle_alpha   90.00000000
_cell_angle_beta   90.00000000
_cell_angle_gamma   120.00000000
_symmetry_Int_Tables_number   1
_chemical_formula_structural   CdI2
_chemical_formula_sum   'Cd6 I12'
_cell_volume   722.51469717
_cell_formula_units_Z   6
loop_
 _symmetry_equiv_pos_site_id
 _symmetry_equiv_pos_as_xyz
  1  'x, y, z'
loop_
 _atom_site_type_symbol
 _atom_site_label
 _atom_site_symmetry_multiplicity
 _atom_site_fract_x
 _atom_site_fract_y
 _atom_site_fract_z
 _atom_site_occupancy
  Cd  Cd0  1  0.333333  0.666667  0.250012  1
  Cd  Cd1  1  0.000000  0.000000  0.416628  1
  Cd  Cd2  1  0.000000  0.000000  0.083316  1
  Cd  Cd3  1  0.000000  0.000000  0.583372  1
  Cd  Cd4  1  0.000000  0.000000  0.916684  1
  Cd  Cd5  1  0.666667  0.333333  0.749988  1
  I  I6  1  0.666667  0.333333  0.377780  1
  I  I7  1  0.333333  0.666667  0.122178  1
  I  I8  1  0.666667  0.333333  0.877822  1
  I  I9  1  0.333333  0.666667  0.955481  1
  I  I10  1  0.666667  0.333333  0.544469  1
  I  I11  1  0.333333  0.666667  0.455531  1
  I  I12  1  0.333333  0.666667  0.788846  1
  I  I13  1  0.666667  0.333333  0.211154  1
  I  I14  1  0.000000  0.000000  0.711121  1
  I  I15  1  0.333333  0.666667  0.622220  1
  I  I16  1  0.000000  0.000000  0.288879  1
  I  I17  1  0.666667  0.333333  0.044519  1
