# generated using pymatgen
data_KTeO2F
_symmetry_space_group_name_H-M   'P 1'
_cell_length_a   6.34961866
_cell_length_b   15.26837174
_cell_length_c   13.24373470
_cell_angle_alpha   90.00000000
_cell_angle_beta   114.33930636
_cell_angle_gamma   90.00000000
_symmetry_Int_Tables_number   1
_chemical_formula_structural   KTeO2F
_chemical_formula_sum   'K12 Te12 O24 F12'
_cell_volume   1169.84084418
_cell_formula_units_Z   12
loop_
 _symmetry_equiv_pos_site_id
 _symmetry_equiv_pos_as_xyz
  1  'x, y, z'
loop_
 _atom_site_type_symbol
 _atom_site_label
 _atom_site_symmetry_multiplicity
 _atom_site_fract_x
 _atom_site_fract_y
 _atom_site_fract_z
 _atom_site_occupancy
  K  K0  1  0.293051  0.684524  0.014668  1
  K  K1  1  0.340542  0.314980  0.631980  1
  K  K2  1  0.340542  0.185020  0.131980  1
  K  K3  1  0.659458  0.814980  0.868020  1
  K  K4  1  0.837464  0.928722  0.601048  1
  K  K5  1  0.659458  0.685020  0.368020  1
  K  K6  1  0.706949  0.184524  0.485332  1
  K  K7  1  0.162536  0.428722  0.898952  1
  K  K8  1  0.837464  0.571278  0.101048  1
  K  K9  1  0.162536  0.071278  0.398952  1
  K  K10  1  0.293051  0.815476  0.514668  1
  K  K11  1  0.706949  0.315476  0.985332  1
  Te  Te12  1  0.581972  0.551272  0.782045  1
  Te  Te13  1  0.418028  0.448728  0.217955  1
  Te  Te14  1  0.926531  0.815730  0.197428  1
  Te  Te15  1  0.926531  0.684270  0.697428  1
  Te  Te16  1  0.819308  0.038431  0.093189  1
  Te  Te17  1  0.819308  0.461569  0.593189  1
  Te  Te18  1  0.581972  0.948728  0.282045  1
  Te  Te19  1  0.418028  0.051272  0.717955  1
  Te  Te20  1  0.073469  0.315730  0.302572  1
  Te  Te21  1  0.073469  0.184270  0.802572  1
  Te  Te22  1  0.180692  0.961569  0.906811  1
  Te  Te23  1  0.180692  0.538431  0.406811  1
  O  O24  1  0.660581  0.023546  0.400968  1
  O  O25  1  0.131243  0.468961  0.683836  1
  O  O26  1  0.115912  0.393622  0.180141  1
  O  O27  1  0.321935  0.254816  0.822082  1
  O  O28  1  0.317386  0.950939  0.801231  1
  O  O29  1  0.321935  0.245184  0.322082  1
  O  O30  1  0.339419  0.976454  0.599032  1
  O  O31  1  0.339419  0.523546  0.099032  1
  O  O32  1  0.234169  0.098095  0.917770  1
  O  O33  1  0.765831  0.901905  0.082230  1
  O  O34  1  0.868757  0.531039  0.316164  1
  O  O35  1  0.682614  0.450939  0.698769  1
  O  O36  1  0.884088  0.606378  0.819859  1
  O  O37  1  0.660581  0.476454  0.900968  1
  O  O38  1  0.234169  0.401905  0.417770  1
  O  O39  1  0.868757  0.968961  0.816164  1
  O  O40  1  0.317386  0.549061  0.301231  1
  O  O41  1  0.678065  0.745184  0.177918  1
  O  O42  1  0.131243  0.031039  0.183836  1
  O  O43  1  0.115912  0.106378  0.680141  1
  O  O44  1  0.765831  0.598095  0.582230  1
  O  O45  1  0.682614  0.049061  0.198769  1
  O  O46  1  0.884088  0.893622  0.319859  1
  O  O47  1  0.678065  0.754816  0.677918  1
  F  F48  1  0.030594  0.257598  0.930655  1
  F  F49  1  0.030594  0.242402  0.430655  1
  F  F50  1  0.840467  0.176963  0.110504  1
  F  F51  1  0.969406  0.757598  0.569345  1
  F  F52  1  0.969406  0.742402  0.069345  1
  F  F53  1  0.840467  0.323037  0.610504  1
  F  F54  1  0.483838  0.148305  0.616658  1
  F  F55  1  0.159533  0.823037  0.889496  1
  F  F56  1  0.516162  0.851695  0.383342  1
  F  F57  1  0.483838  0.351695  0.116658  1
  F  F58  1  0.516162  0.648305  0.883342  1
  F  F59  1  0.159533  0.676963  0.389496  1
