# generated using pymatgen
data_KBiF6
_symmetry_space_group_name_H-M   'P 1'
_cell_length_a   9.19206216
_cell_length_b   9.19206216
_cell_length_c   9.19206216
_cell_angle_alpha   109.47122063
_cell_angle_beta   109.47122063
_cell_angle_gamma   109.47122063
_symmetry_Int_Tables_number   1
_chemical_formula_structural   KBiF6
_chemical_formula_sum   'K4 Bi4 F24'
_cell_volume   597.88404891
_cell_formula_units_Z   4
loop_
 _symmetry_equiv_pos_site_id
 _symmetry_equiv_pos_as_xyz
  1  'x, y, z'
loop_
 _atom_site_type_symbol
 _atom_site_label
 _atom_site_symmetry_multiplicity
 _atom_site_fract_x
 _atom_site_fract_y
 _atom_site_fract_z
 _atom_site_occupancy
  K  K0  1  0.500000  0.500000  0.500000  1
  K  K1  1  0.000000  0.000000  0.500000  1
  K  K2  1  0.500000  0.000000  1.000000  1
  K  K3  1  0.000000  0.500000  0.000000  1
  Bi  Bi4  1  0.000000  0.000000  0.000000  1
  Bi  Bi5  1  1.000000  0.500000  0.500000  1
  Bi  Bi6  1  0.500000  0.000000  0.500000  1
  Bi  Bi7  1  0.500000  0.500000  0.000000  1
  F  F8  1  0.087865  0.050067  0.256968  1
  F  F9  1  0.830897  0.243032  0.293099  1
  F  F10  1  0.537798  0.206901  0.449933  1
  F  F11  1  0.669103  0.962202  0.412135  1
  F  F12  1  0.243032  0.293099  0.830897  1
  F  F13  1  0.449933  0.537798  0.206901  1
  F  F14  1  0.962202  0.412135  0.669103  1
  F  F15  1  0.256968  0.087865  0.050067  1
  F  F16  1  0.050067  0.256968  0.087865  1
  F  F17  1  0.293099  0.830897  0.243032  1
  F  F18  1  0.206901  0.449933  0.537798  1
  F  F19  1  0.412135  0.669103  0.962202  1
  F  F20  1  0.912135  0.949933  0.743032  1
  F  F21  1  0.169103  0.756968  0.706901  1
  F  F22  1  0.462202  0.793099  0.550067  1
  F  F23  1  0.330897  0.037798  0.587865  1
  F  F24  1  0.756968  0.706901  0.169103  1
  F  F25  1  0.550067  0.462202  0.793099  1
  F  F26  1  0.037798  0.587865  0.330897  1
  F  F27  1  0.743032  0.912135  0.949933  1
  F  F28  1  0.949933  0.743032  0.912135  1
  F  F29  1  0.706901  0.169103  0.756968  1
  F  F30  1  0.793099  0.550067  0.462202  1
  F  F31  1  0.587865  0.330897  0.037798  1
