# generated using pymatgen
data_RbIn(MoO4)2
_symmetry_space_group_name_H-M   'P 1'
_cell_length_a   5.94709246
_cell_length_b   5.94709246
_cell_length_c   7.88645281
_cell_angle_alpha   90.00000000
_cell_angle_beta   90.00000000
_cell_angle_gamma   120.00000000
_symmetry_Int_Tables_number   1
_chemical_formula_structural   RbIn(MoO4)2
_chemical_formula_sum   'Rb1 In1 Mo2 O8'
_cell_volume   241.55816503
_cell_formula_units_Z   1
loop_
 _symmetry_equiv_pos_site_id
 _symmetry_equiv_pos_as_xyz
  1  'x, y, z'
loop_
 _atom_site_type_symbol
 _atom_site_label
 _atom_site_symmetry_multiplicity
 _atom_site_fract_x
 _atom_site_fract_y
 _atom_site_fract_z
 _atom_site_occupancy
  Rb  Rb0  1  0.000000  0.000000  0.500000  1
  In  In1  1  0.000000  0.000000  0.000000  1
  Mo  Mo2  1  0.666667  0.333333  0.763232  1
  Mo  Mo3  1  0.333333  0.666667  0.236768  1
  O  O4  1  0.332049  0.166025  0.833120  1
  O  O5  1  0.833975  0.166025  0.833120  1
  O  O6  1  0.833975  0.667951  0.833120  1
  O  O7  1  0.166025  0.833975  0.166880  1
  O  O8  1  0.333333  0.666667  0.458547  1
  O  O9  1  0.666667  0.333333  0.541453  1
  O  O10  1  0.166025  0.332049  0.166880  1
  O  O11  1  0.667951  0.833975  0.166880  1
