# generated using pymatgen
data_K2Ti(Si2O5)3
_symmetry_space_group_name_H-M   'P 1'
_cell_length_a   7.00864033
_cell_length_b   12.93854180
_cell_length_c   7.75873228
_cell_angle_alpha   90.00000000
_cell_angle_beta   106.17939214
_cell_angle_gamma   90.00000000
_symmetry_Int_Tables_number   1
_chemical_formula_structural   K2Ti(Si2O5)3
_chemical_formula_sum   'K4 Ti2 Si12 O30'
_cell_volume   675.70836909
_cell_formula_units_Z   2
loop_
 _symmetry_equiv_pos_site_id
 _symmetry_equiv_pos_as_xyz
  1  'x, y, z'
loop_
 _atom_site_type_symbol
 _atom_site_label
 _atom_site_symmetry_multiplicity
 _atom_site_fract_x
 _atom_site_fract_y
 _atom_site_fract_z
 _atom_site_occupancy
  K  K0  1  0.199566  0.891140  0.150828  1
  K  K1  1  0.190362  0.594505  0.420586  1
  K  K2  1  0.809638  0.094505  0.579414  1
  K  K3  1  0.800434  0.391140  0.849172  1
  Ti  Ti4  1  0.755960  0.750646  0.248978  1
  Ti  Ti5  1  0.244040  0.250646  0.751022  1
  Si  Si6  1  0.693534  0.994017  0.069142  1
  Si  Si7  1  0.551293  0.833409  0.557401  1
  Si  Si8  1  0.448707  0.333409  0.442599  1
  Si  Si9  1  0.306466  0.494017  0.930858  1
  Si  Si10  1  0.670962  0.490277  0.291446  1
  Si  Si11  1  0.454388  0.165570  0.163653  1
  Si  Si12  1  0.986715  0.657838  0.956081  1
  Si  Si13  1  0.329038  0.990277  0.708554  1
  Si  Si14  1  0.007850  0.321819  0.331557  1
  Si  Si15  1  0.992150  0.821819  0.668443  1
  Si  Si16  1  0.545612  0.665570  0.836347  1
  Si  Si17  1  0.013285  0.157838  0.043919  1
  O  O18  1  0.535097  0.240297  0.340518  1
  O  O19  1  0.207161  0.391880  0.828630  1
  O  O20  1  0.561456  0.721549  0.024539  1
  O  O21  1  0.025832  0.273411  0.525519  1
  O  O22  1  0.499057  0.471869  0.101882  1
  O  O23  1  0.976774  0.707640  0.143126  1
  O  O24  1  0.500943  0.971869  0.898118  1
  O  O25  1  0.450876  0.299843  0.642650  1
  O  O26  1  0.386817  0.568650  0.792233  1
  O  O27  1  0.792839  0.891880  0.171370  1
  O  O28  1  0.549124  0.799843  0.357350  1
  O  O29  1  0.613183  0.068650  0.207767  1
  O  O30  1  0.411094  0.937038  0.548190  1
  O  O31  1  0.774405  0.865549  0.680146  1
  O  O32  1  0.023226  0.207640  0.856874  1
  O  O33  1  0.464903  0.740297  0.659482  1
  O  O34  1  0.866421  0.424300  0.277884  1
  O  O35  1  0.073701  0.740117  0.835433  1
  O  O36  1  0.438544  0.221549  0.975461  1
  O  O37  1  0.133579  0.924300  0.722116  1
  O  O38  1  0.225595  0.365549  0.319854  1
  O  O39  1  0.588906  0.437038  0.451810  1
  O  O40  1  0.926299  0.240117  0.164567  1
  O  O41  1  0.974168  0.773411  0.474481  1
  O  O42  1  0.732872  0.608433  0.332971  1
  O  O43  1  0.267128  0.108433  0.667029  1
  O  O44  1  0.765293  0.617027  0.836959  1
  O  O45  1  0.234707  0.117027  0.163041  1
  O  O46  1  0.864737  0.057277  0.002400  1
  O  O47  1  0.135263  0.557277  0.997600  1
