# generated using pymatgen
data_K3LiIrO4
_symmetry_space_group_name_H-M   'P 1'
_cell_length_a   7.31945606
_cell_length_b   7.31945606
_cell_length_c   5.99232158
_cell_angle_alpha   79.66106406
_cell_angle_beta   100.33893594
_cell_angle_gamma   95.45925108
_symmetry_Int_Tables_number   1
_chemical_formula_structural   K3LiIrO4
_chemical_formula_sum   'K6 Li2 Ir2 O8'
_cell_volume   310.03729544
_cell_formula_units_Z   2
loop_
 _symmetry_equiv_pos_site_id
 _symmetry_equiv_pos_as_xyz
  1  'x, y, z'
loop_
 _atom_site_type_symbol
 _atom_site_label
 _atom_site_symmetry_multiplicity
 _atom_site_fract_x
 _atom_site_fract_y
 _atom_site_fract_z
 _atom_site_occupancy
  K  K0  1  0.065719  0.756312  0.973932  1
  K  K1  1  0.594795  0.594795  0.750000  1
  K  K2  1  0.243688  0.934281  0.473932  1
  K  K3  1  0.756312  0.065719  0.526068  1
  K  K4  1  0.934281  0.243688  0.026068  1
  K  K5  1  0.405205  0.405205  0.250000  1
  Li  Li6  1  0.731825  0.731825  0.250000  1
  Li  Li7  1  0.268175  0.268175  0.750000  1
  Ir  Ir8  1  0.500000  0.000000  0.000000  1
  Ir  Ir9  1  0.000000  0.500000  0.500000  1
  O  O10  1  0.203692  0.519464  0.753736  1
  O  O11  1  0.913188  0.734920  0.530135  1
  O  O12  1  0.480536  0.796308  0.253736  1
  O  O13  1  0.265080  0.086812  0.030135  1
  O  O14  1  0.086812  0.265080  0.469865  1
  O  O15  1  0.734920  0.913188  0.969865  1
  O  O16  1  0.519464  0.203692  0.746264  1
  O  O17  1  0.796308  0.480536  0.246264  1
