# generated using pymatgen
data_Li2NiP2O7
_symmetry_space_group_name_H-M   'P 1'
_cell_length_a   5.04894766
_cell_length_b   13.34650731
_cell_length_c   9.33685455
_cell_angle_alpha   90.00000000
_cell_angle_beta   120.19472750
_cell_angle_gamma   90.00000000
_symmetry_Int_Tables_number   1
_chemical_formula_structural   Li2NiP2O7
_chemical_formula_sum   'Li8 Ni4 P8 O28'
_cell_volume   543.80625626
_cell_formula_units_Z   4
loop_
 _symmetry_equiv_pos_site_id
 _symmetry_equiv_pos_as_xyz
  1  'x, y, z'
loop_
 _atom_site_type_symbol
 _atom_site_label
 _atom_site_symmetry_multiplicity
 _atom_site_fract_x
 _atom_site_fract_y
 _atom_site_fract_z
 _atom_site_occupancy
  Li  Li0  1  0.963476  0.108035  0.133235  1
  Li  Li1  1  0.423236  0.699183  0.164858  1
  Li  Li2  1  0.576764  0.199183  0.335142  1
  Li  Li3  1  0.036524  0.608035  0.366765  1
  Li  Li4  1  0.963476  0.391965  0.633235  1
  Li  Li5  1  0.423236  0.800817  0.664858  1
  Li  Li6  1  0.576764  0.300817  0.835142  1
  Li  Li7  1  0.036524  0.891965  0.866765  1
  Ni  Ni8  1  0.034711  0.836991  0.240709  1
  Ni  Ni9  1  0.965289  0.336991  0.259291  1
  Ni  Ni10  1  0.034711  0.663009  0.740709  1
  Ni  Ni11  1  0.965289  0.163009  0.759291  1
  P  P12  1  0.734265  0.679245  0.966808  1
  P  P13  1  0.474131  0.029131  0.775036  1
  P  P14  1  0.525869  0.529131  0.724964  1
  P  P15  1  0.265735  0.179245  0.533192  1
  P  P16  1  0.265735  0.320755  0.033192  1
  P  P17  1  0.525869  0.970869  0.224964  1
  P  P18  1  0.734265  0.820755  0.466808  1
  P  P19  1  0.474131  0.470869  0.275036  1
  O  O20  1  0.781150  0.964714  0.179870  1
  O  O21  1  0.699960  0.561656  0.923570  1
  O  O22  1  0.729198  0.108328  0.869600  1
  O  O23  1  0.800827  0.731096  0.841099  1
  O  O24  1  0.572042  0.287898  0.049608  1
  O  O25  1  0.300040  0.438344  0.076430  1
  O  O26  1  0.270802  0.891672  0.130400  1
  O  O27  1  0.199173  0.268904  0.158901  1
  O  O28  1  0.003059  0.692654  0.144745  1
  O  O29  1  0.427958  0.712102  0.950392  1
  O  O30  1  0.403287  0.074369  0.220035  1
  O  O31  1  0.596713  0.574369  0.279965  1
  O  O32  1  0.218850  0.464714  0.320130  1
  O  O33  1  0.800827  0.768904  0.341099  1
  O  O34  1  0.996941  0.192654  0.355255  1
  O  O35  1  0.729198  0.391672  0.369600  1
  O  O36  1  0.996941  0.307346  0.855255  1
  O  O37  1  0.427958  0.787898  0.450392  1
  O  O38  1  0.572042  0.212102  0.549608  1
  O  O39  1  0.300040  0.061656  0.576430  1
  O  O40  1  0.270802  0.608328  0.630400  1
  O  O41  1  0.003059  0.807346  0.644745  1
  O  O42  1  0.199173  0.231096  0.658901  1
  O  O43  1  0.781150  0.535286  0.679870  1
  O  O44  1  0.403287  0.425631  0.720035  1
  O  O45  1  0.596713  0.925631  0.779965  1
  O  O46  1  0.218850  0.035286  0.820130  1
  O  O47  1  0.699960  0.938344  0.423570  1
