# generated using pymatgen
data_CsNa3PbO4
_symmetry_space_group_name_H-M   'P 1'
_cell_length_a   6.86515245
_cell_length_b   8.85020922
_cell_length_c   11.80225338
_cell_angle_alpha   82.59846483
_cell_angle_beta   76.29642223
_cell_angle_gamma   79.42313625
_symmetry_Int_Tables_number   1
_chemical_formula_structural   CsNa3PbO4
_chemical_formula_sum   'Cs4 Na12 Pb4 O16'
_cell_volume   682.09322878
_cell_formula_units_Z   4
loop_
 _symmetry_equiv_pos_site_id
 _symmetry_equiv_pos_as_xyz
  1  'x, y, z'
loop_
 _atom_site_type_symbol
 _atom_site_label
 _atom_site_symmetry_multiplicity
 _atom_site_fract_x
 _atom_site_fract_y
 _atom_site_fract_z
 _atom_site_occupancy
  Cs  Cs0  1  0.992811  0.617481  0.120043  1
  Cs  Cs1  1  0.007189  0.382519  0.879957  1
  Cs  Cs2  1  0.957656  0.858116  0.374361  1
  Cs  Cs3  1  0.042344  0.141884  0.625639  1
  Na  Na4  1  0.429255  0.042874  0.376082  1
  Na  Na5  1  0.570745  0.957126  0.623918  1
  Na  Na6  1  0.814984  0.052185  0.105836  1
  Na  Na7  1  0.185016  0.947815  0.894164  1
  Na  Na8  1  0.540213  0.430092  0.125869  1
  Na  Na9  1  0.459787  0.569908  0.874131  1
  Na  Na10  1  0.187273  0.443396  0.397272  1
  Na  Na11  1  0.812727  0.556604  0.602728  1
  Na  Na12  1  0.195348  0.177781  0.146241  1
  Na  Na13  1  0.804652  0.822219  0.853759  1
  Na  Na14  1  0.519399  0.673540  0.386276  1
  Na  Na15  1  0.480601  0.326460  0.613724  1
  Pb  Pb16  1  0.825808  0.292022  0.352102  1
  Pb  Pb17  1  0.174192  0.707978  0.647898  1
  Pb  Pb18  1  0.438695  0.795520  0.131935  1
  Pb  Pb19  1  0.561305  0.204480  0.868065  1
  O  O20  1  0.135175  0.200426  0.351626  1
  O  O21  1  0.864825  0.799574  0.648374  1
  O  O22  1  0.381479  0.332549  0.004940  1
  O  O23  1  0.618521  0.667451  0.995060  1
  O  O24  1  0.337944  0.612146  0.255457  1
  O  O25  1  0.662056  0.387854  0.744543  1
  O  O26  1  0.811283  0.509502  0.411704  1
  O  O27  1  0.188717  0.490498  0.588296  1
  O  O28  1  0.176320  0.936757  0.094070  1
  O  O29  1  0.823680  0.063243  0.905930  1
  O  O30  1  0.831072  0.287705  0.173333  1
  O  O31  1  0.168928  0.712295  0.826667  1
  O  O32  1  0.606797  0.888085  0.226075  1
  O  O33  1  0.393203  0.111915  0.773925  1
  O  O34  1  0.625745  0.159219  0.466911  1
  O  O35  1  0.374255  0.840781  0.533089  1
