# generated using pymatgen
data_Na3FeF6
_symmetry_space_group_name_H-M   'P 1'
_cell_length_a   5.57056557
_cell_length_b   5.81611545
_cell_length_c   9.77963798
_cell_angle_alpha   90.00000000
_cell_angle_beta   124.32388336
_cell_angle_gamma   90.00000000
_symmetry_Int_Tables_number   1
_chemical_formula_structural   Na3FeF6
_chemical_formula_sum   'Na6 Fe2 F12'
_cell_volume   261.67562231
_cell_formula_units_Z   2
loop_
 _symmetry_equiv_pos_site_id
 _symmetry_equiv_pos_as_xyz
  1  'x, y, z'
loop_
 _atom_site_type_symbol
 _atom_site_label
 _atom_site_symmetry_multiplicity
 _atom_site_fract_x
 _atom_site_fract_y
 _atom_site_fract_z
 _atom_site_occupancy
  Na  Na0  1  0.272353  0.941879  0.755662  1
  Na  Na1  1  0.727647  0.441879  0.744338  1
  Na  Na2  1  0.727647  0.058121  0.244338  1
  Na  Na3  1  0.272353  0.558121  0.255662  1
  Na  Na4  1  0.500000  0.500000  0.000000  1
  Na  Na5  1  0.500000  0.000000  0.500000  1
  Fe  Fe6  1  0.000000  0.000000  0.000000  1
  Fe  Fe7  1  0.000000  0.500000  0.500000  1
  F  F8  1  0.240010  0.280005  0.073375  1
  F  F9  1  0.759990  0.780005  0.426625  1
  F  F10  1  0.658812  0.177055  0.946907  1
  F  F11  1  0.341188  0.677055  0.553093  1
  F  F12  1  0.105941  0.940882  0.225925  1
  F  F13  1  0.894059  0.440882  0.274075  1
  F  F14  1  0.759990  0.719995  0.926625  1
  F  F15  1  0.240010  0.219995  0.573375  1
  F  F16  1  0.105941  0.559118  0.725925  1
  F  F17  1  0.894059  0.059118  0.774075  1
  F  F18  1  0.658812  0.322945  0.446907  1
  F  F19  1  0.341188  0.822945  0.053093  1
