# generated using pymatgen
data_Rb2Al2B2O7
_symmetry_space_group_name_H-M   'P 1'
_cell_length_a   9.01021634
_cell_length_b   7.66724514
_cell_length_c   12.07563200
_cell_angle_alpha   90.00000000
_cell_angle_beta   104.06478010
_cell_angle_gamma   90.00000000
_symmetry_Int_Tables_number   1
_chemical_formula_structural   Rb2Al2B2O7
_chemical_formula_sum   'Rb8 Al8 B8 O28'
_cell_volume   809.21855941
_cell_formula_units_Z   4
loop_
 _symmetry_equiv_pos_site_id
 _symmetry_equiv_pos_as_xyz
  1  'x, y, z'
loop_
 _atom_site_type_symbol
 _atom_site_label
 _atom_site_symmetry_multiplicity
 _atom_site_fract_x
 _atom_site_fract_y
 _atom_site_fract_z
 _atom_site_occupancy
  Rb  Rb0  1  0.965444  0.360281  0.872291  1
  Rb  Rb1  1  0.034556  0.860281  0.627709  1
  Rb  Rb2  1  0.543425  0.866825  0.147309  1
  Rb  Rb3  1  0.456575  0.366825  0.352691  1
  Rb  Rb4  1  0.543425  0.633175  0.647309  1
  Rb  Rb5  1  0.034556  0.639719  0.127709  1
  Rb  Rb6  1  0.965444  0.139719  0.372291  1
  Rb  Rb7  1  0.456575  0.133175  0.852691  1
  Al  Al8  1  0.341861  0.876509  0.378159  1
  Al  Al9  1  0.341861  0.623491  0.878159  1
  Al  Al10  1  0.658139  0.376509  0.121841  1
  Al  Al11  1  0.815021  0.582791  0.365857  1
  Al  Al12  1  0.184979  0.417209  0.634143  1
  Al  Al13  1  0.184979  0.082791  0.134143  1
  Al  Al14  1  0.815021  0.917209  0.865857  1
  Al  Al15  1  0.658139  0.123491  0.621841  1
  B  B16  1  0.844317  0.411331  0.588320  1
  B  B17  1  0.318629  0.116043  0.562104  1
  B  B18  1  0.155683  0.588669  0.411680  1
  B  B19  1  0.681371  0.616043  0.937896  1
  B  B20  1  0.844317  0.088669  0.088320  1
  B  B21  1  0.318629  0.383957  0.062104  1
  B  B22  1  0.681371  0.883957  0.437896  1
  B  B23  1  0.155683  0.911331  0.911680  1
  O  O24  1  0.229284  0.538588  0.520757  1
  O  O25  1  0.797274  0.808457  0.396279  1
  O  O26  1  0.281881  0.969468  0.494842  1
  O  O27  1  0.307840  0.019133  0.262462  1
  O  O28  1  0.718119  0.469468  0.005158  1
  O  O29  1  0.006309  0.542176  0.361385  1
  O  O30  1  0.536778  0.812056  0.411398  1
  O  O31  1  0.993691  0.457824  0.638615  1
  O  O32  1  0.202726  0.308457  0.103721  1
  O  O33  1  0.770716  0.038588  0.979243  1
  O  O34  1  0.770716  0.461412  0.479243  1
  O  O35  1  0.463222  0.312056  0.088602  1
  O  O36  1  0.536778  0.687944  0.911398  1
  O  O37  1  0.763328  0.180003  0.153493  1
  O  O38  1  0.763328  0.319997  0.653493  1
  O  O39  1  0.692160  0.519133  0.237538  1
  O  O40  1  0.006309  0.957824  0.861385  1
  O  O41  1  0.463222  0.187944  0.588602  1
  O  O42  1  0.202726  0.191543  0.603721  1
  O  O43  1  0.236672  0.680003  0.346507  1
  O  O44  1  0.993691  0.042176  0.138615  1
  O  O45  1  0.718119  0.030532  0.505158  1
  O  O46  1  0.229284  0.961412  0.020757  1
  O  O47  1  0.797274  0.691543  0.896279  1
  O  O48  1  0.236672  0.819997  0.846507  1
  O  O49  1  0.281881  0.530532  0.994842  1
  O  O50  1  0.307840  0.480867  0.762462  1
  O  O51  1  0.692160  0.980867  0.737538  1
