# generated using pymatgen
data_P2Pd2O7
_symmetry_space_group_name_H-M   'P 1'
_cell_length_a   7.20374315
_cell_length_b   7.20374315
_cell_length_c   8.21894605
_cell_angle_alpha   82.73847164
_cell_angle_beta   97.26152836
_cell_angle_gamma   136.38397166
_symmetry_Int_Tables_number   1
_chemical_formula_structural   P2Pd2O7
_chemical_formula_sum   'P4 Pd4 O14'
_cell_volume   291.47893836
_cell_formula_units_Z   2
loop_
 _symmetry_equiv_pos_site_id
 _symmetry_equiv_pos_as_xyz
  1  'x, y, z'
loop_
 _atom_site_type_symbol
 _atom_site_label
 _atom_site_symmetry_multiplicity
 _atom_site_fract_x
 _atom_site_fract_y
 _atom_site_fract_z
 _atom_site_occupancy
  P  P0  1  0.264374  0.482254  0.731902  1
  P  P1  1  0.735626  0.517746  0.268098  1
  P  P2  1  0.482254  0.264374  0.768098  1
  P  P3  1  0.517746  0.735626  0.231902  1
  Pd  Pd4  1  0.000000  0.500000  0.000000  1
  Pd  Pd5  1  0.500000  0.000000  0.500000  1
  Pd  Pd6  1  0.000000  0.000000  0.500000  1
  Pd  Pd7  1  0.000000  0.000000  0.000000  1
  O  O8  1  0.511703  0.511703  0.750000  1
  O  O9  1  0.385725  0.764002  0.709502  1
  O  O10  1  0.488297  0.488297  0.250000  1
  O  O11  1  0.705915  0.930282  0.094166  1
  O  O12  1  0.858490  0.634530  0.092255  1
  O  O13  1  0.930282  0.705915  0.405834  1
  O  O14  1  0.294085  0.069718  0.905834  1
  O  O15  1  0.365470  0.141510  0.592255  1
  O  O16  1  0.141510  0.365470  0.907745  1
  O  O17  1  0.235998  0.614275  0.209502  1
  O  O18  1  0.614275  0.235998  0.290498  1
  O  O19  1  0.634530  0.858490  0.407745  1
  O  O20  1  0.764002  0.385725  0.790498  1
  O  O21  1  0.069718  0.294085  0.594166  1
