# generated using pymatgen
data_TiSn6F16
_symmetry_space_group_name_H-M   'P 1'
_cell_length_a   10.20837500
_cell_length_b   10.20837500
_cell_length_c   11.10167196
_cell_angle_alpha   89.08859760
_cell_angle_beta   90.91140240
_cell_angle_gamma   134.99996045
_symmetry_Int_Tables_number   1
_chemical_formula_structural   TiSn6F16
_chemical_formula_sum   'Ti2 Sn12 F32'
_cell_volume   817.94207103
_cell_formula_units_Z   2
loop_
 _symmetry_equiv_pos_site_id
 _symmetry_equiv_pos_as_xyz
  1  'x, y, z'
loop_
 _atom_site_type_symbol
 _atom_site_label
 _atom_site_symmetry_multiplicity
 _atom_site_fract_x
 _atom_site_fract_y
 _atom_site_fract_z
 _atom_site_occupancy
  Ti  Ti0  1  0.330644  0.330644  0.250000  1
  Ti  Ti1  1  0.669356  0.669356  0.750000  1
  Sn  Sn2  1  0.100797  0.247541  0.603945  1
  Sn  Sn3  1  0.540251  0.245552  0.529917  1
  Sn  Sn4  1  0.899203  0.752459  0.396055  1
  Sn  Sn5  1  0.459749  0.754448  0.470083  1
  Sn  Sn6  1  0.709964  0.122061  0.819266  1
  Sn  Sn7  1  0.752459  0.899203  0.103945  1
  Sn  Sn8  1  0.247541  0.100797  0.896055  1
  Sn  Sn9  1  0.122061  0.709964  0.680734  1
  Sn  Sn10  1  0.290036  0.877939  0.180734  1
  Sn  Sn11  1  0.877939  0.290036  0.319266  1
  Sn  Sn12  1  0.754448  0.459749  0.029917  1
  Sn  Sn13  1  0.245552  0.540251  0.970083  1
  F  F14  1  0.393985  0.865036  0.593982  1
  F  F15  1  0.185996  0.502488  0.541189  1
  F  F16  1  0.865036  0.393985  0.906018  1
  F  F17  1  0.988095  0.291064  0.746887  1
  F  F18  1  0.134964  0.606015  0.093982  1
  F  F19  1  0.502488  0.185996  0.958811  1
  F  F20  1  0.437276  0.570420  0.209711  1
  F  F21  1  0.291064  0.988095  0.753113  1
  F  F22  1  0.366064  0.298951  0.088892  1
  F  F23  1  0.633936  0.701049  0.911108  1
  F  F24  1  0.701049  0.633936  0.588892  1
  F  F25  1  0.289240  0.727913  0.340265  1
  F  F26  1  0.814004  0.497512  0.458811  1
  F  F27  1  0.708936  0.011905  0.246887  1
  F  F28  1  0.093134  0.228340  0.207077  1
  F  F29  1  0.011905  0.708936  0.253113  1
  F  F30  1  0.710760  0.272087  0.659735  1
  F  F31  1  0.771660  0.906866  0.707077  1
  F  F32  1  0.228340  0.093134  0.292923  1
  F  F33  1  0.497512  0.814004  0.041189  1
  F  F34  1  0.727913  0.289240  0.159735  1
  F  F35  1  0.138083  0.878791  0.016081  1
  F  F36  1  0.298951  0.366064  0.411108  1
  F  F37  1  0.121209  0.861917  0.516081  1
  F  F38  1  0.878791  0.138083  0.483919  1
  F  F39  1  0.570420  0.437276  0.290289  1
  F  F40  1  0.906866  0.771660  0.792923  1
  F  F41  1  0.429580  0.562724  0.709711  1
  F  F42  1  0.562724  0.429580  0.790289  1
  F  F43  1  0.272087  0.710760  0.840265  1
  F  F44  1  0.606015  0.134964  0.406018  1
  F  F45  1  0.861917  0.121209  0.983919  1
