# generated using pymatgen
data_ZrPbO3
_symmetry_space_group_name_H-M   'P 1'
_cell_length_a   5.97892445
_cell_length_b   8.31703519
_cell_length_c   11.94582347
_cell_angle_alpha   90.00000000
_cell_angle_beta   90.00000000
_cell_angle_gamma   90.00000000
_symmetry_Int_Tables_number   1
_chemical_formula_structural   ZrPbO3
_chemical_formula_sum   'Zr8 Pb8 O24'
_cell_volume   594.02906834
_cell_formula_units_Z   8
loop_
 _symmetry_equiv_pos_site_id
 _symmetry_equiv_pos_as_xyz
  1  'x, y, z'
loop_
 _atom_site_type_symbol
 _atom_site_label
 _atom_site_symmetry_multiplicity
 _atom_site_fract_x
 _atom_site_fract_y
 _atom_site_fract_z
 _atom_site_occupancy
  Zr  Zr0  1  0.758178  0.249811  0.875786  1
  Zr  Zr1  1  0.258178  0.750189  0.624214  1
  Zr  Zr2  1  0.241822  0.249811  0.124214  1
  Zr  Zr3  1  0.741822  0.750189  0.375786  1
  Zr  Zr4  1  0.241822  0.750189  0.124214  1
  Zr  Zr5  1  0.741822  0.249811  0.375786  1
  Zr  Zr6  1  0.758178  0.750189  0.875786  1
  Zr  Zr7  1  0.258178  0.249811  0.624214  1
  Pb  Pb8  1  0.304395  0.000000  0.876418  1
  Pb  Pb9  1  0.804395  0.000000  0.623582  1
  Pb  Pb10  1  0.695605  0.000000  0.123582  1
  Pb  Pb11  1  0.195605  0.000000  0.376418  1
  Pb  Pb12  1  0.292460  0.500000  0.871808  1
  Pb  Pb13  1  0.792460  0.500000  0.628192  1
  Pb  Pb14  1  0.707540  0.500000  0.128192  1
  Pb  Pb15  1  0.207540  0.500000  0.371808  1
  O  O16  1  0.724396  0.000000  0.842743  1
  O  O17  1  0.224396  0.000000  0.657257  1
  O  O18  1  0.275604  0.000000  0.157257  1
  O  O19  1  0.775604  0.000000  0.342743  1
  O  O20  1  0.697251  0.500000  0.905748  1
  O  O21  1  0.197251  0.500000  0.594252  1
  O  O22  1  0.302749  0.500000  0.094252  1
  O  O23  1  0.802749  0.500000  0.405748  1
  O  O24  1  0.964185  0.281374  0.737600  1
  O  O25  1  0.464185  0.718626  0.762400  1
  O  O26  1  0.035815  0.281374  0.262400  1
  O  O27  1  0.535815  0.718626  0.237600  1
  O  O28  1  0.035815  0.718626  0.262400  1
  O  O29  1  0.535815  0.281374  0.237600  1
  O  O30  1  0.964185  0.718626  0.737600  1
  O  O31  1  0.464185  0.281374  0.762400  1
  O  O32  1  0.000000  0.200853  0.500000  1
  O  O33  1  0.500000  0.799147  0.000000  1
  O  O34  1  0.000000  0.799147  0.500000  1
  O  O35  1  0.500000  0.200853  0.000000  1
  O  O36  1  0.000000  0.232003  0.000000  1
  O  O37  1  0.500000  0.767997  0.500000  1
  O  O38  1  0.000000  0.767997  0.000000  1
  O  O39  1  0.500000  0.232003  0.500000  1
