# generated using pymatgen
data_CdHg2SeO6
_symmetry_space_group_name_H-M   'P 1'
_cell_length_a   7.02288481
_cell_length_b   7.35483544
_cell_length_c   7.69477864
_cell_angle_alpha   74.42970797
_cell_angle_beta   68.54983583
_cell_angle_gamma   64.29397864
_symmetry_Int_Tables_number   1
_chemical_formula_structural   CdHg2SeO6
_chemical_formula_sum   'Cd2 Hg4 Se2 O12'
_cell_volume   330.44286611
_cell_formula_units_Z   2
loop_
 _symmetry_equiv_pos_site_id
 _symmetry_equiv_pos_as_xyz
  1  'x, y, z'
loop_
 _atom_site_type_symbol
 _atom_site_label
 _atom_site_symmetry_multiplicity
 _atom_site_fract_x
 _atom_site_fract_y
 _atom_site_fract_z
 _atom_site_occupancy
  Cd  Cd0  1  0.333939  0.136700  0.212247  1
  Cd  Cd1  1  0.666061  0.863300  0.787753  1
  Hg  Hg2  1  0.844460  0.643503  0.209411  1
  Hg  Hg3  1  0.155540  0.356497  0.790589  1
  Hg  Hg4  1  0.657536  0.358530  0.791969  1
  Hg  Hg5  1  0.342464  0.641470  0.208031  1
  Se  Se6  1  0.797490  0.133978  0.313052  1
  Se  Se7  1  0.202510  0.866022  0.686948  1
  O  O8  1  0.636362  0.206108  0.170175  1
  O  O9  1  0.449706  0.196883  0.861854  1
  O  O10  1  0.941899  0.920564  0.830516  1
  O  O11  1  0.778607  0.920703  0.455250  1
  O  O12  1  0.278053  0.674262  0.570057  1
  O  O13  1  0.152875  0.477055  0.243485  1
  O  O14  1  0.221393  0.079297  0.544750  1
  O  O15  1  0.550294  0.803117  0.138146  1
  O  O16  1  0.363638  0.793892  0.829825  1
  O  O17  1  0.847125  0.522945  0.756515  1
  O  O18  1  0.721947  0.325738  0.429943  1
  O  O19  1  0.058101  0.079436  0.169484  1
