# generated using pymatgen
data_KEr(PO3)4
_symmetry_space_group_name_H-M   'P 1'
_cell_length_a   7.90384146
_cell_length_b   7.90384146
_cell_length_c   17.43929650
_cell_angle_alpha   90.00000000
_cell_angle_beta   90.00000000
_cell_angle_gamma   97.59094720
_symmetry_Int_Tables_number   1
_chemical_formula_structural   KEr(PO3)4
_chemical_formula_sum   'K4 Er4 P16 O48'
_cell_volume   1079.89779582
_cell_formula_units_Z   4
loop_
 _symmetry_equiv_pos_site_id
 _symmetry_equiv_pos_as_xyz
  1  'x, y, z'
loop_
 _atom_site_type_symbol
 _atom_site_label
 _atom_site_symmetry_multiplicity
 _atom_site_fract_x
 _atom_site_fract_y
 _atom_site_fract_z
 _atom_site_occupancy
  K  K0  1  0.763767  0.028136  0.131919  1
  K  K1  1  0.236233  0.971864  0.631919  1
  K  K2  1  0.971864  0.236233  0.368081  1
  K  K3  1  0.028136  0.763767  0.868081  1
  Er  Er4  1  0.402666  0.028829  0.357732  1
  Er  Er5  1  0.597334  0.971171  0.857732  1
  Er  Er6  1  0.971171  0.597334  0.142268  1
  Er  Er7  1  0.028829  0.402666  0.642268  1
  P  P8  1  0.680679  0.220388  0.514776  1
  P  P9  1  0.264198  0.963725  0.157893  1
  P  P10  1  0.633201  0.366799  0.250000  1
  P  P11  1  0.717190  0.679823  0.694246  1
  P  P12  1  0.648718  0.648718  1.000000  1
  P  P13  1  0.220388  0.680679  0.485224  1
  P  P14  1  0.366799  0.633200  0.750000  1
  P  P15  1  0.282810  0.320177  0.194246  1
  P  P16  1  0.679823  0.717190  0.305754  1
  P  P17  1  0.351282  0.351282  0.500000  1
  P  P18  1  0.036275  0.735802  0.342107  1
  P  P19  1  0.319321  0.779612  0.014776  1
  P  P20  1  0.320177  0.282810  0.805754  1
  P  P21  1  0.779612  0.319321  0.985224  1
  P  P22  1  0.963725  0.264198  0.842107  1
  P  P23  1  0.735802  0.036275  0.657893  1
  O  O24  1  0.947320  0.367267  0.771447  1
  O  O25  1  0.735334  0.838443  0.634264  1
  O  O26  1  0.052680  0.632733  0.271447  1
  O  O27  1  0.081910  0.879677  0.152305  1
  O  O28  1  0.902511  0.375125  0.912344  1
  O  O29  1  0.264666  0.161557  0.134264  1
  O  O30  1  0.800520  0.395045  0.208224  1
  O  O31  1  0.687111  0.142585  0.974109  1
  O  O32  1  0.632733  0.052680  0.728553  1
  O  O33  1  0.199480  0.604955  0.708224  1
  O  O34  1  0.546193  0.806275  0.343138  1
  O  O35  1  0.142585  0.687111  0.025891  1
  O  O36  1  0.120323  0.918090  0.347695  1
  O  O37  1  0.395045  0.800520  0.791776  1
  O  O38  1  0.311095  0.236630  0.431652  1
  O  O39  1  0.640512  0.119295  0.442702  1
  O  O40  1  0.613829  0.512925  0.312188  1
  O  O41  1  0.386171  0.487075  0.812188  1
  O  O42  1  0.193725  0.453807  0.156862  1
  O  O43  1  0.512925  0.613829  0.687812  1
  O  O44  1  0.119295  0.640512  0.557298  1
  O  O45  1  0.604955  0.199480  0.291776  1
  O  O46  1  0.838443  0.735334  0.365736  1
  O  O47  1  0.161557  0.264666  0.865736  1
  O  O48  1  0.879677  0.081910  0.847695  1
  O  O49  1  0.806275  0.546193  0.656862  1
  O  O50  1  0.487075  0.386171  0.187812  1
  O  O51  1  0.763370  0.688905  0.068348  1
  O  O52  1  0.743009  0.759218  0.226221  1
  O  O53  1  0.256991  0.240782  0.726221  1
  O  O54  1  0.547152  0.357538  0.524965  1
  O  O55  1  0.918090  0.120323  0.652305  1
  O  O56  1  0.357538  0.547152  0.475035  1
  O  O57  1  0.880705  0.359488  0.057298  1
  O  O58  1  0.453807  0.193725  0.843138  1
  O  O59  1  0.857415  0.312889  0.525891  1
  O  O60  1  0.236630  0.311095  0.568348  1
  O  O61  1  0.097489  0.624875  0.412344  1
  O  O62  1  0.359488  0.880705  0.942702  1
  O  O63  1  0.367267  0.947320  0.228553  1
  O  O64  1  0.312889  0.857415  0.474109  1
  O  O65  1  0.642462  0.452848  0.975035  1
  O  O66  1  0.452848  0.642462  0.024965  1
  O  O67  1  0.759218  0.743009  0.773779  1
  O  O68  1  0.240782  0.256991  0.273779  1
  O  O69  1  0.375125  0.902511  0.087656  1
  O  O70  1  0.688905  0.763370  0.931652  1
  O  O71  1  0.624875  0.097489  0.587656  1
