# generated using pymatgen
data_CuBi2(SeO3)4
_symmetry_space_group_name_H-M   'P 1'
_cell_length_a   4.48337144
_cell_length_b   16.31678266
_cell_length_c   8.32685391
_cell_angle_alpha   90.00000000
_cell_angle_beta   95.36808743
_cell_angle_gamma   90.00000000
_symmetry_Int_Tables_number   1
_chemical_formula_structural   CuBi2(SeO3)4
_chemical_formula_sum   'Cu2 Bi4 Se8 O24'
_cell_volume   606.47274532
_cell_formula_units_Z   2
loop_
 _symmetry_equiv_pos_site_id
 _symmetry_equiv_pos_as_xyz
  1  'x, y, z'
loop_
 _atom_site_type_symbol
 _atom_site_label
 _atom_site_symmetry_multiplicity
 _atom_site_fract_x
 _atom_site_fract_y
 _atom_site_fract_z
 _atom_site_occupancy
  Cu  Cu0  1  0.000000  0.000000  0.000000  1
  Cu  Cu1  1  0.000000  0.500000  0.500000  1
  Bi  Bi2  1  0.501135  0.272130  0.468402  1
  Bi  Bi3  1  0.498865  0.727870  0.531598  1
  Bi  Bi4  1  0.498865  0.772130  0.031598  1
  Bi  Bi5  1  0.501135  0.227870  0.968402  1
  Se  Se6  1  0.552779  0.429251  0.744520  1
  Se  Se7  1  0.979341  0.130327  0.636662  1
  Se  Se8  1  0.447221  0.929251  0.755480  1
  Se  Se9  1  0.552779  0.070749  0.244520  1
  Se  Se10  1  0.020659  0.869673  0.363338  1
  Se  Se11  1  0.020659  0.630327  0.863338  1
  Se  Se12  1  0.447221  0.570749  0.255480  1
  Se  Se13  1  0.979341  0.369673  0.136662  1
  O  O14  1  0.468524  0.176535  0.243371  1
  O  O15  1  0.595797  0.348557  0.122187  1
  O  O16  1  0.051902  0.277927  0.033049  1
  O  O17  1  0.404203  0.848557  0.377813  1
  O  O18  1  0.920715  0.850613  0.164156  1
  O  O19  1  0.404203  0.651443  0.877813  1
  O  O20  1  0.207434  0.475230  0.715569  1
  O  O21  1  0.328355  0.572309  0.447459  1
  O  O22  1  0.920715  0.649387  0.664156  1
  O  O23  1  0.207434  0.024770  0.215569  1
  O  O24  1  0.468524  0.323465  0.743371  1
  O  O25  1  0.079285  0.350613  0.335844  1
  O  O26  1  0.051902  0.222073  0.533049  1
  O  O27  1  0.328355  0.927691  0.947459  1
  O  O28  1  0.595797  0.151443  0.622187  1
  O  O29  1  0.948098  0.722073  0.966951  1
  O  O30  1  0.531476  0.676535  0.256629  1
  O  O31  1  0.531476  0.823465  0.756629  1
  O  O32  1  0.792566  0.524770  0.284431  1
  O  O33  1  0.671645  0.427691  0.552541  1
  O  O34  1  0.079285  0.149387  0.835844  1
  O  O35  1  0.671645  0.072309  0.052541  1
  O  O36  1  0.948098  0.777927  0.466951  1
  O  O37  1  0.792566  0.975230  0.784431  1
