# generated using pymatgen
data_Ag4Se(IO2)2
_symmetry_space_group_name_H-M   'P 1'
_cell_length_a   7.28181153
_cell_length_b   9.52658898
_cell_length_c   13.24164293
_cell_angle_alpha   90.00000000
_cell_angle_beta   90.00000000
_cell_angle_gamma   90.00000000
_symmetry_Int_Tables_number   1
_chemical_formula_structural   Ag4Se(IO2)2
_chemical_formula_sum   'Ag16 Se4 I8 O16'
_cell_volume   918.58370071
_cell_formula_units_Z   4
loop_
 _symmetry_equiv_pos_site_id
 _symmetry_equiv_pos_as_xyz
  1  'x, y, z'
loop_
 _atom_site_type_symbol
 _atom_site_label
 _atom_site_symmetry_multiplicity
 _atom_site_fract_x
 _atom_site_fract_y
 _atom_site_fract_z
 _atom_site_occupancy
  Ag  Ag0  1  0.783815  0.124703  0.417159  1
  Ag  Ag1  1  0.038320  0.018850  0.016013  1
  Ag  Ag2  1  0.432400  0.763564  0.807035  1
  Ag  Ag3  1  0.538320  0.481150  0.516013  1
  Ag  Ag4  1  0.932400  0.736436  0.307035  1
  Ag  Ag5  1  0.432400  0.263564  0.692965  1
  Ag  Ag6  1  0.783815  0.624703  0.082841  1
  Ag  Ag7  1  0.932400  0.236436  0.192965  1
  Ag  Ag8  1  0.283815  0.875297  0.582841  1
  Ag  Ag9  1  0.866876  0.041917  0.758653  1
  Ag  Ag10  1  0.038320  0.518850  0.483987  1
  Ag  Ag11  1  0.538320  0.981150  0.983987  1
  Ag  Ag12  1  0.866876  0.541917  0.741347  1
  Ag  Ag13  1  0.366876  0.458083  0.258653  1
  Ag  Ag14  1  0.366876  0.958083  0.241347  1
  Ag  Ag15  1  0.283815  0.375297  0.917159  1
  Se  Se16  1  0.781636  0.316635  0.929136  1
  Se  Se17  1  0.281636  0.183365  0.429136  1
  Se  Se18  1  0.281636  0.683365  0.070864  1
  Se  Se19  1  0.781636  0.816635  0.570864  1
  I  I20  1  0.273500  0.543126  0.685575  1
  I  I21  1  0.798847  0.266395  0.611091  1
  I  I22  1  0.773500  0.956874  0.185575  1
  I  I23  1  0.773500  0.456874  0.314425  1
  I  I24  1  0.298847  0.733605  0.388909  1
  I  I25  1  0.298847  0.233605  0.111091  1
  I  I26  1  0.798847  0.766395  0.888909  1
  I  I27  1  0.273500  0.043126  0.814425  1
  O  O28  1  0.285005  0.864264  0.075509  1
  O  O29  1  0.469833  0.124405  0.367675  1
  O  O30  1  0.969833  0.375595  0.867675  1
  O  O31  1  0.969833  0.875595  0.632325  1
  O  O32  1  0.780548  0.366312  0.050610  1
  O  O33  1  0.785005  0.635736  0.575509  1
  O  O34  1  0.780548  0.866312  0.449390  1
  O  O35  1  0.785005  0.135736  0.924491  1
  O  O36  1  0.598541  0.377214  0.865462  1
  O  O37  1  0.285005  0.364264  0.424491  1
  O  O38  1  0.598541  0.877214  0.634538  1
  O  O39  1  0.098541  0.622786  0.134538  1
  O  O40  1  0.280548  0.133688  0.550610  1
  O  O41  1  0.280548  0.633688  0.949390  1
  O  O42  1  0.469833  0.624405  0.132325  1
  O  O43  1  0.098541  0.122786  0.365462  1
