# generated using pymatgen
data_KCr2PbF9
_symmetry_space_group_name_H-M   'P 1'
_cell_length_a   5.53211416
_cell_length_b   10.01560836
_cell_length_c   14.23263849
_cell_angle_alpha   90.00000000
_cell_angle_beta   90.00000000
_cell_angle_gamma   90.00000000
_symmetry_Int_Tables_number   1
_chemical_formula_structural   KCr2PbF9
_chemical_formula_sum   'K4 Cr8 Pb4 F36'
_cell_volume   788.59475815
_cell_formula_units_Z   4
loop_
 _symmetry_equiv_pos_site_id
 _symmetry_equiv_pos_as_xyz
  1  'x, y, z'
loop_
 _atom_site_type_symbol
 _atom_site_label
 _atom_site_symmetry_multiplicity
 _atom_site_fract_x
 _atom_site_fract_y
 _atom_site_fract_z
 _atom_site_occupancy
  K  K0  1  0.250000  0.230099  0.200494  1
  K  K1  1  0.250000  0.730099  0.299506  1
  K  K2  1  0.750000  0.269901  0.700494  1
  K  K3  1  0.750000  0.769901  0.799506  1
  Cr  Cr4  1  0.250000  0.566451  0.655296  1
  Cr  Cr5  1  0.250000  0.066451  0.844704  1
  Cr  Cr6  1  0.750000  0.731187  0.507678  1
  Cr  Cr7  1  0.750000  0.231187  0.992322  1
  Cr  Cr8  1  0.250000  0.268813  0.492322  1
  Cr  Cr9  1  0.750000  0.433549  0.344704  1
  Cr  Cr10  1  0.250000  0.768813  0.007678  1
  Cr  Cr11  1  0.750000  0.933549  0.155296  1
  Pb  Pb12  1  0.250000  0.947697  0.611319  1
  Pb  Pb13  1  0.250000  0.447697  0.888681  1
  Pb  Pb14  1  0.750000  0.052303  0.388681  1
  Pb  Pb15  1  0.750000  0.552303  0.111319  1
  F  F16  1  0.498429  0.117114  0.937038  1
  F  F17  1  0.250000  0.881188  0.893095  1
  F  F18  1  0.001571  0.617114  0.562962  1
  F  F19  1  0.013814  0.015735  0.751711  1
  F  F20  1  0.513814  0.484264  0.251711  1
  F  F21  1  0.490983  0.154050  0.549408  1
  F  F22  1  0.498429  0.617114  0.562962  1
  F  F23  1  0.250000  0.651869  0.113870  1
  F  F24  1  0.998429  0.882886  0.062962  1
  F  F25  1  0.750000  0.755523  0.206058  1
  F  F26  1  0.509017  0.345950  0.049408  1
  F  F27  1  0.250000  0.744477  0.706058  1
  F  F28  1  0.750000  0.255523  0.293942  1
  F  F29  1  0.009017  0.154050  0.549408  1
  F  F30  1  0.990983  0.845950  0.450592  1
  F  F31  1  0.501571  0.382886  0.437038  1
  F  F32  1  0.990983  0.345950  0.049408  1
  F  F33  1  0.998429  0.382886  0.437038  1
  F  F34  1  0.986186  0.984264  0.248289  1
  F  F35  1  0.750000  0.848131  0.613870  1
  F  F36  1  0.750000  0.618812  0.393095  1
  F  F37  1  0.986186  0.484264  0.251711  1
  F  F38  1  0.490983  0.654050  0.950592  1
  F  F39  1  0.486186  0.015735  0.751711  1
  F  F40  1  0.250000  0.381188  0.606905  1
  F  F41  1  0.509017  0.845950  0.450592  1
  F  F42  1  0.501571  0.882886  0.062962  1
  F  F43  1  0.009017  0.654050  0.950592  1
  F  F44  1  0.250000  0.151869  0.386130  1
  F  F45  1  0.750000  0.348131  0.886130  1
  F  F46  1  0.250000  0.244477  0.793942  1
  F  F47  1  0.750000  0.118812  0.106905  1
  F  F48  1  0.013814  0.515736  0.748289  1
  F  F49  1  0.001571  0.117114  0.937038  1
  F  F50  1  0.486186  0.515736  0.748289  1
  F  F51  1  0.513814  0.984264  0.248289  1
