# generated using pymatgen
data_K4H6C2O9
_symmetry_space_group_name_H-M   'P 1'
_cell_length_a   9.21079970
_cell_length_b   9.21079970
_cell_length_c   7.21738091
_cell_angle_alpha   70.37797621
_cell_angle_beta   109.62202379
_cell_angle_gamma   82.33710977
_symmetry_Int_Tables_number   1
_chemical_formula_structural   K4H6C2O9
_chemical_formula_sum   'K8 H12 C4 O18'
_cell_volume   521.94277186
_cell_formula_units_Z   2
loop_
 _symmetry_equiv_pos_site_id
 _symmetry_equiv_pos_as_xyz
  1  'x, y, z'
loop_
 _atom_site_type_symbol
 _atom_site_label
 _atom_site_symmetry_multiplicity
 _atom_site_fract_x
 _atom_site_fract_y
 _atom_site_fract_z
 _atom_site_occupancy
  K  K0  1  0.616854  0.616854  0.750000  1
  K  K1  1  0.383146  0.383146  0.250000  1
  K  K2  1  0.314504  0.314504  0.750000  1
  K  K3  1  0.685496  0.685496  0.250000  1
  K  K4  1  0.293069  0.005007  0.540310  1
  K  K5  1  0.005007  0.293069  0.959690  1
  K  K6  1  0.706931  0.994993  0.459690  1
  K  K7  1  0.994993  0.706931  0.040310  1
  H  H8  1  0.114818  0.976850  0.845316  1
  H  H9  1  0.976850  0.114818  0.654684  1
  H  H10  1  0.885182  0.023150  0.154684  1
  H  H11  1  0.023150  0.885182  0.345316  1
  H  H12  1  0.299540  0.646311  0.869151  1
  H  H13  1  0.646311  0.299540  0.630849  1
  H  H14  1  0.700460  0.353689  0.130849  1
  H  H15  1  0.353689  0.700460  0.369151  1
  H  H16  1  0.359060  0.780192  0.950523  1
  H  H17  1  0.780192  0.359060  0.549477  1
  H  H18  1  0.640940  0.219808  0.049477  1
  H  H19  1  0.219808  0.640940  0.450523  1
  C  C20  1  0.637059  0.023657  0.849898  1
  C  C21  1  0.023657  0.637059  0.650102  1
  C  C22  1  0.362941  0.976343  0.150102  1
  C  C23  1  0.976343  0.362941  0.349898  1
  O  O24  1  0.669151  0.882272  0.851569  1
  O  O25  1  0.882272  0.669151  0.648431  1
  O  O26  1  0.330849  0.117728  0.148431  1
  O  O27  1  0.117728  0.330849  0.351569  1
  O  O28  1  0.553862  0.148826  0.667038  1
  O  O29  1  0.148826  0.553862  0.832962  1
  O  O30  1  0.446138  0.851174  0.332962  1
  O  O31  1  0.851174  0.446138  0.167038  1
  O  O32  1  0.685970  0.043259  0.030422  1
  O  O33  1  0.043259  0.685970  0.469578  1
  O  O34  1  0.314030  0.956741  0.969578  1
  O  O35  1  0.956741  0.314030  0.530422  1
  O  O36  1  0.999602  0.999602  0.750000  1
  O  O37  1  0.000398  0.000398  0.250000  1
  O  O38  1  0.393931  0.688975  0.914049  1
  O  O39  1  0.688975  0.393931  0.585951  1
  O  O40  1  0.606069  0.311025  0.085951  1
  O  O41  1  0.311025  0.606069  0.414049  1
