# generated using pymatgen
data_Rb2Hg2PdBr8
_symmetry_space_group_name_H-M   'P 1'
_cell_length_a   7.17313360
_cell_length_b   7.17313360
_cell_length_c   10.78974563
_cell_angle_alpha   73.26627135
_cell_angle_beta   106.73372865
_cell_angle_gamma   117.35339567
_symmetry_Int_Tables_number   1
_chemical_formula_structural   Rb2Hg2PdBr8
_chemical_formula_sum   'Rb2 Hg2 Pd1 Br8'
_cell_volume   464.24668581
_cell_formula_units_Z   1
loop_
 _symmetry_equiv_pos_site_id
 _symmetry_equiv_pos_as_xyz
  1  'x, y, z'
loop_
 _atom_site_type_symbol
 _atom_site_label
 _atom_site_symmetry_multiplicity
 _atom_site_fract_x
 _atom_site_fract_y
 _atom_site_fract_z
 _atom_site_occupancy
  Rb  Rb0  1  0.602964  0.397036  0.833382  1
  Rb  Rb1  1  0.397036  0.602964  0.166618  1
  Hg  Hg2  1  0.867628  0.132372  0.608210  1
  Hg  Hg3  1  0.132372  0.867628  0.391790  1
  Pd  Pd4  1  0.000000  0.000000  0.000000  1
  Br  Br5  1  0.652778  0.347222  0.500587  1
  Br  Br6  1  0.101936  0.366241  0.867616  1
  Br  Br7  1  0.916477  0.083523  0.306925  1
  Br  Br8  1  0.083524  0.916476  0.693075  1
  Br  Br9  1  0.347222  0.652778  0.499413  1
  Br  Br10  1  0.898064  0.633759  0.132384  1
  Br  Br11  1  0.366241  0.101936  0.132384  1
  Br  Br12  1  0.633759  0.898064  0.867616  1
