# generated using pymatgen
data_K3SbN3(O3F)3
_symmetry_space_group_name_H-M   'P 1'
_cell_length_a   9.15076943
_cell_length_b   9.15076943
_cell_length_c   7.54336649
_cell_angle_alpha   90.00000000
_cell_angle_beta   90.00000000
_cell_angle_gamma   101.78816804
_symmetry_Int_Tables_number   1
_chemical_formula_structural   K3SbN3(O3F)3
_chemical_formula_sum   'K6 Sb2 N6 O18 F6'
_cell_volume   618.33384676
_cell_formula_units_Z   2
loop_
 _symmetry_equiv_pos_site_id
 _symmetry_equiv_pos_as_xyz
  1  'x, y, z'
loop_
 _atom_site_type_symbol
 _atom_site_label
 _atom_site_symmetry_multiplicity
 _atom_site_fract_x
 _atom_site_fract_y
 _atom_site_fract_z
 _atom_site_occupancy
  K  K0  1  0.385056  0.029031  0.226510  1
  K  K1  1  0.614944  0.970969  0.726510  1
  K  K2  1  0.029031  0.385056  0.726510  1
  K  K3  1  0.596699  0.403301  0.994940  1
  K  K4  1  0.403301  0.596699  0.494940  1
  K  K5  1  0.970969  0.614944  0.226510  1
  Sb  Sb6  1  0.862576  0.137424  0.151205  1
  Sb  Sb7  1  0.137424  0.862576  0.651205  1
  N  N8  1  0.686274  0.793322  0.245435  1
  N  N9  1  0.793322  0.686274  0.745435  1
  N  N10  1  0.313726  0.206678  0.745435  1
  N  N11  1  0.206678  0.313726  0.245435  1
  N  N12  1  0.702915  0.297085  0.516431  1
  N  N13  1  0.297085  0.702915  0.016431  1
  O  O14  1  0.600891  0.208803  0.434325  1
  O  O15  1  0.854314  0.789519  0.636554  1
  O  O16  1  0.348267  0.347379  0.752243  1
  O  O17  1  0.376773  0.126672  0.842670  1
  O  O18  1  0.145686  0.210481  0.136554  1
  O  O19  1  0.210481  0.145686  0.636554  1
  O  O20  1  0.623227  0.873328  0.342669  1
  O  O21  1  0.126672  0.376773  0.342670  1
  O  O22  1  0.208802  0.600891  0.934325  1
  O  O23  1  0.791197  0.399109  0.434325  1
  O  O24  1  0.651733  0.652621  0.252243  1
  O  O25  1  0.789519  0.854314  0.136554  1
  O  O26  1  0.719748  0.280252  0.682475  1
  O  O27  1  0.652621  0.651733  0.752243  1
  O  O28  1  0.347379  0.348267  0.252243  1
  O  O29  1  0.873328  0.623227  0.842670  1
  O  O30  1  0.399109  0.791197  0.934325  1
  O  O31  1  0.280252  0.719748  0.182475  1
  F  F32  1  0.918268  0.081732  0.912540  1
  F  F33  1  0.081732  0.918268  0.412540  1
  F  F34  1  0.884929  0.345184  0.052268  1
  F  F35  1  0.345184  0.884929  0.552268  1
  F  F36  1  0.115071  0.654816  0.552268  1
  F  F37  1  0.654816  0.115071  0.052268  1
