# generated using pymatgen
data_Na3LiWO5
_symmetry_space_group_name_H-M   'P 1'
_cell_length_a   5.71891331
_cell_length_b   6.10872039
_cell_length_c   7.67428646
_cell_angle_alpha   76.51347516
_cell_angle_beta   71.50331600
_cell_angle_gamma   73.42931826
_symmetry_Int_Tables_number   1
_chemical_formula_structural   Na3LiWO5
_chemical_formula_sum   'Na6 Li2 W2 O10'
_cell_volume   240.67041314
_cell_formula_units_Z   2
loop_
 _symmetry_equiv_pos_site_id
 _symmetry_equiv_pos_as_xyz
  1  'x, y, z'
loop_
 _atom_site_type_symbol
 _atom_site_label
 _atom_site_symmetry_multiplicity
 _atom_site_fract_x
 _atom_site_fract_y
 _atom_site_fract_z
 _atom_site_occupancy
  Na  Na0  1  0.702542  0.048544  0.596369  1
  Na  Na1  1  0.322808  0.446201  0.386993  1
  Na  Na2  1  0.519669  0.745219  0.989478  1
  Na  Na3  1  0.677192  0.553799  0.613007  1
  Na  Na4  1  0.297458  0.951456  0.403631  1
  Na  Na5  1  0.480331  0.254781  0.010522  1
  Li  Li6  1  0.885962  0.359953  0.155181  1
  Li  Li7  1  0.114038  0.640047  0.844819  1
  W  W8  1  0.101383  0.159630  0.796731  1
  W  W9  1  0.898617  0.840370  0.203269  1
  O  O10  1  0.012087  0.228307  0.572600  1
  O  O11  1  0.849342  0.947405  0.927643  1
  O  O12  1  0.844899  0.421440  0.893185  1
  O  O13  1  0.646337  0.665718  0.272241  1
  O  O14  1  0.987913  0.771693  0.427400  1
  O  O15  1  0.350283  0.879366  0.726076  1
  O  O16  1  0.649717  0.120634  0.273924  1
  O  O17  1  0.150658  0.052595  0.072357  1
  O  O18  1  0.155101  0.578560  0.106815  1
  O  O19  1  0.353663  0.334282  0.727759  1
