# generated using pymatgen
data_SrBe2(BO3)2
_symmetry_space_group_name_H-M   'P 1'
_cell_length_a   9.33814519
_cell_length_b   4.53049265
_cell_length_c   11.93812719
_cell_angle_alpha   90.00000000
_cell_angle_beta   114.67241770
_cell_angle_gamma   90.00000000
_symmetry_Int_Tables_number   1
_chemical_formula_structural   SrBe2(BO3)2
_chemical_formula_sum   'Sr4 Be8 B8 O24'
_cell_volume   458.95192443
_cell_formula_units_Z   4
loop_
 _symmetry_equiv_pos_site_id
 _symmetry_equiv_pos_as_xyz
  1  'x, y, z'
loop_
 _atom_site_type_symbol
 _atom_site_label
 _atom_site_symmetry_multiplicity
 _atom_site_fract_x
 _atom_site_fract_y
 _atom_site_fract_z
 _atom_site_occupancy
  Sr  Sr0  1  0.729595  0.527251  0.654609  1
  Sr  Sr1  1  0.729595  0.972749  0.154609  1
  Sr  Sr2  1  0.270405  0.472749  0.345391  1
  Sr  Sr3  1  0.270405  0.027251  0.845391  1
  Be  Be4  1  0.408920  0.561203  0.692841  1
  Be  Be5  1  0.591080  0.438797  0.307159  1
  Be  Be6  1  0.078018  0.596959  0.952783  1
  Be  Be7  1  0.921982  0.096959  0.547217  1
  Be  Be8  1  0.408920  0.938797  0.192841  1
  Be  Be9  1  0.921982  0.403041  0.047217  1
  Be  Be10  1  0.591080  0.061203  0.807159  1
  Be  Be11  1  0.078018  0.903041  0.452783  1
  B  B12  1  0.904643  0.438425  0.355768  1
  B  B13  1  0.369860  0.091789  0.576084  1
  B  B14  1  0.630140  0.908211  0.423916  1
  B  B15  1  0.095357  0.561575  0.644232  1
  B  B16  1  0.904643  0.061575  0.855768  1
  B  B17  1  0.369860  0.408211  0.076084  1
  B  B18  1  0.630140  0.591789  0.923916  1
  B  B19  1  0.095357  0.938425  0.144232  1
  O  O20  1  0.748410  0.991513  0.788497  1
  O  O21  1  0.559203  0.081873  0.317814  1
  O  O22  1  0.251590  0.008487  0.211503  1
  O  O23  1  0.748410  0.508487  0.288497  1
  O  O24  1  0.559203  0.418127  0.817814  1
  O  O25  1  0.940412  0.336615  0.913773  1
  O  O26  1  0.021317  0.872218  0.859513  1
  O  O27  1  0.978683  0.127782  0.140487  1
  O  O28  1  0.577161  0.879049  0.920108  1
  O  O29  1  0.021317  0.627782  0.359513  1
  O  O30  1  0.252581  0.511224  0.969308  1
  O  O31  1  0.059588  0.836615  0.586227  1
  O  O32  1  0.059588  0.663385  0.086227  1
  O  O33  1  0.747419  0.488776  0.030692  1
  O  O34  1  0.252581  0.988776  0.469308  1
  O  O35  1  0.440797  0.918127  0.682186  1
  O  O36  1  0.251590  0.491513  0.711503  1
  O  O37  1  0.422839  0.120951  0.079892  1
  O  O38  1  0.440797  0.581873  0.182186  1
  O  O39  1  0.978683  0.372218  0.640487  1
  O  O40  1  0.747419  0.011224  0.530692  1
  O  O41  1  0.577161  0.620951  0.420108  1
  O  O42  1  0.940412  0.163385  0.413773  1
  O  O43  1  0.422839  0.379049  0.579892  1
