# generated using pymatgen
data_NiBiAsO5
_symmetry_space_group_name_H-M   'P 1'
_cell_length_a   5.31633926
_cell_length_b   6.82920840
_cell_length_c   6.92414711
_cell_angle_alpha   111.25610315
_cell_angle_beta   107.16416250
_cell_angle_gamma   95.92521144
_symmetry_Int_Tables_number   1
_chemical_formula_structural   NiBiAsO5
_chemical_formula_sum   'Ni2 Bi2 As2 O10'
_cell_volume   217.52655463
_cell_formula_units_Z   2
loop_
 _symmetry_equiv_pos_site_id
 _symmetry_equiv_pos_as_xyz
  1  'x, y, z'
loop_
 _atom_site_type_symbol
 _atom_site_label
 _atom_site_symmetry_multiplicity
 _atom_site_fract_x
 _atom_site_fract_y
 _atom_site_fract_z
 _atom_site_occupancy
  Ni  Ni0  1  0.832177  0.365211  0.737470  1
  Ni  Ni1  1  0.167823  0.634789  0.262530  1
  Bi  Bi2  1  0.403037  0.235233  0.965190  1
  Bi  Bi3  1  0.596963  0.764767  0.034810  1
  As  As4  1  0.843503  0.813046  0.610871  1
  As  As5  1  0.156497  0.186954  0.389129  1
  O  O6  1  0.770528  0.497338  0.047050  1
  O  O7  1  0.267334  0.348882  0.273728  1
  O  O8  1  0.732666  0.651118  0.726272  1
  O  O9  1  0.581054  0.774663  0.372886  1
  O  O10  1  0.082226  0.916805  0.201760  1
  O  O11  1  0.863855  0.237235  0.428894  1
  O  O12  1  0.229472  0.502662  0.952950  1
  O  O13  1  0.917774  0.083195  0.798240  1
  O  O14  1  0.418946  0.225337  0.627114  1
  O  O15  1  0.136145  0.762765  0.571106  1
