# generated using pymatgen
data_LiMnP2O7
_symmetry_space_group_name_H-M   'P 1'
_cell_length_a   5.00619881
_cell_length_b   6.06180546
_cell_length_c   8.98268125
_cell_angle_alpha   74.71792967
_cell_angle_beta   88.33127124
_cell_angle_gamma   87.58860709
_symmetry_Int_Tables_number   1
_chemical_formula_structural   LiMnP2O7
_chemical_formula_sum   'Li2 Mn2 P4 O14'
_cell_volume   262.67609726
_cell_formula_units_Z   2
loop_
 _symmetry_equiv_pos_site_id
 _symmetry_equiv_pos_as_xyz
  1  'x, y, z'
loop_
 _atom_site_type_symbol
 _atom_site_label
 _atom_site_symmetry_multiplicity
 _atom_site_fract_x
 _atom_site_fract_y
 _atom_site_fract_z
 _atom_site_occupancy
  Li  Li0  1  0.794824  0.199418  0.471326  1
  Li  Li1  1  0.205176  0.800582  0.528674  1
  Mn  Mn2  1  0.748642  0.532833  0.752442  1
  Mn  Mn3  1  0.251358  0.467167  0.247558  1
  P  P4  1  0.222167  0.789316  0.865756  1
  P  P5  1  0.276860  0.244903  0.663197  1
  P  P6  1  0.777833  0.210684  0.134244  1
  P  P7  1  0.723140  0.755097  0.336803  1
  O  O8  1  0.720412  0.305412  0.966578  1
  O  O9  1  0.084354  0.447815  0.666827  1
  O  O10  1  0.934071  0.764640  0.816793  1
  O  O11  1  0.915646  0.552185  0.333173  1
  O  O12  1  0.790813  0.862147  0.465608  1
  O  O13  1  0.065929  0.235360  0.183207  1
  O  O14  1  0.751463  0.935346  0.170274  1
  O  O15  1  0.570200  0.324063  0.647279  1
  O  O16  1  0.579097  0.286344  0.248151  1
  O  O17  1  0.209187  0.137853  0.534392  1
  O  O18  1  0.429800  0.675937  0.352721  1
  O  O19  1  0.248537  0.064654  0.829726  1
  O  O20  1  0.279588  0.694588  0.033422  1
  O  O21  1  0.420903  0.713656  0.751849  1
