# generated using pymatgen
data_K4VP2S9
_symmetry_space_group_name_H-M   'P 1'
_cell_length_a   6.90522364
_cell_length_b   13.08500551
_cell_length_c   19.59251847
_cell_angle_alpha   90.00000000
_cell_angle_beta   90.00000000
_cell_angle_gamma   90.00000000
_symmetry_Int_Tables_number   1
_chemical_formula_structural   K4VP2S9
_chemical_formula_sum   'K16 V4 P8 S36'
_cell_volume   1770.27983898
_cell_formula_units_Z   4
loop_
 _symmetry_equiv_pos_site_id
 _symmetry_equiv_pos_as_xyz
  1  'x, y, z'
loop_
 _atom_site_type_symbol
 _atom_site_label
 _atom_site_symmetry_multiplicity
 _atom_site_fract_x
 _atom_site_fract_y
 _atom_site_fract_z
 _atom_site_occupancy
  K  K0  1  0.747739  0.326952  0.568729  1
  K  K1  1  0.254260  0.376493  0.819111  1
  K  K2  1  0.745740  0.876493  0.180889  1
  K  K3  1  0.741739  0.030097  0.465569  1
  K  K4  1  0.245740  0.376493  0.319111  1
  K  K5  1  0.252261  0.826952  0.431271  1
  K  K6  1  0.250942  0.673220  0.216568  1
  K  K7  1  0.750942  0.173220  0.283432  1
  K  K8  1  0.258261  0.530097  0.534431  1
  K  K9  1  0.247739  0.826952  0.931271  1
  K  K10  1  0.241739  0.530097  0.034431  1
  K  K11  1  0.249058  0.673220  0.716568  1
  K  K12  1  0.754260  0.876493  0.680889  1
  K  K13  1  0.749058  0.173220  0.783432  1
  K  K14  1  0.758261  0.030097  0.965569  1
  K  K15  1  0.752261  0.326952  0.068729  1
  V  V16  1  0.142191  0.101462  0.124942  1
  V  V17  1  0.642191  0.601462  0.375058  1
  V  V18  1  0.857809  0.601462  0.875058  1
  V  V19  1  0.357809  0.101462  0.624942  1
  P  P20  1  0.252179  0.001099  0.767067  1
  P  P21  1  0.248933  0.201780  0.483051  1
  P  P22  1  0.748933  0.701780  0.016949  1
  P  P23  1  0.251067  0.201780  0.983051  1
  P  P24  1  0.751067  0.701780  0.516949  1
  P  P25  1  0.752179  0.501099  0.732933  1
  P  P26  1  0.747821  0.501099  0.232933  1
  P  P27  1  0.247821  0.001099  0.267067  1
  S  S28  1  0.746784  0.547399  0.484528  1
  S  S29  1  0.834397  0.101536  0.124643  1
  S  S30  1  0.499026  0.240911  0.935980  1
  S  S31  1  0.504829  0.461799  0.685499  1
  S  S32  1  0.746994  0.761848  0.417230  1
  S  S33  1  0.000974  0.240911  0.435980  1
  S  S34  1  0.004829  0.961799  0.814501  1
  S  S35  1  0.246784  0.047399  0.015472  1
  S  S36  1  0.990660  0.743832  0.067152  1
  S  S37  1  0.999026  0.740911  0.564020  1
  S  S38  1  0.994740  0.459196  0.683216  1
  S  S39  1  0.754570  0.440976  0.832634  1
  S  S40  1  0.245430  0.940976  0.167366  1
  S  S41  1  0.753216  0.547399  0.984528  1
  S  S42  1  0.254570  0.940976  0.667366  1
  S  S43  1  0.165603  0.601536  0.875357  1
  S  S44  1  0.505260  0.459196  0.183216  1
  S  S45  1  0.745430  0.440976  0.332634  1
  S  S46  1  0.244384  0.155519  0.234716  1
  S  S47  1  0.334397  0.601536  0.375357  1
  S  S48  1  0.009340  0.243832  0.932848  1
  S  S49  1  0.995171  0.461799  0.185499  1
  S  S50  1  0.253216  0.047399  0.515472  1
  S  S51  1  0.744384  0.655519  0.265284  1
  S  S52  1  0.665603  0.101536  0.624643  1
  S  S53  1  0.253006  0.261848  0.582770  1
  S  S54  1  0.753006  0.761848  0.917230  1
  S  S55  1  0.495171  0.961799  0.314501  1
  S  S56  1  0.494740  0.959196  0.816784  1
  S  S57  1  0.255616  0.155519  0.734716  1
  S  S58  1  0.509340  0.743832  0.567152  1
  S  S59  1  0.755616  0.655519  0.765284  1
  S  S60  1  0.246994  0.261848  0.082770  1
  S  S61  1  0.500974  0.740911  0.064020  1
  S  S62  1  0.490660  0.243832  0.432848  1
  S  S63  1  0.005260  0.959196  0.316784  1
