# generated using pymatgen
data_K4Nb2Se11O
_symmetry_space_group_name_H-M   'P 1'
_cell_length_a   14.13239765
_cell_length_b   16.39589826
_cell_length_c   18.98224611
_cell_angle_alpha   90.00000000
_cell_angle_beta   90.00000000
_cell_angle_gamma   90.00000000
_symmetry_Int_Tables_number   1
_chemical_formula_structural   K4Nb2Se11O
_chemical_formula_sum   'K32 Nb16 Se88 O8'
_cell_volume   4398.43991335
_cell_formula_units_Z   8
loop_
 _symmetry_equiv_pos_site_id
 _symmetry_equiv_pos_as_xyz
  1  'x, y, z'
loop_
 _atom_site_type_symbol
 _atom_site_label
 _atom_site_symmetry_multiplicity
 _atom_site_fract_x
 _atom_site_fract_y
 _atom_site_fract_z
 _atom_site_occupancy
  K  K0  1  0.234706  0.907293  0.196026  1
  K  K1  1  0.977607  0.374448  0.595521  1
  K  K2  1  0.747384  0.675105  0.452514  1
  K  K3  1  0.252616  0.324895  0.547486  1
  K  K4  1  0.765294  0.592707  0.696026  1
  K  K5  1  0.522393  0.874448  0.404479  1
  K  K6  1  0.022393  0.125552  0.095521  1
  K  K7  1  0.747384  0.175105  0.047486  1
  K  K8  1  0.765294  0.092707  0.803974  1
  K  K9  1  0.022393  0.625552  0.404479  1
  K  K10  1  0.265294  0.907293  0.696026  1
  K  K11  1  0.095690  0.084305  0.377333  1
  K  K12  1  0.595690  0.415695  0.377333  1
  K  K13  1  0.404310  0.084305  0.877333  1
  K  K14  1  0.522393  0.374448  0.095521  1
  K  K15  1  0.752616  0.175105  0.547486  1
  K  K16  1  0.752616  0.675105  0.952514  1
  K  K17  1  0.265294  0.407293  0.803974  1
  K  K18  1  0.252616  0.824895  0.952514  1
  K  K19  1  0.904310  0.415695  0.877333  1
  K  K20  1  0.247384  0.824895  0.452514  1
  K  K21  1  0.477607  0.125552  0.595521  1
  K  K22  1  0.904310  0.915695  0.622667  1
  K  K23  1  0.977607  0.874448  0.904479  1
  K  K24  1  0.734706  0.092707  0.303974  1
  K  K25  1  0.477607  0.625552  0.904479  1
  K  K26  1  0.095690  0.584305  0.122667  1
  K  K27  1  0.247384  0.324895  0.047486  1
  K  K28  1  0.734706  0.592707  0.196026  1
  K  K29  1  0.595690  0.915695  0.122667  1
  K  K30  1  0.404310  0.584305  0.622667  1
  K  K31  1  0.234706  0.407293  0.303974  1
  Nb  Nb32  1  0.106874  0.172298  0.675737  1
  Nb  Nb33  1  0.106874  0.672298  0.824263  1
  Nb  Nb34  1  0.606874  0.327702  0.675737  1
  Nb  Nb35  1  0.075003  0.623104  0.629250  1
  Nb  Nb36  1  0.424997  0.123104  0.370750  1
  Nb  Nb37  1  0.893126  0.827702  0.324263  1
  Nb  Nb38  1  0.575003  0.376896  0.870750  1
  Nb  Nb39  1  0.606874  0.827702  0.824263  1
  Nb  Nb40  1  0.075003  0.123104  0.870750  1
  Nb  Nb41  1  0.893126  0.327702  0.175737  1
  Nb  Nb42  1  0.393126  0.672298  0.324263  1
  Nb  Nb43  1  0.575003  0.876896  0.629250  1
  Nb  Nb44  1  0.393126  0.172298  0.175737  1
  Nb  Nb45  1  0.424997  0.623104  0.129250  1
  Nb  Nb46  1  0.924997  0.376896  0.370750  1
  Nb  Nb47  1  0.924997  0.876896  0.129250  1
  Se  Se48  1  0.775425  0.803722  0.219055  1
  Se  Se49  1  0.767873  0.974155  0.476407  1
  Se  Se50  1  0.075009  0.362491  0.172831  1
  Se  Se51  1  0.224575  0.696278  0.719055  1
  Se  Se52  1  0.668317  0.012054  0.645479  1
  Se  Se53  1  0.776870  0.887681  0.817249  1
  Se  Se54  1  0.724575  0.303722  0.780945  1
  Se  Se55  1  0.199377  0.150449  0.971012  1
  Se  Se56  1  0.403965  0.780653  0.114182  1
  Se  Se57  1  0.447337  0.521881  0.235520  1
  Se  Se58  1  0.924991  0.137509  0.672831  1
  Se  Se59  1  0.918972  0.429833  0.066301  1
  Se  Se60  1  0.831683  0.012054  0.145479  1
  Se  Se61  1  0.947337  0.478119  0.264480  1
  Se  Se62  1  0.066730  0.404824  0.435805  1
  Se  Se63  1  0.581028  0.929833  0.933699  1
  Se  Se64  1  0.199377  0.650449  0.528988  1
  Se  Se65  1  0.232127  0.525845  0.976407  1
  Se  Se66  1  0.403965  0.280653  0.385818  1
  Se  Se67  1  0.276870  0.112319  0.682751  1
  Se  Se68  1  0.418972  0.070167  0.066301  1
  Se  Se69  1  0.489712  0.776517  0.722346  1
  Se  Se70  1  0.331683  0.487946  0.145479  1
  Se  Se71  1  0.918972  0.929833  0.433699  1
  Se  Se72  1  0.732127  0.474155  0.523593  1
  Se  Se73  1  0.933270  0.595176  0.564195  1
  Se  Se74  1  0.267873  0.025845  0.023593  1
  Se  Se75  1  0.433270  0.904824  0.564195  1
  Se  Se76  1  0.275425  0.696278  0.219055  1
  Se  Se77  1  0.052663  0.521881  0.735520  1
  Se  Se78  1  0.552663  0.478119  0.764480  1
  Se  Se79  1  0.300623  0.650449  0.028988  1
  Se  Se80  1  0.267873  0.525845  0.476407  1
  Se  Se81  1  0.081028  0.070167  0.566301  1
  Se  Se82  1  0.075009  0.862491  0.327169  1
  Se  Se83  1  0.723130  0.387681  0.182751  1
  Se  Se84  1  0.223130  0.112319  0.182751  1
  Se  Se85  1  0.489712  0.276517  0.777654  1
  Se  Se86  1  0.331683  0.987946  0.354521  1
  Se  Se87  1  0.903965  0.719347  0.114182  1
  Se  Se88  1  0.010288  0.776517  0.222346  1
  Se  Se89  1  0.010288  0.276517  0.277654  1
  Se  Se90  1  0.767873  0.474155  0.023593  1
  Se  Se91  1  0.224575  0.196278  0.780945  1
  Se  Se92  1  0.596035  0.719347  0.614182  1
  Se  Se93  1  0.724575  0.803722  0.719055  1
  Se  Se94  1  0.418972  0.570167  0.433699  1
  Se  Se95  1  0.732127  0.974155  0.976407  1
  Se  Se96  1  0.096035  0.280653  0.885818  1
  Se  Se97  1  0.275425  0.196278  0.280945  1
  Se  Se98  1  0.699377  0.349551  0.971012  1
  Se  Se99  1  0.447337  0.021881  0.264480  1
  Se  Se100  1  0.989712  0.723483  0.722346  1
  Se  Se101  1  0.300623  0.150449  0.471012  1
  Se  Se102  1  0.510288  0.223483  0.277654  1
  Se  Se103  1  0.566730  0.595176  0.064195  1
  Se  Se104  1  0.552663  0.978119  0.735520  1
  Se  Se105  1  0.510288  0.723483  0.222346  1
  Se  Se106  1  0.775425  0.303722  0.280945  1
  Se  Se107  1  0.699377  0.849551  0.528988  1
  Se  Se108  1  0.052663  0.021881  0.764480  1
  Se  Se109  1  0.276870  0.612319  0.817249  1
  Se  Se110  1  0.232127  0.025845  0.523593  1
  Se  Se111  1  0.223130  0.612319  0.317249  1
  Se  Se112  1  0.933270  0.095176  0.935805  1
  Se  Se113  1  0.831683  0.512054  0.354521  1
  Se  Se114  1  0.168317  0.987946  0.854521  1
  Se  Se115  1  0.776870  0.387681  0.682751  1
  Se  Se116  1  0.581028  0.429833  0.566301  1
  Se  Se117  1  0.066730  0.904824  0.064195  1
  Se  Se118  1  0.424991  0.862491  0.827169  1
  Se  Se119  1  0.723130  0.887681  0.317249  1
  Se  Se120  1  0.424991  0.362491  0.672831  1
  Se  Se121  1  0.575009  0.137509  0.172831  1
  Se  Se122  1  0.566730  0.095176  0.435805  1
  Se  Se123  1  0.575009  0.637509  0.327169  1
  Se  Se124  1  0.800623  0.349551  0.471012  1
  Se  Se125  1  0.989712  0.223483  0.777654  1
  Se  Se126  1  0.081028  0.570167  0.933699  1
  Se  Se127  1  0.924991  0.637509  0.827169  1
  Se  Se128  1  0.596035  0.219347  0.885818  1
  Se  Se129  1  0.668317  0.512054  0.854521  1
  Se  Se130  1  0.433270  0.404824  0.935805  1
  Se  Se131  1  0.903965  0.219347  0.385818  1
  Se  Se132  1  0.096035  0.780653  0.614182  1
  Se  Se133  1  0.800623  0.849551  0.028988  1
  Se  Se134  1  0.947337  0.978119  0.235520  1
  Se  Se135  1  0.168317  0.487946  0.645479  1
  O  O136  1  0.616111  0.735470  0.873406  1
  O  O137  1  0.383889  0.264530  0.126594  1
  O  O138  1  0.116111  0.764530  0.873406  1
  O  O139  1  0.116111  0.264530  0.626594  1
  O  O140  1  0.883889  0.735470  0.373406  1
  O  O141  1  0.383889  0.764530  0.373406  1
  O  O142  1  0.616111  0.235470  0.626594  1
  O  O143  1  0.883889  0.235470  0.126594  1
