# generated using pymatgen
data_AgHgSBr
_symmetry_space_group_name_H-M   'P 1'
_cell_length_a   4.67754365
_cell_length_b   9.80469488
_cell_length_c   9.96308165
_cell_angle_alpha   90.00000000
_cell_angle_beta   90.00000000
_cell_angle_gamma   90.00000000
_symmetry_Int_Tables_number   1
_chemical_formula_structural   AgHgSBr
_chemical_formula_sum   'Ag4 Hg4 S4 Br4'
_cell_volume   456.92573752
_cell_formula_units_Z   4
loop_
 _symmetry_equiv_pos_site_id
 _symmetry_equiv_pos_as_xyz
  1  'x, y, z'
loop_
 _atom_site_type_symbol
 _atom_site_label
 _atom_site_symmetry_multiplicity
 _atom_site_fract_x
 _atom_site_fract_y
 _atom_site_fract_z
 _atom_site_occupancy
  Ag  Ag0  1  0.000000  0.209328  0.415212  1
  Ag  Ag1  1  0.000000  0.790672  0.584788  1
  Ag  Ag2  1  0.000000  0.209328  0.084788  1
  Ag  Ag3  1  0.000000  0.790672  0.915212  1
  Hg  Hg4  1  0.500000  0.229300  0.750000  1
  Hg  Hg5  1  0.500000  0.770700  0.250000  1
  Hg  Hg6  1  0.500000  0.500000  0.000000  1
  Hg  Hg7  1  0.500000  0.500000  0.500000  1
  S  S8  1  0.500000  0.254252  0.991671  1
  S  S9  1  0.500000  0.745748  0.008329  1
  S  S10  1  0.500000  0.745748  0.491671  1
  S  S11  1  0.500000  0.254252  0.508329  1
  Br  Br12  1  0.000000  0.012433  0.750000  1
  Br  Br13  1  0.000000  0.535219  0.750000  1
  Br  Br14  1  0.000000  0.464781  0.250000  1
  Br  Br15  1  0.000000  0.987567  0.250000  1
