# generated using pymatgen
data_Li5P2N5
_symmetry_space_group_name_H-M   'P 1'
_cell_length_a   8.63280249
_cell_length_b   8.87928512
_cell_length_c   12.43293354
_cell_angle_alpha   90.00000000
_cell_angle_beta   90.00000000
_cell_angle_gamma   90.00000000
_symmetry_Int_Tables_number   1
_chemical_formula_structural   Li5P2N5
_chemical_formula_sum   'Li40 P16 N40'
_cell_volume   953.02308029
_cell_formula_units_Z   8
loop_
 _symmetry_equiv_pos_site_id
 _symmetry_equiv_pos_as_xyz
  1  'x, y, z'
loop_
 _atom_site_type_symbol
 _atom_site_label
 _atom_site_symmetry_multiplicity
 _atom_site_fract_x
 _atom_site_fract_y
 _atom_site_fract_z
 _atom_site_occupancy
  Li  Li0  1  0.750000  0.677324  0.783376  1
  Li  Li1  1  0.750000  0.488511  0.885084  1
  Li  Li2  1  0.475479  0.325968  0.100436  1
  Li  Li3  1  0.250000  0.011489  0.385084  1
  Li  Li4  1  0.250000  0.822676  0.283376  1
  Li  Li5  1  0.475479  0.825968  0.399564  1
  Li  Li6  1  0.554674  0.815656  0.622888  1
  Li  Li7  1  0.945326  0.815656  0.622888  1
  Li  Li8  1  0.750000  0.742557  0.247283  1
  Li  Li9  1  0.445326  0.684344  0.122888  1
  Li  Li10  1  0.500000  0.500000  0.500000  1
  Li  Li11  1  0.250000  0.535367  0.323481  1
  Li  Li12  1  0.250000  0.492591  0.932192  1
  Li  Li13  1  0.554674  0.315656  0.877112  1
  Li  Li14  1  0.024521  0.325968  0.100436  1
  Li  Li15  1  0.945326  0.315656  0.877112  1
  Li  Li16  1  0.250000  0.257443  0.752717  1
  Li  Li17  1  0.975479  0.174032  0.600436  1
  Li  Li18  1  0.445326  0.184344  0.377112  1
  Li  Li19  1  0.524521  0.174032  0.600436  1
  Li  Li20  1  0.500000  0.000000  0.000000  1
  Li  Li21  1  0.250000  0.992591  0.567808  1
  Li  Li22  1  0.750000  0.988511  0.614916  1
  Li  Li23  1  0.750000  0.964633  0.823481  1
  Li  Li24  1  0.250000  0.035367  0.176519  1
  Li  Li25  1  0.750000  0.007409  0.432192  1
  Li  Li26  1  0.000000  0.000000  0.000000  1
  Li  Li27  1  0.024521  0.825968  0.399564  1
  Li  Li28  1  0.250000  0.757443  0.747283  1
  Li  Li29  1  0.054674  0.684344  0.122888  1
  Li  Li30  1  0.524521  0.674032  0.899564  1
  Li  Li31  1  0.975479  0.674032  0.899564  1
  Li  Li32  1  0.000000  0.500000  0.500000  1
  Li  Li33  1  0.750000  0.507409  0.067808  1
  Li  Li34  1  0.250000  0.511489  0.114916  1
  Li  Li35  1  0.750000  0.464633  0.676519  1
  Li  Li36  1  0.250000  0.322676  0.216624  1
  Li  Li37  1  0.750000  0.242557  0.252717  1
  Li  Li38  1  0.054674  0.184344  0.377112  1
  Li  Li39  1  0.750000  0.177324  0.716624  1
  P  P40  1  0.583426  0.992209  0.206749  1
  P  P41  1  0.750000  0.659613  0.452842  1
  P  P42  1  0.250000  0.662957  0.540537  1
  P  P43  1  0.583426  0.492209  0.293251  1
  P  P44  1  0.416574  0.507791  0.706749  1
  P  P45  1  0.083426  0.507791  0.706749  1
  P  P46  1  0.750000  0.337043  0.459463  1
  P  P47  1  0.250000  0.340387  0.547158  1
  P  P48  1  0.250000  0.162957  0.959463  1
  P  P49  1  0.750000  0.159613  0.047158  1
  P  P50  1  0.083426  0.007791  0.793251  1
  P  P51  1  0.416574  0.007791  0.793251  1
  P  P52  1  0.916574  0.992209  0.206749  1
  P  P53  1  0.250000  0.840387  0.952842  1
  P  P54  1  0.750000  0.837043  0.040537  1
  P  P55  1  0.916574  0.492209  0.293251  1
  N  N56  1  0.594178  0.145876  0.128223  1
  N  N57  1  0.750000  0.991044  0.277989  1
  N  N58  1  0.431407  0.988493  0.280972  1
  N  N59  1  0.595330  0.843336  0.122754  1
  N  N60  1  0.250000  0.805657  0.461064  1
  N  N61  1  0.750000  0.811663  0.522482  1
  N  N62  1  0.095330  0.656664  0.622754  1
  N  N63  1  0.594178  0.645876  0.371777  1
  N  N64  1  0.404670  0.656664  0.622754  1
  N  N65  1  0.250000  0.508956  0.777989  1
  N  N66  1  0.431407  0.488493  0.219028  1
  N  N67  1  0.750000  0.501522  0.526367  1
  N  N68  1  0.250000  0.498478  0.473633  1
  N  N69  1  0.568593  0.511507  0.780972  1
  N  N70  1  0.931407  0.511507  0.780972  1
  N  N71  1  0.094178  0.354124  0.628223  1
  N  N72  1  0.595330  0.343336  0.377246  1
  N  N73  1  0.405822  0.354124  0.628223  1
  N  N74  1  0.750000  0.311663  0.977518  1
  N  N75  1  0.250000  0.305657  0.038936  1
  N  N76  1  0.250000  0.188337  0.477518  1
  N  N77  1  0.750000  0.194343  0.538936  1
  N  N78  1  0.095330  0.156664  0.877246  1
  N  N79  1  0.905822  0.145876  0.128223  1
  N  N80  1  0.404670  0.156664  0.877246  1
  N  N81  1  0.250000  0.008956  0.722011  1
  N  N82  1  0.931407  0.011507  0.719028  1
  N  N83  1  0.250000  0.998478  0.026367  1
  N  N84  1  0.750000  0.001522  0.973633  1
  N  N85  1  0.068593  0.988493  0.280972  1
  N  N86  1  0.568593  0.011507  0.719028  1
  N  N87  1  0.405822  0.854124  0.871777  1
  N  N88  1  0.094178  0.854124  0.871777  1
  N  N89  1  0.904670  0.843336  0.122754  1
  N  N90  1  0.250000  0.688337  0.022482  1
  N  N91  1  0.750000  0.694343  0.961064  1
  N  N92  1  0.905822  0.645876  0.371777  1
  N  N93  1  0.068593  0.488493  0.219028  1
  N  N94  1  0.750000  0.491044  0.222011  1
  N  N95  1  0.904670  0.343336  0.377246  1
