# generated using pymatgen
data_Dy2(TeO3)3
_symmetry_space_group_name_H-M   'P 1'
_cell_length_a   13.92158754
_cell_length_b   5.43060074
_cell_length_c   22.85488627
_cell_angle_alpha   90.00000000
_cell_angle_beta   98.61522655
_cell_angle_gamma   90.00000000
_symmetry_Int_Tables_number   1
_chemical_formula_structural   Dy2(TeO3)3
_chemical_formula_sum   'Dy16 Te24 O72'
_cell_volume   1708.39200455
_cell_formula_units_Z   8
loop_
 _symmetry_equiv_pos_site_id
 _symmetry_equiv_pos_as_xyz
  1  'x, y, z'
loop_
 _atom_site_type_symbol
 _atom_site_label
 _atom_site_symmetry_multiplicity
 _atom_site_fract_x
 _atom_site_fract_y
 _atom_site_fract_z
 _atom_site_occupancy
  Dy  Dy0  1  0.699975  0.295179  0.705266  1
  Dy  Dy1  1  0.319375  0.280065  0.666852  1
  Dy  Dy2  1  0.490216  0.753113  0.939556  1
  Dy  Dy3  1  0.300025  0.704821  0.294734  1
  Dy  Dy4  1  0.680625  0.719935  0.333148  1
  Dy  Dy5  1  0.122557  0.738685  0.141580  1
  Dy  Dy6  1  0.490216  0.746887  0.439556  1
  Dy  Dy7  1  0.509784  0.253113  0.560444  1
  Dy  Dy8  1  0.122557  0.761315  0.641580  1
  Dy  Dy9  1  0.877443  0.261315  0.858420  1
  Dy  Dy10  1  0.300025  0.795179  0.794734  1
  Dy  Dy11  1  0.509784  0.246887  0.060444  1
  Dy  Dy12  1  0.699975  0.204821  0.205266  1
  Dy  Dy13  1  0.319375  0.219935  0.166852  1
  Dy  Dy14  1  0.877443  0.238685  0.358420  1
  Dy  Dy15  1  0.680625  0.780065  0.833148  1
  Te  Te16  1  0.112678  0.261876  0.525244  1
  Te  Te17  1  0.132030  0.219226  0.259132  1
  Te  Te18  1  0.685534  0.292103  0.953394  1
  Te  Te19  1  0.919897  0.202766  0.124590  1
  Te  Te20  1  0.497245  0.788661  0.194082  1
  Te  Te21  1  0.867970  0.780774  0.740868  1
  Te  Te22  1  0.305960  0.308899  0.912512  1
  Te  Te23  1  0.497245  0.711339  0.694082  1
  Te  Te24  1  0.314466  0.707897  0.046606  1
  Te  Te25  1  0.694040  0.808899  0.587488  1
  Te  Te26  1  0.080103  0.702766  0.375410  1
  Te  Te27  1  0.887322  0.761876  0.974756  1
  Te  Te28  1  0.112678  0.238124  0.025244  1
  Te  Te29  1  0.694040  0.691101  0.087488  1
  Te  Te30  1  0.887322  0.738124  0.474756  1
  Te  Te31  1  0.685534  0.207897  0.453394  1
  Te  Te32  1  0.080103  0.797234  0.875410  1
  Te  Te33  1  0.502755  0.211339  0.805918  1
  Te  Te34  1  0.314466  0.792103  0.546606  1
  Te  Te35  1  0.305960  0.191101  0.412512  1
  Te  Te36  1  0.132030  0.280774  0.759132  1
  Te  Te37  1  0.867970  0.719226  0.240868  1
  Te  Te38  1  0.502755  0.288661  0.305918  1
  Te  Te39  1  0.919897  0.297234  0.624590  1
  O  O40  1  0.849149  0.348590  0.182008  1
  O  O41  1  0.811605  0.888427  0.405963  1
  O  O42  1  0.210669  0.994889  0.220277  1
  O  O43  1  0.638779  0.000649  0.101461  1
  O  O44  1  0.399729  0.591104  0.737781  1
  O  O45  1  0.994887  0.015537  0.616053  1
  O  O46  1  0.626980  0.016327  0.637227  1
  O  O47  1  0.789331  0.005111  0.779723  1
  O  O48  1  0.525041  0.905017  0.848415  1
  O  O49  1  0.373020  0.983673  0.362773  1
  O  O50  1  0.361221  0.500649  0.398539  1
  O  O51  1  0.811044  0.980691  0.285514  1
  O  O52  1  0.272051  0.627952  0.614403  1
  O  O53  1  0.600271  0.091104  0.762219  1
  O  O54  1  0.608860  0.980261  0.399614  1
  O  O55  1  0.474959  0.094983  0.151585  1
  O  O56  1  0.594769  0.577294  0.022162  1
  O  O57  1  0.787764  0.926238  0.005695  1
  O  O58  1  0.607512  0.915364  0.247086  1
  O  O59  1  0.058037  0.532680  0.561141  1
  O  O60  1  0.212236  0.073762  0.994305  1
  O  O61  1  0.150851  0.651410  0.817992  1
  O  O62  1  0.811605  0.611573  0.905963  1
  O  O63  1  0.941963  0.032680  0.938859  1
  O  O64  1  0.525041  0.594983  0.348415  1
  O  O65  1  0.991952  0.505563  0.323332  1
  O  O66  1  0.405231  0.422706  0.977838  1
  O  O67  1  0.221467  0.158295  0.824330  1
  O  O68  1  0.474959  0.405017  0.651585  1
  O  O69  1  0.608860  0.519739  0.899614  1
  O  O70  1  0.212236  0.426238  0.494305  1
  O  O71  1  0.991952  0.994437  0.823332  1
  O  O72  1  0.994887  0.484463  0.116053  1
  O  O73  1  0.579440  0.403218  0.470220  1
  O  O74  1  0.787764  0.573762  0.505695  1
  O  O75  1  0.188395  0.388427  0.094037  1
  O  O76  1  0.391140  0.019739  0.600386  1
  O  O77  1  0.849149  0.151410  0.682008  1
  O  O78  1  0.600271  0.408896  0.262219  1
  O  O79  1  0.188956  0.019309  0.714486  1
  O  O80  1  0.638779  0.499351  0.601461  1
  O  O81  1  0.778533  0.658295  0.675670  1
  O  O82  1  0.727949  0.127952  0.885597  1
  O  O83  1  0.373020  0.516327  0.862773  1
  O  O84  1  0.727949  0.372048  0.385597  1
  O  O85  1  0.789331  0.494889  0.279723  1
  O  O86  1  0.188395  0.111573  0.594037  1
  O  O87  1  0.811044  0.519309  0.785514  1
  O  O88  1  0.392488  0.415364  0.252914  1
  O  O89  1  0.391140  0.480261  0.100386  1
  O  O90  1  0.005113  0.984463  0.383947  1
  O  O91  1  0.150851  0.848590  0.317992  1
  O  O92  1  0.272051  0.872048  0.114403  1
  O  O93  1  0.778533  0.841705  0.175670  1
  O  O94  1  0.594769  0.922706  0.522162  1
  O  O95  1  0.008048  0.005563  0.176668  1
  O  O96  1  0.005113  0.515537  0.883947  1
  O  O97  1  0.221467  0.341705  0.324330  1
  O  O98  1  0.579440  0.096782  0.970220  1
  O  O99  1  0.626980  0.483673  0.137227  1
  O  O100  1  0.607512  0.584636  0.747086  1
  O  O101  1  0.399729  0.908896  0.237781  1
  O  O102  1  0.392488  0.084636  0.752914  1
  O  O103  1  0.188956  0.480691  0.214486  1
  O  O104  1  0.420560  0.903218  0.029780  1
  O  O105  1  0.058037  0.967320  0.061141  1
  O  O106  1  0.420560  0.596782  0.529780  1
  O  O107  1  0.361221  0.999351  0.898539  1
  O  O108  1  0.941963  0.467320  0.438859  1
  O  O109  1  0.210669  0.505111  0.720277  1
  O  O110  1  0.405231  0.077294  0.477838  1
  O  O111  1  0.008048  0.494437  0.676668  1
