# generated using pymatgen
data_Na3Y(BO3)2
_symmetry_space_group_name_H-M   'P 1'
_cell_length_a   6.61607773
_cell_length_b   8.59783844
_cell_length_c   12.15341089
_cell_angle_alpha   90.00000000
_cell_angle_beta   118.88004538
_cell_angle_gamma   90.00000000
_symmetry_Int_Tables_number   1
_chemical_formula_structural   Na3Y(BO3)2
_chemical_formula_sum   'Na12 Y4 B8 O24'
_cell_volume   605.35491912
_cell_formula_units_Z   4
loop_
 _symmetry_equiv_pos_site_id
 _symmetry_equiv_pos_as_xyz
  1  'x, y, z'
loop_
 _atom_site_type_symbol
 _atom_site_label
 _atom_site_symmetry_multiplicity
 _atom_site_fract_x
 _atom_site_fract_y
 _atom_site_fract_z
 _atom_site_occupancy
  Na  Na0  1  0.899280  0.702431  0.882682  1
  Na  Na1  1  0.172064  0.055347  0.884196  1
  Na  Na2  1  0.100720  0.202431  0.617318  1
  Na  Na3  1  0.559441  0.295773  0.072053  1
  Na  Na4  1  0.100720  0.297569  0.117318  1
  Na  Na5  1  0.827936  0.555347  0.615804  1
  Na  Na6  1  0.559441  0.204227  0.572053  1
  Na  Na7  1  0.440559  0.795773  0.427947  1
  Na  Na8  1  0.172064  0.444653  0.384196  1
  Na  Na9  1  0.440559  0.704227  0.927947  1
  Na  Na10  1  0.899280  0.797569  0.382682  1
  Na  Na11  1  0.827936  0.944653  0.115804  1
  Y  Y12  1  0.406055  0.626628  0.170694  1
  Y  Y13  1  0.593945  0.126628  0.329306  1
  Y  Y14  1  0.406055  0.873372  0.670694  1
  Y  Y15  1  0.593945  0.373372  0.829306  1
  B  B16  1  0.334325  0.558530  0.619729  1
  B  B17  1  0.334325  0.941470  0.119729  1
  B  B18  1  0.665675  0.441470  0.380271  1
  B  B19  1  0.134709  0.088581  0.375115  1
  B  B20  1  0.134709  0.411419  0.875115  1
  B  B21  1  0.865291  0.588581  0.124885  1
  B  B22  1  0.665675  0.058530  0.880271  1
  B  B23  1  0.865291  0.911419  0.624885  1
  O  O24  1  0.246533  0.494027  0.987499  1
  O  O25  1  0.753467  0.994027  0.512501  1
  O  O26  1  0.762540  0.164055  0.977704  1
  O  O27  1  0.739832  0.688051  0.160026  1
  O  O28  1  0.430880  0.882490  0.243432  1
  O  O29  1  0.246533  0.005973  0.487499  1
  O  O30  1  0.645619  0.901071  0.893907  1
  O  O31  1  0.237460  0.664055  0.522296  1
  O  O32  1  0.102548  0.570214  0.201039  1
  O  O33  1  0.260168  0.311949  0.839974  1
  O  O34  1  0.354381  0.098929  0.106093  1
  O  O35  1  0.569120  0.117510  0.756568  1
  O  O36  1  0.739832  0.811949  0.660026  1
  O  O37  1  0.897452  0.429786  0.798961  1
  O  O38  1  0.354381  0.401071  0.606093  1
  O  O39  1  0.569120  0.382490  0.256568  1
  O  O40  1  0.897452  0.070214  0.298961  1
  O  O41  1  0.753467  0.505973  0.012501  1
  O  O42  1  0.645619  0.598929  0.393907  1
  O  O43  1  0.762540  0.335945  0.477704  1
  O  O44  1  0.260168  0.188051  0.339974  1
  O  O45  1  0.430880  0.617510  0.743432  1
  O  O46  1  0.237460  0.835945  0.022296  1
  O  O47  1  0.102548  0.929786  0.701039  1
