# generated using pymatgen
data_Se
_symmetry_space_group_name_H-M   'P 1'
_cell_length_a   9.45037347
_cell_length_b   10.27310410
_cell_length_c   15.43515758
_cell_angle_alpha   90.00000000
_cell_angle_beta   126.91956726
_cell_angle_gamma   90.00000000
_symmetry_Int_Tables_number   1
_chemical_formula_structural   Se
_chemical_formula_sum   Se32
_cell_volume   1198.03386281
_cell_formula_units_Z   32
loop_
 _symmetry_equiv_pos_site_id
 _symmetry_equiv_pos_as_xyz
  1  'x, y, z'
loop_
 _atom_site_type_symbol
 _atom_site_label
 _atom_site_symmetry_multiplicity
 _atom_site_fract_x
 _atom_site_fract_y
 _atom_site_fract_z
 _atom_site_occupancy
  Se  Se0  1  0.925311  0.495249  0.242579  1
  Se  Se1  1  0.074689  0.995249  0.257421  1
  Se  Se2  1  0.074689  0.504751  0.757421  1
  Se  Se3  1  0.925311  0.004751  0.742579  1
  Se  Se4  1  0.939240  0.654241  0.358257  1
  Se  Se5  1  0.060760  0.154241  0.141743  1
  Se  Se6  1  0.060760  0.345759  0.641743  1
  Se  Se7  1  0.939240  0.845759  0.858257  1
  Se  Se8  1  0.214122  0.639174  0.531496  1
  Se  Se9  1  0.785878  0.139174  0.968504  1
  Se  Se10  1  0.785878  0.360826  0.468504  1
  Se  Se11  1  0.214122  0.860826  0.031496  1
  Se  Se12  1  0.408665  0.799060  0.546231  1
  Se  Se13  1  0.591335  0.299060  0.953769  1
  Se  Se14  1  0.591335  0.200940  0.453769  1
  Se  Se15  1  0.408665  0.700940  0.046231  1
  Se  Se16  1  0.594187  0.692335  0.513632  1
  Se  Se17  1  0.405813  0.192335  0.986368  1
  Se  Se18  1  0.405813  0.307665  0.486368  1
  Se  Se19  1  0.594187  0.807665  0.013632  1
  Se  Se20  1  0.480938  0.723040  0.331024  1
  Se  Se21  1  0.519062  0.223040  0.168976  1
  Se  Se22  1  0.519062  0.276960  0.668976  1
  Se  Se23  1  0.480938  0.776960  0.831024  1
  Se  Se24  1  0.310251  0.538051  0.230298  1
  Se  Se25  1  0.689749  0.038051  0.269702  1
  Se  Se26  1  0.689749  0.461949  0.769702  1
  Se  Se27  1  0.310251  0.961949  0.730298  1
  Se  Se28  1  0.010970  0.594162  0.142588  1
  Se  Se29  1  0.989030  0.094162  0.357412  1
  Se  Se30  1  0.989030  0.405838  0.857412  1
  Se  Se31  1  0.010970  0.905838  0.642588  1
