# generated using pymatgen
data_Bi2CO5
_symmetry_space_group_name_H-M   'P 1'
_cell_length_a   5.53552065
_cell_length_b   5.55540561
_cell_length_c   28.02601674
_cell_angle_alpha   90.00000000
_cell_angle_beta   90.00000000
_cell_angle_gamma   90.00000000
_symmetry_Int_Tables_number   1
_chemical_formula_structural   Bi2CO5
_chemical_formula_sum   'Bi16 C8 O40'
_cell_volume   861.85781767
_cell_formula_units_Z   8
loop_
 _symmetry_equiv_pos_site_id
 _symmetry_equiv_pos_as_xyz
  1  'x, y, z'
loop_
 _atom_site_type_symbol
 _atom_site_label
 _atom_site_symmetry_multiplicity
 _atom_site_fract_x
 _atom_site_fract_y
 _atom_site_fract_z
 _atom_site_occupancy
  Bi  Bi0  1  0.984015  0.489432  0.454356  1
  Bi  Bi1  1  0.496135  0.538935  0.204796  1
  Bi  Bi2  1  0.973041  0.497460  0.954820  1
  Bi  Bi3  1  0.498056  0.982267  0.795159  1
  Bi  Bi4  1  0.998056  0.017733  0.204841  1
  Bi  Bi5  1  0.496135  0.038935  0.295204  1
  Bi  Bi6  1  0.484015  0.510568  0.545644  1
  Bi  Bi7  1  0.484015  0.010568  0.954356  1
  Bi  Bi8  1  0.973041  0.997460  0.545180  1
  Bi  Bi9  1  0.984015  0.989432  0.045644  1
  Bi  Bi10  1  0.473041  0.002540  0.454820  1
  Bi  Bi11  1  0.996135  0.961065  0.704796  1
  Bi  Bi12  1  0.996135  0.461065  0.795204  1
  Bi  Bi13  1  0.473041  0.502540  0.045180  1
  Bi  Bi14  1  0.498056  0.482267  0.704841  1
  Bi  Bi15  1  0.998056  0.517733  0.295159  1
  C  C16  1  0.490350  0.992025  0.625252  1
  C  C17  1  0.980497  0.009638  0.874150  1
  C  C18  1  0.480497  0.990362  0.125850  1
  C  C19  1  0.480497  0.490362  0.374150  1
  C  C20  1  0.990350  0.007975  0.374748  1
  C  C21  1  0.490350  0.492025  0.874748  1
  C  C22  1  0.980497  0.509638  0.625850  1
  C  C23  1  0.990350  0.507975  0.125252  1
  O  O24  1  0.549637  0.941839  0.581116  1
  O  O25  1  0.823669  0.352703  0.133661  1
  O  O26  1  0.325341  0.638380  0.391864  1
  O  O27  1  0.323669  0.647297  0.866339  1
  O  O28  1  0.823669  0.852703  0.366339  1
  O  O29  1  0.757265  0.268432  0.250057  1
  O  O30  1  0.549637  0.441839  0.918884  1
  O  O31  1  0.739941  0.740932  0.500073  1
  O  O32  1  0.612993  0.353409  0.401063  1
  O  O33  1  0.249501  0.277233  0.248442  1
  O  O34  1  0.323669  0.147297  0.633661  1
  O  O35  1  0.049637  0.058161  0.418884  1
  O  O36  1  0.249501  0.777233  0.251558  1
  O  O37  1  0.825341  0.361620  0.608136  1
  O  O38  1  0.003462  0.025028  0.827676  1
  O  O39  1  0.239941  0.259068  0.499927  1
  O  O40  1  0.257265  0.731568  0.749943  1
  O  O41  1  0.749501  0.222767  0.748442  1
  O  O42  1  0.112993  0.646591  0.598937  1
  O  O43  1  0.239941  0.759068  0.000073  1
  O  O44  1  0.612993  0.853409  0.098937  1
  O  O45  1  0.757265  0.768432  0.249943  1
  O  O46  1  0.737147  0.247050  0.499982  1
  O  O47  1  0.825341  0.861620  0.891864  1
  O  O48  1  0.112993  0.146591  0.901063  1
  O  O49  1  0.003462  0.525028  0.672324  1
  O  O50  1  0.503462  0.974972  0.172324  1
  O  O51  1  0.049637  0.558161  0.081116  1
  O  O52  1  0.237147  0.252950  0.999982  1
  O  O53  1  0.237147  0.752950  0.500018  1
  O  O54  1  0.257265  0.231568  0.750057  1
  O  O55  1  0.503462  0.474972  0.327676  1
  O  O56  1  0.749501  0.722767  0.751558  1
  O  O57  1  0.598951  0.882141  0.660426  1
  O  O58  1  0.737147  0.747050  0.000018  1
  O  O59  1  0.598951  0.382141  0.839574  1
  O  O60  1  0.098951  0.117859  0.339574  1
  O  O61  1  0.098951  0.617859  0.160426  1
  O  O62  1  0.739941  0.240932  0.999927  1
  O  O63  1  0.325341  0.138380  0.108136  1
