# generated using pymatgen
data_SrV2(NiO4)2
_symmetry_space_group_name_H-M   'P 1'
_cell_length_a   9.70281116
_cell_length_b   9.70281116
_cell_length_c   9.70281116
_cell_angle_alpha   100.95713517
_cell_angle_beta   100.95713517
_cell_angle_gamma   128.30524651
_symmetry_Int_Tables_number   1
_chemical_formula_structural   SrV2(NiO4)2
_chemical_formula_sum   'Sr4 V8 Ni8 O32'
_cell_volume   645.10404709
_cell_formula_units_Z   4
loop_
 _symmetry_equiv_pos_site_id
 _symmetry_equiv_pos_as_xyz
  1  'x, y, z'
loop_
 _atom_site_type_symbol
 _atom_site_label
 _atom_site_symmetry_multiplicity
 _atom_site_fract_x
 _atom_site_fract_y
 _atom_site_fract_z
 _atom_site_occupancy
  Sr  Sr0  1  0.004241  0.504241  0.500000  1
  Sr  Sr1  1  0.754241  0.754241  0.000000  1
  Sr  Sr2  1  0.254241  0.254241  0.000000  1
  Sr  Sr3  1  0.504241  0.004241  0.500000  1
  V  V4  1  0.023880  0.859754  0.676224  1
  V  V5  1  0.597656  0.773880  0.664126  1
  V  V6  1  0.109754  0.933530  0.335874  1
  V  V7  1  0.183530  0.347656  0.323776  1
  V  V8  1  0.097656  0.433530  0.823776  1
  V  V9  1  0.609754  0.273880  0.176224  1
  V  V10  1  0.683530  0.359754  0.835874  1
  V  V11  1  0.523880  0.847656  0.164126  1
  Ni  Ni12  1  0.898945  0.062394  0.498012  1
  Ni  Ni13  1  0.650933  0.648945  0.336551  1
  Ni  Ni14  1  0.312394  0.314382  0.663449  1
  Ni  Ni15  1  0.564382  0.400933  0.501988  1
  Ni  Ni16  1  0.150933  0.814382  0.001988  1
  Ni  Ni17  1  0.812394  0.148945  0.998012  1
  Ni  Ni18  1  0.064382  0.562394  0.163449  1
  Ni  Ni19  1  0.398945  0.900933  0.836551  1
  O  O20  1  0.513429  0.660567  0.154108  1
  O  O21  1  0.609321  0.263429  0.352862  1
  O  O22  1  0.910567  0.256458  0.647138  1
  O  O23  1  0.506458  0.359321  0.845892  1
  O  O24  1  0.109321  0.756458  0.345892  1
  O  O25  1  0.410567  0.763429  0.654108  1
  O  O26  1  0.006458  0.160567  0.147138  1
  O  O27  1  0.013429  0.859321  0.852862  1
  O  O28  1  0.819266  0.330277  0.169250  1
  O  O29  1  0.900016  0.569266  0.988989  1
  O  O30  1  0.580277  0.911027  0.011011  1
  O  O31  1  0.161027  0.650016  0.830750  1
  O  O32  1  0.400016  0.411027  0.330750  1
  O  O33  1  0.080277  0.069266  0.669250  1
  O  O34  1  0.661027  0.830277  0.511011  1
  O  O35  1  0.319266  0.150016  0.488989  1
  O  O36  1  0.043912  0.379593  0.980511  1
  O  O37  1  0.313401  0.793912  0.164318  1
  O  O38  1  0.629593  0.149082  0.835682  1
  O  O39  1  0.399082  0.063401  0.019489  1
  O  O40  1  0.813401  0.649082  0.519489  1
  O  O41  1  0.129593  0.293912  0.480511  1
  O  O42  1  0.899082  0.879593  0.335682  1
  O  O43  1  0.543912  0.563401  0.664318  1
  O  O44  1  0.703987  0.036041  0.336647  1
  O  O45  1  0.617340  0.453987  0.167947  1
  O  O46  1  0.286041  0.449393  0.832053  1
  O  O47  1  0.699393  0.367340  0.663353  1
  O  O48  1  0.117340  0.949393  0.163353  1
  O  O49  1  0.786041  0.953987  0.836647  1
  O  O50  1  0.199393  0.536041  0.332053  1
  O  O51  1  0.203987  0.867340  0.667947  1
