# generated using pymatgen
data_Ba3Sc(BO2)9
_symmetry_space_group_name_H-M   'P 1'
_cell_length_a   7.24018713
_cell_length_b   7.24018713
_cell_length_c   16.91403357
_cell_angle_alpha   90.00000000
_cell_angle_beta   90.00000000
_cell_angle_gamma   120.00000000
_symmetry_Int_Tables_number   1
_chemical_formula_structural   Ba3Sc(BO2)9
_chemical_formula_sum   'Ba6 Sc2 B18 O36'
_cell_volume   767.85179299
_cell_formula_units_Z   2
loop_
 _symmetry_equiv_pos_site_id
 _symmetry_equiv_pos_as_xyz
  1  'x, y, z'
loop_
 _atom_site_type_symbol
 _atom_site_label
 _atom_site_symmetry_multiplicity
 _atom_site_fract_x
 _atom_site_fract_y
 _atom_site_fract_z
 _atom_site_occupancy
  Ba  Ba0  1  0.666667  0.333333  0.628605  1
  Ba  Ba1  1  0.333333  0.666667  0.128605  1
  Ba  Ba2  1  0.000000  0.000000  0.250000  1
  Ba  Ba3  1  0.666667  0.333333  0.871395  1
  Ba  Ba4  1  0.333333  0.666667  0.371395  1
  Ba  Ba5  1  0.000000  0.000000  0.750000  1
  Sc  Sc6  1  0.000000  0.000000  0.500000  1
  Sc  Sc7  1  0.000000  0.000000  0.000000  1
  B  B8  1  0.504164  0.884218  0.750000  1
  B  B9  1  0.445047  0.273956  0.078541  1
  B  B10  1  0.171091  0.445047  0.921459  1
  B  B11  1  0.380054  0.495836  0.750000  1
  B  B12  1  0.828909  0.554953  0.078541  1
  B  B13  1  0.115782  0.619946  0.750000  1
  B  B14  1  0.554953  0.726044  0.578541  1
  B  B15  1  0.554953  0.726044  0.921459  1
  B  B16  1  0.828909  0.554953  0.421459  1
  B  B17  1  0.884218  0.380054  0.250000  1
  B  B18  1  0.619946  0.504164  0.250000  1
  B  B19  1  0.445047  0.273956  0.421459  1
  B  B20  1  0.726044  0.171091  0.078541  1
  B  B21  1  0.171091  0.445047  0.578541  1
  B  B22  1  0.726044  0.171091  0.421459  1
  B  B23  1  0.273956  0.828909  0.578541  1
  B  B24  1  0.495836  0.115782  0.250000  1
  B  B25  1  0.273956  0.828909  0.921459  1
  O  O26  1  0.609948  0.490183  0.079062  1
  O  O27  1  0.226670  0.984594  0.923092  1
  O  O28  1  0.119765  0.609948  0.920938  1
  O  O29  1  0.832341  0.543305  0.250000  1
  O  O30  1  0.543305  0.710964  0.750000  1
  O  O31  1  0.490183  0.880235  0.579062  1
  O  O32  1  0.880235  0.390052  0.420938  1
  O  O33  1  0.916859  0.583460  0.750000  1
  O  O34  1  0.015406  0.242076  0.576908  1
  O  O35  1  0.583460  0.666601  0.250000  1
  O  O36  1  0.416540  0.333399  0.750000  1
  O  O37  1  0.984594  0.757924  0.423092  1
  O  O38  1  0.509817  0.119765  0.079062  1
  O  O39  1  0.333399  0.916859  0.250000  1
  O  O40  1  0.880235  0.390052  0.079062  1
  O  O41  1  0.757924  0.773330  0.923092  1
  O  O42  1  0.710964  0.167659  0.250000  1
  O  O43  1  0.609948  0.490183  0.420938  1
  O  O44  1  0.083141  0.416540  0.250000  1
  O  O45  1  0.456695  0.289036  0.250000  1
  O  O46  1  0.509817  0.119765  0.420938  1
  O  O47  1  0.984594  0.757924  0.076908  1
  O  O48  1  0.773330  0.015406  0.423092  1
  O  O49  1  0.390052  0.509817  0.920938  1
  O  O50  1  0.015406  0.242076  0.923092  1
  O  O51  1  0.757924  0.773330  0.576908  1
  O  O52  1  0.242076  0.226670  0.423092  1
  O  O53  1  0.773330  0.015406  0.076908  1
  O  O54  1  0.289036  0.832341  0.750000  1
  O  O55  1  0.490183  0.880235  0.920938  1
  O  O56  1  0.167659  0.456695  0.750000  1
  O  O57  1  0.390052  0.509817  0.579062  1
  O  O58  1  0.242076  0.226670  0.076908  1
  O  O59  1  0.119765  0.609948  0.579062  1
  O  O60  1  0.666601  0.083141  0.750000  1
  O  O61  1  0.226670  0.984594  0.576908  1
