# generated using pymatgen
data_AsS2NF10
_symmetry_space_group_name_H-M   'P 1'
_cell_length_a   10.08460118
_cell_length_b   12.31436638
_cell_length_c   15.15133277
_cell_angle_alpha   90.00000000
_cell_angle_beta   90.00000000
_cell_angle_gamma   90.00000000
_symmetry_Int_Tables_number   1
_chemical_formula_structural   AsS2NF10
_chemical_formula_sum   'As8 S16 N8 F80'
_cell_volume   1881.57543763
_cell_formula_units_Z   8
loop_
 _symmetry_equiv_pos_site_id
 _symmetry_equiv_pos_as_xyz
  1  'x, y, z'
loop_
 _atom_site_type_symbol
 _atom_site_label
 _atom_site_symmetry_multiplicity
 _atom_site_fract_x
 _atom_site_fract_y
 _atom_site_fract_z
 _atom_site_occupancy
  As  As0  1  0.234511  0.613052  0.917324  1
  As  As1  1  0.265489  0.113052  0.917324  1
  As  As2  1  0.765489  0.113052  0.582676  1
  As  As3  1  0.265489  0.386948  0.417324  1
  As  As4  1  0.234511  0.886948  0.417324  1
  As  As5  1  0.734511  0.613052  0.582676  1
  As  As6  1  0.765489  0.386948  0.082676  1
  As  As7  1  0.734511  0.886948  0.082676  1
  S  S8  1  0.985731  0.334745  0.834819  1
  S  S9  1  0.014269  0.834745  0.665181  1
  S  S10  1  0.640877  0.844133  0.402680  1
  S  S11  1  0.014269  0.665255  0.165181  1
  S  S12  1  0.859123  0.155867  0.902680  1
  S  S13  1  0.359123  0.155867  0.597320  1
  S  S14  1  0.359123  0.344133  0.097320  1
  S  S15  1  0.485731  0.334745  0.665181  1
  S  S16  1  0.985731  0.165255  0.334819  1
  S  S17  1  0.140877  0.844133  0.097320  1
  S  S18  1  0.640877  0.655867  0.902680  1
  S  S19  1  0.859123  0.344133  0.402680  1
  S  S20  1  0.485731  0.165255  0.165181  1
  S  S21  1  0.140877  0.655867  0.597320  1
  S  S22  1  0.514269  0.665255  0.334819  1
  S  S23  1  0.514269  0.834745  0.834819  1
  N  N24  1  0.897795  0.230836  0.822780  1
  N  N25  1  0.397795  0.230836  0.677220  1
  N  N26  1  0.102205  0.730836  0.677220  1
  N  N27  1  0.102205  0.769164  0.177220  1
  N  N28  1  0.602205  0.769164  0.322780  1
  N  N29  1  0.602205  0.730836  0.822780  1
  N  N30  1  0.897795  0.269164  0.322780  1
  N  N31  1  0.397795  0.269164  0.177220  1
  F  F32  1  0.203585  0.149996  0.610840  1
  F  F33  1  0.303095  0.600188  0.810982  1
  F  F34  1  0.303095  0.899812  0.310982  1
  F  F35  1  0.303352  0.013212  0.449251  1
  F  F36  1  0.803352  0.486788  0.550749  1
  F  F37  1  0.328505  0.371042  0.527902  1
  F  F38  1  0.888597  0.458891  0.359985  1
  F  F39  1  0.919714  0.677499  0.248219  1
  F  F40  1  0.296415  0.850004  0.110840  1
  F  F41  1  0.893179  0.422765  0.790398  1
  F  F42  1  0.580286  0.177499  0.248219  1
  F  F43  1  0.884457  0.679388  0.546562  1
  F  F44  1  0.167653  0.758778  0.391155  1
  F  F45  1  0.913381  0.452128  0.115410  1
  F  F46  1  0.884457  0.820612  0.046562  1
  F  F47  1  0.196905  0.399812  0.310982  1
  F  F48  1  0.106821  0.922765  0.709602  1
  F  F49  1  0.303352  0.486788  0.949251  1
  F  F50  1  0.419714  0.677499  0.251781  1
  F  F51  1  0.606821  0.577235  0.290398  1
  F  F52  1  0.671495  0.871042  0.972098  1
  F  F53  1  0.196648  0.986788  0.949251  1
  F  F54  1  0.080286  0.177499  0.251781  1
  F  F55  1  0.615543  0.320612  0.046562  1
  F  F56  1  0.803095  0.600188  0.689018  1
  F  F57  1  0.893179  0.077235  0.290398  1
  F  F58  1  0.106821  0.577235  0.209602  1
  F  F59  1  0.586619  0.547872  0.615410  1
  F  F60  1  0.203585  0.350004  0.110840  1
  F  F61  1  0.328505  0.128958  0.027902  1
  F  F62  1  0.196648  0.513212  0.449251  1
  F  F63  1  0.332347  0.241222  0.891155  1
  F  F64  1  0.696905  0.399812  0.189018  1
  F  F65  1  0.667653  0.758778  0.108845  1
  F  F66  1  0.393179  0.422765  0.709602  1
  F  F67  1  0.111403  0.541109  0.640015  1
  F  F68  1  0.384457  0.679388  0.953438  1
  F  F69  1  0.696648  0.513212  0.050749  1
  F  F70  1  0.196905  0.100188  0.810982  1
  F  F71  1  0.413381  0.047872  0.884590  1
  F  F72  1  0.393179  0.077235  0.209602  1
  F  F73  1  0.086619  0.547872  0.884590  1
  F  F74  1  0.919714  0.822501  0.748219  1
  F  F75  1  0.796415  0.850004  0.389160  1
  F  F76  1  0.296415  0.649996  0.610840  1
  F  F77  1  0.388597  0.041109  0.640015  1
  F  F78  1  0.667653  0.741222  0.608845  1
  F  F79  1  0.171495  0.871042  0.527902  1
  F  F80  1  0.913381  0.047872  0.615410  1
  F  F81  1  0.332347  0.258778  0.391155  1
  F  F82  1  0.606821  0.922765  0.790398  1
  F  F83  1  0.419714  0.822501  0.751781  1
  F  F84  1  0.696648  0.986788  0.550749  1
  F  F85  1  0.413381  0.452128  0.384590  1
  F  F86  1  0.611403  0.541109  0.859985  1
  F  F87  1  0.703585  0.350004  0.389160  1
  F  F88  1  0.611403  0.958891  0.359985  1
  F  F89  1  0.803352  0.013212  0.050749  1
  F  F90  1  0.384457  0.820612  0.453438  1
  F  F91  1  0.832347  0.258778  0.108845  1
  F  F92  1  0.586619  0.952128  0.115410  1
  F  F93  1  0.580286  0.322501  0.748219  1
  F  F94  1  0.671495  0.628958  0.472098  1
  F  F95  1  0.803095  0.899812  0.189018  1
  F  F96  1  0.388597  0.458891  0.140015  1
  F  F97  1  0.828505  0.371042  0.972098  1
  F  F98  1  0.696905  0.100188  0.689018  1
  F  F99  1  0.111403  0.958891  0.140015  1
  F  F100  1  0.703585  0.149996  0.889160  1
  F  F101  1  0.086619  0.952128  0.384590  1
  F  F102  1  0.080286  0.322501  0.751781  1
  F  F103  1  0.832347  0.241222  0.608845  1
  F  F104  1  0.167653  0.741222  0.891155  1
  F  F105  1  0.615543  0.179388  0.546562  1
  F  F106  1  0.171495  0.628958  0.027902  1
  F  F107  1  0.115543  0.320612  0.453438  1
  F  F108  1  0.828505  0.128958  0.472098  1
  F  F109  1  0.796415  0.649996  0.889160  1
  F  F110  1  0.115543  0.179388  0.953438  1
  F  F111  1  0.888597  0.041109  0.859985  1
