# generated using pymatgen
data_Na3WO4F
_symmetry_space_group_name_H-M   'P 1'
_cell_length_a   5.71498028
_cell_length_b   7.65141537
_cell_length_c   13.08383612
_cell_angle_alpha   90.00000000
_cell_angle_beta   90.00000000
_cell_angle_gamma   90.00000000
_symmetry_Int_Tables_number   1
_chemical_formula_structural   Na3WO4F
_chemical_formula_sum   'Na12 W4 O16 F4'
_cell_volume   572.12590309
_cell_formula_units_Z   4
loop_
 _symmetry_equiv_pos_site_id
 _symmetry_equiv_pos_as_xyz
  1  'x, y, z'
loop_
 _atom_site_type_symbol
 _atom_site_label
 _atom_site_symmetry_multiplicity
 _atom_site_fract_x
 _atom_site_fract_y
 _atom_site_fract_z
 _atom_site_occupancy
  Na  Na0  1  0.774724  0.458340  0.819783  1
  Na  Na1  1  0.225276  0.958340  0.180217  1
  Na  Na2  1  0.276404  0.750000  0.392306  1
  Na  Na3  1  0.725276  0.541660  0.319783  1
  Na  Na4  1  0.774724  0.041660  0.819783  1
  Na  Na5  1  0.776404  0.750000  0.107694  1
  Na  Na6  1  0.723596  0.250000  0.607694  1
  Na  Na7  1  0.274724  0.458340  0.680217  1
  Na  Na8  1  0.223596  0.250000  0.892306  1
  Na  Na9  1  0.725276  0.958340  0.319783  1
  Na  Na10  1  0.274724  0.041660  0.680217  1
  Na  Na11  1  0.225276  0.541660  0.180217  1
  W  W12  1  0.288399  0.750000  0.915708  1
  W  W13  1  0.788399  0.750000  0.584292  1
  W  W14  1  0.211601  0.250000  0.415708  1
  W  W15  1  0.711601  0.250000  0.084292  1
  O  O16  1  0.313677  0.443547  0.348766  1
  O  O17  1  0.673586  0.750000  0.454965  1
  O  O18  1  0.186323  0.556453  0.848766  1
  O  O19  1  0.186323  0.943547  0.848766  1
  O  O20  1  0.892457  0.250000  0.420627  1
  O  O21  1  0.813677  0.056453  0.151234  1
  O  O22  1  0.107543  0.750000  0.579373  1
  O  O23  1  0.392457  0.250000  0.079373  1
  O  O24  1  0.813677  0.443547  0.151234  1
  O  O25  1  0.686323  0.943547  0.651234  1
  O  O26  1  0.826414  0.250000  0.954965  1
  O  O27  1  0.607543  0.750000  0.920627  1
  O  O28  1  0.326414  0.250000  0.545035  1
  O  O29  1  0.686323  0.556453  0.651234  1
  O  O30  1  0.173586  0.750000  0.045035  1
  O  O31  1  0.313677  0.056453  0.348766  1
  F  F32  1  0.002540  0.250000  0.730410  1
  F  F33  1  0.997460  0.750000  0.269590  1
  F  F34  1  0.497460  0.750000  0.230410  1
  F  F35  1  0.502540  0.250000  0.769590  1
