# generated using pymatgen
data_GeSe2
_symmetry_space_group_name_H-M   'P 1'
_cell_length_a   7.20019779
_cell_length_b   17.25089389
_cell_length_c   12.89870701
_cell_angle_alpha   90.00000000
_cell_angle_beta   90.85330497
_cell_angle_gamma   90.00000000
_symmetry_Int_Tables_number   1
_chemical_formula_structural   GeSe2
_chemical_formula_sum   'Ge16 Se32'
_cell_volume   1601.96876226
_cell_formula_units_Z   16
loop_
 _symmetry_equiv_pos_site_id
 _symmetry_equiv_pos_as_xyz
  1  'x, y, z'
loop_
 _atom_site_type_symbol
 _atom_site_label
 _atom_site_symmetry_multiplicity
 _atom_site_fract_x
 _atom_site_fract_y
 _atom_site_fract_z
 _atom_site_occupancy
  Ge  Ge0  1  0.339724  0.845728  0.223875  1
  Ge  Ge1  1  0.660276  0.345728  0.276125  1
  Ge  Ge2  1  0.660276  0.154272  0.776125  1
  Ge  Ge3  1  0.339724  0.654272  0.723875  1
  Ge  Ge4  1  0.165417  0.849879  0.775426  1
  Ge  Ge5  1  0.834583  0.349879  0.724574  1
  Ge  Ge6  1  0.834583  0.150121  0.224574  1
  Ge  Ge7  1  0.165417  0.650121  0.275426  1
  Ge  Ge8  1  0.837915  0.999750  0.705967  1
  Ge  Ge9  1  0.162085  0.499750  0.794033  1
  Ge  Ge10  1  0.162085  0.000250  0.294033  1
  Ge  Ge11  1  0.837915  0.500250  0.205967  1
  Ge  Ge12  1  0.667816  0.689976  0.275120  1
  Ge  Ge13  1  0.332184  0.189976  0.224880  1
  Ge  Ge14  1  0.332184  0.310024  0.724880  1
  Ge  Ge15  1  0.667816  0.810024  0.775120  1
  Se  Se16  1  0.667044  0.820547  0.211493  1
  Se  Se17  1  0.332956  0.320547  0.288507  1
  Se  Se18  1  0.332956  0.179453  0.788507  1
  Se  Se19  1  0.667044  0.679453  0.711493  1
  Se  Se20  1  0.276427  0.962165  0.127417  1
  Se  Se21  1  0.723573  0.462165  0.372583  1
  Se  Se22  1  0.723573  0.037835  0.872583  1
  Se  Se23  1  0.276427  0.537835  0.627417  1
  Se  Se24  1  0.230957  0.884954  0.391281  1
  Se  Se25  1  0.769043  0.384954  0.108719  1
  Se  Se26  1  0.769043  0.115046  0.608719  1
  Se  Se27  1  0.230957  0.615046  0.891281  1
  Se  Se28  1  0.159470  0.744848  0.140530  1
  Se  Se29  1  0.840530  0.244848  0.359470  1
  Se  Se30  1  0.840530  0.255152  0.859470  1
  Se  Se31  1  0.159470  0.755152  0.640530  1
  Se  Se32  1  0.417964  0.670439  0.394444  1
  Se  Se33  1  0.582036  0.170439  0.105556  1
  Se  Se34  1  0.582036  0.329561  0.605556  1
  Se  Se35  1  0.417964  0.829561  0.894444  1
  Se  Se36  1  0.914864  0.661763  0.395537  1
  Se  Se37  1  0.085136  0.161763  0.104463  1
  Se  Se38  1  0.085136  0.338237  0.604463  1
  Se  Se39  1  0.914864  0.838237  0.895537  1
  Se  Se40  1  0.669124  0.606511  0.127614  1
  Se  Se41  1  0.330876  0.106511  0.372386  1
  Se  Se42  1  0.330876  0.393489  0.872386  1
  Se  Se43  1  0.669124  0.893489  0.627614  1
  Se  Se44  1  0.166212  0.524076  0.196632  1
  Se  Se45  1  0.833788  0.024076  0.303368  1
  Se  Se46  1  0.833788  0.475924  0.803368  1
  Se  Se47  1  0.166212  0.975924  0.696632  1
