# generated using pymatgen
data_Ag(BCl)6
_symmetry_space_group_name_H-M   'P 1'
_cell_length_a   12.60898275
_cell_length_b   12.60898275
_cell_length_c   12.60898275
_cell_angle_alpha   90.00000000
_cell_angle_beta   90.00000000
_cell_angle_gamma   90.00000000
_symmetry_Int_Tables_number   1
_chemical_formula_structural   Ag(BCl)6
_chemical_formula_sum   'Ag8 B48 Cl48'
_cell_volume   2004.65735497
_cell_formula_units_Z   8
loop_
 _symmetry_equiv_pos_site_id
 _symmetry_equiv_pos_as_xyz
  1  'x, y, z'
loop_
 _atom_site_type_symbol
 _atom_site_label
 _atom_site_symmetry_multiplicity
 _atom_site_fract_x
 _atom_site_fract_y
 _atom_site_fract_z
 _atom_site_occupancy
  Ag  Ag0  1  0.632898  0.632898  0.632898  1
  Ag  Ag1  1  0.632898  0.867102  0.132898  1
  Ag  Ag2  1  0.132898  0.867102  0.367102  1
  Ag  Ag3  1  0.867102  0.367102  0.132898  1
  Ag  Ag4  1  0.367102  0.367102  0.367102  1
  Ag  Ag5  1  0.132898  0.632898  0.867102  1
  Ag  Ag6  1  0.867102  0.132898  0.632898  1
  Ag  Ag7  1  0.367102  0.132898  0.867102  1
  B  B8  1  0.906915  0.071880  0.065259  1
  B  B9  1  0.129483  0.472852  0.530420  1
  B  B10  1  0.428120  0.565259  0.906915  1
  B  B11  1  0.071880  0.065259  0.906915  1
  B  B12  1  0.406915  0.071880  0.434741  1
  B  B13  1  0.593085  0.928120  0.565259  1
  B  B14  1  0.027148  0.030420  0.129483  1
  B  B15  1  0.030420  0.129483  0.027148  1
  B  B16  1  0.571880  0.065259  0.593085  1
  B  B17  1  0.472852  0.530420  0.129483  1
  B  B18  1  0.928120  0.565259  0.593085  1
  B  B19  1  0.428120  0.934741  0.406915  1
  B  B20  1  0.469580  0.629483  0.027148  1
  B  B21  1  0.469580  0.870517  0.527148  1
  B  B22  1  0.934741  0.406915  0.428120  1
  B  B23  1  0.093085  0.928120  0.934741  1
  B  B24  1  0.065259  0.593085  0.571880  1
  B  B25  1  0.071880  0.434741  0.406915  1
  B  B26  1  0.093085  0.571880  0.434741  1
  B  B27  1  0.629483  0.027148  0.469580  1
  B  B28  1  0.530420  0.370517  0.972852  1
  B  B29  1  0.065259  0.906915  0.071880  1
  B  B30  1  0.527148  0.030420  0.370517  1
  B  B31  1  0.906915  0.428120  0.565259  1
  B  B32  1  0.030420  0.370517  0.527148  1
  B  B33  1  0.928120  0.934741  0.093085  1
  B  B34  1  0.629483  0.472852  0.969580  1
  B  B35  1  0.972852  0.530420  0.370517  1
  B  B36  1  0.870517  0.527148  0.469580  1
  B  B37  1  0.406915  0.428120  0.934741  1
  B  B38  1  0.027148  0.469580  0.629483  1
  B  B39  1  0.593085  0.571880  0.065259  1
  B  B40  1  0.565259  0.593085  0.928120  1
  B  B41  1  0.434741  0.406915  0.071880  1
  B  B42  1  0.565259  0.906915  0.428120  1
  B  B43  1  0.972852  0.969580  0.870517  1
  B  B44  1  0.370517  0.527148  0.030420  1
  B  B45  1  0.969580  0.629483  0.472852  1
  B  B46  1  0.527148  0.469580  0.870517  1
  B  B47  1  0.434741  0.093085  0.571880  1
  B  B48  1  0.969580  0.870517  0.972852  1
  B  B49  1  0.129483  0.027148  0.030420  1
  B  B50  1  0.870517  0.972852  0.969580  1
  B  B51  1  0.571880  0.434741  0.093085  1
  B  B52  1  0.934741  0.093085  0.928120  1
  B  B53  1  0.370517  0.972852  0.530420  1
  B  B54  1  0.530420  0.129483  0.472852  1
  B  B55  1  0.472852  0.969580  0.629483  1
  Cl  Cl56  1  0.806571  0.147562  0.131281  1
  Cl  Cl57  1  0.732595  0.553335  0.443046  1
  Cl  Cl58  1  0.647562  0.368719  0.193429  1
  Cl  Cl59  1  0.056954  0.232595  0.553335  1
  Cl  Cl60  1  0.946665  0.556954  0.232595  1
  Cl  Cl61  1  0.553335  0.443046  0.732595  1
  Cl  Cl62  1  0.556954  0.232595  0.946665  1
  Cl  Cl63  1  0.056954  0.267405  0.053335  1
  Cl  Cl64  1  0.443046  0.732595  0.553335  1
  Cl  Cl65  1  0.943046  0.767405  0.446665  1
  Cl  Cl66  1  0.193429  0.647562  0.368719  1
  Cl  Cl67  1  0.852438  0.868719  0.193429  1
  Cl  Cl68  1  0.446665  0.556954  0.267405  1
  Cl  Cl69  1  0.053335  0.443046  0.767405  1
  Cl  Cl70  1  0.446665  0.943046  0.767405  1
  Cl  Cl71  1  0.946665  0.943046  0.732595  1
  Cl  Cl72  1  0.368719  0.306571  0.147562  1
  Cl  Cl73  1  0.131281  0.693429  0.647562  1
  Cl  Cl74  1  0.131281  0.806571  0.147562  1
  Cl  Cl75  1  0.631281  0.693429  0.852438  1
  Cl  Cl76  1  0.352438  0.631281  0.806571  1
  Cl  Cl77  1  0.306571  0.147562  0.368719  1
  Cl  Cl78  1  0.232595  0.946665  0.556954  1
  Cl  Cl79  1  0.693429  0.647562  0.131281  1
  Cl  Cl80  1  0.147562  0.368719  0.306571  1
  Cl  Cl81  1  0.352438  0.868719  0.306571  1
  Cl  Cl82  1  0.443046  0.767405  0.053335  1
  Cl  Cl83  1  0.852438  0.631281  0.693429  1
  Cl  Cl84  1  0.553335  0.056954  0.232595  1
  Cl  Cl85  1  0.647562  0.131281  0.693429  1
  Cl  Cl86  1  0.868719  0.193429  0.852438  1
  Cl  Cl87  1  0.267405  0.053335  0.056954  1
  Cl  Cl88  1  0.306571  0.352438  0.868719  1
  Cl  Cl89  1  0.193429  0.852438  0.868719  1
  Cl  Cl90  1  0.693429  0.852438  0.631281  1
  Cl  Cl91  1  0.267405  0.446665  0.556954  1
  Cl  Cl92  1  0.631281  0.806571  0.352438  1
  Cl  Cl93  1  0.868719  0.306571  0.352438  1
  Cl  Cl94  1  0.368719  0.193429  0.647562  1
  Cl  Cl95  1  0.943046  0.732595  0.946665  1
  Cl  Cl96  1  0.053335  0.056954  0.267405  1
  Cl  Cl97  1  0.806571  0.352438  0.631281  1
  Cl  Cl98  1  0.147562  0.131281  0.806571  1
  Cl  Cl99  1  0.767405  0.053335  0.443046  1
  Cl  Cl100  1  0.767405  0.446665  0.943046  1
  Cl  Cl101  1  0.556954  0.267405  0.446665  1
  Cl  Cl102  1  0.232595  0.553335  0.056954  1
  Cl  Cl103  1  0.732595  0.946665  0.943046  1
