# generated using pymatgen
data_Na5Ca2Al(PO4)4
_symmetry_space_group_name_H-M   'P 1'
_cell_length_a   9.00807036
_cell_length_b   9.00807036
_cell_length_c   10.62144983
_cell_angle_alpha   72.24236270
_cell_angle_beta   107.75763730
_cell_angle_gamma   77.00186520
_symmetry_Int_Tables_number   1
_chemical_formula_structural   Na5Ca2Al(PO4)4
_chemical_formula_sum   'Na10 Ca4 Al2 P8 O32'
_cell_volume   732.10601560
_cell_formula_units_Z   2
loop_
 _symmetry_equiv_pos_site_id
 _symmetry_equiv_pos_as_xyz
  1  'x, y, z'
loop_
 _atom_site_type_symbol
 _atom_site_label
 _atom_site_symmetry_multiplicity
 _atom_site_fract_x
 _atom_site_fract_y
 _atom_site_fract_z
 _atom_site_occupancy
  Na  Na0  1  0.579284  0.679381  0.442706  1
  Na  Na1  1  0.772278  0.256105  0.617831  1
  Na  Na2  1  0.320619  0.420716  0.942706  1
  Na  Na3  1  0.887217  0.757478  0.275127  1
  Na  Na4  1  0.815632  0.926418  0.486797  1
  Na  Na5  1  0.073582  0.184368  0.986797  1
  Na  Na6  1  0.281127  0.731218  0.629356  1
  Na  Na7  1  0.743895  0.227722  0.117831  1
  Na  Na8  1  0.268782  0.718873  0.129356  1
  Na  Na9  1  0.242522  0.112783  0.775127  1
  Ca  Ca10  1  0.014430  0.199976  0.428818  1
  Ca  Ca11  1  0.800024  0.985570  0.928818  1
  Ca  Ca12  1  0.551406  0.668558  0.969969  1
  Ca  Ca13  1  0.331442  0.448594  0.469969  1
  Al  Al14  1  0.408131  0.073744  0.333048  1
  Al  Al15  1  0.926256  0.591869  0.833048  1
  P  P16  1  0.472129  0.031913  0.631050  1
  P  P17  1  0.014455  0.497289  0.604808  1
  P  P18  1  0.068153  0.870726  0.784197  1
  P  P19  1  0.554440  0.356810  0.290369  1
  P  P20  1  0.643190  0.445560  0.790369  1
  P  P21  1  0.968087  0.527871  0.131050  1
  P  P22  1  0.129274  0.931847  0.284197  1
  P  P23  1  0.502711  0.985545  0.104808  1
  O  O24  1  0.480630  0.825099  0.093537  1
  O  O25  1  0.201679  0.080250  0.261529  1
  O  O26  1  0.274316  0.766556  0.385886  1
  O  O27  1  0.607408  0.102141  0.686062  1
  O  O28  1  0.174901  0.519370  0.593537  1
  O  O29  1  0.037793  0.465695  0.768605  1
  O  O30  1  0.567212  0.468342  0.632263  1
  O  O31  1  0.045881  0.489723  0.023041  1
  O  O32  1  0.459206  0.900505  0.755254  1
  O  O33  1  0.509853  0.487069  0.849210  1
  O  O34  1  0.661095  0.006425  0.085004  1
  O  O35  1  0.730102  0.223043  0.387344  1
  O  O36  1  0.233444  0.725684  0.885886  1
  O  O37  1  0.727945  0.581307  0.794954  1
  O  O38  1  0.998986  0.975892  0.346312  1
  O  O39  1  0.531658  0.432788  0.132263  1
  O  O40  1  0.024108  0.001014  0.846312  1
  O  O41  1  0.776957  0.269898  0.887344  1
  O  O42  1  0.510277  0.954119  0.523041  1
  O  O43  1  0.299884  0.177271  0.541159  1
  O  O44  1  0.066692  0.956319  0.633699  1
  O  O45  1  0.897859  0.392592  0.186062  1
  O  O46  1  0.822729  0.700116  0.041159  1
  O  O47  1  0.993575  0.338905  0.585004  1
  O  O48  1  0.919750  0.798321  0.761529  1
  O  O49  1  0.418693  0.272055  0.294954  1
  O  O50  1  0.346052  0.139978  0.000826  1
  O  O51  1  0.043681  0.933308  0.133699  1
  O  O52  1  0.860022  0.653948  0.500826  1
  O  O53  1  0.099495  0.540794  0.255254  1
  O  O54  1  0.534305  0.962207  0.268605  1
  O  O55  1  0.512931  0.490147  0.349210  1
