# generated using pymatgen
data_Lu(PO3)3
_symmetry_space_group_name_H-M   'P 1'
_cell_length_a   12.87231440
_cell_length_b   12.87231440
_cell_length_c   12.87231440
_cell_angle_alpha   110.44552574
_cell_angle_beta   110.44552574
_cell_angle_gamma   110.44552574
_symmetry_Int_Tables_number   1
_chemical_formula_structural   Lu(PO3)3
_chemical_formula_sum   'Lu8 P24 O72'
_cell_volume   1579.90653746
_cell_formula_units_Z   8
loop_
 _symmetry_equiv_pos_site_id
 _symmetry_equiv_pos_as_xyz
  1  'x, y, z'
loop_
 _atom_site_type_symbol
 _atom_site_label
 _atom_site_symmetry_multiplicity
 _atom_site_fract_x
 _atom_site_fract_y
 _atom_site_fract_z
 _atom_site_occupancy
  Lu  Lu0  1  0.021254  0.538334  0.731552  1
  Lu  Lu1  1  0.500000  0.500000  0.500000  1
  Lu  Lu2  1  0.978746  0.461666  0.268448  1
  Lu  Lu3  1  0.731552  0.021254  0.538334  1
  Lu  Lu4  1  0.461666  0.268448  0.978746  1
  Lu  Lu5  1  0.268448  0.978746  0.461666  1
  Lu  Lu6  1  0.538334  0.731552  0.021254  1
  Lu  Lu7  1  0.000000  0.000000  0.000000  1
  P  P8  1  0.329762  0.377346  0.791250  1
  P  P9  1  0.208750  0.670238  0.622654  1
  P  P10  1  0.269903  0.518096  0.271606  1
  P  P11  1  0.271606  0.269903  0.518096  1
  P  P12  1  0.287217  0.765922  0.067167  1
  P  P13  1  0.200158  0.296979  0.017548  1
  P  P14  1  0.799842  0.703021  0.982452  1
  P  P15  1  0.982452  0.799842  0.703021  1
  P  P16  1  0.067167  0.287217  0.765922  1
  P  P17  1  0.703021  0.982452  0.799842  1
  P  P18  1  0.234078  0.932834  0.712783  1
  P  P19  1  0.518096  0.271606  0.269903  1
  P  P20  1  0.481904  0.728394  0.730097  1
  P  P21  1  0.712783  0.234078  0.932833  1
  P  P22  1  0.765922  0.067167  0.287217  1
  P  P23  1  0.791250  0.329762  0.377346  1
  P  P24  1  0.730097  0.481904  0.728394  1
  P  P25  1  0.017548  0.200158  0.296979  1
  P  P26  1  0.670238  0.622654  0.208750  1
  P  P27  1  0.377346  0.791250  0.329762  1
  P  P28  1  0.728394  0.730097  0.481904  1
  P  P29  1  0.932833  0.712783  0.234078  1
  P  P30  1  0.296979  0.017548  0.200158  1
  P  P31  1  0.622654  0.208750  0.670238  1
  O  O32  1  0.273373  0.437371  0.147462  1
  O  O33  1  0.861274  0.497821  0.767093  1
  O  O34  1  0.599544  0.688642  0.175464  1
  O  O35  1  0.189729  0.020476  0.107308  1
  O  O36  1  0.325677  0.055064  0.847114  1
  O  O37  1  0.672903  0.509788  0.626011  1
  O  O38  1  0.318153  0.376661  0.662831  1
  O  O39  1  0.497821  0.767093  0.861274  1
  O  O40  1  0.824536  0.400456  0.311358  1
  O  O41  1  0.720186  0.259166  0.821229  1
  O  O42  1  0.304069  0.285491  0.996859  1
  O  O43  1  0.175464  0.599544  0.688642  1
  O  O44  1  0.726627  0.562629  0.852538  1
  O  O45  1  0.516962  0.890730  0.384102  1
  O  O46  1  0.600530  0.237298  0.940165  1
  O  O47  1  0.740834  0.178771  0.279814  1
  O  O48  1  0.881165  0.676929  0.086179  1
  O  O49  1  0.810271  0.979524  0.892692  1
  O  O50  1  0.055064  0.847114  0.325677  1
  O  O51  1  0.847114  0.325677  0.055064  1
  O  O52  1  0.490212  0.373989  0.327097  1
  O  O53  1  0.086179  0.881165  0.676929  1
  O  O54  1  0.913821  0.118835  0.323071  1
  O  O55  1  0.674323  0.944936  0.152886  1
  O  O56  1  0.178771  0.279814  0.740834  1
  O  O57  1  0.437371  0.147462  0.273373  1
  O  O58  1  0.821229  0.720186  0.259166  1
  O  O59  1  0.623339  0.337169  0.681847  1
  O  O60  1  0.003141  0.695931  0.714509  1
  O  O61  1  0.714509  0.003141  0.695931  1
  O  O62  1  0.138726  0.502179  0.232907  1
  O  O63  1  0.562629  0.852538  0.726627  1
  O  O64  1  0.020476  0.107308  0.189729  1
  O  O65  1  0.502179  0.232907  0.138726  1
  O  O66  1  0.323071  0.913821  0.118835  1
  O  O67  1  0.237298  0.940165  0.600530  1
  O  O68  1  0.662831  0.318153  0.376661  1
  O  O69  1  0.311358  0.824536  0.400456  1
  O  O70  1  0.384102  0.516962  0.890730  1
  O  O71  1  0.615898  0.483038  0.109270  1
  O  O72  1  0.059835  0.399470  0.762702  1
  O  O73  1  0.767093  0.861274  0.497821  1
  O  O74  1  0.279814  0.740834  0.178771  1
  O  O75  1  0.259166  0.821229  0.720186  1
  O  O76  1  0.626011  0.672903  0.509788  1
  O  O77  1  0.996859  0.304069  0.285491  1
  O  O78  1  0.376661  0.662831  0.318153  1
  O  O79  1  0.107308  0.189729  0.020476  1
  O  O80  1  0.681847  0.623339  0.337169  1
  O  O81  1  0.147462  0.273373  0.437371  1
  O  O82  1  0.695931  0.714509  0.003141  1
  O  O83  1  0.890730  0.384102  0.516962  1
  O  O84  1  0.232907  0.138726  0.502179  1
  O  O85  1  0.152886  0.674323  0.944936  1
  O  O86  1  0.852538  0.726627  0.562629  1
  O  O87  1  0.337169  0.681847  0.623339  1
  O  O88  1  0.118835  0.323071  0.913821  1
  O  O89  1  0.109270  0.615898  0.483038  1
  O  O90  1  0.399470  0.762702  0.059835  1
  O  O91  1  0.400456  0.311358  0.824536  1
  O  O92  1  0.762702  0.059835  0.399470  1
  O  O93  1  0.688642  0.175464  0.599544  1
  O  O94  1  0.676929  0.086179  0.881165  1
  O  O95  1  0.285491  0.996859  0.304069  1
  O  O96  1  0.940165  0.600530  0.237298  1
  O  O97  1  0.373989  0.327097  0.490212  1
  O  O98  1  0.892692  0.810271  0.979524  1
  O  O99  1  0.509788  0.626011  0.672903  1
  O  O100  1  0.944936  0.152886  0.674323  1
  O  O101  1  0.483038  0.109270  0.615898  1
  O  O102  1  0.327097  0.490212  0.373989  1
  O  O103  1  0.979524  0.892692  0.810271  1
