# generated using pymatgen
data_Rb2HfS4
_symmetry_space_group_name_H-M   'P 1'
_cell_length_a   6.78008359
_cell_length_b   9.88729747
_cell_length_c   24.32735393
_cell_angle_alpha   90.00000000
_cell_angle_beta   90.00000000
_cell_angle_gamma   90.00000000
_symmetry_Int_Tables_number   1
_chemical_formula_structural   Rb2HfS4
_chemical_formula_sum   'Rb16 Hf8 S32'
_cell_volume   1630.82560811
_cell_formula_units_Z   8
loop_
 _symmetry_equiv_pos_site_id
 _symmetry_equiv_pos_as_xyz
  1  'x, y, z'
loop_
 _atom_site_type_symbol
 _atom_site_label
 _atom_site_symmetry_multiplicity
 _atom_site_fract_x
 _atom_site_fract_y
 _atom_site_fract_z
 _atom_site_occupancy
  Rb  Rb0  1  0.307167  0.858274  0.466370  1
  Rb  Rb1  1  0.545800  0.927781  0.300853  1
  Rb  Rb2  1  0.045800  0.072219  0.199147  1
  Rb  Rb3  1  0.807167  0.641726  0.466370  1
  Rb  Rb4  1  0.045800  0.572219  0.300853  1
  Rb  Rb5  1  0.192833  0.358274  0.533630  1
  Rb  Rb6  1  0.454200  0.572219  0.800853  1
  Rb  Rb7  1  0.307167  0.358274  0.033630  1
  Rb  Rb8  1  0.954200  0.927781  0.800853  1
  Rb  Rb9  1  0.192833  0.858274  0.966370  1
  Rb  Rb10  1  0.692833  0.641726  0.966370  1
  Rb  Rb11  1  0.454200  0.072219  0.699147  1
  Rb  Rb12  1  0.807167  0.141726  0.033630  1
  Rb  Rb13  1  0.545800  0.427781  0.199147  1
  Rb  Rb14  1  0.954200  0.427781  0.699147  1
  Rb  Rb15  1  0.692833  0.141726  0.533630  1
  Hf  Hf16  1  0.033381  0.674598  0.130776  1
  Hf  Hf17  1  0.533381  0.825402  0.130776  1
  Hf  Hf18  1  0.466619  0.674598  0.630776  1
  Hf  Hf19  1  0.466619  0.174598  0.869224  1
  Hf  Hf20  1  0.533381  0.325402  0.369224  1
  Hf  Hf21  1  0.966619  0.825402  0.630776  1
  Hf  Hf22  1  0.966619  0.325402  0.869224  1
  Hf  Hf23  1  0.033381  0.174598  0.369224  1
  S  S24  1  0.051779  0.422463  0.158756  1
  S  S25  1  0.448221  0.422463  0.658756  1
  S  S26  1  0.948221  0.577537  0.841244  1
  S  S27  1  0.876112  0.460239  0.088736  1
  S  S28  1  0.767736  0.728791  0.199919  1
  S  S29  1  0.123888  0.539761  0.911264  1
  S  S30  1  0.655803  0.328340  0.931069  1
  S  S31  1  0.551779  0.577537  0.341244  1
  S  S32  1  0.123888  0.039761  0.588736  1
  S  S33  1  0.655803  0.828340  0.568931  1
  S  S34  1  0.344197  0.171660  0.431069  1
  S  S35  1  0.232264  0.271209  0.800081  1
  S  S36  1  0.051779  0.922463  0.341244  1
  S  S37  1  0.155803  0.171660  0.931069  1
  S  S38  1  0.376112  0.539761  0.411264  1
  S  S39  1  0.267736  0.271209  0.300081  1
  S  S40  1  0.732264  0.728791  0.699919  1
  S  S41  1  0.623888  0.960239  0.911264  1
  S  S42  1  0.876112  0.960239  0.411264  1
  S  S43  1  0.232264  0.771209  0.699919  1
  S  S44  1  0.767736  0.228791  0.300081  1
  S  S45  1  0.623888  0.460239  0.588736  1
  S  S46  1  0.732264  0.228791  0.800081  1
  S  S47  1  0.948221  0.077537  0.658756  1
  S  S48  1  0.844197  0.328340  0.431069  1
  S  S49  1  0.551779  0.077537  0.158756  1
  S  S50  1  0.155803  0.671660  0.568931  1
  S  S51  1  0.844197  0.828340  0.068931  1
  S  S52  1  0.344197  0.671660  0.068931  1
  S  S53  1  0.448221  0.922463  0.841244  1
  S  S54  1  0.267736  0.771209  0.199919  1
  S  S55  1  0.376112  0.039761  0.088736  1
