# generated using pymatgen
data_AsS
_symmetry_space_group_name_H-M   'P 1'
_cell_length_a   7.12719768
_cell_length_b   14.70253121
_cell_length_c   10.38767601
_cell_angle_alpha   90.00000000
_cell_angle_beta   114.86117487
_cell_angle_gamma   90.00000000
_symmetry_Int_Tables_number   1
_chemical_formula_structural   AsS
_chemical_formula_sum   'As16 S16'
_cell_volume   987.62973146
_cell_formula_units_Z   16
loop_
 _symmetry_equiv_pos_site_id
 _symmetry_equiv_pos_as_xyz
  1  'x, y, z'
loop_
 _atom_site_type_symbol
 _atom_site_label
 _atom_site_symmetry_multiplicity
 _atom_site_fract_x
 _atom_site_fract_y
 _atom_site_fract_z
 _atom_site_occupancy
  As  As0  1  0.348399  0.514537  0.623123  1
  As  As1  1  0.152778  0.126345  0.311184  1
  As  As2  1  0.684199  0.656570  0.460264  1
  As  As3  1  0.315801  0.343430  0.539736  1
  As  As4  1  0.847222  0.626345  0.188816  1
  As  As5  1  0.348399  0.985463  0.123123  1
  As  As6  1  0.315801  0.156570  0.039736  1
  As  As7  1  0.684199  0.843430  0.960264  1
  As  As8  1  0.651601  0.485463  0.376877  1
  As  As9  1  0.558062  0.362462  0.910046  1
  As  As10  1  0.152778  0.373655  0.811184  1
  As  As11  1  0.441938  0.862462  0.589954  1
  As  As12  1  0.441938  0.637538  0.089954  1
  As  As13  1  0.558062  0.137538  0.410046  1
  As  As14  1  0.847222  0.873655  0.688816  1
  As  As15  1  0.651601  0.014537  0.876877  1
  S  S16  1  0.421230  0.783412  0.769956  1
  S  S17  1  0.109688  0.985932  0.213044  1
  S  S18  1  0.621184  0.499089  0.836279  1
  S  S19  1  0.065970  0.201785  0.104818  1
  S  S20  1  0.890312  0.014068  0.786956  1
  S  S21  1  0.378816  0.999089  0.663721  1
  S  S22  1  0.621184  0.000911  0.336279  1
  S  S23  1  0.109688  0.514068  0.713044  1
  S  S24  1  0.421230  0.716588  0.269956  1
  S  S25  1  0.934030  0.798215  0.895182  1
  S  S26  1  0.578770  0.283412  0.730044  1
  S  S27  1  0.065970  0.298215  0.604818  1
  S  S28  1  0.934030  0.701785  0.395182  1
  S  S29  1  0.378816  0.500911  0.163721  1
  S  S30  1  0.890312  0.485932  0.286956  1
  S  S31  1  0.578770  0.216588  0.230044  1
