# generated using pymatgen
data_Hg2MoO4
_symmetry_space_group_name_H-M   'P 1'
_cell_length_a   7.49797123
_cell_length_b   7.49797123
_cell_length_c   5.05743500
_cell_angle_alpha   75.01753582
_cell_angle_beta   104.98246418
_cell_angle_gamma   73.16994237
_symmetry_Int_Tables_number   1
_chemical_formula_structural   Hg2MoO4
_chemical_formula_sum   'Hg4 Mo2 O8'
_cell_volume   245.21433963
_cell_formula_units_Z   2
loop_
 _symmetry_equiv_pos_site_id
 _symmetry_equiv_pos_as_xyz
  1  'x, y, z'
loop_
 _atom_site_type_symbol
 _atom_site_label
 _atom_site_symmetry_multiplicity
 _atom_site_fract_x
 _atom_site_fract_y
 _atom_site_fract_z
 _atom_site_occupancy
  Hg  Hg0  1  0.246269  0.533538  0.520897  1
  Hg  Hg1  1  0.533538  0.246269  0.979103  1
  Hg  Hg2  1  0.753731  0.466462  0.479103  1
  Hg  Hg3  1  0.466462  0.753731  0.020897  1
  Mo  Mo4  1  0.098505  0.098505  0.250000  1
  Mo  Mo5  1  0.901495  0.901495  0.750000  1
  O  O6  1  0.948229  0.669472  0.699071  1
  O  O7  1  0.051771  0.330528  0.300929  1
  O  O8  1  0.911365  0.182807  0.854943  1
  O  O9  1  0.817193  0.088635  0.354943  1
  O  O10  1  0.330528  0.051771  0.199071  1
  O  O11  1  0.182807  0.911365  0.645057  1
  O  O12  1  0.088635  0.817193  0.145057  1
  O  O13  1  0.669472  0.948229  0.800929  1
