# generated using pymatgen
data_Cs2MgH12(SO7)2
_symmetry_space_group_name_H-M   'P 1'
_cell_length_a   6.42130360
_cell_length_b   12.97004324
_cell_length_c   9.39430520
_cell_angle_alpha   90.00000000
_cell_angle_beta   106.66366042
_cell_angle_gamma   90.00000000
_symmetry_Int_Tables_number   1
_chemical_formula_structural   Cs2MgH12(SO7)2
_chemical_formula_sum   'Cs4 Mg2 H24 S4 O28'
_cell_volume   749.54354601
_cell_formula_units_Z   2
loop_
 _symmetry_equiv_pos_site_id
 _symmetry_equiv_pos_as_xyz
  1  'x, y, z'
loop_
 _atom_site_type_symbol
 _atom_site_label
 _atom_site_symmetry_multiplicity
 _atom_site_fract_x
 _atom_site_fract_y
 _atom_site_fract_z
 _atom_site_occupancy
  Cs  Cs0  1  0.648238  0.356861  0.872934  1
  Cs  Cs1  1  0.351762  0.856861  0.627066  1
  Cs  Cs2  1  0.351762  0.643139  0.127066  1
  Cs  Cs3  1  0.648238  0.143139  0.372934  1
  Mg  Mg4  1  0.000000  0.000000  0.000000  1
  Mg  Mg5  1  0.000000  0.500000  0.500000  1
  H  H6  1  0.682330  0.099962  0.787106  1
  H  H7  1  0.317670  0.599962  0.712894  1
  H  H8  1  0.317670  0.900038  0.212894  1
  H  H9  1  0.682330  0.400038  0.287106  1
  H  H10  1  0.915744  0.130902  0.764881  1
  H  H11  1  0.084256  0.630902  0.735119  1
  H  H12  1  0.084256  0.869098  0.235119  1
  H  H13  1  0.915744  0.369098  0.264881  1
  H  H14  1  0.072231  0.097219  0.275051  1
  H  H15  1  0.927769  0.597219  0.224949  1
  H  H16  1  0.927769  0.902781  0.724949  1
  H  H17  1  0.072231  0.402781  0.775051  1
  H  H18  1  0.016358  0.183358  0.151367  1
  H  H19  1  0.983642  0.683358  0.348633  1
  H  H20  1  0.983642  0.816642  0.848633  1
  H  H21  1  0.016358  0.316642  0.651367  1
  H  H22  1  0.662525  0.939057  0.099307  1
  H  H23  1  0.337475  0.439057  0.400693  1
  H  H24  1  0.337475  0.060943  0.900693  1
  H  H25  1  0.662525  0.560943  0.599307  1
  H  H26  1  0.686009  0.861204  0.977314  1
  H  H27  1  0.313991  0.361204  0.522686  1
  H  H28  1  0.313991  0.138796  0.022686  1
  H  H29  1  0.686009  0.638796  0.477314  1
  S  S30  1  0.258783  0.148519  0.604415  1
  S  S31  1  0.741217  0.648519  0.895585  1
  S  S32  1  0.741217  0.851481  0.395585  1
  S  S33  1  0.258783  0.351481  0.104415  1
  O  O34  1  0.389372  0.239128  0.582127  1
  O  O35  1  0.610628  0.739128  0.917873  1
  O  O36  1  0.610628  0.760872  0.417873  1
  O  O37  1  0.389372  0.260872  0.082127  1
  O  O38  1  0.197204  0.084122  0.467476  1
  O  O39  1  0.802796  0.584122  0.032524  1
  O  O40  1  0.802796  0.915878  0.532524  1
  O  O41  1  0.197204  0.415878  0.967476  1
  O  O42  1  0.397210  0.084815  0.729611  1
  O  O43  1  0.602790  0.584815  0.770389  1
  O  O44  1  0.602790  0.915185  0.270389  1
  O  O45  1  0.397210  0.415185  0.229611  1
  O  O46  1  0.059334  0.184795  0.642627  1
  O  O47  1  0.940666  0.684795  0.857373  1
  O  O48  1  0.940666  0.815205  0.357373  1
  O  O49  1  0.059334  0.315205  0.142627  1
  O  O50  1  0.840020  0.108612  0.837973  1
  O  O51  1  0.159980  0.608612  0.662027  1
  O  O52  1  0.159980  0.891388  0.162027  1
  O  O53  1  0.840020  0.391388  0.337973  1
  O  O54  1  0.993056  0.108971  0.168944  1
  O  O55  1  0.006944  0.608971  0.331056  1
  O  O56  1  0.006944  0.891029  0.831056  1
  O  O57  1  0.993056  0.391029  0.668944  1
  O  O58  1  0.708328  0.934925  0.007343  1
  O  O59  1  0.291672  0.434925  0.492657  1
  O  O60  1  0.291672  0.065075  0.992657  1
  O  O61  1  0.708328  0.565075  0.507343  1
