# generated using pymatgen
data_Pr2Te4MoO14
_symmetry_space_group_name_H-M   'P 1'
_cell_length_a   7.08446827
_cell_length_b   10.19584070
_cell_length_c   10.32877491
_cell_angle_alpha   90.09841432
_cell_angle_beta   107.24417605
_cell_angle_gamma   93.27085506
_symmetry_Int_Tables_number   1
_chemical_formula_structural   Pr2Te4MoO14
_chemical_formula_sum   'Pr4 Te8 Mo2 O28'
_cell_volume   711.23689250
_cell_formula_units_Z   2
loop_
 _symmetry_equiv_pos_site_id
 _symmetry_equiv_pos_as_xyz
  1  'x, y, z'
loop_
 _atom_site_type_symbol
 _atom_site_label
 _atom_site_symmetry_multiplicity
 _atom_site_fract_x
 _atom_site_fract_y
 _atom_site_fract_z
 _atom_site_occupancy
  Pr  Pr0  1  0.644043  0.307687  0.086010  1
  Pr  Pr1  1  0.220159  0.465012  0.214927  1
  Pr  Pr2  1  0.779841  0.534988  0.785073  1
  Pr  Pr3  1  0.355957  0.692313  0.913990  1
  Te  Te4  1  0.742147  0.608624  0.279324  1
  Te  Te5  1  0.942975  0.789056  0.042865  1
  Te  Te6  1  0.057025  0.210944  0.957135  1
  Te  Te7  1  0.075285  0.166328  0.368729  1
  Te  Te8  1  0.361998  0.727476  0.541829  1
  Te  Te9  1  0.638002  0.272524  0.458171  1
  Te  Te10  1  0.924715  0.833672  0.631271  1
  Te  Te11  1  0.257853  0.391376  0.720676  1
  Mo  Mo12  1  0.523144  0.037717  0.767774  1
  Mo  Mo13  1  0.476856  0.962283  0.232226  1
  O  O14  1  0.706909  0.704614  0.931277  1
  O  O15  1  0.975131  0.225979  0.187779  1
  O  O16  1  0.593999  0.120627  0.930876  1
  O  O17  1  0.746044  0.000297  0.730365  1
  O  O18  1  0.928914  0.277079  0.459092  1
  O  O19  1  0.253956  0.999703  0.269635  1
  O  O20  1  0.306255  0.608769  0.396970  1
  O  O21  1  0.376414  0.884577  0.766500  1
  O  O22  1  0.120746  0.509029  0.796427  1
  O  O23  1  0.387598  0.140793  0.639290  1
  O  O24  1  0.406001  0.879373  0.069124  1
  O  O25  1  0.414791  0.605014  0.687839  1
  O  O26  1  0.612402  0.859207  0.360710  1
  O  O27  1  0.879254  0.490971  0.203573  1
  O  O28  1  0.868898  0.764524  0.209133  1
  O  O29  1  0.103107  0.645771  0.048862  1
  O  O30  1  0.585209  0.394986  0.312161  1
  O  O31  1  0.498946  0.416779  0.865242  1
  O  O32  1  0.896893  0.354229  0.951138  1
  O  O33  1  0.712663  0.704465  0.600299  1
  O  O34  1  0.693745  0.391231  0.603030  1
  O  O35  1  0.024869  0.774021  0.812221  1
  O  O36  1  0.071086  0.722921  0.540908  1
  O  O37  1  0.131102  0.235476  0.790867  1
  O  O38  1  0.501054  0.583221  0.134758  1
  O  O39  1  0.623586  0.115423  0.233500  1
  O  O40  1  0.287337  0.295535  0.399701  1
  O  O41  1  0.293091  0.295386  0.068723  1
