# generated using pymatgen
data_Ag4HgGe2S7
_symmetry_space_group_name_H-M   'P 1'
_cell_length_a   9.56909021
_cell_length_b   9.56909021
_cell_length_c   10.66264863
_cell_angle_alpha   87.11717550
_cell_angle_beta   92.88282450
_cell_angle_gamma   137.42057453
_symmetry_Int_Tables_number   1
_chemical_formula_structural   Ag4HgGe2S7
_chemical_formula_sum   'Ag8 Hg2 Ge4 S14'
_cell_volume   659.64799176
_cell_formula_units_Z   2
loop_
 _symmetry_equiv_pos_site_id
 _symmetry_equiv_pos_as_xyz
  1  'x, y, z'
loop_
 _atom_site_type_symbol
 _atom_site_label
 _atom_site_symmetry_multiplicity
 _atom_site_fract_x
 _atom_site_fract_y
 _atom_site_fract_z
 _atom_site_occupancy
  Ag  Ag0  1  0.828945  0.820389  0.999293  1
  Ag  Ag1  1  0.179611  0.171055  0.499293  1
  Ag  Ag2  1  0.610008  0.738778  0.612950  1
  Ag  Ag3  1  0.261222  0.389992  0.112950  1
  Ag  Ag4  1  0.470353  0.894207  0.902218  1
  Ag  Ag5  1  0.105793  0.529647  0.402218  1
  Ag  Ag6  1  0.599238  0.148061  0.554647  1
  Ag  Ag7  1  0.851939  0.400762  0.054647  1
  Hg  Hg8  1  0.966701  0.665542  0.712867  1
  Hg  Hg9  1  0.334458  0.033299  0.212867  1
  Ge  Ge10  1  0.400458  0.254794  0.829460  1
  Ge  Ge11  1  0.745206  0.599542  0.329460  1
  Ge  Ge12  1  0.036145  0.309848  0.755489  1
  Ge  Ge13  1  0.690152  0.963855  0.255489  1
  S  S14  1  0.800071  0.861647  0.403481  1
  S  S15  1  0.138353  0.199929  0.903481  1
  S  S16  1  0.701667  0.032603  0.717121  1
  S  S17  1  0.967397  0.298333  0.217121  1
  S  S18  1  0.087896  0.547657  0.858943  1
  S  S19  1  0.452343  0.912104  0.358943  1
  S  S20  1  0.473256  0.142979  0.981381  1
  S  S21  1  0.857021  0.526744  0.481381  1
  S  S22  1  0.294529  0.064850  0.658897  1
  S  S23  1  0.935150  0.705471  0.158897  1
  S  S24  1  0.401860  0.327026  0.295458  1
  S  S25  1  0.672974  0.598140  0.795458  1
  S  S26  1  0.217566  0.440512  0.582395  1
  S  S27  1  0.559488  0.782434  0.082395  1
