# generated using pymatgen
data_CaTeCO5
_symmetry_space_group_name_H-M   'P 1'
_cell_length_a   7.12891092
_cell_length_b   10.70511258
_cell_length_c   11.25697372
_cell_angle_alpha   90.00000000
_cell_angle_beta   90.00000000
_cell_angle_gamma   90.00000000
_symmetry_Int_Tables_number   1
_chemical_formula_structural   CaTeCO5
_chemical_formula_sum   'Ca8 Te8 C8 O40'
_cell_volume   859.08488716
_cell_formula_units_Z   8
loop_
 _symmetry_equiv_pos_site_id
 _symmetry_equiv_pos_as_xyz
  1  'x, y, z'
loop_
 _atom_site_type_symbol
 _atom_site_label
 _atom_site_symmetry_multiplicity
 _atom_site_fract_x
 _atom_site_fract_y
 _atom_site_fract_z
 _atom_site_occupancy
  Ca  Ca0  1  0.015440  0.490037  0.172076  1
  Ca  Ca1  1  0.015440  0.990037  0.327924  1
  Ca  Ca2  1  0.515440  0.009963  0.172076  1
  Ca  Ca3  1  0.515440  0.509963  0.327924  1
  Ca  Ca4  1  0.484560  0.990037  0.827924  1
  Ca  Ca5  1  0.484560  0.490037  0.672076  1
  Ca  Ca6  1  0.984560  0.509963  0.827924  1
  Ca  Ca7  1  0.984560  0.009963  0.672076  1
  Te  Te8  1  0.403492  0.631880  0.016328  1
  Te  Te9  1  0.096508  0.131880  0.983672  1
  Te  Te10  1  0.403492  0.131880  0.483672  1
  Te  Te11  1  0.596508  0.368120  0.983672  1
  Te  Te12  1  0.903492  0.368120  0.483672  1
  Te  Te13  1  0.903492  0.868120  0.016328  1
  Te  Te14  1  0.096508  0.631880  0.516328  1
  Te  Te15  1  0.596508  0.868120  0.516328  1
  C  C16  1  0.263459  0.256422  0.739535  1
  C  C17  1  0.736541  0.243578  0.239535  1
  C  C18  1  0.236541  0.256422  0.239535  1
  C  C19  1  0.763459  0.243578  0.739535  1
  C  C20  1  0.736541  0.743578  0.260465  1
  C  C21  1  0.763459  0.743578  0.760465  1
  C  C22  1  0.236541  0.756422  0.260465  1
  C  C23  1  0.263459  0.756422  0.760465  1
  O  O24  1  0.018864  0.474199  0.609248  1
  O  O25  1  0.355594  0.275161  0.640515  1
  O  O26  1  0.518864  0.525801  0.890752  1
  O  O27  1  0.644406  0.224839  0.140515  1
  O  O28  1  0.725560  0.649709  0.694363  1
  O  O29  1  0.156473  0.578362  0.997800  1
  O  O30  1  0.225560  0.850291  0.694363  1
  O  O31  1  0.981136  0.025801  0.109248  1
  O  O32  1  0.725560  0.149709  0.805637  1
  O  O33  1  0.355594  0.775161  0.859485  1
  O  O34  1  0.781296  0.857440  0.229297  1
  O  O35  1  0.855594  0.724839  0.859485  1
  O  O36  1  0.343527  0.578362  0.497800  1
  O  O37  1  0.225560  0.350291  0.805637  1
  O  O38  1  0.855594  0.224839  0.640515  1
  O  O39  1  0.144406  0.275161  0.140515  1
  O  O40  1  0.644406  0.724839  0.359485  1
  O  O41  1  0.774440  0.149709  0.305637  1
  O  O42  1  0.018864  0.974199  0.890752  1
  O  O43  1  0.781296  0.357440  0.270703  1
  O  O44  1  0.281296  0.142560  0.270703  1
  O  O45  1  0.843527  0.421638  0.002200  1
  O  O46  1  0.218704  0.642560  0.729297  1
  O  O47  1  0.718704  0.357440  0.770703  1
  O  O48  1  0.656473  0.921638  0.997800  1
  O  O49  1  0.274440  0.350291  0.305637  1
  O  O50  1  0.774440  0.649709  0.194363  1
  O  O51  1  0.481136  0.474199  0.109248  1
  O  O52  1  0.274440  0.850291  0.194363  1
  O  O53  1  0.656473  0.421638  0.502200  1
  O  O54  1  0.218704  0.142560  0.770703  1
  O  O55  1  0.156473  0.078362  0.502200  1
  O  O56  1  0.981136  0.525801  0.390752  1
  O  O57  1  0.343527  0.078362  0.002200  1
  O  O58  1  0.281296  0.642560  0.229297  1
  O  O59  1  0.843527  0.921638  0.497800  1
  O  O60  1  0.718704  0.857440  0.729297  1
  O  O61  1  0.481136  0.974199  0.390752  1
  O  O62  1  0.518864  0.025801  0.609248  1
  O  O63  1  0.144406  0.775161  0.359485  1
