# generated using pymatgen
data_SrLiCoF6
_symmetry_space_group_name_H-M   'P 1'
_cell_length_a   5.37426474
_cell_length_b   8.82581229
_cell_length_c   10.36527915
_cell_angle_alpha   90.00000000
_cell_angle_beta   92.63456275
_cell_angle_gamma   90.00000000
_symmetry_Int_Tables_number   1
_chemical_formula_structural   SrLiCoF6
_chemical_formula_sum   'Sr4 Li4 Co4 F24'
_cell_volume   491.12887004
_cell_formula_units_Z   4
loop_
 _symmetry_equiv_pos_site_id
 _symmetry_equiv_pos_as_xyz
  1  'x, y, z'
loop_
 _atom_site_type_symbol
 _atom_site_label
 _atom_site_symmetry_multiplicity
 _atom_site_fract_x
 _atom_site_fract_y
 _atom_site_fract_z
 _atom_site_occupancy
  Sr  Sr0  1  0.753430  0.704786  0.501201  1
  Sr  Sr1  1  0.246570  0.204786  0.998799  1
  Sr  Sr2  1  0.753430  0.795214  0.001201  1
  Sr  Sr3  1  0.246570  0.295214  0.498799  1
  Li  Li4  1  0.716436  0.078086  0.255321  1
  Li  Li5  1  0.283564  0.578086  0.244679  1
  Li  Li6  1  0.283564  0.921914  0.744679  1
  Li  Li7  1  0.716436  0.421914  0.755321  1
  Co  Co8  1  0.215497  0.916321  0.259120  1
  Co  Co9  1  0.784503  0.416321  0.240880  1
  Co  Co10  1  0.215497  0.583679  0.759120  1
  Co  Co11  1  0.784503  0.083679  0.740880  1
  F  F12  1  0.609080  0.264777  0.137373  1
  F  F13  1  0.882776  0.251631  0.848090  1
  F  F14  1  0.082447  0.094808  0.643058  1
  F  F15  1  0.117224  0.748369  0.151910  1
  F  F16  1  0.490744  0.951269  0.140017  1
  F  F17  1  0.368020  0.422530  0.850860  1
  F  F18  1  0.631980  0.922530  0.649140  1
  F  F19  1  0.368020  0.077470  0.350860  1
  F  F20  1  0.509256  0.048731  0.859983  1
  F  F21  1  0.002497  0.037690  0.138254  1
  F  F22  1  0.082447  0.405192  0.143058  1
  F  F23  1  0.117224  0.751631  0.651910  1
  F  F24  1  0.917553  0.905192  0.356942  1
  F  F25  1  0.002497  0.462310  0.638254  1
  F  F26  1  0.631980  0.577470  0.149140  1
  F  F27  1  0.997503  0.962310  0.861746  1
  F  F28  1  0.390920  0.764777  0.362627  1
  F  F29  1  0.917553  0.594808  0.856942  1
  F  F30  1  0.997503  0.537690  0.361746  1
  F  F31  1  0.490744  0.548731  0.640017  1
  F  F32  1  0.609080  0.235223  0.637373  1
  F  F33  1  0.509256  0.451269  0.359983  1
  F  F34  1  0.882776  0.248369  0.348090  1
  F  F35  1  0.390920  0.735223  0.862627  1
