# generated using pymatgen
data_K2Cr3(ClF3)2
_symmetry_space_group_name_H-M   'P 1'
_cell_length_a   6.65914879
_cell_length_b   11.45185670
_cell_length_c   7.60233012
_cell_angle_alpha   90.00000000
_cell_angle_beta   122.73863554
_cell_angle_gamma   90.00000000
_symmetry_Int_Tables_number   1
_chemical_formula_structural   K2Cr3(ClF3)2
_chemical_formula_sum   'K4 Cr6 Cl4 F12'
_cell_volume   487.65522926
_cell_formula_units_Z   2
loop_
 _symmetry_equiv_pos_site_id
 _symmetry_equiv_pos_as_xyz
  1  'x, y, z'
loop_
 _atom_site_type_symbol
 _atom_site_label
 _atom_site_symmetry_multiplicity
 _atom_site_fract_x
 _atom_site_fract_y
 _atom_site_fract_z
 _atom_site_occupancy
  K  K0  1  0.803419  0.050177  0.641690  1
  K  K1  1  0.196581  0.949823  0.358310  1
  K  K2  1  0.803419  0.449823  0.141690  1
  K  K3  1  0.196581  0.550177  0.858310  1
  Cr  Cr4  1  0.338831  0.246766  0.221762  1
  Cr  Cr5  1  0.661169  0.746766  0.278238  1
  Cr  Cr6  1  0.500000  0.000000  0.000000  1
  Cr  Cr7  1  0.338831  0.253234  0.721762  1
  Cr  Cr8  1  0.661169  0.753234  0.778238  1
  Cr  Cr9  1  0.500000  0.500000  0.500000  1
  Cl  Cl10  1  0.831637  0.329825  0.525644  1
  Cl  Cl11  1  0.831637  0.170175  0.025644  1
  Cl  Cl12  1  0.168363  0.829825  0.974356  1
  Cl  Cl13  1  0.168363  0.670175  0.474356  1
  F  F14  1  0.643386  0.687434  0.017228  1
  F  F15  1  0.239790  0.091121  0.752522  1
  F  F16  1  0.443374  0.083907  0.205942  1
  F  F17  1  0.760210  0.908879  0.247478  1
  F  F18  1  0.556626  0.916093  0.794058  1
  F  F19  1  0.556626  0.583907  0.294058  1
  F  F20  1  0.760210  0.591121  0.747478  1
  F  F21  1  0.239790  0.408879  0.252522  1
  F  F22  1  0.643386  0.812566  0.517228  1
  F  F23  1  0.443374  0.416093  0.705942  1
  F  F24  1  0.356614  0.187434  0.482772  1
  F  F25  1  0.356614  0.312566  0.982772  1
