# generated using pymatgen
data_AgAsO3
_symmetry_space_group_name_H-M   'P 1'
_cell_length_a   6.75551943
_cell_length_b   12.79082814
_cell_length_c   20.00608566
_cell_angle_alpha   90.00000000
_cell_angle_beta   90.00000000
_cell_angle_gamma   90.00000000
_symmetry_Int_Tables_number   1
_chemical_formula_structural   AgAsO3
_chemical_formula_sum   'Ag24 As24 O72'
_cell_volume   1728.69961441
_cell_formula_units_Z   24
loop_
 _symmetry_equiv_pos_site_id
 _symmetry_equiv_pos_as_xyz
  1  'x, y, z'
loop_
 _atom_site_type_symbol
 _atom_site_label
 _atom_site_symmetry_multiplicity
 _atom_site_fract_x
 _atom_site_fract_y
 _atom_site_fract_z
 _atom_site_occupancy
  Ag  Ag0  1  0.546128  0.632933  0.611936  1
  Ag  Ag1  1  0.004930  0.549290  0.053221  1
  Ag  Ag2  1  0.103357  0.629182  0.865948  1
  Ag  Ag3  1  0.501434  0.875163  0.939324  1
  Ag  Ag4  1  0.597266  0.210464  0.698215  1
  Ag  Ag5  1  0.501434  0.375163  0.560676  1
  Ag  Ag6  1  0.546128  0.132933  0.888064  1
  Ag  Ag7  1  0.402734  0.710464  0.301785  1
  Ag  Ag8  1  0.935978  0.392527  0.189879  1
  Ag  Ag9  1  0.995070  0.049290  0.946779  1
  Ag  Ag10  1  0.896643  0.629182  0.365948  1
  Ag  Ag11  1  0.453872  0.632933  0.111936  1
  Ag  Ag12  1  0.597266  0.710464  0.801785  1
  Ag  Ag13  1  0.402734  0.210464  0.198215  1
  Ag  Ag14  1  0.896643  0.129182  0.134052  1
  Ag  Ag15  1  0.935978  0.892527  0.310121  1
  Ag  Ag16  1  0.004930  0.049290  0.446779  1
  Ag  Ag17  1  0.064022  0.892527  0.810121  1
  Ag  Ag18  1  0.064022  0.392527  0.689879  1
  Ag  Ag19  1  0.498566  0.875163  0.439324  1
  Ag  Ag20  1  0.103357  0.129182  0.634052  1
  Ag  Ag21  1  0.498566  0.375163  0.060676  1
  Ag  Ag22  1  0.995070  0.549290  0.553221  1
  Ag  Ag23  1  0.453872  0.132933  0.388064  1
  As  As24  1  0.207192  0.382404  0.375345  1
  As  As25  1  0.207192  0.882404  0.124655  1
  As  As26  1  0.456636  0.459454  0.245026  1
  As  As27  1  0.707241  0.880907  0.123961  1
  As  As28  1  0.034297  0.801720  0.494198  1
  As  As29  1  0.456636  0.959454  0.254974  1
  As  As30  1  0.792808  0.882404  0.624655  1
  As  As31  1  0.965703  0.301720  0.505802  1
  As  As32  1  0.792808  0.382404  0.875345  1
  As  As33  1  0.292759  0.880907  0.623961  1
  As  As34  1  0.965703  0.801720  0.994198  1
  As  As35  1  0.048536  0.694592  0.695873  1
  As  As36  1  0.540511  0.568952  0.946208  1
  As  As37  1  0.048536  0.194592  0.804127  1
  As  As38  1  0.292759  0.380907  0.876039  1
  As  As39  1  0.707241  0.380907  0.376039  1
  As  As40  1  0.459489  0.568952  0.446208  1
  As  As41  1  0.034297  0.301720  0.005802  1
  As  As42  1  0.459489  0.068952  0.053792  1
  As  As43  1  0.951464  0.694592  0.195873  1
  As  As44  1  0.540511  0.068952  0.553792  1
  As  As45  1  0.951464  0.194592  0.304127  1
  As  As46  1  0.543364  0.959454  0.754974  1
  As  As47  1  0.543364  0.459454  0.745026  1
  O  O48  1  0.130953  0.241566  0.361950  1
  O  O49  1  0.544324  0.829422  0.609174  1
  O  O50  1  0.020828  0.718015  0.276885  1
  O  O51  1  0.833206  0.367726  0.968453  1
  O  O52  1  0.042261  0.433363  0.860154  1
  O  O53  1  0.250457  0.896188  0.218046  1
  O  O54  1  0.869047  0.741566  0.638050  1
  O  O55  1  0.542735  0.879879  0.316972  1
  O  O56  1  0.105383  0.376218  0.072609  1
  O  O57  1  0.776144  0.790432  0.054320  1
  O  O58  1  0.098220  0.571442  0.670361  1
  O  O59  1  0.364346  0.475925  0.808342  1
  O  O60  1  0.957739  0.433363  0.360154  1
  O  O61  1  0.833206  0.867726  0.531547  1
  O  O62  1  0.718918  0.521911  0.888797  1
  O  O63  1  0.508389  0.691308  0.418450  1
  O  O64  1  0.042261  0.933363  0.639846  1
  O  O65  1  0.975807  0.176541  0.025329  1
  O  O66  1  0.166794  0.867726  0.031547  1
  O  O67  1  0.677128  0.491331  0.437833  1
  O  O68  1  0.894617  0.876218  0.927391  1
  O  O69  1  0.677128  0.991331  0.062167  1
  O  O70  1  0.024193  0.676541  0.974671  1
  O  O71  1  0.901780  0.071442  0.329639  1
  O  O72  1  0.322872  0.991331  0.562167  1
  O  O73  1  0.223856  0.790432  0.554320  1
  O  O74  1  0.606841  0.082066  0.779187  1
  O  O75  1  0.606841  0.582066  0.720813  1
  O  O76  1  0.508389  0.191308  0.081550  1
  O  O77  1  0.901780  0.571442  0.170361  1
  O  O78  1  0.455676  0.329422  0.390826  1
  O  O79  1  0.735043  0.771659  0.185443  1
  O  O80  1  0.455676  0.829422  0.109174  1
  O  O81  1  0.491611  0.191308  0.581550  1
  O  O82  1  0.264957  0.771659  0.685443  1
  O  O83  1  0.979172  0.218015  0.723115  1
  O  O84  1  0.390092  0.548820  0.527419  1
  O  O85  1  0.718918  0.021911  0.611203  1
  O  O86  1  0.390092  0.048820  0.972581  1
  O  O87  1  0.609908  0.548820  0.027419  1
  O  O88  1  0.130953  0.741566  0.138050  1
  O  O89  1  0.393159  0.582066  0.220813  1
  O  O90  1  0.749543  0.896188  0.718046  1
  O  O91  1  0.957739  0.933363  0.139846  1
  O  O92  1  0.098220  0.071442  0.829639  1
  O  O93  1  0.024193  0.176541  0.525329  1
  O  O94  1  0.364346  0.975925  0.691658  1
  O  O95  1  0.542735  0.379879  0.183028  1
  O  O96  1  0.975807  0.676541  0.474671  1
  O  O97  1  0.544324  0.329422  0.890826  1
  O  O98  1  0.281082  0.021911  0.111203  1
  O  O99  1  0.635654  0.475925  0.308342  1
  O  O100  1  0.457265  0.879879  0.816972  1
  O  O101  1  0.609908  0.048820  0.472581  1
  O  O102  1  0.979172  0.718015  0.776885  1
  O  O103  1  0.020828  0.218015  0.223115  1
  O  O104  1  0.250457  0.396188  0.281954  1
  O  O105  1  0.457265  0.379879  0.683028  1
  O  O106  1  0.281082  0.521911  0.388797  1
  O  O107  1  0.749543  0.396188  0.781954  1
  O  O108  1  0.635654  0.975925  0.191658  1
  O  O109  1  0.491611  0.691308  0.918450  1
  O  O110  1  0.869047  0.241566  0.861950  1
  O  O111  1  0.166794  0.367726  0.468453  1
  O  O112  1  0.223856  0.290432  0.945680  1
  O  O113  1  0.776144  0.290432  0.445680  1
  O  O114  1  0.322872  0.491331  0.937833  1
  O  O115  1  0.393159  0.082066  0.279187  1
  O  O116  1  0.264957  0.271659  0.814557  1
  O  O117  1  0.894617  0.376218  0.572609  1
  O  O118  1  0.735043  0.271659  0.314557  1
  O  O119  1  0.105383  0.876218  0.427391  1
