# generated using pymatgen
data_Dy3CuSnS7
_symmetry_space_group_name_H-M   'P 1'
_cell_length_a   9.75637637
_cell_length_b   9.75637637
_cell_length_c   6.25828190
_cell_angle_alpha   90.00000000
_cell_angle_beta   90.00000000
_cell_angle_gamma   120.00000000
_symmetry_Int_Tables_number   1
_chemical_formula_structural   Dy3CuSnS7
_chemical_formula_sum   'Dy6 Cu2 Sn2 S14'
_cell_volume   515.89681236
_cell_formula_units_Z   2
loop_
 _symmetry_equiv_pos_site_id
 _symmetry_equiv_pos_as_xyz
  1  'x, y, z'
loop_
 _atom_site_type_symbol
 _atom_site_label
 _atom_site_symmetry_multiplicity
 _atom_site_fract_x
 _atom_site_fract_y
 _atom_site_fract_z
 _atom_site_occupancy
  Dy  Dy0  1  0.359380  0.147997  0.267274  1
  Dy  Dy1  1  0.640620  0.852003  0.767274  1
  Dy  Dy2  1  0.852003  0.211383  0.267274  1
  Dy  Dy3  1  0.211383  0.359380  0.767274  1
  Dy  Dy4  1  0.788617  0.640620  0.267274  1
  Dy  Dy5  1  0.147997  0.788617  0.767274  1
  Cu  Cu6  1  0.000000  0.000000  0.149888  1
  Cu  Cu7  1  0.000000  0.000000  0.649888  1
  Sn  Sn8  1  0.666667  0.333333  0.831447  1
  Sn  Sn9  1  0.333333  0.666667  0.331447  1
  S  S10  1  0.666667  0.333333  0.447586  1
  S  S11  1  0.082428  0.517949  0.514494  1
  S  S12  1  0.517949  0.435521  0.014494  1
  S  S13  1  0.113933  0.851991  0.186058  1
  S  S14  1  0.333333  0.666667  0.947586  1
  S  S15  1  0.851991  0.738057  0.686058  1
  S  S16  1  0.917572  0.482051  0.014494  1
  S  S17  1  0.261943  0.113933  0.686058  1
  S  S18  1  0.482051  0.564479  0.514494  1
  S  S19  1  0.886067  0.148009  0.686058  1
  S  S20  1  0.435521  0.917572  0.514494  1
  S  S21  1  0.738057  0.886067  0.186058  1
  S  S22  1  0.148009  0.261943  0.186058  1
  S  S23  1  0.564479  0.082428  0.014494  1
