# generated using pymatgen
data_Na8Hf(MoO4)6
_symmetry_space_group_name_H-M   'P 1'
_cell_length_a   9.91196928
_cell_length_b   11.70560378
_cell_length_c   12.02157521
_cell_angle_alpha   90.00000000
_cell_angle_beta   118.51393737
_cell_angle_gamma   90.00000000
_symmetry_Int_Tables_number   1
_chemical_formula_structural   Na8Hf(MoO4)6
_chemical_formula_sum   'Na16 Hf2 Mo12 O48'
_cell_volume   1225.62122544
_cell_formula_units_Z   2
loop_
 _symmetry_equiv_pos_site_id
 _symmetry_equiv_pos_as_xyz
  1  'x, y, z'
loop_
 _atom_site_type_symbol
 _atom_site_label
 _atom_site_symmetry_multiplicity
 _atom_site_fract_x
 _atom_site_fract_y
 _atom_site_fract_z
 _atom_site_occupancy
  Na  Na0  1  0.834020  0.432718  0.710711  1
  Na  Na1  1  0.414108  0.781910  0.100880  1
  Na  Na2  1  0.585892  0.218090  0.899120  1
  Na  Na3  1  0.165980  0.932718  0.789289  1
  Na  Na4  1  0.332092  0.037195  0.627470  1
  Na  Na5  1  0.414108  0.718090  0.600880  1
  Na  Na6  1  0.332092  0.462805  0.127470  1
  Na  Na7  1  0.774882  0.684450  0.189490  1
  Na  Na8  1  0.667908  0.962805  0.372530  1
  Na  Na9  1  0.585892  0.281910  0.399120  1
  Na  Na10  1  0.225118  0.315550  0.810510  1
  Na  Na11  1  0.165980  0.567282  0.289289  1
  Na  Na12  1  0.667908  0.537195  0.872530  1
  Na  Na13  1  0.834020  0.067282  0.210711  1
  Na  Na14  1  0.774882  0.815550  0.689490  1
  Na  Na15  1  0.225118  0.184450  0.310510  1
  Hf  Hf16  1  0.000000  0.500000  0.500000  1
  Hf  Hf17  1  0.000000  0.000000  0.000000  1
  Mo  Mo18  1  0.727061  0.390747  0.179797  1
  Mo  Mo19  1  0.989974  0.186070  0.506615  1
  Mo  Mo20  1  0.010026  0.686070  0.993385  1
  Mo  Mo21  1  0.989974  0.313930  0.006615  1
  Mo  Mo22  1  0.727061  0.109253  0.679797  1
  Mo  Mo23  1  0.606116  0.603525  0.411614  1
  Mo  Mo24  1  0.393884  0.396475  0.588386  1
  Mo  Mo25  1  0.010026  0.813930  0.493385  1
  Mo  Mo26  1  0.393884  0.103525  0.088386  1
  Mo  Mo27  1  0.606116  0.896475  0.911614  1
  Mo  Mo28  1  0.272939  0.609253  0.820203  1
  Mo  Mo29  1  0.272939  0.890747  0.320203  1
  O  O30  1  0.907539  0.439793  0.318251  1
  O  O31  1  0.417412  0.617974  0.773018  1
  O  O32  1  0.207303  0.849041  0.589913  1
  O  O33  1  0.434159  0.521275  0.349616  1
  O  O34  1  0.792697  0.349041  0.910087  1
  O  O35  1  0.603536  0.702954  0.522181  1
  O  O36  1  0.565841  0.478725  0.650384  1
  O  O37  1  0.582588  0.117974  0.726982  1
  O  O38  1  0.247120  0.743907  0.877206  1
  O  O39  1  0.074196  0.171443  0.406608  1
  O  O40  1  0.074196  0.328557  0.906608  1
  O  O41  1  0.217523  0.011257  0.008641  1
  O  O42  1  0.979983  0.664938  0.428716  1
  O  O43  1  0.207303  0.650959  0.089913  1
  O  O44  1  0.752880  0.256093  0.122794  1
  O  O45  1  0.247120  0.756093  0.377206  1
  O  O46  1  0.979983  0.835062  0.928716  1
  O  O47  1  0.911148  0.909012  0.363091  1
  O  O48  1  0.417412  0.882026  0.273018  1
  O  O49  1  0.782477  0.988743  0.991359  1
  O  O50  1  0.675142  0.001023  0.563977  1
  O  O51  1  0.324858  0.501023  0.936023  1
  O  O52  1  0.324858  0.998977  0.436023  1
  O  O53  1  0.092461  0.939793  0.181749  1
  O  O54  1  0.092461  0.560207  0.681749  1
  O  O55  1  0.088852  0.409012  0.136909  1
  O  O56  1  0.582588  0.382026  0.226982  1
  O  O57  1  0.911148  0.590988  0.863091  1
  O  O58  1  0.752880  0.243907  0.622794  1
  O  O59  1  0.675142  0.498977  0.063977  1
  O  O60  1  0.217523  0.488743  0.508641  1
  O  O61  1  0.020017  0.164938  0.071284  1
  O  O62  1  0.792697  0.150959  0.410087  1
  O  O63  1  0.565841  0.021275  0.150384  1
  O  O64  1  0.434159  0.978725  0.849616  1
  O  O65  1  0.387838  0.177688  0.215595  1
  O  O66  1  0.396464  0.297046  0.477819  1
  O  O67  1  0.612162  0.677688  0.284405  1
  O  O68  1  0.088852  0.090988  0.636909  1
  O  O69  1  0.907539  0.060207  0.818251  1
  O  O70  1  0.925804  0.828557  0.593392  1
  O  O71  1  0.020017  0.335062  0.571284  1
  O  O72  1  0.603536  0.797046  0.022181  1
  O  O73  1  0.387838  0.322312  0.715595  1
  O  O74  1  0.782477  0.511257  0.491359  1
  O  O75  1  0.396464  0.202954  0.977819  1
  O  O76  1  0.925804  0.671443  0.093392  1
  O  O77  1  0.612162  0.822312  0.784405  1
