# generated using pymatgen
data_Sr2C(NCl)2
_symmetry_space_group_name_H-M   'P 1'
_cell_length_a   5.31327788
_cell_length_b   5.31327788
_cell_length_c   7.34312256
_cell_angle_alpha   82.85778967
_cell_angle_beta   97.14221033
_cell_angle_gamma   132.22888855
_symmetry_Int_Tables_number   1
_chemical_formula_structural   Sr2C(NCl)2
_chemical_formula_sum   'Sr2 C1 N2 Cl2'
_cell_volume   152.07513147
_cell_formula_units_Z   1
loop_
 _symmetry_equiv_pos_site_id
 _symmetry_equiv_pos_as_xyz
  1  'x, y, z'
loop_
 _atom_site_type_symbol
 _atom_site_label
 _atom_site_symmetry_multiplicity
 _atom_site_fract_x
 _atom_site_fract_y
 _atom_site_fract_z
 _atom_site_occupancy
  Sr  Sr0  1  0.317350  0.682650  0.228045  1
  Sr  Sr1  1  0.682650  0.317350  0.771955  1
  C  C2  1  0.000000  0.000000  0.000000  1
  N  N3  1  0.884623  0.115377  0.054104  1
  N  N4  1  0.115377  0.884623  0.945896  1
  Cl  Cl5  1  0.629978  0.370022  0.352455  1
  Cl  Cl6  1  0.370022  0.629978  0.647545  1
