# generated using pymatgen
data_HfI4
_symmetry_space_group_name_H-M   'P 1'
_cell_length_a   8.86481362
_cell_length_b   8.86481362
_cell_length_c   13.29377235
_cell_angle_alpha   72.51884049
_cell_angle_beta   107.48115951
_cell_angle_gamma   90.38447510
_symmetry_Int_Tables_number   1
_chemical_formula_structural   HfI4
_chemical_formula_sum   'Hf4 I16'
_cell_volume   946.40792487
_cell_formula_units_Z   4
loop_
 _symmetry_equiv_pos_site_id
 _symmetry_equiv_pos_as_xyz
  1  'x, y, z'
loop_
 _atom_site_type_symbol
 _atom_site_label
 _atom_site_symmetry_multiplicity
 _atom_site_fract_x
 _atom_site_fract_y
 _atom_site_fract_z
 _atom_site_occupancy
  Hf  Hf0  1  0.208134  0.060578  0.623660  1
  Hf  Hf1  1  0.939422  0.791866  0.123660  1
  Hf  Hf2  1  0.791866  0.939422  0.376340  1
  Hf  Hf3  1  0.060578  0.208134  0.876340  1
  I  I4  1  0.168197  0.050481  0.112075  1
  I  I5  1  0.728179  0.046699  0.139493  1
  I  I6  1  0.046699  0.728179  0.360507  1
  I  I7  1  0.172330  0.584653  0.136027  1
  I  I8  1  0.584653  0.172330  0.363973  1
  I  I9  1  0.271821  0.953301  0.860507  1
  I  I10  1  0.601257  0.699409  0.389758  1
  I  I11  1  0.050481  0.168197  0.387925  1
  I  I12  1  0.827670  0.415347  0.863973  1
  I  I13  1  0.415347  0.827670  0.636027  1
  I  I14  1  0.300591  0.398743  0.889758  1
  I  I15  1  0.699409  0.601257  0.110242  1
  I  I16  1  0.831803  0.949519  0.887925  1
  I  I17  1  0.398743  0.300591  0.610242  1
  I  I18  1  0.949519  0.831803  0.612075  1
  I  I19  1  0.953301  0.271821  0.639493  1
