# generated using pymatgen
data_SrI2
_symmetry_space_group_name_H-M   'P 1'
_cell_length_a   5.01549569
_cell_length_b   8.50097665
_cell_length_c   12.53623295
_cell_angle_alpha   90.00000000
_cell_angle_beta   90.00000000
_cell_angle_gamma   90.00000000
_symmetry_Int_Tables_number   1
_chemical_formula_structural   SrI2
_chemical_formula_sum   'Sr4 I8'
_cell_volume   534.50249708
_cell_formula_units_Z   4
loop_
 _symmetry_equiv_pos_site_id
 _symmetry_equiv_pos_as_xyz
  1  'x, y, z'
loop_
 _atom_site_type_symbol
 _atom_site_label
 _atom_site_symmetry_multiplicity
 _atom_site_fract_x
 _atom_site_fract_y
 _atom_site_fract_z
 _atom_site_occupancy
  Sr  Sr0  1  0.250000  0.131904  0.170175  1
  Sr  Sr1  1  0.750000  0.631904  0.329825  1
  Sr  Sr2  1  0.250000  0.368096  0.670175  1
  Sr  Sr3  1  0.750000  0.868096  0.829825  1
  I  I4  1  0.250000  0.376976  0.391847  1
  I  I5  1  0.250000  0.880563  0.377536  1
  I  I6  1  0.750000  0.380563  0.122464  1
  I  I7  1  0.250000  0.619437  0.877536  1
  I  I8  1  0.250000  0.123024  0.891847  1
  I  I9  1  0.750000  0.876976  0.108153  1
  I  I10  1  0.750000  0.119437  0.622464  1
  I  I11  1  0.750000  0.623024  0.608153  1
