# generated using pymatgen
data_Nd3NCl6
_symmetry_space_group_name_H-M   'P 1'
_cell_length_a   10.57950360
_cell_length_b   11.36032880
_cell_length_c   16.51251030
_cell_angle_alpha   90.00000000
_cell_angle_beta   90.00000000
_cell_angle_gamma   90.00000000
_symmetry_Int_Tables_number   1
_chemical_formula_structural   Nd3NCl6
_chemical_formula_sum   'Nd24 N8 Cl48'
_cell_volume   1984.58312162
_cell_formula_units_Z   8
loop_
 _symmetry_equiv_pos_site_id
 _symmetry_equiv_pos_as_xyz
  1  'x, y, z'
loop_
 _atom_site_type_symbol
 _atom_site_label
 _atom_site_symmetry_multiplicity
 _atom_site_fract_x
 _atom_site_fract_y
 _atom_site_fract_z
 _atom_site_occupancy
  Nd  Nd0  1  0.987754  0.712642  0.548147  1
  Nd  Nd1  1  0.655648  0.462431  0.676911  1
  Nd  Nd2  1  0.487754  0.712642  0.951853  1
  Nd  Nd3  1  0.844352  0.962431  0.676911  1
  Nd  Nd4  1  0.512246  0.212642  0.548147  1
  Nd  Nd5  1  0.640243  0.020698  0.938801  1
  Nd  Nd6  1  0.512246  0.287358  0.048147  1
  Nd  Nd7  1  0.344352  0.962431  0.823089  1
  Nd  Nd8  1  0.859757  0.520698  0.938801  1
  Nd  Nd9  1  0.359757  0.979302  0.061199  1
  Nd  Nd10  1  0.344352  0.537569  0.323089  1
  Nd  Nd11  1  0.640243  0.479302  0.438801  1
  Nd  Nd12  1  0.012246  0.212642  0.951853  1
  Nd  Nd13  1  0.859757  0.979302  0.438801  1
  Nd  Nd14  1  0.140243  0.479302  0.061199  1
  Nd  Nd15  1  0.012246  0.287358  0.451853  1
  Nd  Nd16  1  0.487754  0.787358  0.451853  1
  Nd  Nd17  1  0.655648  0.037569  0.176911  1
  Nd  Nd18  1  0.155648  0.037569  0.323089  1
  Nd  Nd19  1  0.987754  0.787358  0.048147  1
  Nd  Nd20  1  0.844352  0.537569  0.176911  1
  Nd  Nd21  1  0.359757  0.520698  0.561199  1
  Nd  Nd22  1  0.155648  0.462431  0.823089  1
  Nd  Nd23  1  0.140243  0.020698  0.561199  1
  N  N24  1  0.951495  0.592576  0.060487  1
  N  N25  1  0.451495  0.592576  0.439513  1
  N  N26  1  0.048505  0.407424  0.939513  1
  N  N27  1  0.048505  0.092576  0.439513  1
  N  N28  1  0.548505  0.407424  0.560487  1
  N  N29  1  0.951495  0.907424  0.560487  1
  N  N30  1  0.548505  0.092576  0.060487  1
  N  N31  1  0.451495  0.907424  0.939513  1
  Cl  Cl32  1  0.471378  0.316082  0.374903  1
  Cl  Cl33  1  0.631181  0.933721  0.339850  1
  Cl  Cl34  1  0.251523  0.785558  0.544251  1
  Cl  Cl35  1  0.896003  0.423420  0.772305  1
  Cl  Cl36  1  0.028622  0.683918  0.874903  1
  Cl  Cl37  1  0.834035  0.783597  0.185581  1
  Cl  Cl38  1  0.471378  0.183918  0.874903  1
  Cl  Cl39  1  0.334035  0.716403  0.814419  1
  Cl  Cl40  1  0.528622  0.683918  0.625097  1
  Cl  Cl41  1  0.528622  0.816082  0.125097  1
  Cl  Cl42  1  0.971378  0.183918  0.625097  1
  Cl  Cl43  1  0.356020  0.470817  0.945738  1
  Cl  Cl44  1  0.396003  0.423420  0.727695  1
  Cl  Cl45  1  0.368819  0.433721  0.160150  1
  Cl  Cl46  1  0.131181  0.566279  0.660150  1
  Cl  Cl47  1  0.368819  0.066279  0.660150  1
  Cl  Cl48  1  0.971378  0.316082  0.125097  1
  Cl  Cl49  1  0.251523  0.714442  0.044251  1
  Cl  Cl50  1  0.643980  0.529183  0.054262  1
  Cl  Cl51  1  0.165965  0.216403  0.814419  1
  Cl  Cl52  1  0.603997  0.576580  0.272305  1
  Cl  Cl53  1  0.896003  0.076580  0.272305  1
  Cl  Cl54  1  0.103997  0.576580  0.227695  1
  Cl  Cl55  1  0.165965  0.283597  0.314419  1
  Cl  Cl56  1  0.748477  0.214442  0.455749  1
  Cl  Cl57  1  0.748477  0.285558  0.955749  1
  Cl  Cl58  1  0.868819  0.433721  0.339850  1
  Cl  Cl59  1  0.834035  0.716403  0.685581  1
  Cl  Cl60  1  0.356020  0.029183  0.445738  1
  Cl  Cl61  1  0.028622  0.816082  0.374903  1
  Cl  Cl62  1  0.751523  0.714442  0.455749  1
  Cl  Cl63  1  0.603997  0.923420  0.772305  1
  Cl  Cl64  1  0.643980  0.970817  0.554262  1
  Cl  Cl65  1  0.856020  0.029183  0.054262  1
  Cl  Cl66  1  0.665965  0.283597  0.185581  1
  Cl  Cl67  1  0.631181  0.566279  0.839850  1
  Cl  Cl68  1  0.131181  0.933721  0.160150  1
  Cl  Cl69  1  0.868819  0.066279  0.839850  1
  Cl  Cl70  1  0.751523  0.785558  0.955749  1
  Cl  Cl71  1  0.248477  0.285558  0.544251  1
  Cl  Cl72  1  0.143980  0.529183  0.445738  1
  Cl  Cl73  1  0.143980  0.970817  0.945738  1
  Cl  Cl74  1  0.334035  0.783597  0.314419  1
  Cl  Cl75  1  0.103997  0.923420  0.727695  1
  Cl  Cl76  1  0.665965  0.216403  0.685581  1
  Cl  Cl77  1  0.396003  0.076580  0.227695  1
  Cl  Cl78  1  0.856020  0.470817  0.554262  1
  Cl  Cl79  1  0.248477  0.214442  0.044251  1
