# generated using pymatgen
data_Li5ReO6
_symmetry_space_group_name_H-M   'P 1'
_cell_length_a   5.09908765
_cell_length_b   5.09908765
_cell_length_c   5.08413541
_cell_angle_alpha   80.04898354
_cell_angle_beta   99.95101646
_cell_angle_gamma   60.24806808
_symmetry_Int_Tables_number   1
_chemical_formula_structural   Li5ReO6
_chemical_formula_sum   'Li5 Re1 O6'
_cell_volume   107.74815005
_cell_formula_units_Z   1
loop_
 _symmetry_equiv_pos_site_id
 _symmetry_equiv_pos_as_xyz
  1  'x, y, z'
loop_
 _atom_site_type_symbol
 _atom_site_label
 _atom_site_symmetry_multiplicity
 _atom_site_fract_x
 _atom_site_fract_y
 _atom_site_fract_z
 _atom_site_occupancy
  Li  Li0  1  0.333621  0.333621  0.000000  1
  Li  Li1  1  0.666379  0.666379  0.000000  1
  Li  Li2  1  0.500000  0.500000  0.500000  1
  Li  Li3  1  0.176295  0.176295  0.500000  1
  Li  Li4  1  0.823705  0.823705  0.500000  1
  Re  Re5  1  0.000000  0.000000  0.000000  1
  O  O6  1  0.922865  0.383071  0.766039  1
  O  O7  1  0.616929  0.077135  0.766039  1
  O  O8  1  0.383071  0.922865  0.233961  1
  O  O9  1  0.077135  0.616929  0.233961  1
  O  O10  1  0.772290  0.227710  0.225956  1
  O  O11  1  0.227710  0.772290  0.774044  1
