# generated using pymatgen
data_SrMo2(PO4)4
_symmetry_space_group_name_H-M   'P 1'
_cell_length_a   8.04400916
_cell_length_b   7.87013690
_cell_length_c   12.48220469
_cell_angle_alpha   90.00000000
_cell_angle_beta   129.03472693
_cell_angle_gamma   90.00000000
_symmetry_Int_Tables_number   1
_chemical_formula_structural   SrMo2(PO4)4
_chemical_formula_sum   'Sr2 Mo4 P8 O32'
_cell_volume   613.81210659
_cell_formula_units_Z   2
loop_
 _symmetry_equiv_pos_site_id
 _symmetry_equiv_pos_as_xyz
  1  'x, y, z'
loop_
 _atom_site_type_symbol
 _atom_site_label
 _atom_site_symmetry_multiplicity
 _atom_site_fract_x
 _atom_site_fract_y
 _atom_site_fract_z
 _atom_site_occupancy
  Sr  Sr0  1  0.500000  0.000000  0.000000  1
  Sr  Sr1  1  0.500000  0.500000  0.500000  1
  Mo  Mo2  1  0.112078  0.279768  0.664042  1
  Mo  Mo3  1  0.887922  0.720232  0.335958  1
  Mo  Mo4  1  0.112078  0.220232  0.164042  1
  Mo  Mo5  1  0.887922  0.779768  0.835958  1
  P  P6  1  0.154682  0.401384  0.936586  1
  P  P7  1  0.536799  0.384760  0.211821  1
  P  P8  1  0.845318  0.901384  0.563414  1
  P  P9  1  0.463201  0.615240  0.788179  1
  P  P10  1  0.154682  0.098616  0.436586  1
  P  P11  1  0.536799  0.115240  0.711821  1
  P  P12  1  0.463201  0.884760  0.288179  1
  P  P13  1  0.845318  0.598616  0.063414  1
  O  O14  1  0.416931  0.149615  0.770136  1
  O  O15  1  0.717449  0.988368  0.808573  1
  O  O16  1  0.596988  0.230952  0.172873  1
  O  O17  1  0.583069  0.649615  0.729864  1
  O  O18  1  0.778996  0.794475  0.635004  1
  O  O19  1  0.596988  0.269048  0.672873  1
  O  O20  1  0.221004  0.294475  0.864996  1
  O  O21  1  0.403012  0.769048  0.827127  1
  O  O22  1  0.637434  0.505973  0.932237  1
  O  O23  1  0.997461  0.539716  0.840142  1
  O  O24  1  0.869297  0.378520  0.584767  1
  O  O25  1  0.362566  0.005973  0.567763  1
  O  O26  1  0.002539  0.460284  0.159858  1
  O  O27  1  0.072013  0.220148  0.489636  1
  O  O28  1  0.637434  0.994027  0.432237  1
  O  O29  1  0.221004  0.205525  0.364996  1
  O  O30  1  0.002539  0.039716  0.659858  1
  O  O31  1  0.717449  0.511632  0.308573  1
  O  O32  1  0.416931  0.350385  0.270136  1
  O  O33  1  0.927987  0.720148  0.010364  1
  O  O34  1  0.997461  0.960284  0.340142  1
  O  O35  1  0.403012  0.730952  0.327127  1
  O  O36  1  0.583069  0.850385  0.229864  1
  O  O37  1  0.130703  0.621480  0.415233  1
  O  O38  1  0.282551  0.011632  0.191427  1
  O  O39  1  0.927987  0.779852  0.510364  1
  O  O40  1  0.282551  0.488368  0.691427  1
  O  O41  1  0.778996  0.705525  0.135004  1
  O  O42  1  0.072013  0.279852  0.989636  1
  O  O43  1  0.130703  0.878520  0.915233  1
  O  O44  1  0.362566  0.494027  0.067763  1
  O  O45  1  0.869297  0.121480  0.084767  1
