# generated using pymatgen
data_ZrO2
_symmetry_space_group_name_H-M   'P 1'
_cell_length_a   5.13195681
_cell_length_b   5.15922030
_cell_length_c   5.34938870
_cell_angle_alpha   90.00000000
_cell_angle_beta   90.00000000
_cell_angle_gamma   90.00000000
_symmetry_Int_Tables_number   1
_chemical_formula_structural   ZrO2
_chemical_formula_sum   'Zr4 O8'
_cell_volume   141.63520695
_cell_formula_units_Z   4
loop_
 _symmetry_equiv_pos_site_id
 _symmetry_equiv_pos_as_xyz
  1  'x, y, z'
loop_
 _atom_site_type_symbol
 _atom_site_label
 _atom_site_symmetry_multiplicity
 _atom_site_fract_x
 _atom_site_fract_y
 _atom_site_fract_z
 _atom_site_occupancy
  Zr  Zr0  1  0.733672  0.748544  0.030422  1
  Zr  Zr1  1  0.266328  0.748544  0.530422  1
  Zr  Zr2  1  0.266328  0.248544  0.969578  1
  Zr  Zr3  1  0.733672  0.248544  0.469578  1
  O  O4  1  0.463550  0.501564  0.229014  1
  O  O5  1  0.933080  0.605892  0.363960  1
  O  O6  1  0.066920  0.605892  0.863960  1
  O  O7  1  0.536450  0.501564  0.729014  1
  O  O8  1  0.933080  0.105892  0.136040  1
  O  O9  1  0.536450  0.001564  0.770986  1
  O  O10  1  0.066920  0.105892  0.636040  1
  O  O11  1  0.463550  0.001564  0.270986  1
