# generated using pymatgen
data_ReSbOF9
_symmetry_space_group_name_H-M   'P 1'
_cell_length_a   5.78463994
_cell_length_b   10.47959787
_cell_length_c   12.97801331
_cell_angle_alpha   90.00000000
_cell_angle_beta   99.29174453
_cell_angle_gamma   90.00000000
_symmetry_Int_Tables_number   1
_chemical_formula_structural   ReSbOF9
_chemical_formula_sum   'Re4 Sb4 O4 F36'
_cell_volume   776.41348259
_cell_formula_units_Z   4
loop_
 _symmetry_equiv_pos_site_id
 _symmetry_equiv_pos_as_xyz
  1  'x, y, z'
loop_
 _atom_site_type_symbol
 _atom_site_label
 _atom_site_symmetry_multiplicity
 _atom_site_fract_x
 _atom_site_fract_y
 _atom_site_fract_z
 _atom_site_occupancy
  Re  Re0  1  0.676308  0.976247  0.796593  1
  Re  Re1  1  0.323692  0.476247  0.703407  1
  Re  Re2  1  0.323692  0.023753  0.203407  1
  Re  Re3  1  0.676308  0.523753  0.296593  1
  Sb  Sb4  1  0.016956  0.744918  0.998285  1
  Sb  Sb5  1  0.983044  0.244918  0.501715  1
  Sb  Sb6  1  0.983044  0.255082  0.001715  1
  Sb  Sb7  1  0.016956  0.755082  0.498285  1
  O  O8  1  0.517707  0.848105  0.752507  1
  O  O9  1  0.482293  0.348105  0.747493  1
  O  O10  1  0.482293  0.151895  0.247493  1
  O  O11  1  0.517707  0.651895  0.252507  1
  F  F12  1  0.807128  0.904397  0.940672  1
  F  F13  1  0.192872  0.404397  0.559328  1
  F  F14  1  0.192872  0.095603  0.059328  1
  F  F15  1  0.807128  0.595603  0.440672  1
  F  F16  1  0.974884  0.946325  0.762588  1
  F  F17  1  0.025116  0.446325  0.737412  1
  F  F18  1  0.025116  0.053675  0.237412  1
  F  F19  1  0.974884  0.553675  0.262588  1
  F  F20  1  0.093518  0.854020  0.123278  1
  F  F21  1  0.906482  0.354020  0.376722  1
  F  F22  1  0.906482  0.145980  0.876722  1
  F  F23  1  0.093518  0.645980  0.623278  1
  F  F24  1  0.467445  0.071067  0.862933  1
  F  F25  1  0.532555  0.571067  0.637067  1
  F  F26  1  0.532555  0.928933  0.137067  1
  F  F27  1  0.467445  0.428933  0.362933  1
  F  F28  1  0.260108  0.830355  0.945114  1
  F  F29  1  0.739892  0.330355  0.554886  1
  F  F30  1  0.739892  0.169645  0.054886  1
  F  F31  1  0.260108  0.669645  0.445114  1
  F  F32  1  0.203999  0.607195  0.055393  1
  F  F33  1  0.796001  0.107195  0.444607  1
  F  F34  1  0.796001  0.392805  0.944607  1
  F  F35  1  0.203999  0.892805  0.555393  1
  F  F36  1  0.616548  0.086934  0.683420  1
  F  F37  1  0.383452  0.586934  0.816580  1
  F  F38  1  0.383452  0.913066  0.316580  1
  F  F39  1  0.616548  0.413066  0.183420  1
  F  F40  1  0.902671  0.672791  0.866315  1
  F  F41  1  0.097329  0.172791  0.633685  1
  F  F42  1  0.097329  0.327209  0.133685  1
  F  F43  1  0.902671  0.827209  0.366315  1
  F  F44  1  0.749675  0.693949  0.053945  1
  F  F45  1  0.250325  0.193949  0.446055  1
  F  F46  1  0.250325  0.306051  0.946055  1
  F  F47  1  0.749675  0.806051  0.553945  1
