# generated using pymatgen
data_K6NbTlAs4
_symmetry_space_group_name_H-M   'P 1'
_cell_length_a   7.87855651
_cell_length_b   10.55825845
_cell_length_c   19.01032100
_cell_angle_alpha   90.00000000
_cell_angle_beta   90.00000000
_cell_angle_gamma   90.00000000
_symmetry_Int_Tables_number   1
_chemical_formula_structural   K6NbTlAs4
_chemical_formula_sum   'K24 Nb4 Tl4 As16'
_cell_volume   1581.35142143
_cell_formula_units_Z   4
loop_
 _symmetry_equiv_pos_site_id
 _symmetry_equiv_pos_as_xyz
  1  'x, y, z'
loop_
 _atom_site_type_symbol
 _atom_site_label
 _atom_site_symmetry_multiplicity
 _atom_site_fract_x
 _atom_site_fract_y
 _atom_site_fract_z
 _atom_site_occupancy
  K  K0  1  0.678919  0.750000  0.152372  1
  K  K1  1  0.493722  0.954094  0.756846  1
  K  K2  1  0.178919  0.250000  0.347628  1
  K  K3  1  0.555842  0.750000  0.502821  1
  K  K4  1  0.821081  0.750000  0.652372  1
  K  K5  1  0.993722  0.454094  0.743154  1
  K  K6  1  0.719484  0.018928  0.921299  1
  K  K7  1  0.993722  0.045906  0.743154  1
  K  K8  1  0.321081  0.250000  0.847628  1
  K  K9  1  0.506278  0.045906  0.243154  1
  K  K10  1  0.006278  0.954094  0.256846  1
  K  K11  1  0.006278  0.545906  0.256846  1
  K  K12  1  0.280516  0.981072  0.078701  1
  K  K13  1  0.506278  0.454094  0.243154  1
  K  K14  1  0.055842  0.250000  0.997179  1
  K  K15  1  0.780516  0.481072  0.421299  1
  K  K16  1  0.780516  0.018928  0.421299  1
  K  K17  1  0.444158  0.250000  0.497179  1
  K  K18  1  0.280516  0.518928  0.078701  1
  K  K19  1  0.219484  0.981072  0.578701  1
  K  K20  1  0.219484  0.518928  0.578701  1
  K  K21  1  0.944158  0.750000  0.002821  1
  K  K22  1  0.719484  0.481072  0.921299  1
  K  K23  1  0.493722  0.545906  0.756846  1
  Nb  Nb24  1  0.105028  0.750000  0.830361  1
  Nb  Nb25  1  0.394972  0.750000  0.330361  1
  Nb  Nb26  1  0.605028  0.250000  0.669639  1
  Nb  Nb27  1  0.894972  0.250000  0.169639  1
  Tl  Tl28  1  0.059812  0.750000  0.448897  1
  Tl  Tl29  1  0.940188  0.250000  0.551103  1
  Tl  Tl30  1  0.559812  0.250000  0.051103  1
  Tl  Tl31  1  0.440188  0.750000  0.948897  1
  As  As32  1  0.712432  0.444181  0.602179  1
  As  As33  1  0.787568  0.444181  0.102179  1
  As  As34  1  0.712432  0.055819  0.602179  1
  As  As35  1  0.789329  0.750000  0.830278  1
  As  As36  1  0.294671  0.750000  0.205099  1
  As  As37  1  0.705329  0.250000  0.794901  1
  As  As38  1  0.212432  0.944181  0.897821  1
  As  As39  1  0.212432  0.555819  0.897821  1
  As  As40  1  0.287568  0.944181  0.397821  1
  As  As41  1  0.710671  0.750000  0.330278  1
  As  As42  1  0.794671  0.250000  0.294901  1
  As  As43  1  0.287568  0.555819  0.397821  1
  As  As44  1  0.289329  0.250000  0.669722  1
  As  As45  1  0.205329  0.750000  0.705099  1
  As  As46  1  0.210671  0.250000  0.169722  1
  As  As47  1  0.787568  0.055819  0.102179  1
