# generated using pymatgen
data_Ba2VP2O9
_symmetry_space_group_name_H-M   'P 1'
_cell_length_a   9.35394777
_cell_length_b   9.35394777
_cell_length_c   9.59976571
_cell_angle_alpha   71.12449035
_cell_angle_beta   108.87550965
_cell_angle_gamma   145.42422346
_symmetry_Int_Tables_number   1
_chemical_formula_structural   Ba2VP2O9
_chemical_formula_sum   'Ba4 V2 P4 O18'
_cell_volume   448.47071935
_cell_formula_units_Z   2
loop_
 _symmetry_equiv_pos_site_id
 _symmetry_equiv_pos_as_xyz
  1  'x, y, z'
loop_
 _atom_site_type_symbol
 _atom_site_label
 _atom_site_symmetry_multiplicity
 _atom_site_fract_x
 _atom_site_fract_y
 _atom_site_fract_z
 _atom_site_occupancy
  Ba  Ba0  1  0.679934  0.353394  0.828179  1
  Ba  Ba1  1  0.320066  0.646606  0.171821  1
  Ba  Ba2  1  0.646606  0.320066  0.328179  1
  Ba  Ba3  1  0.353394  0.679934  0.671821  1
  V  V4  1  0.936272  0.936272  0.250000  1
  V  V5  1  0.063728  0.063728  0.750000  1
  P  P6  1  0.101142  0.839616  0.073710  1
  P  P7  1  0.898858  0.160384  0.926290  1
  P  P8  1  0.839616  0.101142  0.426290  1
  P  P9  1  0.160384  0.898858  0.573710  1
  O  O10  1  0.041126  0.154829  0.065003  1
  O  O11  1  0.948558  0.568216  0.100872  1
  O  O12  1  0.886185  0.092501  0.287185  1
  O  O13  1  0.092501  0.886185  0.212815  1
  O  O14  1  0.039208  0.379781  0.441129  1
  O  O15  1  0.845171  0.958874  0.565003  1
  O  O16  1  0.620219  0.960792  0.941129  1
  O  O17  1  0.960792  0.620219  0.558871  1
  O  O18  1  0.958874  0.845171  0.934997  1
  O  O19  1  0.113815  0.907499  0.712815  1
  O  O20  1  0.635358  0.635358  0.250000  1
  O  O21  1  0.154829  0.041126  0.434997  1
  O  O22  1  0.907499  0.113815  0.787185  1
  O  O23  1  0.379781  0.039208  0.058871  1
  O  O24  1  0.431784  0.051442  0.600872  1
  O  O25  1  0.051442  0.431784  0.899128  1
  O  O26  1  0.364642  0.364642  0.750000  1
  O  O27  1  0.568216  0.948558  0.399128  1
