# generated using pymatgen
data_NaSrBO3
_symmetry_space_group_name_H-M   'P 1'
_cell_length_a   5.39326490
_cell_length_b   9.33740370
_cell_length_c   6.12790276
_cell_angle_alpha   90.00000000
_cell_angle_beta   100.25549491
_cell_angle_gamma   90.00000000
_symmetry_Int_Tables_number   1
_chemical_formula_structural   NaSrBO3
_chemical_formula_sum   'Na4 Sr4 B4 O12'
_cell_volume   303.66537778
_cell_formula_units_Z   4
loop_
 _symmetry_equiv_pos_site_id
 _symmetry_equiv_pos_as_xyz
  1  'x, y, z'
loop_
 _atom_site_type_symbol
 _atom_site_label
 _atom_site_symmetry_multiplicity
 _atom_site_fract_x
 _atom_site_fract_y
 _atom_site_fract_z
 _atom_site_occupancy
  Na  Na0  1  0.743461  0.758834  0.464842  1
  Na  Na1  1  0.256539  0.258834  0.035158  1
  Na  Na2  1  0.256539  0.241166  0.535158  1
  Na  Na3  1  0.743461  0.741166  0.964842  1
  Sr  Sr4  1  0.246658  0.587055  0.715130  1
  Sr  Sr5  1  0.753342  0.087055  0.784870  1
  Sr  Sr6  1  0.753342  0.412945  0.284870  1
  Sr  Sr7  1  0.246658  0.912945  0.215130  1
  B  B8  1  0.753939  0.079745  0.262858  1
  B  B9  1  0.753939  0.420255  0.762858  1
  B  B10  1  0.246061  0.579745  0.237142  1
  B  B11  1  0.246061  0.920255  0.737142  1
  O  O12  1  0.276170  0.060614  0.813009  1
  O  O13  1  0.962920  0.344804  0.719847  1
  O  O14  1  0.723830  0.939386  0.186991  1
  O  O15  1  0.423331  0.855045  0.630902  1
  O  O16  1  0.576669  0.355045  0.869098  1
  O  O17  1  0.423331  0.644955  0.130902  1
  O  O18  1  0.576669  0.144955  0.369098  1
  O  O19  1  0.276170  0.439386  0.313009  1
  O  O20  1  0.037080  0.655196  0.280153  1
  O  O21  1  0.037080  0.844804  0.780153  1
  O  O22  1  0.962920  0.155196  0.219847  1
  O  O23  1  0.723830  0.560614  0.686991  1
