# generated using pymatgen
data_Li2Ga2GeS6
_symmetry_space_group_name_H-M   'P 1'
_cell_length_a   13.06574105
_cell_length_b   12.02294325
_cell_length_c   7.06313375
_cell_angle_alpha   81.96989413
_cell_angle_beta   65.66695193
_cell_angle_gamma   32.36315394
_symmetry_Int_Tables_number   1
_chemical_formula_structural   Li2Ga2GeS6
_chemical_formula_sum   'Li4 Ga4 Ge2 S12'
_cell_volume   489.29868982
_cell_formula_units_Z   2
loop_
 _symmetry_equiv_pos_site_id
 _symmetry_equiv_pos_as_xyz
  1  'x, y, z'
loop_
 _atom_site_type_symbol
 _atom_site_label
 _atom_site_symmetry_multiplicity
 _atom_site_fract_x
 _atom_site_fract_y
 _atom_site_fract_z
 _atom_site_occupancy
  Li  Li0  1  0.224522  0.679349  0.108235  1
  Li  Li1  1  0.987894  0.108235  0.679349  1
  Li  Li2  1  0.570651  0.025478  0.262106  1
  Li  Li3  1  0.141765  0.262106  0.025478  1
  Ga  Ga4  1  0.550180  0.180131  0.719108  1
  Ga  Ga5  1  0.550582  0.719108  0.180131  1
  Ga  Ga6  1  0.069869  0.699820  0.699418  1
  Ga  Ga7  1  0.530892  0.699418  0.699820  1
  Ge  Ge8  1  0.840679  0.659321  0.659321  1
  Ge  Ge9  1  0.590679  0.409321  0.409321  1
  S  S10  1  0.154734  0.493111  0.450476  1
  S  S11  1  0.535638  0.008281  0.664270  1
  S  S12  1  0.799524  0.348321  0.095266  1
  S  S13  1  0.241719  0.714362  0.458189  1
  S  S14  1  0.901679  0.450476  0.493111  1
  S  S15  1  0.180186  0.556986  0.944612  1
  S  S16  1  0.791811  0.664270  0.008281  1
  S  S17  1  0.756889  0.095266  0.348321  1
  S  S18  1  0.585730  0.458189  0.714362  1
  S  S19  1  0.693014  0.069814  0.931784  1
  S  S20  1  0.318216  0.944612  0.556986  1
  S  S21  1  0.305388  0.931784  0.069814  1
