# generated using pymatgen
data_FeH6(CO3)2
_symmetry_space_group_name_H-M   'P 1'
_cell_length_a   8.87258534
_cell_length_b   7.25267249
_cell_length_c   9.52729730
_cell_angle_alpha   90.00000000
_cell_angle_beta   97.47510650
_cell_angle_gamma   90.00000000
_symmetry_Int_Tables_number   1
_chemical_formula_structural   FeH6(CO3)2
_chemical_formula_sum   'Fe4 H24 C8 O24'
_cell_volume   607.87087461
_cell_formula_units_Z   4
loop_
 _symmetry_equiv_pos_site_id
 _symmetry_equiv_pos_as_xyz
  1  'x, y, z'
loop_
 _atom_site_type_symbol
 _atom_site_label
 _atom_site_symmetry_multiplicity
 _atom_site_fract_x
 _atom_site_fract_y
 _atom_site_fract_z
 _atom_site_occupancy
  Fe  Fe0  1  0.000000  0.000000  0.500000  1
  Fe  Fe1  1  0.000000  0.500000  0.000000  1
  Fe  Fe2  1  0.500000  0.500000  0.500000  1
  Fe  Fe3  1  0.500000  0.000000  0.000000  1
  H  H4  1  0.933291  0.710754  0.725647  1
  H  H5  1  0.066709  0.210754  0.774353  1
  H  H6  1  0.066709  0.289246  0.274353  1
  H  H7  1  0.933291  0.789246  0.225647  1
  H  H8  1  0.327929  0.526162  0.889852  1
  H  H9  1  0.672071  0.026162  0.610148  1
  H  H10  1  0.672071  0.473838  0.110148  1
  H  H11  1  0.327929  0.973838  0.389852  1
  H  H12  1  0.208901  0.609346  0.509859  1
  H  H13  1  0.791099  0.109346  0.990141  1
  H  H14  1  0.791099  0.390654  0.490141  1
  H  H15  1  0.208901  0.890654  0.009859  1
  H  H16  1  0.233750  0.394406  0.545658  1
  H  H17  1  0.766250  0.894406  0.954342  1
  H  H18  1  0.766250  0.605594  0.454342  1
  H  H19  1  0.233750  0.105594  0.045658  1
  H  H20  1  0.301739  0.901709  0.763041  1
  H  H21  1  0.698261  0.401709  0.736959  1
  H  H22  1  0.698261  0.098291  0.236959  1
  H  H23  1  0.301739  0.598291  0.263041  1
  H  H24  1  0.466864  0.852613  0.721217  1
  H  H25  1  0.533136  0.352613  0.778783  1
  H  H26  1  0.533136  0.147387  0.278783  1
  H  H27  1  0.466864  0.647387  0.221217  1
  C  C28  1  0.038762  0.776979  0.775963  1
  C  C29  1  0.961238  0.276979  0.724037  1
  C  C30  1  0.961238  0.223021  0.224037  1
  C  C31  1  0.038762  0.723021  0.275963  1
  C  C32  1  0.326008  0.384752  0.933185  1
  C  C33  1  0.673992  0.884752  0.566815  1
  C  C34  1  0.673992  0.615248  0.066815  1
  C  C35  1  0.326008  0.115248  0.433185  1
  O  O36  1  0.102461  0.895467  0.705653  1
  O  O37  1  0.897539  0.395467  0.794347  1
  O  O38  1  0.897539  0.104533  0.294347  1
  O  O39  1  0.102461  0.604533  0.205653  1
  O  O40  1  0.089435  0.729311  0.902188  1
  O  O41  1  0.910565  0.229311  0.597812  1
  O  O42  1  0.910565  0.270689  0.097812  1
  O  O43  1  0.089435  0.770689  0.402188  1
  O  O44  1  0.437228  0.280286  0.916285  1
  O  O45  1  0.562772  0.780286  0.583715  1
  O  O46  1  0.562772  0.719714  0.083715  1
  O  O47  1  0.437228  0.219714  0.416285  1
  O  O48  1  0.212224  0.339099  0.994854  1
  O  O49  1  0.787776  0.839099  0.505146  1
  O  O50  1  0.787776  0.660901  0.005146  1
  O  O51  1  0.212224  0.160901  0.494854  1
  O  O52  1  0.275753  0.520263  0.567143  1
  O  O53  1  0.724247  0.020263  0.932857  1
  O  O54  1  0.724247  0.479737  0.432857  1
  O  O55  1  0.275753  0.979737  0.067143  1
  O  O56  1  0.410825  0.890884  0.800564  1
  O  O57  1  0.589175  0.390884  0.699436  1
  O  O58  1  0.589175  0.109116  0.199436  1
  O  O59  1  0.410825  0.609116  0.300564  1
