# generated using pymatgen
data_Rb2Pb4O7
_symmetry_space_group_name_H-M   'P 1'
_cell_length_a   6.79955021
_cell_length_b   7.47978127
_cell_length_c   10.64965158
_cell_angle_alpha   102.01456487
_cell_angle_beta   99.17554941
_cell_angle_gamma   90.01418040
_symmetry_Int_Tables_number   1
_chemical_formula_structural   Rb2Pb4O7
_chemical_formula_sum   'Rb4 Pb8 O14'
_cell_volume   522.67517114
_cell_formula_units_Z   2
loop_
 _symmetry_equiv_pos_site_id
 _symmetry_equiv_pos_as_xyz
  1  'x, y, z'
loop_
 _atom_site_type_symbol
 _atom_site_label
 _atom_site_symmetry_multiplicity
 _atom_site_fract_x
 _atom_site_fract_y
 _atom_site_fract_z
 _atom_site_occupancy
  Rb  Rb0  1  0.918051  0.169405  0.685177  1
  Rb  Rb1  1  0.081949  0.830595  0.314823  1
  Rb  Rb2  1  0.424829  0.170641  0.685999  1
  Rb  Rb3  1  0.575171  0.829359  0.314001  1
  Pb  Pb4  1  0.904408  0.649865  0.623879  1
  Pb  Pb5  1  0.095592  0.350135  0.376121  1
  Pb  Pb6  1  0.408090  0.649670  0.624881  1
  Pb  Pb7  1  0.591910  0.350330  0.375119  1
  Pb  Pb8  1  0.742672  0.607994  0.965750  1
  Pb  Pb9  1  0.257328  0.392006  0.034250  1
  Pb  Pb10  1  0.234059  0.837494  0.936317  1
  Pb  Pb11  1  0.765941  0.162506  0.063683  1
  O  O12  1  0.649718  0.436512  0.595777  1
  O  O13  1  0.350282  0.563488  0.404223  1
  O  O14  1  0.148081  0.436690  0.595426  1
  O  O15  1  0.851919  0.563310  0.404574  1
  O  O16  1  0.654801  0.838301  0.620552  1
  O  O17  1  0.345199  0.161699  0.379448  1
  O  O18  1  0.159739  0.841086  0.636156  1
  O  O19  1  0.840261  0.158914  0.363844  1
  O  O20  1  0.961469  0.657073  0.832602  1
  O  O21  1  0.038531  0.342927  0.167398  1
  O  O22  1  0.455000  0.655267  0.833238  1
  O  O23  1  0.545000  0.344733  0.166762  1
  O  O24  1  0.730008  0.309751  0.904512  1
  O  O25  1  0.269992  0.690249  0.095488  1
