# generated using pymatgen
data_KInS2
_symmetry_space_group_name_H-M   'P 1'
_cell_length_a   7.92070448
_cell_length_b   7.92070448
_cell_length_c   15.24651817
_cell_angle_alpha   82.51745542
_cell_angle_beta   97.48254458
_cell_angle_gamma   90.01025978
_symmetry_Int_Tables_number   1
_chemical_formula_structural   KInS2
_chemical_formula_sum   'K8 In8 S16'
_cell_volume   940.17121773
_cell_formula_units_Z   8
loop_
 _symmetry_equiv_pos_site_id
 _symmetry_equiv_pos_as_xyz
  1  'x, y, z'
loop_
 _atom_site_type_symbol
 _atom_site_label
 _atom_site_symmetry_multiplicity
 _atom_site_fract_x
 _atom_site_fract_y
 _atom_site_fract_z
 _atom_site_occupancy
  K  K0  1  0.153736  0.221998  0.116185  1
  K  K1  1  0.221998  0.153736  0.383815  1
  K  K2  1  0.846264  0.778002  0.883815  1
  K  K3  1  0.778002  0.846264  0.616185  1
  K  K4  1  0.221470  0.655154  0.382370  1
  K  K5  1  0.655154  0.221470  0.117630  1
  K  K6  1  0.778530  0.344846  0.617630  1
  K  K7  1  0.344846  0.778530  0.882370  1
  In  In8  1  0.911811  0.711179  0.155786  1
  In  In9  1  0.711179  0.911811  0.344214  1
  In  In10  1  0.088189  0.288821  0.844214  1
  In  In11  1  0.288821  0.088189  0.655786  1
  In  In12  1  0.711068  0.415758  0.344654  1
  In  In13  1  0.415758  0.711068  0.155346  1
  In  In14  1  0.288932  0.584242  0.655346  1
  In  In15  1  0.584242  0.288932  0.844654  1
  S  S16  1  0.946758  0.946758  0.250000  1
  S  S17  1  0.053242  0.053242  0.750000  1
  S  S18  1  0.428602  0.428602  0.250000  1
  S  S19  1  0.571398  0.571398  0.750000  1
  S  S20  1  0.138598  0.734309  0.055978  1
  S  S21  1  0.734309  0.138598  0.444022  1
  S  S22  1  0.861402  0.265691  0.944022  1
  S  S23  1  0.265691  0.861402  0.555978  1
  S  S24  1  0.946960  0.428732  0.250576  1
  S  S25  1  0.428732  0.946960  0.249424  1
  S  S26  1  0.053040  0.571268  0.749424  1
  S  S27  1  0.571268  0.053040  0.750576  1
  S  S28  1  0.735767  0.638680  0.445993  1
  S  S29  1  0.638680  0.735767  0.054007  1
  S  S30  1  0.264233  0.361320  0.554007  1
  S  S31  1  0.361320  0.264233  0.945993  1
