# generated using pymatgen
data_KTi2(PO4)3
_symmetry_space_group_name_H-M   'P 1'
_cell_length_a   9.20171052
_cell_length_b   9.20171052
_cell_length_c   9.20171052
_cell_angle_alpha   54.97645413
_cell_angle_beta   54.97645413
_cell_angle_gamma   54.97645413
_symmetry_Int_Tables_number   1
_chemical_formula_structural   KTi2(PO4)3
_chemical_formula_sum   'K2 Ti4 P6 O24'
_cell_volume   486.52315515
_cell_formula_units_Z   2
loop_
 _symmetry_equiv_pos_site_id
 _symmetry_equiv_pos_as_xyz
  1  'x, y, z'
loop_
 _atom_site_type_symbol
 _atom_site_label
 _atom_site_symmetry_multiplicity
 _atom_site_fract_x
 _atom_site_fract_y
 _atom_site_fract_z
 _atom_site_occupancy
  K  K0  1  0.000000  0.000000  0.000000  1
  K  K1  1  0.500000  0.500000  0.500000  1
  Ti  Ti2  1  0.850500  0.850500  0.850500  1
  Ti  Ti3  1  0.649500  0.649500  0.649500  1
  Ti  Ti4  1  0.149500  0.149500  0.149500  1
  Ti  Ti5  1  0.350500  0.350500  0.350500  1
  P  P6  1  0.468138  0.750000  0.031862  1
  P  P7  1  0.031862  0.468138  0.750000  1
  P  P8  1  0.750000  0.031862  0.468138  1
  P  P9  1  0.531862  0.250000  0.968138  1
  P  P10  1  0.968138  0.531862  0.250000  1
  P  P11  1  0.250000  0.968138  0.531862  1
  O  O12  1  0.750863  0.852289  0.489308  1
  O  O13  1  0.489308  0.750863  0.852289  1
  O  O14  1  0.852289  0.489308  0.750863  1
  O  O15  1  0.010692  0.647711  0.749137  1
  O  O16  1  0.749137  0.010692  0.647711  1
  O  O17  1  0.647711  0.749137  0.010692  1
  O  O18  1  0.249137  0.147711  0.510692  1
  O  O19  1  0.510692  0.249137  0.147711  1
  O  O20  1  0.147711  0.510692  0.249137  1
  O  O21  1  0.989308  0.352289  0.250863  1
  O  O22  1  0.250863  0.989308  0.352289  1
  O  O23  1  0.352289  0.250863  0.989308  1
  O  O24  1  0.930429  0.068031  0.296681  1
  O  O25  1  0.296681  0.930429  0.068031  1
  O  O26  1  0.068031  0.296681  0.930429  1
  O  O27  1  0.203319  0.431969  0.569571  1
  O  O28  1  0.569571  0.203319  0.431969  1
  O  O29  1  0.431969  0.569571  0.203319  1
  O  O30  1  0.069571  0.931969  0.703319  1
  O  O31  1  0.703319  0.069571  0.931969  1
  O  O32  1  0.931969  0.703319  0.069571  1
  O  O33  1  0.796681  0.568031  0.430429  1
  O  O34  1  0.430429  0.796681  0.568031  1
  O  O35  1  0.568031  0.430429  0.796681  1
