# generated using pymatgen
data_CuAs4S3Cl
_symmetry_space_group_name_H-M   'P 1'
_cell_length_a   7.51407105
_cell_length_b   11.19217710
_cell_length_c   11.25481202
_cell_angle_alpha   90.00000000
_cell_angle_beta   90.00000000
_cell_angle_gamma   90.00000000
_symmetry_Int_Tables_number   1
_chemical_formula_structural   CuAs4S3Cl
_chemical_formula_sum   'Cu4 As16 S12 Cl4'
_cell_volume   946.51634193
_cell_formula_units_Z   4
loop_
 _symmetry_equiv_pos_site_id
 _symmetry_equiv_pos_as_xyz
  1  'x, y, z'
loop_
 _atom_site_type_symbol
 _atom_site_label
 _atom_site_symmetry_multiplicity
 _atom_site_fract_x
 _atom_site_fract_y
 _atom_site_fract_z
 _atom_site_occupancy
  Cu  Cu0  1  0.000000  0.692293  0.750000  1
  Cu  Cu1  1  0.500000  0.692293  0.750000  1
  Cu  Cu2  1  0.000000  0.307707  0.250000  1
  Cu  Cu3  1  0.500000  0.307707  0.250000  1
  As  As4  1  0.250000  0.251497  0.787685  1
  As  As5  1  0.583167  0.361935  0.552858  1
  As  As6  1  0.083167  0.361935  0.947142  1
  As  As7  1  0.250000  0.923854  0.559887  1
  As  As8  1  0.083167  0.638065  0.447142  1
  As  As9  1  0.416833  0.361935  0.947142  1
  As  As10  1  0.250000  0.076146  0.059887  1
  As  As11  1  0.916833  0.638065  0.052858  1
  As  As12  1  0.416833  0.638065  0.447142  1
  As  As13  1  0.916833  0.361935  0.552858  1
  As  As14  1  0.750000  0.923854  0.940113  1
  As  As15  1  0.750000  0.748503  0.212315  1
  As  As16  1  0.750000  0.076146  0.440113  1
  As  As17  1  0.250000  0.748503  0.287685  1
  As  As18  1  0.750000  0.251497  0.712315  1
  As  As19  1  0.583167  0.638065  0.052858  1
  S  S20  1  0.982134  0.209736  0.425430  1
  S  S21  1  0.250000  0.062924  0.859823  1
  S  S22  1  0.750000  0.937076  0.140177  1
  S  S23  1  0.982134  0.790264  0.925430  1
  S  S24  1  0.017866  0.209736  0.074570  1
  S  S25  1  0.250000  0.937076  0.359823  1
  S  S26  1  0.517866  0.209736  0.425430  1
  S  S27  1  0.017866  0.790264  0.574570  1
  S  S28  1  0.482134  0.790264  0.574570  1
  S  S29  1  0.482134  0.209736  0.074570  1
  S  S30  1  0.750000  0.062924  0.640177  1
  S  S31  1  0.517866  0.790264  0.925430  1
  Cl  Cl32  1  0.250000  0.560606  0.770757  1
  Cl  Cl33  1  0.250000  0.439394  0.270757  1
  Cl  Cl34  1  0.750000  0.439394  0.229243  1
  Cl  Cl35  1  0.750000  0.560606  0.729243  1
