# generated using pymatgen
data_MnAs2F12
_symmetry_space_group_name_H-M   'P 1'
_cell_length_a   9.50644318
_cell_length_b   9.50644318
_cell_length_c   9.50644318
_cell_angle_alpha   132.35554105
_cell_angle_beta   132.35554105
_cell_angle_gamma   69.66806479
_symmetry_Int_Tables_number   1
_chemical_formula_structural   MnAs2F12
_chemical_formula_sum   'Mn2 As4 F24'
_cell_volume   460.15599366
_cell_formula_units_Z   2
loop_
 _symmetry_equiv_pos_site_id
 _symmetry_equiv_pos_as_xyz
  1  'x, y, z'
loop_
 _atom_site_type_symbol
 _atom_site_label
 _atom_site_symmetry_multiplicity
 _atom_site_fract_x
 _atom_site_fract_y
 _atom_site_fract_z
 _atom_site_occupancy
  Mn  Mn0  1  0.000000  0.000000  0.000000  1
  Mn  Mn1  1  0.750000  0.250000  0.500000  1
  As  As2  1  0.528948  0.028948  0.500000  1
  As  As3  1  0.971052  0.471052  0.500000  1
  As  As4  1  0.221052  0.221052  0.000000  1
  As  As5  1  0.778948  0.778948  0.000000  1
  F  F6  1  0.491019  0.792454  0.375039  1
  F  F7  1  0.417416  0.115980  0.624961  1
  F  F8  1  0.542454  0.741019  0.875039  1
  F  F9  1  0.884020  0.508981  0.301436  1
  F  F10  1  0.207546  0.582584  0.698564  1
  F  F11  1  0.258981  0.134020  0.801436  1
  F  F12  1  0.016575  0.830770  0.118233  1
  F  F13  1  0.169230  0.287464  0.185805  1
  F  F14  1  0.101658  0.983425  0.814195  1
  F  F15  1  0.037464  0.419230  0.685805  1
  F  F16  1  0.733425  0.351658  0.314195  1
  F  F17  1  0.712536  0.898342  0.881767  1
  F  F18  1  0.580770  0.266575  0.618233  1
  F  F19  1  0.648342  0.962536  0.381767  1
  F  F20  1  0.835153  0.012465  0.284308  1
  F  F21  1  0.987535  0.271843  0.822688  1
  F  F22  1  0.449155  0.164847  0.177312  1
  F  F23  1  0.021843  0.237535  0.322688  1
  F  F24  1  0.914847  0.699155  0.677312  1
  F  F25  1  0.728157  0.550845  0.715692  1
  F  F26  1  0.762465  0.085153  0.784308  1
  F  F27  1  0.300845  0.978157  0.215692  1
  F  F28  1  0.865980  0.667416  0.124961  1
  F  F29  1  0.332584  0.457546  0.198564  1
