# generated using pymatgen
data_Sr3MoN4
_symmetry_space_group_name_H-M   'P 1'
_cell_length_a   10.37763978
_cell_length_b   10.37763978
_cell_length_c   9.97244818
_cell_angle_alpha   83.13050815
_cell_angle_beta   96.86949185
_cell_angle_gamma   120.03841180
_symmetry_Int_Tables_number   1
_chemical_formula_structural   Sr3MoN4
_chemical_formula_sum   'Sr18 Mo6 N24'
_cell_volume   920.83315112
_cell_formula_units_Z   6
loop_
 _symmetry_equiv_pos_site_id
 _symmetry_equiv_pos_as_xyz
  1  'x, y, z'
loop_
 _atom_site_type_symbol
 _atom_site_label
 _atom_site_symmetry_multiplicity
 _atom_site_fract_x
 _atom_site_fract_y
 _atom_site_fract_z
 _atom_site_occupancy
  Sr  Sr0  1  0.350705  0.720495  0.701663  1
  Sr  Sr1  1  0.638964  0.683042  0.912961  1
  Sr  Sr2  1  0.079938  0.388500  0.900720  1
  Sr  Sr3  1  0.649295  0.279505  0.298337  1
  Sr  Sr4  1  0.720495  0.350705  0.798337  1
  Sr  Sr5  1  0.683042  0.638964  0.587039  1
  Sr  Sr6  1  0.279505  0.649295  0.201663  1
  Sr  Sr7  1  0.920062  0.611500  0.099280  1
  Sr  Sr8  1  0.305041  0.949939  0.954466  1
  Sr  Sr9  1  0.985463  0.985463  0.250000  1
  Sr  Sr10  1  0.361036  0.316958  0.087039  1
  Sr  Sr11  1  0.014537  0.014537  0.750000  1
  Sr  Sr12  1  0.050061  0.694959  0.454466  1
  Sr  Sr13  1  0.316958  0.361036  0.412961  1
  Sr  Sr14  1  0.694959  0.050061  0.045534  1
  Sr  Sr15  1  0.611500  0.920062  0.400720  1
  Sr  Sr16  1  0.388500  0.079938  0.599280  1
  Sr  Sr17  1  0.949939  0.305041  0.545534  1
  Mo  Mo18  1  0.676231  0.027359  0.712154  1
  Mo  Mo19  1  0.972641  0.323769  0.212154  1
  Mo  Mo20  1  0.665715  0.665715  0.250000  1
  Mo  Mo21  1  0.334285  0.334285  0.750000  1
  Mo  Mo22  1  0.323769  0.972641  0.287846  1
  Mo  Mo23  1  0.027359  0.676231  0.787846  1
  N  N24  1  0.351386  0.156662  0.336695  1
  N  N25  1  0.483088  0.014410  0.183461  1
  N  N26  1  0.272435  0.170607  0.877712  1
  N  N27  1  0.334323  0.854917  0.443356  1
  N  N28  1  0.727565  0.829393  0.122288  1
  N  N29  1  0.516912  0.985590  0.816539  1
  N  N30  1  0.137050  0.858626  0.690991  1
  N  N31  1  0.498748  0.368460  0.656033  1
  N  N32  1  0.985590  0.516912  0.683461  1
  N  N33  1  0.631540  0.501252  0.156033  1
  N  N34  1  0.156662  0.351386  0.163305  1
  N  N35  1  0.170607  0.272435  0.622288  1
  N  N36  1  0.368460  0.498748  0.843967  1
  N  N37  1  0.665677  0.145083  0.556644  1
  N  N38  1  0.843338  0.648614  0.836695  1
  N  N39  1  0.862950  0.141374  0.309009  1
  N  N40  1  0.145083  0.665677  0.943356  1
  N  N41  1  0.501252  0.631540  0.343967  1
  N  N42  1  0.141374  0.862950  0.190991  1
  N  N43  1  0.014410  0.483088  0.316539  1
  N  N44  1  0.858626  0.137050  0.809009  1
  N  N45  1  0.854917  0.334323  0.056644  1
  N  N46  1  0.648614  0.843338  0.663305  1
  N  N47  1  0.829393  0.727565  0.377712  1
