# generated using pymatgen
data_Sr7Mn4O15
_symmetry_space_group_name_H-M   'P 1'
_cell_length_a   6.89187529
_cell_length_b   9.78356407
_cell_length_c   10.57198051
_cell_angle_alpha   90.00000000
_cell_angle_beta   91.70521808
_cell_angle_gamma   90.00000000
_symmetry_Int_Tables_number   1
_chemical_formula_structural   Sr7Mn4O15
_chemical_formula_sum   'Sr14 Mn8 O30'
_cell_volume   712.52234673
_cell_formula_units_Z   2
loop_
 _symmetry_equiv_pos_site_id
 _symmetry_equiv_pos_as_xyz
  1  'x, y, z'
loop_
 _atom_site_type_symbol
 _atom_site_label
 _atom_site_symmetry_multiplicity
 _atom_site_fract_x
 _atom_site_fract_y
 _atom_site_fract_z
 _atom_site_occupancy
  Sr  Sr0  1  0.319781  0.504069  0.667978  1
  Sr  Sr1  1  0.680219  0.004069  0.832022  1
  Sr  Sr2  1  0.680219  0.495931  0.332022  1
  Sr  Sr3  1  0.319781  0.995931  0.167978  1
  Sr  Sr4  1  0.000000  0.500000  0.000000  1
  Sr  Sr5  1  0.000000  0.000000  0.500000  1
  Sr  Sr6  1  0.148503  0.649341  0.304675  1
  Sr  Sr7  1  0.851497  0.149341  0.195325  1
  Sr  Sr8  1  0.851497  0.350659  0.695325  1
  Sr  Sr9  1  0.148503  0.850659  0.804675  1
  Sr  Sr10  1  0.501356  0.685772  0.035363  1
  Sr  Sr11  1  0.498644  0.185772  0.464637  1
  Sr  Sr12  1  0.498644  0.314228  0.964637  1
  Sr  Sr13  1  0.501356  0.814228  0.535363  1
  Mn  Mn14  1  0.719718  0.668815  0.780427  1
  Mn  Mn15  1  0.280282  0.168815  0.719573  1
  Mn  Mn16  1  0.280282  0.331185  0.219573  1
  Mn  Mn17  1  0.719718  0.831185  0.280427  1
  Mn  Mn18  1  0.923348  0.667289  0.574328  1
  Mn  Mn19  1  0.076652  0.167289  0.925672  1
  Mn  Mn20  1  0.076652  0.332711  0.425672  1
  Mn  Mn21  1  0.923348  0.832711  0.074328  1
  O  O22  1  0.471712  0.746211  0.789519  1
  O  O23  1  0.528288  0.246211  0.710481  1
  O  O24  1  0.528288  0.253789  0.210481  1
  O  O25  1  0.471712  0.753789  0.289519  1
  O  O26  1  0.661988  0.518699  0.879990  1
  O  O27  1  0.338012  0.018699  0.620010  1
  O  O28  1  0.338012  0.481301  0.120010  1
  O  O29  1  0.661988  0.981301  0.379990  1
  O  O30  1  0.000000  0.500000  0.500000  1
  O  O31  1  0.000000  0.000000  0.000000  1
  O  O32  1  0.813218  0.718853  0.415477  1
  O  O33  1  0.186782  0.218853  0.084523  1
  O  O34  1  0.186782  0.281147  0.584523  1
  O  O35  1  0.813218  0.781147  0.915477  1
  O  O36  1  0.660786  0.582597  0.617797  1
  O  O37  1  0.339214  0.082597  0.882203  1
  O  O38  1  0.339214  0.417403  0.382203  1
  O  O39  1  0.660786  0.917403  0.117797  1
  O  O40  1  0.163145  0.746360  0.546022  1
  O  O41  1  0.836855  0.246360  0.953978  1
  O  O42  1  0.836855  0.253640  0.453978  1
  O  O43  1  0.163145  0.753640  0.046022  1
  O  O44  1  0.992595  0.898457  0.246778  1
  O  O45  1  0.007405  0.398457  0.253222  1
  O  O46  1  0.007405  0.101543  0.753222  1
  O  O47  1  0.992595  0.601543  0.746778  1
  O  O48  1  0.820768  0.825634  0.661708  1
  O  O49  1  0.179232  0.325634  0.838292  1
  O  O50  1  0.179232  0.174366  0.338292  1
  O  O51  1  0.820768  0.674366  0.161708  1
