# generated using pymatgen
data_HfIN
_symmetry_space_group_name_H-M   'P 1'
_cell_length_a   12.23417391
_cell_length_b   12.23417391
_cell_length_c   12.23417391
_cell_angle_alpha   17.44230775
_cell_angle_beta   17.44230775
_cell_angle_gamma   17.44230775
_symmetry_Int_Tables_number   1
_chemical_formula_structural   HfIN
_chemical_formula_sum   'Hf2 I2 N2'
_cell_volume   143.58201391
_cell_formula_units_Z   2
loop_
 _symmetry_equiv_pos_site_id
 _symmetry_equiv_pos_as_xyz
  1  'x, y, z'
loop_
 _atom_site_type_symbol
 _atom_site_label
 _atom_site_symmetry_multiplicity
 _atom_site_fract_x
 _atom_site_fract_y
 _atom_site_fract_z
 _atom_site_occupancy
  Hf  Hf0  1  0.201618  0.201618  0.201618  1
  Hf  Hf1  1  0.798382  0.798382  0.798382  1
  I  I2  1  0.595893  0.595893  0.595893  1
  I  I3  1  0.404107  0.404107  0.404107  1
  N  N4  1  0.857444  0.857444  0.857444  1
  N  N5  1  0.142556  0.142556  0.142556  1
