# generated using pymatgen
data_Li2Pr(NO3)5
_symmetry_space_group_name_H-M   'P 1'
_cell_length_a   9.16971306
_cell_length_b   10.67340818
_cell_length_c   11.92478953
_cell_angle_alpha   90.00000000
_cell_angle_beta   90.00000000
_cell_angle_gamma   90.00000000
_symmetry_Int_Tables_number   1
_chemical_formula_structural   Li2Pr(NO3)5
_chemical_formula_sum   'Li8 Pr4 N20 O60'
_cell_volume   1167.10407868
_cell_formula_units_Z   4
loop_
 _symmetry_equiv_pos_site_id
 _symmetry_equiv_pos_as_xyz
  1  'x, y, z'
loop_
 _atom_site_type_symbol
 _atom_site_label
 _atom_site_symmetry_multiplicity
 _atom_site_fract_x
 _atom_site_fract_y
 _atom_site_fract_z
 _atom_site_occupancy
  Li  Li0  1  0.618662  0.772218  0.819736  1
  Li  Li1  1  0.381338  0.227782  0.180264  1
  Li  Li2  1  0.118662  0.727782  0.319736  1
  Li  Li3  1  0.381338  0.227782  0.819736  1
  Li  Li4  1  0.118662  0.727782  0.680264  1
  Li  Li5  1  0.881338  0.272218  0.319736  1
  Li  Li6  1  0.881338  0.272218  0.680264  1
  Li  Li7  1  0.618662  0.772218  0.180264  1
  Pr  Pr8  1  0.000000  0.500000  0.000000  1
  Pr  Pr9  1  0.000000  0.000000  0.000000  1
  Pr  Pr10  1  0.500000  0.500000  0.500000  1
  Pr  Pr11  1  0.500000  0.000000  0.500000  1
  N  N12  1  0.599793  0.345217  0.707081  1
  N  N13  1  0.400207  0.654783  0.292919  1
  N  N14  1  0.900207  0.845217  0.207081  1
  N  N15  1  0.500000  0.000000  0.758732  1
  N  N16  1  0.670630  0.750913  0.500000  1
  N  N17  1  0.170630  0.749087  0.000000  1
  N  N18  1  0.099793  0.154783  0.792919  1
  N  N19  1  0.000000  0.500000  0.741268  1
  N  N20  1  0.709717  0.647007  0.000000  1
  N  N21  1  0.000000  0.500000  0.258732  1
  N  N22  1  0.209717  0.852993  0.500000  1
  N  N23  1  0.500000  0.000000  0.241268  1
  N  N24  1  0.290283  0.352993  0.000000  1
  N  N25  1  0.099793  0.154783  0.207081  1
  N  N26  1  0.829370  0.250913  0.000000  1
  N  N27  1  0.790283  0.147007  0.500000  1
  N  N28  1  0.400207  0.654783  0.707081  1
  N  N29  1  0.599793  0.345217  0.292919  1
  N  N30  1  0.900207  0.845217  0.792919  1
  N  N31  1  0.329370  0.249087  0.500000  1
  O  O32  1  0.464836  0.373581  0.700142  1
  O  O33  1  0.964836  0.126419  0.200142  1
  O  O34  1  0.943289  0.410068  0.201325  1
  O  O35  1  0.101845  0.780245  0.500000  1
  O  O36  1  0.813681  0.887656  0.869077  1
  O  O37  1  0.943289  0.410068  0.798675  1
  O  O38  1  0.853594  0.776608  0.283017  1
  O  O39  1  0.500000  0.000000  0.861782  1
  O  O40  1  0.233358  0.389090  0.091816  1
  O  O41  1  0.733358  0.110910  0.408184  1
  O  O42  1  0.353594  0.723392  0.216983  1
  O  O43  1  0.853594  0.776608  0.716983  1
  O  O44  1  0.035164  0.873581  0.200142  1
  O  O45  1  0.353594  0.723392  0.783017  1
  O  O46  1  0.535164  0.626419  0.700142  1
  O  O47  1  0.056711  0.589932  0.798675  1
  O  O48  1  0.000000  0.500000  0.638218  1
  O  O49  1  0.233358  0.389090  0.908184  1
  O  O50  1  0.766642  0.610910  0.908184  1
  O  O51  1  0.313681  0.612344  0.630923  1
  O  O52  1  0.035164  0.873581  0.799858  1
  O  O53  1  0.813681  0.887656  0.130923  1
  O  O54  1  0.964836  0.126419  0.799858  1
  O  O55  1  0.766642  0.610910  0.091816  1
  O  O56  1  0.556711  0.910068  0.701325  1
  O  O57  1  0.266642  0.889090  0.408184  1
  O  O58  1  0.528533  0.753108  0.500000  1
  O  O59  1  0.000000  0.500000  0.361782  1
  O  O60  1  0.686319  0.387656  0.369077  1
  O  O61  1  0.146406  0.223392  0.716983  1
  O  O62  1  0.535164  0.626419  0.299858  1
  O  O63  1  0.263729  0.146529  0.500000  1
  O  O64  1  0.443289  0.089932  0.298675  1
  O  O65  1  0.763729  0.353471  0.000000  1
  O  O66  1  0.146406  0.223392  0.283017  1
  O  O67  1  0.601845  0.719755  0.000000  1
  O  O68  1  0.471467  0.246892  0.500000  1
  O  O69  1  0.443289  0.089932  0.701325  1
  O  O70  1  0.186319  0.112344  0.130923  1
  O  O71  1  0.732603  0.646304  0.500000  1
  O  O72  1  0.186319  0.112344  0.869077  1
  O  O73  1  0.767397  0.146304  0.000000  1
  O  O74  1  0.646406  0.276608  0.216983  1
  O  O75  1  0.056711  0.589932  0.201325  1
  O  O76  1  0.733358  0.110910  0.591816  1
  O  O77  1  0.398155  0.280245  0.000000  1
  O  O78  1  0.464836  0.373581  0.299858  1
  O  O79  1  0.556711  0.910068  0.298675  1
  O  O80  1  0.313681  0.612344  0.369077  1
  O  O81  1  0.028533  0.746892  0.000000  1
  O  O82  1  0.500000  0.000000  0.138218  1
  O  O83  1  0.236271  0.646529  0.000000  1
  O  O84  1  0.971467  0.253108  0.000000  1
  O  O85  1  0.646406  0.276608  0.783017  1
  O  O86  1  0.736271  0.853471  0.500000  1
  O  O87  1  0.266642  0.889090  0.591816  1
  O  O88  1  0.898155  0.219755  0.500000  1
  O  O89  1  0.232603  0.853696  0.000000  1
  O  O90  1  0.686319  0.387656  0.630923  1
  O  O91  1  0.267397  0.353696  0.500000  1
