# generated using pymatgen
data_KNa(BH4)2
_symmetry_space_group_name_H-M   'P 1'
_cell_length_a   7.87129482
_cell_length_b   7.87129482
_cell_length_c   7.87129482
_cell_angle_alpha   33.65614691
_cell_angle_beta   33.65614691
_cell_angle_gamma   33.65614691
_symmetry_Int_Tables_number   1
_chemical_formula_structural   KNa(BH4)2
_chemical_formula_sum   'K1 Na1 B2 H8'
_cell_volume   133.44335589
_cell_formula_units_Z   1
loop_
 _symmetry_equiv_pos_site_id
 _symmetry_equiv_pos_as_xyz
  1  'x, y, z'
loop_
 _atom_site_type_symbol
 _atom_site_label
 _atom_site_symmetry_multiplicity
 _atom_site_fract_x
 _atom_site_fract_y
 _atom_site_fract_z
 _atom_site_occupancy
  K  K0  1  0.647486  0.647486  0.647486  1
  Na  Na1  1  0.143534  0.143534  0.143534  1
  B  B2  1  0.407873  0.407873  0.407873  1
  B  B3  1  0.896254  0.896254  0.896254  1
  H  H4  1  0.142806  0.858482  0.634424  1
  H  H5  1  0.462918  0.462918  0.462918  1
  H  H6  1  0.858482  0.634424  0.142806  1
  H  H7  1  0.681960  0.241620  0.243636  1
  H  H8  1  0.634424  0.142806  0.858482  1
  H  H9  1  0.951627  0.951627  0.951627  1
  H  H10  1  0.241620  0.243636  0.681960  1
  H  H11  1  0.243636  0.681960  0.241620  1
