# generated using pymatgen
data_P(WO4)2
_symmetry_space_group_name_H-M   'P 1'
_cell_length_a   5.37434209
_cell_length_b   6.72677559
_cell_length_c   17.77983834
_cell_angle_alpha   90.00000000
_cell_angle_beta   90.00000000
_cell_angle_gamma   90.00000000
_symmetry_Int_Tables_number   1
_chemical_formula_structural   P(WO4)2
_chemical_formula_sum   'P4 W8 O32'
_cell_volume   642.77659447
_cell_formula_units_Z   4
loop_
 _symmetry_equiv_pos_site_id
 _symmetry_equiv_pos_as_xyz
  1  'x, y, z'
loop_
 _atom_site_type_symbol
 _atom_site_label
 _atom_site_symmetry_multiplicity
 _atom_site_fract_x
 _atom_site_fract_y
 _atom_site_fract_z
 _atom_site_occupancy
  P  P0  1  0.767684  0.549585  0.311264  1
  P  P1  1  0.732316  0.450415  0.811264  1
  P  P2  1  0.267684  0.950415  0.688736  1
  P  P3  1  0.232316  0.049586  0.188736  1
  W  W4  1  0.758020  0.909263  0.453791  1
  W  W5  1  0.741980  0.090737  0.953791  1
  W  W6  1  0.258020  0.590737  0.546209  1
  W  W7  1  0.241980  0.409263  0.046209  1
  W  W8  1  0.742151  0.749675  0.128400  1
  W  W9  1  0.757849  0.250325  0.628400  1
  W  W10  1  0.242151  0.750325  0.871600  1
  W  W11  1  0.257849  0.249675  0.371600  1
  O  O12  1  0.053172  0.767176  0.495384  1
  O  O13  1  0.446828  0.232824  0.995384  1
  O  O14  1  0.553172  0.732824  0.504616  1
  O  O15  1  0.946828  0.267176  0.004616  1
  O  O16  1  0.756393  0.737876  0.359241  1
  O  O17  1  0.743607  0.262124  0.859241  1
  O  O18  1  0.256393  0.762124  0.640759  1
  O  O19  1  0.243607  0.237876  0.140759  1
  O  O20  1  0.738340  0.608742  0.228159  1
  O  O21  1  0.761660  0.391258  0.728159  1
  O  O22  1  0.238340  0.891258  0.771841  1
  O  O23  1  0.261660  0.108742  0.271841  1
  O  O24  1  0.023087  0.598767  0.099388  1
  O  O25  1  0.476913  0.401233  0.599388  1
  O  O26  1  0.523087  0.901233  0.900612  1
  O  O27  1  0.976913  0.098767  0.400612  1
  O  O28  1  0.528298  0.561816  0.090429  1
  O  O29  1  0.971702  0.438184  0.590429  1
  O  O30  1  0.028298  0.938184  0.909571  1
  O  O31  1  0.471702  0.061816  0.409571  1
  O  O32  1  0.554808  0.404773  0.331650  1
  O  O33  1  0.945192  0.595227  0.831650  1
  O  O34  1  0.054808  0.095227  0.668350  1
  O  O35  1  0.445192  0.904773  0.168350  1
  O  O36  1  0.022409  0.445007  0.320496  1
  O  O37  1  0.477591  0.554993  0.820496  1
  O  O38  1  0.522409  0.054993  0.679504  1
  O  O39  1  0.977591  0.945007  0.179504  1
  O  O40  1  0.757933  0.094245  0.542985  1
  O  O41  1  0.742067  0.905755  0.042985  1
  O  O42  1  0.257933  0.405755  0.457015  1
  O  O43  1  0.242067  0.594245  0.957015  1
