# generated using pymatgen
data_K2NaH5(CO4)2
_symmetry_space_group_name_H-M   'P 1'
_cell_length_a   8.00471476
_cell_length_b   9.42343476
_cell_length_c   11.61246552
_cell_angle_alpha   90.00000000
_cell_angle_beta   90.00000000
_cell_angle_gamma   90.00000000
_symmetry_Int_Tables_number   1
_chemical_formula_structural   K2NaH5(CO4)2
_chemical_formula_sum   'K8 Na4 H20 C8 O32'
_cell_volume   875.95042278
_cell_formula_units_Z   4
loop_
 _symmetry_equiv_pos_site_id
 _symmetry_equiv_pos_as_xyz
  1  'x, y, z'
loop_
 _atom_site_type_symbol
 _atom_site_label
 _atom_site_symmetry_multiplicity
 _atom_site_fract_x
 _atom_site_fract_y
 _atom_site_fract_z
 _atom_site_occupancy
  K  K0  1  0.488378  0.799238  0.117414  1
  K  K1  1  0.988378  0.200762  0.882586  1
  K  K2  1  0.011622  0.299238  0.382586  1
  K  K3  1  0.511622  0.700762  0.617414  1
  K  K4  1  0.511622  0.200762  0.882586  1
  K  K5  1  0.011622  0.799238  0.117414  1
  K  K6  1  0.988378  0.700762  0.617414  1
  K  K7  1  0.488378  0.299238  0.382586  1
  Na  Na8  1  0.750000  0.960685  0.336408  1
  Na  Na9  1  0.250000  0.039315  0.663592  1
  Na  Na10  1  0.750000  0.460685  0.163592  1
  Na  Na11  1  0.250000  0.539315  0.836408  1
  H  H12  1  0.750000  0.497483  0.467426  1
  H  H13  1  0.250000  0.502517  0.532574  1
  H  H14  1  0.750000  0.997483  0.032574  1
  H  H15  1  0.250000  0.002517  0.967426  1
  H  H16  1  0.888680  0.600384  0.880464  1
  H  H17  1  0.388680  0.399616  0.119536  1
  H  H18  1  0.611320  0.100384  0.619536  1
  H  H19  1  0.111320  0.899616  0.380464  1
  H  H20  1  0.111320  0.399616  0.119536  1
  H  H21  1  0.611320  0.600384  0.880464  1
  H  H22  1  0.388680  0.899616  0.380464  1
  H  H23  1  0.888680  0.100384  0.619536  1
  H  H24  1  0.879820  0.465033  0.800629  1
  H  H25  1  0.379820  0.534967  0.199371  1
  H  H26  1  0.620180  0.965033  0.699371  1
  H  H27  1  0.120180  0.034967  0.300629  1
  H  H28  1  0.120180  0.534967  0.199371  1
  H  H29  1  0.620180  0.465033  0.800629  1
  H  H30  1  0.379820  0.034967  0.300629  1
  H  H31  1  0.879820  0.965033  0.699371  1
  C  C32  1  0.750000  0.661850  0.356736  1
  C  C33  1  0.250000  0.338150  0.643264  1
  C  C34  1  0.750000  0.161850  0.143264  1
  C  C35  1  0.250000  0.838150  0.856736  1
  C  C36  1  0.750000  0.347092  0.628976  1
  C  C37  1  0.250000  0.652908  0.371024  1
  C  C38  1  0.750000  0.847092  0.871024  1
  C  C39  1  0.250000  0.152908  0.128976  1
  O  O40  1  0.750000  0.744724  0.443225  1
  O  O41  1  0.250000  0.255276  0.556775  1
  O  O42  1  0.750000  0.244724  0.056775  1
  O  O43  1  0.250000  0.755276  0.943225  1
  O  O44  1  0.750000  0.700309  0.251426  1
  O  O45  1  0.250000  0.299691  0.748574  1
  O  O46  1  0.750000  0.200309  0.248574  1
  O  O47  1  0.250000  0.799691  0.751426  1
  O  O48  1  0.750000  0.518627  0.375712  1
  O  O49  1  0.250000  0.481373  0.624288  1
  O  O50  1  0.750000  0.018627  0.124288  1
  O  O51  1  0.250000  0.981373  0.875712  1
  O  O52  1  0.750000  0.475869  0.586532  1
  O  O53  1  0.250000  0.524131  0.413468  1
  O  O54  1  0.750000  0.975869  0.913468  1
  O  O55  1  0.250000  0.024131  0.086532  1
  O  O56  1  0.750000  0.237796  0.560870  1
  O  O57  1  0.250000  0.762204  0.439130  1
  O  O58  1  0.750000  0.737796  0.939130  1
  O  O59  1  0.250000  0.262204  0.060870  1
  O  O60  1  0.750000  0.332697  0.740487  1
  O  O61  1  0.250000  0.667303  0.259513  1
  O  O62  1  0.750000  0.832697  0.759513  1
  O  O63  1  0.250000  0.167303  0.240487  1
  O  O64  1  0.959431  0.527501  0.842633  1
  O  O65  1  0.459431  0.472499  0.157367  1
  O  O66  1  0.540569  0.027501  0.657367  1
  O  O67  1  0.040569  0.972499  0.342633  1
  O  O68  1  0.040569  0.472499  0.157367  1
  O  O69  1  0.540569  0.527501  0.842633  1
  O  O70  1  0.459431  0.972499  0.342633  1
  O  O71  1  0.959431  0.027501  0.657367  1
