# generated using pymatgen
data_ZnS
_symmetry_space_group_name_H-M   'P 1'
_cell_length_a   3.85386688
_cell_length_b   3.85386688
_cell_length_c   50.39060574
_cell_angle_alpha   90.00000000
_cell_angle_beta   90.00000000
_cell_angle_gamma   120.00000000
_symmetry_Int_Tables_number   1
_chemical_formula_structural   ZnS
_chemical_formula_sum   'Zn16 S16'
_cell_volume   648.14717115
_cell_formula_units_Z   16
loop_
 _symmetry_equiv_pos_site_id
 _symmetry_equiv_pos_as_xyz
  1  'x, y, z'
loop_
 _atom_site_type_symbol
 _atom_site_label
 _atom_site_symmetry_multiplicity
 _atom_site_fract_x
 _atom_site_fract_y
 _atom_site_fract_z
 _atom_site_occupancy
  Zn  Zn0  1  0.333333  0.666667  0.500005  1
  Zn  Zn1  1  0.333333  0.666667  0.875007  1
  Zn  Zn2  1  0.666667  0.333333  0.187511  1
  Zn  Zn3  1  0.000000  0.000000  0.437498  1
  Zn  Zn4  1  0.333333  0.666667  0.125013  1
  Zn  Zn5  1  0.666667  0.333333  0.000005  1
  Zn  Zn6  1  0.666667  0.333333  0.625013  1
  Zn  Zn7  1  0.000000  0.000000  0.250004  1
  Zn  Zn8  1  0.000000  0.000000  0.937498  1
  Zn  Zn9  1  0.666667  0.333333  0.812501  1
  Zn  Zn10  1  0.333333  0.666667  0.687511  1
  Zn  Zn11  1  0.000000  0.000000  0.750004  1
  Zn  Zn12  1  0.666667  0.333333  0.375007  1
  Zn  Zn13  1  0.000000  0.000000  0.562527  1
  Zn  Zn14  1  0.333333  0.666667  0.312501  1
  Zn  Zn15  1  0.000000  0.000000  0.062527  1
  S  S16  1  0.666667  0.333333  0.046910  1
  S  S17  1  0.000000  0.000000  0.109366  1
  S  S18  1  0.333333  0.666667  0.359365  1
  S  S19  1  0.666667  0.333333  0.421860  1
  S  S20  1  0.666667  0.333333  0.671867  1
  S  S21  1  0.333333  0.666667  0.546910  1
  S  S22  1  0.666667  0.333333  0.859365  1
  S  S23  1  0.000000  0.000000  0.484320  1
  S  S24  1  0.000000  0.000000  0.984320  1
  S  S25  1  0.000000  0.000000  0.796854  1
  S  S26  1  0.333333  0.666667  0.734352  1
  S  S27  1  0.000000  0.000000  0.296854  1
  S  S28  1  0.333333  0.666667  0.921860  1
  S  S29  1  0.000000  0.000000  0.609366  1
  S  S30  1  0.333333  0.666667  0.171867  1
  S  S31  1  0.666667  0.333333  0.234352  1
