# generated using pymatgen
data_Si2Ag6O7
_symmetry_space_group_name_H-M   'P 1'
_cell_length_a   5.44173140
_cell_length_b   9.85129259
_cell_length_c   16.24155891
_cell_angle_alpha   90.00000000
_cell_angle_beta   90.66617117
_cell_angle_gamma   90.00000000
_symmetry_Int_Tables_number   1
_chemical_formula_structural   Si2Ag6O7
_chemical_formula_sum   'Si8 Ag24 O28'
_cell_volume   870.62007247
_cell_formula_units_Z   4
loop_
 _symmetry_equiv_pos_site_id
 _symmetry_equiv_pos_as_xyz
  1  'x, y, z'
loop_
 _atom_site_type_symbol
 _atom_site_label
 _atom_site_symmetry_multiplicity
 _atom_site_fract_x
 _atom_site_fract_y
 _atom_site_fract_z
 _atom_site_occupancy
  Si  Si0  1  0.252199  0.452889  0.062697  1
  Si  Si1  1  0.747801  0.952889  0.937303  1
  Si  Si2  1  0.722367  0.738516  0.803471  1
  Si  Si3  1  0.277633  0.238516  0.196529  1
  Si  Si4  1  0.248019  0.437363  0.539469  1
  Si  Si5  1  0.751981  0.937363  0.460531  1
  Si  Si6  1  0.753181  0.746052  0.307012  1
  Si  Si7  1  0.246819  0.246052  0.692988  1
  Ag  Ag8  1  0.286326  0.706109  0.186181  1
  Ag  Ag9  1  0.713674  0.206109  0.813819  1
  Ag  Ag10  1  0.280805  0.697207  0.667135  1
  Ag  Ag11  1  0.719195  0.197207  0.332865  1
  Ag  Ag12  1  0.261438  0.963431  0.291409  1
  Ag  Ag13  1  0.738562  0.463431  0.708591  1
  Ag  Ag14  1  0.267846  0.983178  0.802487  1
  Ag  Ag15  1  0.732154  0.483178  0.197513  1
  Ag  Ag16  1  0.281275  0.188526  0.923607  1
  Ag  Ag17  1  0.718725  0.688526  0.076393  1
  Ag  Ag18  1  0.712520  0.256664  0.020392  1
  Ag  Ag19  1  0.287480  0.756664  0.979608  1
  Ag  Ag20  1  0.282908  0.720529  0.453717  1
  Ag  Ag21  1  0.717092  0.220529  0.546283  1
  Ag  Ag22  1  0.271927  0.502325  0.327930  1
  Ag  Ag23  1  0.728073  0.002325  0.672070  1
  Ag  Ag24  1  0.328928  0.483785  0.824403  1
  Ag  Ag25  1  0.671072  0.983785  0.175597  1
  Ag  Ag26  1  0.711265  0.667451  0.572230  1
  Ag  Ag27  1  0.288735  0.167451  0.427770  1
  Ag  Ag28  1  0.722353  0.485772  0.428138  1
  Ag  Ag29  1  0.277647  0.985772  0.571862  1
  Ag  Ag30  1  0.838052  0.499200  0.919834  1
  Ag  Ag31  1  0.161948  0.999200  0.080166  1
  O  O32  1  0.150778  0.392083  0.974453  1
  O  O33  1  0.849222  0.892083  0.025547  1
  O  O34  1  0.555388  0.453719  0.068613  1
  O  O35  1  0.444612  0.953719  0.931387  1
  O  O36  1  0.145028  0.609277  0.073874  1
  O  O37  1  0.854972  0.109277  0.926126  1
  O  O38  1  0.863606  0.858541  0.860766  1
  O  O39  1  0.136394  0.358541  0.139234  1
  O  O40  1  0.927109  0.647963  0.755169  1
  O  O41  1  0.072891  0.147963  0.244831  1
  O  O42  1  0.534716  0.819888  0.740173  1
  O  O43  1  0.465284  0.319888  0.259827  1
  O  O44  1  0.565857  0.644096  0.870449  1
  O  O45  1  0.434143  0.144096  0.129551  1
  O  O46  1  0.153392  0.380545  0.449675  1
  O  O47  1  0.846608  0.880545  0.550325  1
  O  O48  1  0.132922  0.589543  0.557042  1
  O  O49  1  0.867078  0.089543  0.442958  1
  O  O50  1  0.553005  0.442845  0.548297  1
  O  O51  1  0.446995  0.942845  0.451703  1
  O  O52  1  0.141604  0.332634  0.611704  1
  O  O53  1  0.858396  0.832634  0.388296  1
  O  O54  1  0.867903  0.810060  0.222783  1
  O  O55  1  0.132097  0.310060  0.777217  1
  O  O56  1  0.852671  0.587581  0.317258  1
  O  O57  1  0.147329  0.087581  0.682742  1
  O  O58  1  0.446909  0.753026  0.309404  1
  O  O59  1  0.553091  0.253026  0.690596  1
