# generated using pymatgen
data_LiCrPO4
_symmetry_space_group_name_H-M   'P 1'
_cell_length_a   5.60158081
_cell_length_b   6.31073065
_cell_length_c   9.35155284
_cell_angle_alpha   75.90984023
_cell_angle_beta   83.06742854
_cell_angle_gamma   76.67395647
_symmetry_Int_Tables_number   1
_chemical_formula_structural   LiCrPO4
_chemical_formula_sum   'Li4 Cr4 P4 O16'
_cell_volume   311.26748101
_cell_formula_units_Z   4
loop_
 _symmetry_equiv_pos_site_id
 _symmetry_equiv_pos_as_xyz
  1  'x, y, z'
loop_
 _atom_site_type_symbol
 _atom_site_label
 _atom_site_symmetry_multiplicity
 _atom_site_fract_x
 _atom_site_fract_y
 _atom_site_fract_z
 _atom_site_occupancy
  Li  Li0  1  0.353867  0.005687  0.757423  1
  Li  Li1  1  0.808076  0.153753  0.569591  1
  Li  Li2  1  0.191924  0.846247  0.430409  1
  Li  Li3  1  0.646133  0.994313  0.242577  1
  Cr  Cr4  1  0.690136  0.349940  0.894898  1
  Cr  Cr5  1  0.186025  0.529936  0.725731  1
  Cr  Cr6  1  0.813975  0.470064  0.274269  1
  Cr  Cr7  1  0.309864  0.650060  0.105102  1
  P  P8  1  0.808480  0.805702  0.946684  1
  P  P9  1  0.683760  0.682549  0.570328  1
  P  P10  1  0.316240  0.317451  0.429672  1
  P  P11  1  0.191520  0.194298  0.053316  1
  O  O12  1  0.616120  0.667491  0.931173  1
  O  O13  1  0.069544  0.715021  0.881849  1
  O  O14  1  0.165287  0.215253  0.886333  1
  O  O15  1  0.702857  0.044508  0.862196  1
  O  O16  1  0.866806  0.825383  0.583673  1
  O  O17  1  0.780348  0.439232  0.661054  1
  O  O18  1  0.414341  0.771352  0.630134  1
  O  O19  1  0.334583  0.311621  0.595356  1
  O  O20  1  0.665417  0.688379  0.404644  1
  O  O21  1  0.585659  0.228648  0.369866  1
  O  O22  1  0.219652  0.560768  0.338946  1
  O  O23  1  0.133194  0.174617  0.416327  1
  O  O24  1  0.297143  0.955492  0.137804  1
  O  O25  1  0.834713  0.784747  0.113667  1
  O  O26  1  0.930456  0.284979  0.118151  1
  O  O27  1  0.383880  0.332509  0.068827  1
