# generated using pymatgen
data_Ba5Re3ClO15
_symmetry_space_group_name_H-M   'P 1'
_cell_length_a   11.12461404
_cell_length_b   11.12461404
_cell_length_c   7.93773292
_cell_angle_alpha   90.00000000
_cell_angle_beta   90.00000000
_cell_angle_gamma   120.00000000
_symmetry_Int_Tables_number   1
_chemical_formula_structural   Ba5Re3ClO15
_chemical_formula_sum   'Ba10 Re6 Cl2 O30'
_cell_volume   850.74032506
_cell_formula_units_Z   2
loop_
 _symmetry_equiv_pos_site_id
 _symmetry_equiv_pos_as_xyz
  1  'x, y, z'
loop_
 _atom_site_type_symbol
 _atom_site_label
 _atom_site_symmetry_multiplicity
 _atom_site_fract_x
 _atom_site_fract_y
 _atom_site_fract_z
 _atom_site_occupancy
  Ba  Ba0  1  0.264230  0.264230  0.226764  1
  Ba  Ba1  1  0.000000  0.264230  0.726764  1
  Ba  Ba2  1  0.735770  0.000000  0.226764  1
  Ba  Ba3  1  0.000000  0.735770  0.226764  1
  Ba  Ba4  1  0.333333  0.666667  0.486018  1
  Ba  Ba5  1  0.666667  0.333333  0.486018  1
  Ba  Ba6  1  0.735770  0.735770  0.726764  1
  Ba  Ba7  1  0.264230  0.000000  0.726764  1
  Ba  Ba8  1  0.333333  0.666667  0.986018  1
  Ba  Ba9  1  0.666667  0.333333  0.986018  1
  Re  Re10  1  0.391214  0.391214  0.781166  1
  Re  Re11  1  0.000000  0.391214  0.281166  1
  Re  Re12  1  0.000000  0.608786  0.781166  1
  Re  Re13  1  0.391214  0.000000  0.281166  1
  Re  Re14  1  0.608786  0.608786  0.281166  1
  Re  Re15  1  0.608786  0.000000  0.781166  1
  Cl  Cl16  1  0.000000  0.000000  0.942332  1
  Cl  Cl17  1  0.000000  0.000000  0.442332  1
  O  O18  1  0.130532  0.553262  0.741586  1
  O  O19  1  0.389353  0.257691  0.921856  1
  O  O20  1  0.868338  0.610647  0.921856  1
  O  O21  1  0.131662  0.389353  0.421856  1
  O  O22  1  0.703790  0.703790  0.103162  1
  O  O23  1  0.422730  0.869468  0.741586  1
  O  O24  1  0.130532  0.577270  0.241586  1
  O  O25  1  0.446738  0.577270  0.741586  1
  O  O26  1  0.869468  0.446738  0.241586  1
  O  O27  1  0.389353  0.131662  0.421856  1
  O  O28  1  0.000000  0.703790  0.603162  1
  O  O29  1  0.610647  0.742309  0.421856  1
  O  O30  1  0.742309  0.610647  0.421856  1
  O  O31  1  0.742309  0.131662  0.921856  1
  O  O32  1  0.703790  0.000000  0.603162  1
  O  O33  1  0.296210  0.000000  0.103162  1
  O  O34  1  0.553262  0.130532  0.741586  1
  O  O35  1  0.422730  0.553262  0.241586  1
  O  O36  1  0.869468  0.422730  0.741586  1
  O  O37  1  0.446738  0.869468  0.241586  1
  O  O38  1  0.296210  0.296210  0.603162  1
  O  O39  1  0.577270  0.446738  0.741586  1
  O  O40  1  0.000000  0.296210  0.103162  1
  O  O41  1  0.553262  0.422730  0.241586  1
  O  O42  1  0.577270  0.130532  0.241586  1
  O  O43  1  0.868338  0.257691  0.421856  1
  O  O44  1  0.131662  0.742309  0.921856  1
  O  O45  1  0.610647  0.868338  0.921856  1
  O  O46  1  0.257691  0.868338  0.421856  1
  O  O47  1  0.257691  0.389353  0.921856  1
