# generated using pymatgen
data_LiMnFeF6
_symmetry_space_group_name_H-M   'P 1'
_cell_length_a   8.88236077
_cell_length_b   8.88236077
_cell_length_c   4.81908944
_cell_angle_alpha   90.00000000
_cell_angle_beta   90.00000000
_cell_angle_gamma   120.00000000
_symmetry_Int_Tables_number   1
_chemical_formula_structural   LiMnFeF6
_chemical_formula_sum   'Li3 Mn3 Fe3 F18'
_cell_volume   329.27020598
_cell_formula_units_Z   3
loop_
 _symmetry_equiv_pos_site_id
 _symmetry_equiv_pos_as_xyz
  1  'x, y, z'
loop_
 _atom_site_type_symbol
 _atom_site_label
 _atom_site_symmetry_multiplicity
 _atom_site_fract_x
 _atom_site_fract_y
 _atom_site_fract_z
 _atom_site_occupancy
  Li  Li0  1  0.702479  0.000000  0.500000  1
  Li  Li1  1  0.297521  0.297521  0.500000  1
  Li  Li2  1  0.000000  0.702479  0.500000  1
  Mn  Mn3  1  0.638646  0.638646  0.000000  1
  Mn  Mn4  1  0.000000  0.361354  0.000000  1
  Mn  Mn5  1  0.361354  0.000000  0.000000  1
  Fe  Fe6  1  0.666667  0.333333  0.497955  1
  Fe  Fe7  1  0.333333  0.666667  0.502045  1
  Fe  Fe8  1  0.000000  0.000000  0.000000  1
  F  F9  1  0.886376  0.787368  0.224777  1
  F  F10  1  0.900992  0.113624  0.224777  1
  F  F11  1  0.212632  0.099008  0.224777  1
  F  F12  1  0.099008  0.212632  0.775223  1
  F  F13  1  0.113624  0.900992  0.775223  1
  F  F14  1  0.787368  0.886376  0.775223  1
  F  F15  1  0.543154  0.420357  0.270562  1
  F  F16  1  0.579643  0.122797  0.270562  1
  F  F17  1  0.877203  0.456846  0.270562  1
  F  F18  1  0.122797  0.579643  0.729438  1
  F  F19  1  0.456846  0.877203  0.729438  1
  F  F20  1  0.420357  0.543154  0.729438  1
  F  F21  1  0.221910  0.454095  0.278284  1
  F  F22  1  0.545905  0.767815  0.278284  1
  F  F23  1  0.232185  0.778090  0.278284  1
  F  F24  1  0.767815  0.545905  0.721716  1
  F  F25  1  0.778090  0.232185  0.721716  1
  F  F26  1  0.454095  0.221910  0.721716  1
