# generated using pymatgen
data_KVPbO4
_symmetry_space_group_name_H-M   'P 1'
_cell_length_a   5.89671801
_cell_length_b   7.85086452
_cell_length_c   10.33260303
_cell_angle_alpha   90.00000000
_cell_angle_beta   90.00000000
_cell_angle_gamma   90.00000000
_symmetry_Int_Tables_number   1
_chemical_formula_structural   KVPbO4
_chemical_formula_sum   'K4 V4 Pb4 O16'
_cell_volume   478.34097792
_cell_formula_units_Z   4
loop_
 _symmetry_equiv_pos_site_id
 _symmetry_equiv_pos_as_xyz
  1  'x, y, z'
loop_
 _atom_site_type_symbol
 _atom_site_label
 _atom_site_symmetry_multiplicity
 _atom_site_fract_x
 _atom_site_fract_y
 _atom_site_fract_z
 _atom_site_occupancy
  K  K0  1  0.250000  0.679214  0.589400  1
  K  K1  1  0.750000  0.320786  0.410600  1
  K  K2  1  0.250000  0.179214  0.910600  1
  K  K3  1  0.750000  0.820786  0.089400  1
  V  V4  1  0.750000  0.756913  0.420671  1
  V  V5  1  0.250000  0.243087  0.579329  1
  V  V6  1  0.750000  0.256913  0.079329  1
  V  V7  1  0.250000  0.743087  0.920671  1
  Pb  Pb8  1  0.750000  0.977534  0.716866  1
  Pb  Pb9  1  0.250000  0.022466  0.283134  1
  Pb  Pb10  1  0.750000  0.477534  0.783134  1
  Pb  Pb11  1  0.250000  0.522466  0.216866  1
  O  O12  1  0.250000  0.028562  0.606967  1
  O  O13  1  0.750000  0.971438  0.393033  1
  O  O14  1  0.250000  0.528562  0.893033  1
  O  O15  1  0.750000  0.471438  0.106967  1
  O  O16  1  0.750000  0.719870  0.590402  1
  O  O17  1  0.250000  0.280130  0.409598  1
  O  O18  1  0.750000  0.219870  0.909598  1
  O  O19  1  0.250000  0.780130  0.090402  1
  O  O20  1  0.506677  0.664285  0.353740  1
  O  O21  1  0.006677  0.335715  0.646260  1
  O  O22  1  0.993323  0.164285  0.146260  1
  O  O23  1  0.493323  0.835715  0.853740  1
  O  O24  1  0.493323  0.335715  0.646260  1
  O  O25  1  0.993323  0.664285  0.353740  1
  O  O26  1  0.006677  0.835715  0.853740  1
  O  O27  1  0.506677  0.164285  0.146260  1
