# generated using pymatgen
data_Zn3(PO4)2
_symmetry_space_group_name_H-M   'P 1'
_cell_length_a   5.03661039
_cell_length_b   5.03661039
_cell_length_c   15.52403159
_cell_angle_alpha   77.96219284
_cell_angle_beta   102.03780716
_cell_angle_gamma   111.48888377
_symmetry_Int_Tables_number   1
_chemical_formula_structural   Zn3(PO4)2
_chemical_formula_sum   'Zn6 P4 O16'
_cell_volume   354.57412760
_cell_formula_units_Z   2
loop_
 _symmetry_equiv_pos_site_id
 _symmetry_equiv_pos_as_xyz
  1  'x, y, z'
loop_
 _atom_site_type_symbol
 _atom_site_label
 _atom_site_symmetry_multiplicity
 _atom_site_fract_x
 _atom_site_fract_y
 _atom_site_fract_z
 _atom_site_occupancy
  Zn  Zn0  1  0.828988  0.275234  0.567024  1
  Zn  Zn1  1  0.752062  0.752062  0.750000  1
  Zn  Zn2  1  0.724766  0.171012  0.067024  1
  Zn  Zn3  1  0.275234  0.828988  0.932976  1
  Zn  Zn4  1  0.247938  0.247938  0.250000  1
  Zn  Zn5  1  0.171012  0.724766  0.432976  1
  P  P6  1  0.904947  0.233358  0.872072  1
  P  P7  1  0.095053  0.766642  0.127928  1
  P  P8  1  0.233358  0.904947  0.627928  1
  P  P9  1  0.766642  0.095053  0.372072  1
  O  O10  1  0.029619  0.026491  0.353294  1
  O  O11  1  0.630643  0.223687  0.283604  1
  O  O12  1  0.567154  0.818162  0.419824  1
  O  O13  1  0.973509  0.970381  0.853294  1
  O  O14  1  0.970381  0.973509  0.646706  1
  O  O15  1  0.776313  0.369357  0.783604  1
  O  O16  1  0.026491  0.029619  0.146706  1
  O  O17  1  0.432846  0.181838  0.580176  1
  O  O18  1  0.223687  0.630643  0.216396  1
  O  O19  1  0.676373  0.106601  0.938704  1
  O  O20  1  0.818162  0.567154  0.080176  1
  O  O21  1  0.323627  0.893399  0.061296  1
  O  O22  1  0.893399  0.323627  0.438704  1
  O  O23  1  0.181838  0.432846  0.919824  1
  O  O24  1  0.106601  0.676373  0.561296  1
  O  O25  1  0.369357  0.776313  0.716396  1
