# generated using pymatgen
data_ReO2F3
_symmetry_space_group_name_H-M   'P 1'
_cell_length_a   7.74579266
_cell_length_b   7.74579266
_cell_length_c   13.87851588
_cell_angle_alpha   90.00000000
_cell_angle_beta   90.00000000
_cell_angle_gamma   95.33161316
_symmetry_Int_Tables_number   1
_chemical_formula_structural   ReO2F3
_chemical_formula_sum   'Re8 O16 F24'
_cell_volume   829.07104109
_cell_formula_units_Z   8
loop_
 _symmetry_equiv_pos_site_id
 _symmetry_equiv_pos_as_xyz
  1  'x, y, z'
loop_
 _atom_site_type_symbol
 _atom_site_label
 _atom_site_symmetry_multiplicity
 _atom_site_fract_x
 _atom_site_fract_y
 _atom_site_fract_z
 _atom_site_occupancy
  Re  Re0  1  0.238983  0.761017  0.500000  1
  Re  Re1  1  0.738983  0.261017  0.000000  1
  Re  Re2  1  0.668368  0.668368  0.676337  1
  Re  Re3  1  0.761017  0.238983  0.500000  1
  Re  Re4  1  0.831632  0.831632  0.176337  1
  Re  Re5  1  0.261017  0.738983  0.000000  1
  Re  Re6  1  0.168368  0.168368  0.823663  1
  Re  Re7  1  0.331632  0.331632  0.323663  1
  O  O8  1  0.153325  0.384872  0.262669  1
  O  O9  1  0.923610  0.214503  0.580227  1
  O  O10  1  0.846675  0.615128  0.737331  1
  O  O11  1  0.653325  0.884872  0.237331  1
  O  O12  1  0.423610  0.714503  0.919773  1
  O  O13  1  0.615128  0.846675  0.737331  1
  O  O14  1  0.076390  0.785497  0.419773  1
  O  O15  1  0.214503  0.923610  0.580227  1
  O  O16  1  0.714503  0.423610  0.919773  1
  O  O17  1  0.346675  0.115128  0.762669  1
  O  O18  1  0.785497  0.076390  0.419773  1
  O  O19  1  0.884872  0.653325  0.237331  1
  O  O20  1  0.115128  0.346675  0.762669  1
  O  O21  1  0.384872  0.153325  0.262669  1
  O  O22  1  0.285497  0.576390  0.080227  1
  O  O23  1  0.576390  0.285497  0.080227  1
  F  F24  1  0.784900  0.784900  0.573312  1
  F  F25  1  0.687442  0.455645  0.580095  1
  F  F26  1  0.812558  0.044355  0.080095  1
  F  F27  1  0.420741  0.870356  0.427264  1
  F  F28  1  0.994846  0.994846  0.232212  1
  F  F29  1  0.494846  0.494846  0.267788  1
  F  F30  1  0.215100  0.215100  0.426688  1
  F  F31  1  0.370356  0.920741  0.072736  1
  F  F32  1  0.870356  0.420741  0.427264  1
  F  F33  1  0.079259  0.629644  0.927264  1
  F  F34  1  0.284900  0.284900  0.926688  1
  F  F35  1  0.005154  0.005154  0.767788  1
  F  F36  1  0.544355  0.312558  0.419905  1
  F  F37  1  0.505154  0.505154  0.732212  1
  F  F38  1  0.187442  0.955645  0.919905  1
  F  F39  1  0.129644  0.579259  0.572736  1
  F  F40  1  0.920741  0.370356  0.072736  1
  F  F41  1  0.955645  0.187442  0.919905  1
  F  F42  1  0.715100  0.715100  0.073312  1
  F  F43  1  0.455645  0.687442  0.580095  1
  F  F44  1  0.629644  0.079259  0.927264  1
  F  F45  1  0.579259  0.129644  0.572736  1
  F  F46  1  0.312558  0.544355  0.419905  1
  F  F47  1  0.044355  0.812558  0.080095  1
