# generated using pymatgen
data_K3AlB8O15
_symmetry_space_group_name_H-M   'P 1'
_cell_length_a   10.32519648
_cell_length_b   11.60062548
_cell_length_c   12.91839320
_cell_angle_alpha   90.00000000
_cell_angle_beta   91.16548510
_cell_angle_gamma   90.00000000
_symmetry_Int_Tables_number   1
_chemical_formula_structural   K3AlB8O15
_chemical_formula_sum   'K12 Al4 B32 O60'
_cell_volume   1547.02870808
_cell_formula_units_Z   4
loop_
 _symmetry_equiv_pos_site_id
 _symmetry_equiv_pos_as_xyz
  1  'x, y, z'
loop_
 _atom_site_type_symbol
 _atom_site_label
 _atom_site_symmetry_multiplicity
 _atom_site_fract_x
 _atom_site_fract_y
 _atom_site_fract_z
 _atom_site_occupancy
  K  K0  1  0.112179  0.871786  0.061633  1
  K  K1  1  0.887821  0.371786  0.438367  1
  K  K2  1  0.112179  0.628214  0.561633  1
  K  K3  1  0.109661  0.400496  0.103924  1
  K  K4  1  0.526560  0.636585  0.778127  1
  K  K5  1  0.473440  0.136585  0.721873  1
  K  K6  1  0.887821  0.128214  0.938367  1
  K  K7  1  0.890339  0.599504  0.896076  1
  K  K8  1  0.890339  0.900496  0.396076  1
  K  K9  1  0.473440  0.363415  0.221873  1
  K  K10  1  0.109661  0.099504  0.603924  1
  K  K11  1  0.526560  0.863415  0.278127  1
  Al  Al12  1  0.252130  0.334570  0.460875  1
  Al  Al13  1  0.252130  0.165430  0.960875  1
  Al  Al14  1  0.747870  0.665430  0.539125  1
  Al  Al15  1  0.747870  0.834570  0.039125  1
  B  B16  1  0.655070  0.098639  0.523447  1
  B  B17  1  0.492081  0.301622  0.916750  1
  B  B18  1  0.868318  0.837669  0.644485  1
  B  B19  1  0.779070  0.618528  0.312109  1
  B  B20  1  0.868318  0.662331  0.144485  1
  B  B21  1  0.344930  0.901361  0.476553  1
  B  B22  1  0.225326  0.947888  0.835811  1
  B  B23  1  0.225326  0.552112  0.335811  1
  B  B24  1  0.774674  0.447888  0.664189  1
  B  B25  1  0.828811  0.250855  0.715644  1
  B  B26  1  0.306680  0.871978  0.666028  1
  B  B27  1  0.807840  0.038738  0.680188  1
  B  B28  1  0.507919  0.698378  0.083250  1
  B  B29  1  0.507919  0.801622  0.583250  1
  B  B30  1  0.828811  0.249145  0.215644  1
  B  B31  1  0.344930  0.598639  0.976553  1
  B  B32  1  0.171189  0.750855  0.784356  1
  B  B33  1  0.693320  0.128022  0.333972  1
  B  B34  1  0.192160  0.961262  0.319812  1
  B  B35  1  0.655070  0.401361  0.023447  1
  B  B36  1  0.131682  0.337669  0.855515  1
  B  B37  1  0.779070  0.881472  0.812109  1
  B  B38  1  0.220930  0.118528  0.187891  1
  B  B39  1  0.220930  0.381472  0.687891  1
  B  B40  1  0.774674  0.052112  0.164189  1
  B  B41  1  0.171189  0.749145  0.284356  1
  B  B42  1  0.693320  0.371978  0.833972  1
  B  B43  1  0.192160  0.538738  0.819812  1
  B  B44  1  0.807840  0.461262  0.180188  1
  B  B45  1  0.306680  0.628022  0.166028  1
  B  B46  1  0.492081  0.198378  0.416750  1
  B  B47  1  0.131682  0.162331  0.355515  1
  O  O48  1  0.465385  0.844280  0.486609  1
  O  O49  1  0.168209  0.840083  0.857301  1
  O  O50  1  0.314255  0.563386  0.878407  1
  O  O51  1  0.714626  0.034007  0.256948  1
  O  O52  1  0.831791  0.159917  0.142699  1
  O  O53  1  0.883096  0.743023  0.068278  1
  O  O54  1  0.775663  0.270791  0.809894  1
  O  O55  1  0.775663  0.229209  0.309894  1
  O  O56  1  0.714626  0.465993  0.756948  1
  O  O57  1  0.116904  0.243023  0.431722  1
  O  O58  1  0.883149  0.146888  0.690552  1
  O  O59  1  0.224337  0.770791  0.690106  1
  O  O60  1  0.391351  0.226829  0.909593  1
  O  O61  1  0.171430  0.300510  0.758050  1
  O  O62  1  0.112067  0.452963  0.874778  1
  O  O63  1  0.168209  0.659917  0.357301  1
  O  O64  1  0.285374  0.965993  0.743052  1
  O  O65  1  0.887933  0.547037  0.125222  1
  O  O66  1  0.730196  0.083431  0.438085  1
  O  O67  1  0.883149  0.353112  0.190552  1
  O  O68  1  0.214691  0.028621  0.910812  1
  O  O69  1  0.534615  0.155720  0.513391  1
  O  O70  1  0.534615  0.344280  0.013391  1
  O  O71  1  0.741621  0.659274  0.404808  1
  O  O72  1  0.116851  0.853112  0.309448  1
  O  O73  1  0.730196  0.416569  0.938085  1
  O  O74  1  0.887933  0.952963  0.625222  1
  O  O75  1  0.771754  0.995574  0.784359  1
  O  O76  1  0.285374  0.534007  0.243052  1
  O  O77  1  0.228246  0.495574  0.715641  1
  O  O78  1  0.314255  0.936614  0.378407  1
  O  O79  1  0.112067  0.047037  0.374778  1
  O  O80  1  0.116851  0.646888  0.809448  1
  O  O81  1  0.685745  0.063386  0.621593  1
  O  O82  1  0.228246  0.004426  0.215641  1
  O  O83  1  0.771754  0.504426  0.284359  1
  O  O84  1  0.557369  0.166927  0.329130  1
  O  O85  1  0.269804  0.916569  0.561915  1
  O  O86  1  0.828570  0.699490  0.241950  1
  O  O87  1  0.831791  0.340083  0.642699  1
  O  O88  1  0.258379  0.340726  0.595192  1
  O  O89  1  0.785309  0.971379  0.089188  1
  O  O90  1  0.883096  0.756977  0.568278  1
  O  O91  1  0.685745  0.436614  0.121593  1
  O  O92  1  0.785309  0.528621  0.589188  1
  O  O93  1  0.171430  0.199490  0.258050  1
  O  O94  1  0.269804  0.583431  0.061915  1
  O  O95  1  0.224337  0.729209  0.190106  1
  O  O96  1  0.741621  0.840726  0.904808  1
  O  O97  1  0.116904  0.256977  0.931722  1
  O  O98  1  0.442631  0.833073  0.670870  1
  O  O99  1  0.258379  0.159274  0.095192  1
  O  O100  1  0.465385  0.655720  0.986609  1
  O  O101  1  0.442631  0.666927  0.170870  1
  O  O102  1  0.214691  0.471379  0.410812  1
  O  O103  1  0.608649  0.773171  0.090407  1
  O  O104  1  0.608649  0.726829  0.590407  1
  O  O105  1  0.828570  0.800510  0.741950  1
  O  O106  1  0.557369  0.333073  0.829130  1
  O  O107  1  0.391351  0.273171  0.409593  1
