# generated using pymatgen
data_KPO3
_symmetry_space_group_name_H-M   'P 1'
_cell_length_a   11.60974574
_cell_length_b   4.59309483
_cell_length_c   14.23297864
_cell_angle_alpha   90.00000000
_cell_angle_beta   115.76734660
_cell_angle_gamma   90.00000000
_symmetry_Int_Tables_number   1
_chemical_formula_structural   KPO3
_chemical_formula_sum   'K8 P8 O24'
_cell_volume   683.50199478
_cell_formula_units_Z   8
loop_
 _symmetry_equiv_pos_site_id
 _symmetry_equiv_pos_as_xyz
  1  'x, y, z'
loop_
 _atom_site_type_symbol
 _atom_site_label
 _atom_site_symmetry_multiplicity
 _atom_site_fract_x
 _atom_site_fract_y
 _atom_site_fract_z
 _atom_site_occupancy
  K  K0  1  0.931486  0.782929  0.631300  1
  K  K1  1  0.595565  0.237432  0.427266  1
  K  K2  1  0.068514  0.282929  0.868700  1
  K  K3  1  0.068514  0.217071  0.368700  1
  K  K4  1  0.404435  0.737432  0.072734  1
  K  K5  1  0.404435  0.762568  0.572734  1
  K  K6  1  0.931486  0.717071  0.131300  1
  K  K7  1  0.595565  0.262568  0.927266  1
  P  P8  1  0.215002  0.192597  0.162807  1
  P  P9  1  0.303646  0.691214  0.309386  1
  P  P10  1  0.303646  0.808786  0.809386  1
  P  P11  1  0.784998  0.807403  0.837193  1
  P  P12  1  0.215002  0.307403  0.662807  1
  P  P13  1  0.696354  0.308786  0.690614  1
  P  P14  1  0.784998  0.692597  0.337193  1
  P  P15  1  0.696354  0.191214  0.190614  1
  O  O16  1  0.919329  0.717818  0.349151  1
  O  O17  1  0.686665  0.865321  0.231563  1
  O  O18  1  0.919329  0.782182  0.849151  1
  O  O19  1  0.686665  0.634679  0.731563  1
  O  O20  1  0.194284  0.716915  0.338444  1
  O  O21  1  0.728465  0.365209  0.299693  1
  O  O22  1  0.080671  0.217818  0.150849  1
  O  O23  1  0.752854  0.737546  0.925937  1
  O  O24  1  0.271535  0.634791  0.700307  1
  O  O25  1  0.271535  0.865209  0.200307  1
  O  O26  1  0.436538  0.739255  0.889324  1
  O  O27  1  0.563462  0.260745  0.110676  1
  O  O28  1  0.194284  0.783085  0.838444  1
  O  O29  1  0.247146  0.262454  0.074063  1
  O  O30  1  0.080671  0.282182  0.650849  1
  O  O31  1  0.313335  0.134679  0.768437  1
  O  O32  1  0.247146  0.237546  0.574063  1
  O  O33  1  0.436538  0.760745  0.389324  1
  O  O34  1  0.728465  0.134791  0.799693  1
  O  O35  1  0.752854  0.762454  0.425937  1
  O  O36  1  0.563462  0.239255  0.610676  1
  O  O37  1  0.313335  0.365321  0.268437  1
  O  O38  1  0.805716  0.216915  0.161556  1
  O  O39  1  0.805716  0.283085  0.661556  1
