# generated using pymatgen
data_BP2N2Cl7
_symmetry_space_group_name_H-M   'P 1'
_cell_length_a   9.98042865
_cell_length_b   8.65203774
_cell_length_c   15.82556306
_cell_angle_alpha   90.00000000
_cell_angle_beta   110.82621679
_cell_angle_gamma   90.00000000
_symmetry_Int_Tables_number   1
_chemical_formula_structural   BP2N2Cl7
_chemical_formula_sum   'B4 P8 N8 Cl28'
_cell_volume   1277.26750716
_cell_formula_units_Z   4
loop_
 _symmetry_equiv_pos_site_id
 _symmetry_equiv_pos_as_xyz
  1  'x, y, z'
loop_
 _atom_site_type_symbol
 _atom_site_label
 _atom_site_symmetry_multiplicity
 _atom_site_fract_x
 _atom_site_fract_y
 _atom_site_fract_z
 _atom_site_occupancy
  B  B0  1  0.402486  0.571337  0.483838  1
  B  B1  1  0.402486  0.928663  0.983838  1
  B  B2  1  0.597514  0.428663  0.516162  1
  B  B3  1  0.597514  0.071337  0.016162  1
  P  P4  1  0.606336  0.875450  0.164177  1
  P  P5  1  0.166770  0.476028  0.167168  1
  P  P6  1  0.393664  0.375450  0.335823  1
  P  P7  1  0.833230  0.523972  0.832832  1
  P  P8  1  0.606336  0.624550  0.664177  1
  P  P9  1  0.393664  0.124550  0.835823  1
  P  P10  1  0.166770  0.023972  0.667168  1
  P  P11  1  0.833230  0.976028  0.332832  1
  N  N12  1  0.463478  0.457650  0.430114  1
  N  N13  1  0.463478  0.042350  0.930114  1
  N  N14  1  0.536522  0.957650  0.069886  1
  N  N15  1  0.730292  0.521948  0.732851  1
  N  N16  1  0.536522  0.542350  0.569886  1
  N  N17  1  0.269708  0.478052  0.267149  1
  N  N18  1  0.730292  0.978052  0.232851  1
  N  N19  1  0.269708  0.021948  0.767149  1
  Cl  Cl20  1  0.688087  0.837232  0.656746  1
  Cl  Cl21  1  0.073028  0.681619  0.136204  1
  Cl  Cl22  1  0.383772  0.726161  0.940897  1
  Cl  Cl23  1  0.740126  0.563626  0.922969  1
  Cl  Cl24  1  0.545322  0.174415  0.783999  1
  Cl  Cl25  1  0.005336  0.175069  0.637669  1
  Cl  Cl26  1  0.259874  0.436374  0.077031  1
  Cl  Cl27  1  0.454678  0.825585  0.216001  1
  Cl  Cl28  1  0.454678  0.674415  0.716001  1
  Cl  Cl29  1  0.616228  0.226161  0.559103  1
  Cl  Cl30  1  0.688087  0.662768  0.156746  1
  Cl  Cl31  1  0.994664  0.675069  0.862331  1
  Cl  Cl32  1  0.005336  0.324931  0.137669  1
  Cl  Cl33  1  0.311913  0.337232  0.843254  1
  Cl  Cl34  1  0.770248  0.491735  0.506189  1
  Cl  Cl35  1  0.545322  0.325585  0.283999  1
  Cl  Cl36  1  0.073028  0.818381  0.636204  1
  Cl  Cl37  1  0.616228  0.273839  0.059103  1
  Cl  Cl38  1  0.926972  0.318381  0.863796  1
  Cl  Cl39  1  0.311913  0.162768  0.343254  1
  Cl  Cl40  1  0.994664  0.824931  0.362331  1
  Cl  Cl41  1  0.259874  0.063626  0.577031  1
  Cl  Cl42  1  0.229752  0.991735  0.993811  1
  Cl  Cl43  1  0.926972  0.181619  0.363796  1
  Cl  Cl44  1  0.383772  0.773839  0.440897  1
  Cl  Cl45  1  0.740126  0.936374  0.422969  1
  Cl  Cl46  1  0.770248  0.008265  0.006189  1
  Cl  Cl47  1  0.229752  0.508265  0.493811  1
