# generated using pymatgen
data_InSeI
_symmetry_space_group_name_H-M   'P 1'
_cell_length_a   14.63527042
_cell_length_b   14.63527042
_cell_length_c   14.63527042
_cell_angle_alpha   97.24963769
_cell_angle_beta   97.24963769
_cell_angle_gamma   138.38416819
_symmetry_Int_Tables_number   1
_chemical_formula_structural   InSeI
_chemical_formula_sum   'In16 Se16 I16'
_cell_volume   1946.09944912
_cell_formula_units_Z   16
loop_
 _symmetry_equiv_pos_site_id
 _symmetry_equiv_pos_as_xyz
  1  'x, y, z'
loop_
 _atom_site_type_symbol
 _atom_site_label
 _atom_site_symmetry_multiplicity
 _atom_site_fract_x
 _atom_site_fract_y
 _atom_site_fract_z
 _atom_site_occupancy
  In  In0  1  0.274484  0.914664  0.924245  1
  In  In1  1  0.164664  0.740420  0.140181  1
  In  In2  1  0.600239  0.024484  0.859819  1
  In  In3  1  0.990420  0.350239  0.075755  1
  In  In4  1  0.975516  0.835336  0.575755  1
  In  In5  1  0.085336  0.009580  0.359819  1
  In  In6  1  0.649761  0.725516  0.640181  1
  In  In7  1  0.259580  0.399761  0.424245  1
  In  In8  1  0.702685  0.351251  0.047174  1
  In  In9  1  0.601251  0.054077  0.148566  1
  In  In10  1  0.905511  0.452685  0.851434  1
  In  In11  1  0.304077  0.655511  0.952826  1
  In  In12  1  0.547315  0.398749  0.452826  1
  In  In13  1  0.648749  0.695923  0.351434  1
  In  In14  1  0.344489  0.297315  0.648566  1
  In  In15  1  0.945923  0.094489  0.547174  1
  Se  Se16  1  0.509719  0.127349  0.877764  1
  Se  Se17  1  0.377349  0.999585  0.117630  1
  Se  Se18  1  0.881955  0.259719  0.882370  1
  Se  Se19  1  0.249585  0.631955  0.122236  1
  Se  Se20  1  0.740281  0.622651  0.622236  1
  Se  Se21  1  0.872651  0.750415  0.382370  1
  Se  Se22  1  0.368045  0.490281  0.617630  1
  Se  Se23  1  0.000415  0.118045  0.377764  1
  Se  Se24  1  0.165475  0.665037  0.828117  1
  Se  Se25  1  0.915037  0.586920  0.999562  1
  Se  Se26  1  0.587358  0.915475  0.000438  1
  Se  Se27  1  0.836920  0.337358  0.171883  1
  Se  Se28  1  0.084525  0.084963  0.671883  1
  Se  Se29  1  0.334963  0.163080  0.500438  1
  Se  Se30  1  0.662642  0.834525  0.499562  1
  Se  Se31  1  0.413080  0.412642  0.328117  1
  I  I32  1  0.082141  0.906921  0.883088  1
  I  I33  1  0.156921  0.773832  0.324780  1
  I  I34  1  0.449052  0.832141  0.675220  1
  I  I35  1  0.023832  0.199052  0.116912  1
  I  I36  1  0.167859  0.843079  0.616912  1
  I  I37  1  0.093079  0.976168  0.175220  1
  I  I38  1  0.800948  0.917859  0.824780  1
  I  I39  1  0.226168  0.550948  0.383088  1
  I  I40  1  0.566750  0.391728  0.113114  1
  I  I41  1  0.641728  0.028614  0.324978  1
  I  I42  1  0.703636  0.316750  0.675022  1
  I  I43  1  0.278614  0.453636  0.886886  1
  I  I44  1  0.683250  0.358272  0.386886  1
  I  I45  1  0.608272  0.721386  0.175022  1
  I  I46  1  0.546364  0.433250  0.824978  1
  I  I47  1  0.971386  0.296364  0.613114  1
