# generated using pymatgen
data_Sr(PO3)2
_symmetry_space_group_name_H-M   'P 1'
_cell_length_a   7.49566802
_cell_length_b   18.88910117
_cell_length_c   7.50022998
_cell_angle_alpha   90.00000000
_cell_angle_beta   90.25156702
_cell_angle_gamma   90.00000000
_symmetry_Int_Tables_number   1
_chemical_formula_structural   Sr(PO3)2
_chemical_formula_sum   'Sr8 P16 O48'
_cell_volume   1061.92056316
_cell_formula_units_Z   8
loop_
 _symmetry_equiv_pos_site_id
 _symmetry_equiv_pos_as_xyz
  1  'x, y, z'
loop_
 _atom_site_type_symbol
 _atom_site_label
 _atom_site_symmetry_multiplicity
 _atom_site_fract_x
 _atom_site_fract_y
 _atom_site_fract_z
 _atom_site_occupancy
  Sr  Sr0  1  0.998202  0.268107  0.008075  1
  Sr  Sr1  1  0.001798  0.768107  0.991925  1
  Sr  Sr2  1  0.007400  0.893424  0.490754  1
  Sr  Sr3  1  0.508201  0.019509  0.499297  1
  Sr  Sr4  1  0.502449  0.644655  0.002742  1
  Sr  Sr5  1  0.992600  0.393424  0.509246  1
  Sr  Sr6  1  0.491799  0.519509  0.500703  1
  Sr  Sr7  1  0.497551  0.144655  0.997258  1
  P  P8  1  0.048429  0.222227  0.513706  1
  P  P9  1  0.447733  0.192732  0.513091  1
  P  P10  1  0.552267  0.692732  0.486909  1
  P  P11  1  0.505131  0.817219  0.945662  1
  P  P12  1  0.554115  0.971470  0.016196  1
  P  P13  1  0.044106  0.441377  0.990116  1
  P  P14  1  0.445885  0.471470  0.983804  1
  P  P15  1  0.991439  0.066668  0.550896  1
  P  P16  1  0.509589  0.847831  0.546350  1
  P  P17  1  0.955894  0.941377  0.009884  1
  P  P18  1  0.008561  0.566668  0.449104  1
  P  P19  1  0.008013  0.596804  0.050268  1
  P  P20  1  0.991987  0.096804  0.949732  1
  P  P21  1  0.490411  0.347831  0.453650  1
  P  P22  1  0.951571  0.722227  0.486294  1
  P  P23  1  0.494869  0.317219  0.054338  1
  O  O24  1  0.467352  0.647125  0.345388  1
  O  O25  1  0.448200  0.163445  0.327433  1
  O  O26  1  0.834361  0.129291  0.041811  1
  O  O27  1  0.042418  0.019409  0.025118  1
  O  O28  1  0.540756  0.269726  0.523781  1
  O  O29  1  0.177931  0.038199  0.547628  1
  O  O30  1  0.532648  0.147125  0.654612  1
  O  O31  1  0.159985  0.140251  0.953249  1
  O  O32  1  0.545368  0.003199  0.833081  1
  O  O33  1  0.249267  0.208951  0.581018  1
  O  O34  1  0.840015  0.640251  0.046751  1
  O  O35  1  0.021468  0.644250  0.538331  1
  O  O36  1  0.040263  0.895770  0.151427  1
  O  O37  1  0.962870  0.913060  0.823395  1
  O  O38  1  0.460076  0.894648  0.024506  1
  O  O39  1  0.459244  0.769726  0.476219  1
  O  O40  1  0.165639  0.629291  0.958189  1
  O  O41  1  0.822069  0.538199  0.452372  1
  O  O42  1  0.658034  0.391583  0.460963  1
  O  O43  1  0.045968  0.753196  0.328442  1
  O  O44  1  0.338742  0.282733  0.962700  1
  O  O45  1  0.476875  0.016373  0.162508  1
  O  O46  1  0.957582  0.519409  0.974882  1
  O  O47  1  0.037130  0.413060  0.176605  1
  O  O48  1  0.335189  0.775013  0.944736  1
  O  O49  1  0.754924  0.953966  0.075116  1
  O  O50  1  0.551800  0.663445  0.672567  1
  O  O51  1  0.978532  0.144250  0.461669  1
  O  O52  1  0.850441  0.021105  0.465336  1
  O  O53  1  0.664811  0.275013  0.055264  1
  O  O54  1  0.076257  0.581041  0.249497  1
  O  O55  1  0.661258  0.782733  0.037300  1
  O  O56  1  0.750733  0.708951  0.418982  1
  O  O57  1  0.149559  0.521105  0.534664  1
  O  O58  1  0.959737  0.395770  0.848573  1
  O  O59  1  0.923743  0.081041  0.750503  1
  O  O60  1  0.245076  0.453966  0.924884  1
  O  O61  1  0.954032  0.253196  0.671558  1
  O  O62  1  0.331638  0.379081  0.545849  1
  O  O63  1  0.574034  0.834540  0.748012  1
  O  O64  1  0.668362  0.879081  0.454151  1
  O  O65  1  0.539924  0.394648  0.975494  1
  O  O66  1  0.523125  0.516373  0.837492  1
  O  O67  1  0.425966  0.334540  0.251988  1
  O  O68  1  0.042410  0.266043  0.346193  1
  O  O69  1  0.341966  0.891583  0.539037  1
  O  O70  1  0.957590  0.766043  0.653807  1
  O  O71  1  0.454632  0.503199  0.166919  1
