# generated using pymatgen
data_P3IrO9
_symmetry_space_group_name_H-M   'P 1'
_cell_length_a   5.09576339
_cell_length_b   7.06131236
_cell_length_c   10.47460091
_cell_angle_alpha   98.38350603
_cell_angle_beta   92.41553607
_cell_angle_gamma   92.52943345
_symmetry_Int_Tables_number   1
_chemical_formula_structural   P3IrO9
_chemical_formula_sum   'P6 Ir2 O18'
_cell_volume   372.06416376
_cell_formula_units_Z   2
loop_
 _symmetry_equiv_pos_site_id
 _symmetry_equiv_pos_as_xyz
  1  'x, y, z'
loop_
 _atom_site_type_symbol
 _atom_site_label
 _atom_site_symmetry_multiplicity
 _atom_site_fract_x
 _atom_site_fract_y
 _atom_site_fract_z
 _atom_site_occupancy
  P  P0  1  0.501194  0.327880  0.638656  1
  P  P1  1  0.498806  0.672120  0.361344  1
  P  P2  1  0.476032  0.038394  0.817898  1
  P  P3  1  0.523968  0.961606  0.182102  1
  P  P4  1  0.237302  0.315482  0.228490  1
  P  P5  1  0.762698  0.684518  0.771510  1
  Ir  Ir6  1  0.000000  0.000000  0.000000  1
  Ir  Ir7  1  0.000000  0.500000  0.500000  1
  O  O8  1  0.327758  0.883756  0.072702  1
  O  O9  1  0.672242  0.116244  0.927298  1
  O  O10  1  0.458438  0.871594  0.310355  1
  O  O11  1  0.541562  0.128406  0.689645  1
  O  O12  1  0.621806  0.475761  0.762236  1
  O  O13  1  0.378194  0.524239  0.237764  1
  O  O14  1  0.916859  0.701073  0.653633  1
  O  O15  1  0.083141  0.298927  0.346367  1
  O  O16  1  0.665251  0.334789  0.522558  1
  O  O17  1  0.334749  0.665211  0.477442  1
  O  O18  1  0.487430  0.183196  0.231952  1
  O  O19  1  0.512570  0.816804  0.768048  1
  O  O20  1  0.901887  0.727009  0.903606  1
  O  O21  1  0.098113  0.272991  0.096394  1
  O  O22  1  0.810552  0.930970  0.158645  1
  O  O23  1  0.189448  0.069030  0.841355  1
  O  O24  1  0.791355  0.651973  0.379542  1
  O  O25  1  0.208645  0.348027  0.620458  1
