# generated using pymatgen
data_Fe2P2H4O9
_symmetry_space_group_name_H-M   'P 1'
_cell_length_a   6.53391188
_cell_length_b   14.36251560
_cell_length_c   9.39588871
_cell_angle_alpha   90.00000000
_cell_angle_beta   127.74673744
_cell_angle_gamma   90.00000000
_symmetry_Int_Tables_number   1
_chemical_formula_structural   Fe2P2H4O9
_chemical_formula_sum   'Fe8 P8 H16 O36'
_cell_volume   697.21514019
_cell_formula_units_Z   4
loop_
 _symmetry_equiv_pos_site_id
 _symmetry_equiv_pos_as_xyz
  1  'x, y, z'
loop_
 _atom_site_type_symbol
 _atom_site_label
 _atom_site_symmetry_multiplicity
 _atom_site_fract_x
 _atom_site_fract_y
 _atom_site_fract_z
 _atom_site_occupancy
  Fe  Fe0  1  0.818387  0.610140  0.081640  1
  Fe  Fe1  1  0.181613  0.110140  0.418360  1
  Fe  Fe2  1  0.181613  0.389860  0.918360  1
  Fe  Fe3  1  0.818387  0.889860  0.581640  1
  Fe  Fe4  1  0.703723  0.247209  0.654087  1
  Fe  Fe5  1  0.296277  0.747209  0.845913  1
  Fe  Fe6  1  0.296277  0.752791  0.345913  1
  Fe  Fe7  1  0.703723  0.252791  0.154087  1
  P  P8  1  0.611025  0.414341  0.852474  1
  P  P9  1  0.388975  0.914341  0.647526  1
  P  P10  1  0.388975  0.585659  0.147526  1
  P  P11  1  0.611025  0.085659  0.352474  1
  P  P12  1  0.146643  0.312952  0.578035  1
  P  P13  1  0.853357  0.812952  0.921965  1
  P  P14  1  0.853357  0.687048  0.421965  1
  P  P15  1  0.146643  0.187048  0.078035  1
  H  H16  1  0.978149  0.448731  0.316277  1
  H  H17  1  0.021851  0.948731  0.183723  1
  H  H18  1  0.021851  0.551269  0.683723  1
  H  H19  1  0.978149  0.051269  0.816277  1
  H  H20  1  0.165034  0.474697  0.270839  1
  H  H21  1  0.834966  0.974697  0.229161  1
  H  H22  1  0.834966  0.525303  0.729161  1
  H  H23  1  0.165034  0.025303  0.770839  1
  H  H24  1  0.638178  0.397113  0.464391  1
  H  H25  1  0.361822  0.897113  0.035609  1
  H  H26  1  0.361822  0.602887  0.535609  1
  H  H27  1  0.638178  0.102887  0.964391  1
  H  H28  1  0.440568  0.324973  0.317502  1
  H  H29  1  0.559432  0.824973  0.182498  1
  H  H30  1  0.559432  0.675027  0.682498  1
  H  H31  1  0.440568  0.175027  0.817502  1
  O  O32  1  0.672835  0.517855  0.873874  1
  O  O33  1  0.327165  0.017855  0.626126  1
  O  O34  1  0.327165  0.482145  0.126126  1
  O  O35  1  0.672835  0.982145  0.373874  1
  O  O36  1  0.801905  0.357506  0.843517  1
  O  O37  1  0.198095  0.857506  0.656483  1
  O  O38  1  0.198095  0.642494  0.156483  1
  O  O39  1  0.801905  0.142494  0.343517  1
  O  O40  1  0.570579  0.373286  0.985025  1
  O  O41  1  0.429421  0.873286  0.514975  1
  O  O42  1  0.429421  0.626714  0.014975  1
  O  O43  1  0.570579  0.126714  0.485025  1
  O  O44  1  0.328676  0.405423  0.655684  1
  O  O45  1  0.671324  0.905423  0.844316  1
  O  O46  1  0.671324  0.594577  0.344316  1
  O  O47  1  0.328676  0.094577  0.155684  1
  O  O48  1  0.321597  0.230886  0.603982  1
  O  O49  1  0.678403  0.730886  0.896018  1
  O  O50  1  0.678403  0.769114  0.396018  1
  O  O51  1  0.321597  0.269114  0.103982  1
  O  O52  1  0.055874  0.299040  0.694184  1
  O  O53  1  0.944126  0.799040  0.805816  1
  O  O54  1  0.944126  0.700960  0.305816  1
  O  O55  1  0.055874  0.200960  0.194184  1
  O  O56  1  0.930096  0.338234  0.382285  1
  O  O57  1  0.069904  0.838234  0.117715  1
  O  O58  1  0.069904  0.661766  0.617715  1
  O  O59  1  0.930096  0.161766  0.882285  1
  O  O60  1  0.042305  0.502059  0.286349  1
  O  O61  1  0.957695  0.002059  0.213651  1
  O  O62  1  0.957695  0.497941  0.713651  1
  O  O63  1  0.042305  0.997941  0.786349  1
  O  O64  1  0.513226  0.349171  0.438961  1
  O  O65  1  0.486774  0.849171  0.061039  1
  O  O66  1  0.486774  0.650829  0.561039  1
  O  O67  1  0.513226  0.150829  0.938961  1
