# generated using pymatgen
data_CsSmGeS4
_symmetry_space_group_name_H-M   'P 1'
_cell_length_a   6.59068325
_cell_length_b   6.86142467
_cell_length_c   18.08606333
_cell_angle_alpha   90.00000000
_cell_angle_beta   90.00000000
_cell_angle_gamma   90.00000000
_symmetry_Int_Tables_number   1
_chemical_formula_structural   CsSmGeS4
_chemical_formula_sum   'Cs4 Sm4 Ge4 S16'
_cell_volume   817.87849045
_cell_formula_units_Z   4
loop_
 _symmetry_equiv_pos_site_id
 _symmetry_equiv_pos_as_xyz
  1  'x, y, z'
loop_
 _atom_site_type_symbol
 _atom_site_label
 _atom_site_symmetry_multiplicity
 _atom_site_fract_x
 _atom_site_fract_y
 _atom_site_fract_z
 _atom_site_occupancy
  Cs  Cs0  1  0.494721  0.993886  0.532293  1
  Cs  Cs1  1  0.505279  0.493886  0.967707  1
  Cs  Cs2  1  0.005279  0.006114  0.032293  1
  Cs  Cs3  1  0.994721  0.506114  0.467707  1
  Sm  Sm4  1  0.706931  0.480244  0.227459  1
  Sm  Sm5  1  0.793069  0.519756  0.727459  1
  Sm  Sm6  1  0.206931  0.019756  0.772541  1
  Sm  Sm7  1  0.293069  0.980244  0.272541  1
  Ge  Ge8  1  0.208288  0.515114  0.166714  1
  Ge  Ge9  1  0.708288  0.984886  0.833286  1
  Ge  Ge10  1  0.791712  0.015114  0.333286  1
  Ge  Ge11  1  0.291712  0.484886  0.666714  1
  S  S12  1  0.898742  0.080792  0.218991  1
  S  S13  1  0.600396  0.746516  0.344709  1
  S  S14  1  0.398742  0.419208  0.781009  1
  S  S15  1  0.899604  0.253484  0.844709  1
  S  S16  1  0.437724  0.750609  0.147013  1
  S  S17  1  0.399604  0.246516  0.155291  1
  S  S18  1  0.100396  0.753484  0.655291  1
  S  S19  1  0.937724  0.749391  0.852987  1
  S  S20  1  0.062276  0.249391  0.647013  1
  S  S21  1  0.940511  0.511433  0.093604  1
  S  S22  1  0.562276  0.250609  0.352987  1
  S  S23  1  0.101258  0.580792  0.281009  1
  S  S24  1  0.601258  0.919208  0.718991  1
  S  S25  1  0.559489  0.488567  0.593604  1
  S  S26  1  0.440511  0.988567  0.906396  1
  S  S27  1  0.059489  0.011433  0.406396  1
