# generated using pymatgen
data_As(IF3)2
_symmetry_space_group_name_H-M   'P 1'
_cell_length_a   8.16258685
_cell_length_b   8.16258685
_cell_length_c   6.03323300
_cell_angle_alpha   81.28898948
_cell_angle_beta   98.71101052
_cell_angle_gamma   101.55686028
_symmetry_Int_Tables_number   1
_chemical_formula_structural   As(IF3)2
_chemical_formula_sum   'As2 I4 F12'
_cell_volume   386.23251723
_cell_formula_units_Z   2
loop_
 _symmetry_equiv_pos_site_id
 _symmetry_equiv_pos_as_xyz
  1  'x, y, z'
loop_
 _atom_site_type_symbol
 _atom_site_label
 _atom_site_symmetry_multiplicity
 _atom_site_fract_x
 _atom_site_fract_y
 _atom_site_fract_z
 _atom_site_occupancy
  As  As0  1  0.693672  0.306328  0.432426  1
  As  As1  1  0.306328  0.693672  0.567574  1
  I  I2  1  0.239217  0.077292  0.893563  1
  I  I3  1  0.922708  0.760783  0.893563  1
  I  I4  1  0.077292  0.239217  0.106437  1
  I  I5  1  0.760783  0.922708  0.106437  1
  F  F6  1  0.456178  0.789004  0.383514  1
  F  F7  1  0.604899  0.152197  0.241120  1
  F  F8  1  0.560124  0.439876  0.282401  1
  F  F9  1  0.210996  0.543822  0.383514  1
  F  F10  1  0.152197  0.604899  0.758880  1
  F  F11  1  0.395101  0.847803  0.758880  1
  F  F12  1  0.167643  0.832357  0.432975  1
  F  F13  1  0.543822  0.210996  0.616486  1
  F  F14  1  0.789004  0.456178  0.616486  1
  F  F15  1  0.832357  0.167643  0.567025  1
  F  F16  1  0.439876  0.560124  0.717599  1
  F  F17  1  0.847803  0.395101  0.241120  1
