# generated using pymatgen
data_SrSO4
_symmetry_space_group_name_H-M   'P 1'
_cell_length_a   5.45618356
_cell_length_b   6.96675686
_cell_length_c   8.45326529
_cell_angle_alpha   90.00000000
_cell_angle_beta   90.00000000
_cell_angle_gamma   90.00000000
_symmetry_Int_Tables_number   1
_chemical_formula_structural   SrSO4
_chemical_formula_sum   'Sr4 S4 O16'
_cell_volume   321.32471077
_cell_formula_units_Z   4
loop_
 _symmetry_equiv_pos_site_id
 _symmetry_equiv_pos_as_xyz
  1  'x, y, z'
loop_
 _atom_site_type_symbol
 _atom_site_label
 _atom_site_symmetry_multiplicity
 _atom_site_fract_x
 _atom_site_fract_y
 _atom_site_fract_z
 _atom_site_occupancy
  Sr  Sr0  1  0.250000  0.842878  0.684668  1
  Sr  Sr1  1  0.750000  0.157122  0.315332  1
  Sr  Sr2  1  0.750000  0.342878  0.815332  1
  Sr  Sr3  1  0.250000  0.657122  0.184668  1
  S  S4  1  0.750000  0.816967  0.939026  1
  S  S5  1  0.250000  0.183033  0.060974  1
  S  S6  1  0.250000  0.316967  0.560974  1
  S  S7  1  0.750000  0.683033  0.439026  1
  O  O8  1  0.472814  0.308756  0.076872  1
  O  O9  1  0.972814  0.691244  0.923128  1
  O  O10  1  0.527186  0.808756  0.423128  1
  O  O11  1  0.027186  0.191244  0.576872  1
  O  O12  1  0.527186  0.691244  0.923128  1
  O  O13  1  0.027186  0.308756  0.076872  1
  O  O14  1  0.472814  0.191244  0.576872  1
  O  O15  1  0.972814  0.808756  0.423128  1
  O  O16  1  0.750000  0.591599  0.596046  1
  O  O17  1  0.250000  0.408401  0.403954  1
  O  O18  1  0.250000  0.091599  0.903954  1
  O  O19  1  0.750000  0.908401  0.096046  1
  O  O20  1  0.750000  0.540404  0.308138  1
  O  O21  1  0.250000  0.459596  0.691862  1
  O  O22  1  0.250000  0.040404  0.191862  1
  O  O23  1  0.750000  0.959596  0.808138  1
