# generated using pymatgen
data_KNa2AuO2
_symmetry_space_group_name_H-M   'P 1'
_cell_length_a   3.98619540
_cell_length_b   5.49300477
_cell_length_c   10.29696328
_cell_angle_alpha   90.00000000
_cell_angle_beta   90.00000000
_cell_angle_gamma   90.00000000
_symmetry_Int_Tables_number   1
_chemical_formula_structural   KNa2AuO2
_chemical_formula_sum   'K2 Na4 Au2 O4'
_cell_volume   225.46426797
_cell_formula_units_Z   2
loop_
 _symmetry_equiv_pos_site_id
 _symmetry_equiv_pos_as_xyz
  1  'x, y, z'
loop_
 _atom_site_type_symbol
 _atom_site_label
 _atom_site_symmetry_multiplicity
 _atom_site_fract_x
 _atom_site_fract_y
 _atom_site_fract_z
 _atom_site_occupancy
  K  K0  1  0.000000  0.000000  0.500000  1
  K  K1  1  0.500000  0.500000  0.000000  1
  Na  Na2  1  0.500000  0.901298  0.233754  1
  Na  Na3  1  0.500000  0.098702  0.766246  1
  Na  Na4  1  0.000000  0.401298  0.266246  1
  Na  Na5  1  0.000000  0.598702  0.733754  1
  Au  Au6  1  0.000000  0.000000  0.000000  1
  Au  Au7  1  0.500000  0.500000  0.500000  1
  O  O8  1  0.500000  0.749850  0.646949  1
  O  O9  1  0.000000  0.249850  0.853051  1
  O  O10  1  0.000000  0.750150  0.146949  1
  O  O11  1  0.500000  0.250150  0.353051  1
