# generated using pymatgen
data_TaBiO4
_symmetry_space_group_name_H-M   'P 1'
_cell_length_a   5.61772361
_cell_length_b   7.79847306
_cell_length_c   7.83890447
_cell_angle_alpha   102.04865692
_cell_angle_beta   89.99810447
_cell_angle_gamma   93.36876741
_symmetry_Int_Tables_number   1
_chemical_formula_structural   TaBiO4
_chemical_formula_sum   'Ta4 Bi4 O16'
_cell_volume   335.24781030
_cell_formula_units_Z   4
loop_
 _symmetry_equiv_pos_site_id
 _symmetry_equiv_pos_as_xyz
  1  'x, y, z'
loop_
 _atom_site_type_symbol
 _atom_site_label
 _atom_site_symmetry_multiplicity
 _atom_site_fract_x
 _atom_site_fract_y
 _atom_site_fract_z
 _atom_site_occupancy
  Ta  Ta0  1  0.743829  0.827527  0.190954  1
  Ta  Ta1  1  0.276879  0.156654  0.308340  1
  Ta  Ta2  1  0.723121  0.843346  0.691660  1
  Ta  Ta3  1  0.256171  0.172473  0.809046  1
  Bi  Bi4  1  0.267994  0.618233  0.380452  1
  Bi  Bi5  1  0.207992  0.665913  0.884986  1
  Bi  Bi6  1  0.732006  0.381767  0.619548  1
  Bi  Bi7  1  0.792008  0.334087  0.115014  1
  O  O8  1  0.578262  0.050632  0.223867  1
  O  O9  1  0.490260  0.607828  0.678844  1
  O  O10  1  0.043550  0.345694  0.359563  1
  O  O11  1  0.653319  0.819429  0.446521  1
  O  O12  1  0.346681  0.180571  0.553479  1
  O  O13  1  0.803628  0.830605  0.949719  1
  O  O14  1  0.058905  0.389370  0.825646  1
  O  O15  1  0.542038  0.327773  0.865785  1
  O  O16  1  0.421738  0.949368  0.776133  1
  O  O17  1  0.940111  0.043820  0.715371  1
  O  O18  1  0.509740  0.392172  0.321156  1
  O  O19  1  0.196372  0.169395  0.050281  1
  O  O20  1  0.941095  0.610630  0.174354  1
  O  O21  1  0.059889  0.956180  0.284629  1
  O  O22  1  0.956450  0.654306  0.640437  1
  O  O23  1  0.457962  0.672227  0.134215  1
