# generated using pymatgen
data_Ba4AgAuO6
_symmetry_space_group_name_H-M   'P 1'
_cell_length_a   7.32453436
_cell_length_b   7.32453436
_cell_length_c   11.63172524
_cell_angle_alpha   90.00000000
_cell_angle_beta   90.00000000
_cell_angle_gamma   132.49996306
_symmetry_Int_Tables_number   1
_chemical_formula_structural   Ba4AgAuO6
_chemical_formula_sum   'Ba8 Ag2 Au2 O12'
_cell_volume   460.08207927
_cell_formula_units_Z   2
loop_
 _symmetry_equiv_pos_site_id
 _symmetry_equiv_pos_as_xyz
  1  'x, y, z'
loop_
 _atom_site_type_symbol
 _atom_site_label
 _atom_site_symmetry_multiplicity
 _atom_site_fract_x
 _atom_site_fract_y
 _atom_site_fract_z
 _atom_site_occupancy
  Ba  Ba0  1  0.212834  0.921375  0.750000  1
  Ba  Ba1  1  0.646250  0.353750  0.500000  1
  Ba  Ba2  1  0.787166  0.078625  0.250000  1
  Ba  Ba3  1  0.921375  0.212834  0.750000  1
  Ba  Ba4  1  0.078625  0.787166  0.250000  1
  Ba  Ba5  1  0.353750  0.646250  1.000000  1
  Ba  Ba6  1  0.353750  0.646250  0.500000  1
  Ba  Ba7  1  0.646250  0.353750  0.000000  1
  Ag  Ag8  1  0.403107  0.403107  0.250000  1
  Ag  Ag9  1  0.596893  0.596893  0.750000  1
  Au  Au10  1  0.000000  0.000000  0.000000  1
  Au  Au11  1  0.000000  0.000000  0.500000  1
  O  O12  1  0.239320  0.559348  0.250000  1
  O  O13  1  0.154680  0.845320  0.500000  1
  O  O14  1  0.559348  0.239320  0.250000  1
  O  O15  1  0.729608  0.729608  0.391000  1
  O  O16  1  0.154680  0.845320  1.000000  1
  O  O17  1  0.845320  0.154680  0.000000  1
  O  O18  1  0.440652  0.760680  0.750000  1
  O  O19  1  0.760680  0.440652  0.750000  1
  O  O20  1  0.729608  0.729608  0.109000  1
  O  O21  1  0.845320  0.154680  0.500000  1
  O  O22  1  0.270392  0.270392  0.609000  1
  O  O23  1  0.270392  0.270392  0.891000  1
