# generated using pymatgen
data_K4WS3O14
_symmetry_space_group_name_H-M   'P 1'
_cell_length_a   9.65999834
_cell_length_b   14.28316953
_cell_length_c   14.08842610
_cell_angle_alpha   90.00000000
_cell_angle_beta   132.06053006
_cell_angle_gamma   90.00000000
_symmetry_Int_Tables_number   1
_chemical_formula_structural   K4WS3O14
_chemical_formula_sum   'K16 W4 S12 O56'
_cell_volume   1443.19171010
_cell_formula_units_Z   4
loop_
 _symmetry_equiv_pos_site_id
 _symmetry_equiv_pos_as_xyz
  1  'x, y, z'
loop_
 _atom_site_type_symbol
 _atom_site_label
 _atom_site_symmetry_multiplicity
 _atom_site_fract_x
 _atom_site_fract_y
 _atom_site_fract_z
 _atom_site_occupancy
  K  K0  1  0.193858  0.494684  0.200134  1
  K  K1  1  0.486940  0.325931  0.165464  1
  K  K2  1  0.976651  0.219735  0.228732  1
  K  K3  1  0.023349  0.719735  0.271268  1
  K  K4  1  0.233700  0.458608  0.525326  1
  K  K5  1  0.806142  0.994684  0.299866  1
  K  K6  1  0.766300  0.958608  0.974674  1
  K  K7  1  0.023349  0.780265  0.771268  1
  K  K8  1  0.233700  0.041392  0.025326  1
  K  K9  1  0.766300  0.541392  0.474674  1
  K  K10  1  0.976651  0.280265  0.728732  1
  K  K11  1  0.513060  0.825931  0.334536  1
  K  K12  1  0.486940  0.174069  0.665464  1
  K  K13  1  0.806142  0.505316  0.799866  1
  K  K14  1  0.193858  0.005316  0.700134  1
  K  K15  1  0.513060  0.674069  0.834536  1
  W  W16  1  0.582551  0.122119  0.416203  1
  W  W17  1  0.582551  0.377881  0.916203  1
  W  W18  1  0.417449  0.622119  0.083797  1
  W  W19  1  0.417449  0.877881  0.583797  1
  S  S20  1  0.478585  0.155817  0.952865  1
  S  S21  1  0.792666  0.497267  0.206382  1
  S  S22  1  0.044827  0.780502  0.522018  1
  S  S23  1  0.521415  0.655817  0.547135  1
  S  S24  1  0.792666  0.002733  0.706382  1
  S  S25  1  0.207334  0.997267  0.293618  1
  S  S26  1  0.955173  0.280502  0.977982  1
  S  S27  1  0.521415  0.844183  0.047135  1
  S  S28  1  0.955173  0.219498  0.477982  1
  S  S29  1  0.207334  0.502733  0.793618  1
  S  S30  1  0.478585  0.344183  0.452865  1
  S  S31  1  0.044827  0.719498  0.022018  1
  O  O32  1  0.039543  0.304092  0.556044  1
  O  O33  1  0.638752  0.492784  0.903911  1
  O  O34  1  0.286579  0.586040  0.881501  1
  O  O35  1  0.460025  0.739721  0.013853  1
  O  O36  1  0.411222  0.607320  0.423380  1
  O  O37  1  0.517089  0.380429  0.374289  1
  O  O38  1  0.723746  0.653888  0.618211  1
  O  O39  1  0.089526  0.144309  0.518585  1
  O  O40  1  0.517089  0.119571  0.874289  1
  O  O41  1  0.960457  0.804092  0.943956  1
  O  O42  1  0.526838  0.833591  0.736171  1
  O  O43  1  0.828263  0.236030  0.339956  1
  O  O44  1  0.800599  0.476009  0.311135  1
  O  O45  1  0.539975  0.260279  0.986147  1
  O  O46  1  0.171737  0.736030  0.160044  1
  O  O47  1  0.960457  0.695908  0.443956  1
  O  O48  1  0.361248  0.992784  0.596089  1
  O  O49  1  0.027524  0.025691  0.250739  1
  O  O50  1  0.027524  0.474309  0.750739  1
  O  O51  1  0.276254  0.153888  0.881789  1
  O  O52  1  0.910474  0.855691  0.481415  1
  O  O53  1  0.659069  0.581046  0.126763  1
  O  O54  1  0.199401  0.523991  0.688865  1
  O  O55  1  0.171737  0.763970  0.660044  1
  O  O56  1  0.361248  0.507216  0.096089  1
  O  O57  1  0.411222  0.892680  0.923380  1
  O  O58  1  0.972476  0.525691  0.249261  1
  O  O59  1  0.286579  0.913960  0.381501  1
  O  O60  1  0.166724  0.678643  0.991604  1
  O  O61  1  0.800599  0.023991  0.811135  1
  O  O62  1  0.460025  0.760279  0.513853  1
  O  O63  1  0.833276  0.321357  0.008396  1
  O  O64  1  0.166724  0.821357  0.491604  1
  O  O65  1  0.588778  0.107320  0.076620  1
  O  O66  1  0.588778  0.392680  0.576620  1
  O  O67  1  0.526838  0.666409  0.236171  1
  O  O68  1  0.972476  0.974309  0.749261  1
  O  O69  1  0.473162  0.166409  0.263829  1
  O  O70  1  0.340931  0.418954  0.873237  1
  O  O71  1  0.473162  0.333591  0.763829  1
  O  O72  1  0.089526  0.355691  0.018585  1
  O  O73  1  0.638752  0.007216  0.403911  1
  O  O74  1  0.482911  0.619571  0.625711  1
  O  O75  1  0.539975  0.239721  0.486147  1
  O  O76  1  0.713421  0.413960  0.118499  1
  O  O77  1  0.039543  0.195908  0.056044  1
  O  O78  1  0.659069  0.918954  0.626763  1
  O  O79  1  0.723746  0.846112  0.118211  1
  O  O80  1  0.828263  0.263970  0.839956  1
  O  O81  1  0.276254  0.346112  0.381789  1
  O  O82  1  0.340931  0.081046  0.373237  1
  O  O83  1  0.199401  0.976009  0.188865  1
  O  O84  1  0.713421  0.086040  0.618499  1
  O  O85  1  0.833276  0.178643  0.508396  1
  O  O86  1  0.910474  0.644309  0.981415  1
  O  O87  1  0.482911  0.880429  0.125711  1
