# generated using pymatgen
data_MgSiO3
_symmetry_space_group_name_H-M   'P 1'
_cell_length_a   5.26750048
_cell_length_b   8.95300596
_cell_length_c   9.28050493
_cell_angle_alpha   90.00000000
_cell_angle_beta   90.00000000
_cell_angle_gamma   90.00000000
_symmetry_Int_Tables_number   1
_chemical_formula_structural   MgSiO3
_chemical_formula_sum   'Mg8 Si8 O24'
_cell_volume   437.66827090
_cell_formula_units_Z   8
loop_
 _symmetry_equiv_pos_site_id
 _symmetry_equiv_pos_as_xyz
  1  'x, y, z'
loop_
 _atom_site_type_symbol
 _atom_site_label
 _atom_site_symmetry_multiplicity
 _atom_site_fract_x
 _atom_site_fract_y
 _atom_site_fract_z
 _atom_site_occupancy
  Mg  Mg0  1  0.779802  0.848545  0.001991  1
  Mg  Mg1  1  0.220198  0.151455  0.501991  1
  Mg  Mg2  1  0.720198  0.348545  0.501991  1
  Mg  Mg3  1  0.279802  0.651455  0.001991  1
  Mg  Mg4  1  0.279210  0.007621  0.998178  1
  Mg  Mg5  1  0.720790  0.992379  0.498178  1
  Mg  Mg6  1  0.220790  0.507621  0.498178  1
  Mg  Mg7  1  0.779210  0.492379  0.998178  1
  Si  Si8  1  0.624741  0.661279  0.297840  1
  Si  Si9  1  0.375259  0.338721  0.797840  1
  Si  Si10  1  0.875259  0.161279  0.797840  1
  Si  Si11  1  0.124741  0.838721  0.297840  1
  Si  Si12  1  0.432866  0.838143  0.703773  1
  Si  Si13  1  0.567134  0.161857  0.203773  1
  Si  Si14  1  0.067134  0.338143  0.203773  1
  Si  Si15  1  0.932866  0.661857  0.703773  1
  O  O16  1  0.614859  0.658972  0.121198  1
  O  O17  1  0.385141  0.341028  0.621198  1
  O  O18  1  0.885141  0.158972  0.621198  1
  O  O19  1  0.114859  0.841028  0.121198  1
  O  O20  1  0.439836  0.836944  0.879599  1
  O  O21  1  0.560164  0.163056  0.379599  1
  O  O22  1  0.060164  0.336944  0.379599  1
  O  O23  1  0.939836  0.663056  0.879599  1
  O  O24  1  0.538572  0.510733  0.380196  1
  O  O25  1  0.461428  0.489267  0.880196  1
  O  O26  1  0.961428  0.010733  0.880196  1
  O  O27  1  0.038572  0.989267  0.380196  1
  O  O28  1  0.401596  0.994714  0.621949  1
  O  O29  1  0.598404  0.005286  0.121949  1
  O  O30  1  0.098404  0.494714  0.121949  1
  O  O31  1  0.901596  0.505286  0.621949  1
  O  O32  1  0.918259  0.706951  0.351929  1
  O  O33  1  0.081741  0.293049  0.851929  1
  O  O34  1  0.581741  0.206951  0.851929  1
  O  O35  1  0.418259  0.793049  0.351929  1
  O  O36  1  0.222155  0.713101  0.644347  1
  O  O37  1  0.777845  0.286899  0.144347  1
  O  O38  1  0.277845  0.213101  0.144347  1
  O  O39  1  0.722155  0.786899  0.644347  1
