# generated using pymatgen
data_Ba5Er2ZrAl2O13
_symmetry_space_group_name_H-M   'P 1'
_cell_length_a   6.01733628
_cell_length_b   6.01733628
_cell_length_c   25.17070864
_cell_angle_alpha   90.00000000
_cell_angle_beta   90.00000000
_cell_angle_gamma   120.00000000
_symmetry_Int_Tables_number   1
_chemical_formula_structural   Ba5Er2ZrAl2O13
_chemical_formula_sum   'Ba10 Er4 Zr2 Al4 O26'
_cell_volume   789.28643781
_cell_formula_units_Z   2
loop_
 _symmetry_equiv_pos_site_id
 _symmetry_equiv_pos_as_xyz
  1  'x, y, z'
loop_
 _atom_site_type_symbol
 _atom_site_label
 _atom_site_symmetry_multiplicity
 _atom_site_fract_x
 _atom_site_fract_y
 _atom_site_fract_z
 _atom_site_occupancy
  Ba  Ba0  1  0.000000  0.000000  0.362749  1
  Ba  Ba1  1  0.666667  0.333333  0.958580  1
  Ba  Ba2  1  0.000000  0.000000  0.637251  1
  Ba  Ba3  1  0.000000  0.000000  0.862749  1
  Ba  Ba4  1  0.666667  0.333333  0.541420  1
  Ba  Ba5  1  0.333333  0.666667  0.458580  1
  Ba  Ba6  1  0.000000  0.000000  0.137251  1
  Ba  Ba7  1  0.333333  0.666667  0.041420  1
  Ba  Ba8  1  0.666667  0.333333  0.250000  1
  Ba  Ba9  1  0.333333  0.666667  0.750000  1
  Er  Er10  1  0.666667  0.333333  0.103923  1
  Er  Er11  1  0.333333  0.666667  0.896077  1
  Er  Er12  1  0.333333  0.666667  0.603923  1
  Er  Er13  1  0.666667  0.333333  0.396077  1
  Zr  Zr14  1  0.000000  0.000000  0.500000  1
  Zr  Zr15  1  0.000000  0.000000  0.000000  1
  Al  Al16  1  0.666667  0.333333  0.819078  1
  Al  Al17  1  0.333333  0.666667  0.180922  1
  Al  Al18  1  0.666667  0.333333  0.680922  1
  Al  Al19  1  0.333333  0.666667  0.319078  1
  O  O20  1  0.836816  0.673631  0.050376  1
  O  O21  1  0.836816  0.673631  0.449624  1
  O  O22  1  0.163184  0.836816  0.949624  1
  O  O23  1  0.163184  0.326369  0.550376  1
  O  O24  1  0.505175  0.494825  0.841941  1
  O  O25  1  0.836816  0.163184  0.050376  1
  O  O26  1  0.494825  0.989649  0.158059  1
  O  O27  1  0.010351  0.505175  0.158059  1
  O  O28  1  0.836816  0.163184  0.449624  1
  O  O29  1  0.326369  0.163184  0.050376  1
  O  O30  1  0.989649  0.494825  0.658059  1
  O  O31  1  0.505175  0.010351  0.658059  1
  O  O32  1  0.010351  0.505175  0.341941  1
  O  O33  1  0.673631  0.836816  0.550376  1
  O  O34  1  0.666667  0.333333  0.750000  1
  O  O35  1  0.494825  0.505175  0.341941  1
  O  O36  1  0.673631  0.836816  0.949624  1
  O  O37  1  0.505175  0.010351  0.841941  1
  O  O38  1  0.989649  0.494825  0.841941  1
  O  O39  1  0.505175  0.494825  0.658059  1
  O  O40  1  0.163184  0.836816  0.550376  1
  O  O41  1  0.163184  0.326369  0.949624  1
  O  O42  1  0.494825  0.505175  0.158059  1
  O  O43  1  0.326369  0.163184  0.449624  1
  O  O44  1  0.333333  0.666667  0.250000  1
  O  O45  1  0.494825  0.989649  0.341941  1
