# generated using pymatgen
data_K2Mn2Be3F12
_symmetry_space_group_name_H-M   'P 1'
_cell_length_a   10.31269685
_cell_length_b   10.31269685
_cell_length_c   10.31269685
_cell_angle_alpha   90.00000000
_cell_angle_beta   90.00000000
_cell_angle_gamma   90.00000000
_symmetry_Int_Tables_number   1
_chemical_formula_structural   K2Mn2Be3F12
_chemical_formula_sum   'K8 Mn8 Be12 F48'
_cell_volume   1096.77300989
_cell_formula_units_Z   4
loop_
 _symmetry_equiv_pos_site_id
 _symmetry_equiv_pos_as_xyz
  1  'x, y, z'
loop_
 _atom_site_type_symbol
 _atom_site_label
 _atom_site_symmetry_multiplicity
 _atom_site_fract_x
 _atom_site_fract_y
 _atom_site_fract_z
 _atom_site_occupancy
  K  K0  1  0.191552  0.308448  0.691552  1
  K  K1  1  0.691552  0.191552  0.308448  1
  K  K2  1  0.308448  0.691552  0.191552  1
  K  K3  1  0.808448  0.808448  0.808448  1
  K  K4  1  0.449004  0.949004  0.550996  1
  K  K5  1  0.550996  0.449004  0.949004  1
  K  K6  1  0.949004  0.550996  0.449004  1
  K  K7  1  0.050996  0.050996  0.050996  1
  Mn  Mn8  1  0.331101  0.331101  0.331101  1
  Mn  Mn9  1  0.168899  0.668899  0.831101  1
  Mn  Mn10  1  0.831101  0.168899  0.668899  1
  Mn  Mn11  1  0.668899  0.831101  0.168899  1
  Mn  Mn12  1  0.592794  0.592794  0.592794  1
  Mn  Mn13  1  0.907206  0.407206  0.092794  1
  Mn  Mn14  1  0.092794  0.907206  0.407206  1
  Mn  Mn15  1  0.407206  0.092794  0.907206  1
  Be  Be16  1  0.279015  0.625036  0.514185  1
  Be  Be17  1  0.220985  0.374964  0.014185  1
  Be  Be18  1  0.720985  0.125036  0.985815  1
  Be  Be19  1  0.779015  0.874964  0.485815  1
  Be  Be20  1  0.125036  0.985815  0.720985  1
  Be  Be21  1  0.485815  0.779015  0.874964  1
  Be  Be22  1  0.985815  0.720985  0.125036  1
  Be  Be23  1  0.374964  0.014185  0.220985  1
  Be  Be24  1  0.014185  0.220985  0.374964  1
  Be  Be25  1  0.874964  0.485815  0.779015  1
  Be  Be26  1  0.625036  0.514185  0.279015  1
  Be  Be27  1  0.514185  0.279015  0.625036  1
  F  F28  1  0.455728  0.182827  0.726593  1
  F  F29  1  0.728943  0.007531  0.080099  1
  F  F30  1  0.771057  0.992469  0.580099  1
  F  F31  1  0.007531  0.080099  0.728943  1
  F  F32  1  0.263391  0.415719  0.153141  1
  F  F33  1  0.236609  0.584281  0.653141  1
  F  F34  1  0.653141  0.236609  0.584281  1
  F  F35  1  0.584281  0.653141  0.236609  1
  F  F36  1  0.915719  0.346859  0.736609  1
  F  F37  1  0.153141  0.263391  0.415719  1
  F  F38  1  0.415719  0.153141  0.263391  1
  F  F39  1  0.846859  0.763391  0.084281  1
  F  F40  1  0.346859  0.736609  0.915719  1
  F  F41  1  0.084281  0.846859  0.763391  1
  F  F42  1  0.736609  0.915719  0.346859  1
  F  F43  1  0.763391  0.084281  0.846859  1
  F  F44  1  0.182827  0.726593  0.455728  1
  F  F45  1  0.228943  0.492469  0.919901  1
  F  F46  1  0.726593  0.455728  0.182827  1
  F  F47  1  0.773407  0.544272  0.682827  1
  F  F48  1  0.955728  0.317173  0.273407  1
  F  F49  1  0.273407  0.955728  0.317173  1
  F  F50  1  0.044272  0.817173  0.226593  1
  F  F51  1  0.544272  0.682827  0.773407  1
  F  F52  1  0.226593  0.044272  0.817173  1
  F  F53  1  0.682827  0.773407  0.544272  1
  F  F54  1  0.817173  0.226593  0.044272  1
  F  F55  1  0.317173  0.273407  0.955728  1
  F  F56  1  0.420166  0.680794  0.515883  1
  F  F57  1  0.515883  0.420166  0.680794  1
  F  F58  1  0.680794  0.515883  0.420166  1
  F  F59  1  0.819206  0.484117  0.920166  1
  F  F60  1  0.015883  0.079834  0.319206  1
  F  F61  1  0.319206  0.015883  0.079834  1
  F  F62  1  0.984117  0.579834  0.180794  1
  F  F63  1  0.484117  0.920166  0.819206  1
  F  F64  1  0.180794  0.984117  0.579834  1
  F  F65  1  0.920166  0.819206  0.484117  1
  F  F66  1  0.579834  0.180794  0.984117  1
  F  F67  1  0.079834  0.319206  0.015883  1
  F  F68  1  0.271057  0.507531  0.419901  1
  F  F69  1  0.419901  0.271057  0.507531  1
  F  F70  1  0.507531  0.419901  0.271057  1
  F  F71  1  0.992469  0.580099  0.771057  1
  F  F72  1  0.919901  0.228943  0.492469  1
  F  F73  1  0.580099  0.771057  0.992469  1
  F  F74  1  0.080099  0.728943  0.007531  1
  F  F75  1  0.492469  0.919901  0.228943  1
