# generated using pymatgen
data_PNF2
_symmetry_space_group_name_H-M   'P 1'
_cell_length_a   7.62277857
_cell_length_b   14.95402192
_cell_length_c   12.11648844
_cell_angle_alpha   90.00000000
_cell_angle_beta   113.70733809
_cell_angle_gamma   90.00000000
_symmetry_Int_Tables_number   1
_chemical_formula_structural   PNF2
_chemical_formula_sum   'P20 N20 F40'
_cell_volume   1264.61736728
_cell_formula_units_Z   20
loop_
 _symmetry_equiv_pos_site_id
 _symmetry_equiv_pos_as_xyz
  1  'x, y, z'
loop_
 _atom_site_type_symbol
 _atom_site_label
 _atom_site_symmetry_multiplicity
 _atom_site_fract_x
 _atom_site_fract_y
 _atom_site_fract_z
 _atom_site_occupancy
  P  P0  1  0.538674  0.638763  0.944244  1
  P  P1  1  0.010018  0.761461  0.827386  1
  P  P2  1  0.401256  0.562064  0.702439  1
  P  P3  1  0.989041  0.392497  0.322664  1
  P  P4  1  0.598744  0.437936  0.297561  1
  P  P5  1  0.989982  0.261461  0.672614  1
  P  P6  1  0.598744  0.062064  0.797561  1
  P  P7  1  0.401256  0.937936  0.202439  1
  P  P8  1  0.989041  0.107503  0.822664  1
  P  P9  1  0.761361  0.157517  0.465411  1
  P  P10  1  0.238639  0.657517  0.034589  1
  P  P11  1  0.761361  0.342483  0.965411  1
  P  P12  1  0.989982  0.238539  0.172614  1
  P  P13  1  0.010959  0.607503  0.677336  1
  P  P14  1  0.461326  0.361237  0.055756  1
  P  P15  1  0.461326  0.138763  0.555756  1
  P  P16  1  0.010018  0.738539  0.327386  1
  P  P17  1  0.538674  0.861237  0.444244  1
  P  P18  1  0.010959  0.892497  0.177336  1
  P  P19  1  0.238639  0.842483  0.534589  1
  N  N20  1  0.916842  0.272263  0.039090  1
  N  N21  1  0.371119  0.888704  0.480667  1
  N  N22  1  0.964724  0.294583  0.273887  1
  N  N23  1  0.083158  0.772263  0.460910  1
  N  N24  1  0.457788  0.103185  0.675550  1
  N  N25  1  0.542212  0.603185  0.824450  1
  N  N26  1  0.820298  0.440726  0.339023  1
  N  N27  1  0.035276  0.794583  0.226113  1
  N  N28  1  0.457788  0.396815  0.175550  1
  N  N29  1  0.628881  0.388704  0.019333  1
  N  N30  1  0.179702  0.559274  0.660977  1
  N  N31  1  0.542212  0.896815  0.324450  1
  N  N32  1  0.083158  0.727737  0.960910  1
  N  N33  1  0.371119  0.611296  0.980667  1
  N  N34  1  0.820298  0.059274  0.839023  1
  N  N35  1  0.035276  0.705417  0.726113  1
  N  N36  1  0.964724  0.205417  0.773887  1
  N  N37  1  0.628881  0.111296  0.519333  1
  N  N38  1  0.916842  0.227737  0.539090  1
  N  N39  1  0.179702  0.940726  0.160977  1
  F  F40  1  0.901532  0.144817  0.174359  1
  F  F41  1  0.266471  0.112200  0.452484  1
  F  F42  1  0.532666  0.535444  0.305878  1
  F  F43  1  0.733529  0.612200  0.047516  1
  F  F44  1  0.450312  0.605462  0.600911  1
  F  F45  1  0.163363  0.395988  0.446987  1
  F  F46  1  0.359597  0.700516  0.159951  1
  F  F47  1  0.163363  0.104012  0.946987  1
  F  F48  1  0.467334  0.464556  0.694122  1
  F  F49  1  0.435561  0.257083  0.050779  1
  F  F50  1  0.932237  0.954622  0.251328  1
  F  F51  1  0.796564  0.710366  0.289825  1
  F  F52  1  0.549688  0.105462  0.899089  1
  F  F53  1  0.203436  0.289634  0.710175  1
  F  F54  1  0.860540  0.081099  0.425024  1
  F  F55  1  0.836637  0.604012  0.553013  1
  F  F56  1  0.139460  0.581099  0.074976  1
  F  F57  1  0.640403  0.299484  0.840049  1
  F  F58  1  0.139460  0.918901  0.574976  1
  F  F59  1  0.901532  0.355183  0.674359  1
  F  F60  1  0.266471  0.387800  0.952484  1
  F  F61  1  0.067763  0.045378  0.748672  1
  F  F62  1  0.450312  0.894538  0.100911  1
  F  F63  1  0.203436  0.210366  0.210175  1
  F  F64  1  0.932237  0.545378  0.751328  1
  F  F65  1  0.532666  0.964556  0.805878  1
  F  F66  1  0.796564  0.789634  0.789825  1
  F  F67  1  0.836637  0.895988  0.053013  1
  F  F68  1  0.549688  0.394538  0.399089  1
  F  F69  1  0.564439  0.757083  0.449221  1
  F  F70  1  0.640403  0.200516  0.340049  1
  F  F71  1  0.564439  0.742917  0.949221  1
  F  F72  1  0.435561  0.242917  0.550779  1
  F  F73  1  0.733529  0.887800  0.547516  1
  F  F74  1  0.098468  0.855183  0.825641  1
  F  F75  1  0.467334  0.035444  0.194122  1
  F  F76  1  0.067763  0.454622  0.248672  1
  F  F77  1  0.098468  0.644817  0.325641  1
  F  F78  1  0.359597  0.799484  0.659951  1
  F  F79  1  0.860540  0.418901  0.925024  1
