# generated using pymatgen
data_Li2MnSiO4
_symmetry_space_group_name_H-M   'P 1'
_cell_length_a   5.03960035
_cell_length_b   5.42869268
_cell_length_c   6.36236052
_cell_angle_alpha   90.00000000
_cell_angle_beta   90.00000000
_cell_angle_gamma   90.00000000
_symmetry_Int_Tables_number   1
_chemical_formula_structural   Li2MnSiO4
_chemical_formula_sum   'Li4 Mn2 Si2 O8'
_cell_volume   174.06426828
_cell_formula_units_Z   2
loop_
 _symmetry_equiv_pos_site_id
 _symmetry_equiv_pos_as_xyz
  1  'x, y, z'
loop_
 _atom_site_type_symbol
 _atom_site_label
 _atom_site_symmetry_multiplicity
 _atom_site_fract_x
 _atom_site_fract_y
 _atom_site_fract_z
 _atom_site_occupancy
  Li  Li0  1  0.556745  0.331188  0.250760  1
  Li  Li1  1  0.556745  0.331188  0.749240  1
  Li  Li2  1  0.056745  0.668812  0.750760  1
  Li  Li3  1  0.056745  0.668812  0.249240  1
  Mn  Mn4  1  0.559378  0.834026  0.000000  1
  Mn  Mn5  1  0.059378  0.165974  0.500000  1
  Si  Si6  1  0.049970  0.179728  0.000000  1
  Si  Si7  1  0.549970  0.820272  0.500000  1
  O  O8  1  0.721746  0.188630  0.000000  1
  O  O9  1  0.163402  0.321769  0.211958  1
  O  O10  1  0.663402  0.678231  0.711958  1
  O  O11  1  0.221746  0.811370  0.500000  1
  O  O12  1  0.143651  0.885638  0.000000  1
  O  O13  1  0.643651  0.114362  0.500000  1
  O  O14  1  0.663402  0.678231  0.288042  1
  O  O15  1  0.163402  0.321769  0.788042  1
