# generated using pymatgen
data_MgTlAs(H6O5)2
_symmetry_space_group_name_H-M   'P 1'
_cell_length_a   6.25789247
_cell_length_b   7.05974931
_cell_length_c   11.44785174
_cell_angle_alpha   90.00000000
_cell_angle_beta   90.00000000
_cell_angle_gamma   90.00000000
_symmetry_Int_Tables_number   1
_chemical_formula_structural   MgTlAs(H6O5)2
_chemical_formula_sum   'Mg2 Tl2 As2 H24 O20'
_cell_volume   505.75638263
_cell_formula_units_Z   2
loop_
 _symmetry_equiv_pos_site_id
 _symmetry_equiv_pos_as_xyz
  1  'x, y, z'
loop_
 _atom_site_type_symbol
 _atom_site_label
 _atom_site_symmetry_multiplicity
 _atom_site_fract_x
 _atom_site_fract_y
 _atom_site_fract_z
 _atom_site_occupancy
  Mg  Mg0  1  0.379576  0.500000  0.880343  1
  Mg  Mg1  1  0.620424  0.000000  0.380343  1
  Tl  Tl2  1  0.369500  0.500000  0.223124  1
  Tl  Tl3  1  0.630500  0.000000  0.723124  1
  As  As4  1  0.993683  0.500000  0.508614  1
  As  As5  1  0.006317  0.000000  0.008614  1
  H  H6  1  0.610579  0.679763  0.525961  1
  H  H7  1  0.999821  0.114252  0.498960  1
  H  H8  1  0.182913  0.177668  0.807477  1
  H  H9  1  0.389421  0.179763  0.025961  1
  H  H10  1  0.216364  0.295638  0.689627  1
  H  H11  1  0.216364  0.704362  0.689627  1
  H  H12  1  0.783636  0.795638  0.189627  1
  H  H13  1  0.629992  0.744502  0.012704  1
  H  H14  1  0.279227  0.000000  0.217625  1
  H  H15  1  0.817087  0.322332  0.307477  1
  H  H16  1  0.783636  0.204362  0.189627  1
  H  H17  1  0.000179  0.614252  0.998960  1
  H  H18  1  0.610579  0.320237  0.525961  1
  H  H19  1  0.182913  0.822332  0.807477  1
  H  H20  1  0.174941  0.000000  0.346613  1
  H  H21  1  0.999821  0.885748  0.498960  1
  H  H22  1  0.817087  0.677668  0.307477  1
  H  H23  1  0.825059  0.500000  0.846613  1
  H  H24  1  0.370008  0.244502  0.512704  1
  H  H25  1  0.629992  0.255498  0.012704  1
  H  H26  1  0.389421  0.820237  0.025961  1
  H  H27  1  0.720773  0.500000  0.717625  1
  H  H28  1  0.000179  0.385748  0.998960  1
  H  H29  1  0.370008  0.755498  0.512704  1
  O  O30  1  0.277926  0.276577  0.770175  1
  O  O31  1  0.523541  0.206061  0.501229  1
  O  O32  1  0.311845  0.000000  0.303936  1
  O  O33  1  0.873917  0.201338  0.053921  1
  O  O34  1  0.873917  0.798662  0.053921  1
  O  O35  1  0.688155  0.500000  0.803936  1
  O  O36  1  0.035789  0.000000  0.859319  1
  O  O37  1  0.256373  0.000000  0.073644  1
  O  O38  1  0.277926  0.723423  0.770175  1
  O  O39  1  0.936755  0.000000  0.458294  1
  O  O40  1  0.523541  0.793939  0.501229  1
  O  O41  1  0.063245  0.500000  0.958294  1
  O  O42  1  0.722074  0.776577  0.270175  1
  O  O43  1  0.126083  0.701338  0.553921  1
  O  O44  1  0.722074  0.223423  0.270175  1
  O  O45  1  0.126083  0.298662  0.553921  1
  O  O46  1  0.476459  0.293939  0.001229  1
  O  O47  1  0.964211  0.500000  0.359319  1
  O  O48  1  0.743627  0.500000  0.573644  1
  O  O49  1  0.476459  0.706061  0.001229  1
