# generated using pymatgen
data_Y2GeO5
_symmetry_space_group_name_H-M   'P 1'
_cell_length_a   8.26767363
_cell_length_b   8.26767363
_cell_length_c   10.58415250
_cell_angle_alpha   61.34404826
_cell_angle_beta   118.65595174
_cell_angle_gamma   130.54096013
_symmetry_Int_Tables_number   1
_chemical_formula_structural   Y2GeO5
_chemical_formula_sum   'Y8 Ge4 O20'
_cell_volume   466.92369806
_cell_formula_units_Z   4
loop_
 _symmetry_equiv_pos_site_id
 _symmetry_equiv_pos_as_xyz
  1  'x, y, z'
loop_
 _atom_site_type_symbol
 _atom_site_label
 _atom_site_symmetry_multiplicity
 _atom_site_fract_x
 _atom_site_fract_y
 _atom_site_fract_z
 _atom_site_occupancy
  Y  Y0  1  0.988883  0.264491  0.162321  1
  Y  Y1  1  0.277032  0.206362  0.965661  1
  Y  Y2  1  0.735509  0.011117  0.662321  1
  Y  Y3  1  0.011117  0.735509  0.837679  1
  Y  Y4  1  0.264491  0.988883  0.337679  1
  Y  Y5  1  0.793638  0.722968  0.465661  1
  Y  Y6  1  0.722968  0.793638  0.034339  1
  Y  Y7  1  0.206362  0.277032  0.534339  1
  Ge  Ge8  1  0.220520  0.590256  0.692113  1
  Ge  Ge9  1  0.409744  0.779480  0.192113  1
  Ge  Ge10  1  0.590256  0.220520  0.807887  1
  Ge  Ge11  1  0.779480  0.409744  0.307887  1
  O  O12  1  0.114093  0.080985  0.396874  1
  O  O13  1  0.913850  0.680160  0.323865  1
  O  O14  1  0.680160  0.913850  0.176135  1
  O  O15  1  0.576742  0.409020  0.632892  1
  O  O16  1  0.086150  0.319840  0.676135  1
  O  O17  1  0.080985  0.114093  0.103126  1
  O  O18  1  0.319840  0.086150  0.823865  1
  O  O19  1  0.919015  0.885907  0.896874  1
  O  O20  1  0.219516  0.629326  0.055428  1
  O  O21  1  0.041018  0.648737  0.676126  1
  O  O22  1  0.409020  0.576742  0.867108  1
  O  O23  1  0.629326  0.219516  0.444572  1
  O  O24  1  0.590980  0.423258  0.132892  1
  O  O25  1  0.370674  0.780484  0.555428  1
  O  O26  1  0.958982  0.351263  0.323874  1
  O  O27  1  0.885907  0.919015  0.603126  1
  O  O28  1  0.780484  0.370674  0.944572  1
  O  O29  1  0.648737  0.041018  0.823874  1
  O  O30  1  0.423258  0.590980  0.367108  1
  O  O31  1  0.351263  0.958982  0.176126  1
