# generated using pymatgen
data_FeP2PbO7
_symmetry_space_group_name_H-M   'P 1'
_cell_length_a   5.46259625
_cell_length_b   8.44761432
_cell_length_c   14.05632944
_cell_angle_alpha   90.00000000
_cell_angle_beta   112.15171120
_cell_angle_gamma   90.00000000
_symmetry_Int_Tables_number   1
_chemical_formula_structural   FeP2PbO7
_chemical_formula_sum   'Fe4 P8 Pb4 O28'
_cell_volume   600.76494751
_cell_formula_units_Z   4
loop_
 _symmetry_equiv_pos_site_id
 _symmetry_equiv_pos_as_xyz
  1  'x, y, z'
loop_
 _atom_site_type_symbol
 _atom_site_label
 _atom_site_symmetry_multiplicity
 _atom_site_fract_x
 _atom_site_fract_y
 _atom_site_fract_z
 _atom_site_occupancy
  Fe  Fe0  1  0.925537  0.349917  0.105733  1
  Fe  Fe1  1  0.074463  0.849917  0.394267  1
  Fe  Fe2  1  0.074463  0.650083  0.894267  1
  Fe  Fe3  1  0.925537  0.150083  0.605733  1
  P  P4  1  0.914577  0.539267  0.664034  1
  P  P5  1  0.296245  0.300285  0.981724  1
  P  P6  1  0.296245  0.199715  0.481724  1
  P  P7  1  0.085423  0.460733  0.335966  1
  P  P8  1  0.914577  0.960733  0.164034  1
  P  P9  1  0.703755  0.699715  0.018276  1
  P  P10  1  0.085423  0.039267  0.835966  1
  P  P11  1  0.703755  0.800285  0.518276  1
  Pb  Pb12  1  0.434048  0.675312  0.221631  1
  Pb  Pb13  1  0.434048  0.824688  0.721631  1
  Pb  Pb14  1  0.565952  0.324688  0.778369  1
  Pb  Pb15  1  0.565952  0.175312  0.278369  1
  O  O16  1  0.214411  0.563355  0.701741  1
  O  O17  1  0.921102  0.595825  0.095746  1
  O  O18  1  0.205920  0.121226  0.765510  1
  O  O19  1  0.078898  0.095825  0.404254  1
  O  O20  1  0.166377  0.864891  0.848953  1
  O  O21  1  0.785589  0.063355  0.798259  1
  O  O22  1  0.166377  0.635109  0.348953  1
  O  O23  1  0.794080  0.621226  0.734490  1
  O  O24  1  0.921102  0.904175  0.595746  1
  O  O25  1  0.833623  0.364891  0.651047  1
  O  O26  1  0.215705  0.117157  0.949002  1
  O  O27  1  0.432991  0.671413  0.024854  1
  O  O28  1  0.294535  0.188458  0.590568  1
  O  O29  1  0.784295  0.617157  0.550998  1
  O  O30  1  0.785589  0.436645  0.298259  1
  O  O31  1  0.794080  0.878774  0.234490  1
  O  O32  1  0.705465  0.811542  0.409432  1
  O  O33  1  0.205920  0.378774  0.265510  1
  O  O34  1  0.432991  0.828587  0.524854  1
  O  O35  1  0.567009  0.171413  0.475146  1
  O  O36  1  0.214411  0.936645  0.201741  1
  O  O37  1  0.784295  0.882843  0.050998  1
  O  O38  1  0.078898  0.404175  0.904254  1
  O  O39  1  0.567009  0.328587  0.975146  1
  O  O40  1  0.705465  0.688458  0.909432  1
  O  O41  1  0.294535  0.311542  0.090568  1
  O  O42  1  0.215705  0.382843  0.449002  1
  O  O43  1  0.833623  0.135109  0.151047  1
