# generated using pymatgen
data_LiCo2P3O10
_symmetry_space_group_name_H-M   'P 1'
_cell_length_a   8.11072840
_cell_length_b   8.11072840
_cell_length_c   9.16763112
_cell_angle_alpha   62.05311480
_cell_angle_beta   117.94688520
_cell_angle_gamma   116.50664115
_symmetry_Int_Tables_number   1
_chemical_formula_structural   LiCo2P3O10
_chemical_formula_sum   'Li2 Co4 P6 O20'
_cell_volume   450.33409706
_cell_formula_units_Z   2
loop_
 _symmetry_equiv_pos_site_id
 _symmetry_equiv_pos_as_xyz
  1  'x, y, z'
loop_
 _atom_site_type_symbol
 _atom_site_label
 _atom_site_symmetry_multiplicity
 _atom_site_fract_x
 _atom_site_fract_y
 _atom_site_fract_z
 _atom_site_occupancy
  Li  Li0  1  0.403260  0.403260  0.250000  1
  Li  Li1  1  0.596740  0.596740  0.750000  1
  Co  Co2  1  0.243471  0.702323  0.456493  1
  Co  Co3  1  0.756529  0.297677  0.543507  1
  Co  Co4  1  0.297677  0.756529  0.956493  1
  Co  Co5  1  0.702323  0.243471  0.043507  1
  P  P6  1  0.170990  0.439313  0.808622  1
  P  P7  1  0.560687  0.829010  0.308622  1
  P  P8  1  0.078388  0.078388  0.750000  1
  P  P9  1  0.439313  0.170990  0.691378  1
  P  P10  1  0.829010  0.560687  0.191378  1
  P  P11  1  0.921612  0.921612  0.250000  1
  O  O12  1  0.785482  0.827903  0.369882  1
  O  O13  1  0.876851  0.092280  0.628309  1
  O  O14  1  0.965572  0.453833  0.692322  1
  O  O15  1  0.453833  0.965572  0.807678  1
  O  O16  1  0.479105  0.241916  0.520580  1
  O  O17  1  0.123149  0.907720  0.371691  1
  O  O18  1  0.827903  0.785482  0.130118  1
  O  O19  1  0.431530  0.679412  0.211120  1
  O  O20  1  0.568470  0.320588  0.788880  1
  O  O21  1  0.214518  0.172097  0.630118  1
  O  O22  1  0.172097  0.214518  0.869882  1
  O  O23  1  0.546167  0.034428  0.192322  1
  O  O24  1  0.034428  0.546167  0.307678  1
  O  O25  1  0.092280  0.876851  0.871691  1
  O  O26  1  0.907720  0.123149  0.128309  1
  O  O27  1  0.758084  0.520895  0.020580  1
  O  O28  1  0.241916  0.479105  0.979420  1
  O  O29  1  0.320588  0.568470  0.711120  1
  O  O30  1  0.679412  0.431530  0.288880  1
  O  O31  1  0.520895  0.758084  0.479420  1
