# generated using pymatgen
data_Na5CrP2(O4F)2
_symmetry_space_group_name_H-M   'P 1'
_cell_length_a   10.71576144
_cell_length_b   10.71576144
_cell_length_c   6.76644866
_cell_angle_alpha   90.00000000
_cell_angle_beta   90.00000000
_cell_angle_gamma   120.00000000
_symmetry_Int_Tables_number   1
_chemical_formula_structural   Na5CrP2(O4F)2
_chemical_formula_sum   'Na15 Cr3 P6 O24 F6'
_cell_volume   672.87980750
_cell_formula_units_Z   3
loop_
 _symmetry_equiv_pos_site_id
 _symmetry_equiv_pos_as_xyz
  1  'x, y, z'
loop_
 _atom_site_type_symbol
 _atom_site_label
 _atom_site_symmetry_multiplicity
 _atom_site_fract_x
 _atom_site_fract_y
 _atom_site_fract_z
 _atom_site_occupancy
  Na  Na0  1  0.666667  0.333333  0.572650  1
  Na  Na1  1  0.000000  0.000000  0.500000  1
  Na  Na2  1  0.333333  0.666667  0.427350  1
  Na  Na3  1  0.666667  0.333333  0.015691  1
  Na  Na4  1  0.171803  0.855819  0.239897  1
  Na  Na5  1  0.315984  0.171803  0.760103  1
  Na  Na6  1  0.500000  0.500000  0.500000  1
  Na  Na7  1  0.144181  0.315984  0.239897  1
  Na  Na8  1  0.828197  0.144181  0.760103  1
  Na  Na9  1  0.684016  0.828197  0.239897  1
  Na  Na10  1  0.500000  0.000000  0.500000  1
  Na  Na11  1  0.333333  0.666667  0.984309  1
  Na  Na12  1  0.000000  0.000000  0.000000  1
  Na  Na13  1  0.855819  0.684016  0.760103  1
  Na  Na14  1  0.000000  0.500000  0.500000  1
  Cr  Cr15  1  0.000000  0.500000  0.000000  1
  Cr  Cr16  1  0.500000  0.500000  0.000000  1
  Cr  Cr17  1  0.500000  0.000000  0.000000  1
  P  P18  1  0.814160  0.182739  0.250685  1
  P  P19  1  0.817261  0.631421  0.250685  1
  P  P20  1  0.368579  0.185840  0.250685  1
  P  P21  1  0.182739  0.368579  0.749315  1
  P  P22  1  0.631421  0.814160  0.749315  1
  P  P23  1  0.185840  0.817261  0.749315  1
  O  O24  1  0.740286  0.170914  0.449899  1
  O  O25  1  0.422477  0.075104  0.212075  1
  O  O26  1  0.829086  0.569372  0.449899  1
  O  O27  1  0.347373  0.422477  0.787925  1
  O  O28  1  0.892998  0.094974  0.245619  1
  O  O29  1  0.170914  0.430628  0.550101  1
  O  O30  1  0.259714  0.829086  0.550101  1
  O  O31  1  0.798023  0.892998  0.754381  1
  O  O32  1  0.430628  0.259714  0.449899  1
  O  O33  1  0.566816  0.703916  0.925918  1
  O  O34  1  0.433184  0.296084  0.074082  1
  O  O35  1  0.569372  0.740286  0.550101  1
  O  O36  1  0.703916  0.137101  0.074082  1
  O  O37  1  0.652627  0.577523  0.212075  1
  O  O38  1  0.924896  0.347373  0.212075  1
  O  O39  1  0.577523  0.924896  0.787925  1
  O  O40  1  0.905026  0.798023  0.245619  1
  O  O41  1  0.862899  0.566816  0.074082  1
  O  O42  1  0.107002  0.905026  0.754381  1
  O  O43  1  0.075104  0.652627  0.787925  1
  O  O44  1  0.094974  0.201977  0.754381  1
  O  O45  1  0.137101  0.433184  0.925918  1
  O  O46  1  0.296084  0.862899  0.925918  1
  O  O47  1  0.201977  0.107002  0.245619  1
  F  F48  1  0.622764  0.481411  0.798458  1
  F  F49  1  0.377236  0.518589  0.201542  1
  F  F50  1  0.858646  0.377236  0.798458  1
  F  F51  1  0.481411  0.858646  0.201542  1
  F  F52  1  0.518589  0.141354  0.798458  1
  F  F53  1  0.141354  0.622764  0.201542  1
