# generated using pymatgen
data_Ni5Sn(BO5)2
_symmetry_space_group_name_H-M   'P 1'
_cell_length_a   6.17630424
_cell_length_b   9.39444665
_cell_length_c   12.40123528
_cell_angle_alpha   90.00000000
_cell_angle_beta   90.00000000
_cell_angle_gamma   90.00000000
_symmetry_Int_Tables_number   1
_chemical_formula_structural   Ni5Sn(BO5)2
_chemical_formula_sum   'Ni20 Sn4 B8 O40'
_cell_volume   719.55638700
_cell_formula_units_Z   4
loop_
 _symmetry_equiv_pos_site_id
 _symmetry_equiv_pos_as_xyz
  1  'x, y, z'
loop_
 _atom_site_type_symbol
 _atom_site_label
 _atom_site_symmetry_multiplicity
 _atom_site_fract_x
 _atom_site_fract_y
 _atom_site_fract_z
 _atom_site_occupancy
  Ni  Ni0  1  0.250000  0.259474  0.885806  1
  Ni  Ni1  1  0.750000  0.490649  0.499451  1
  Ni  Ni2  1  0.750000  0.240526  0.385806  1
  Ni  Ni3  1  0.995389  0.003515  0.218058  1
  Ni  Ni4  1  0.750000  0.990649  0.000549  1
  Ni  Ni5  1  0.495389  0.996485  0.781942  1
  Ni  Ni6  1  0.504611  0.503515  0.281942  1
  Ni  Ni7  1  0.495389  0.496485  0.718058  1
  Ni  Ni8  1  0.250000  0.759474  0.614194  1
  Ni  Ni9  1  0.004611  0.996485  0.781942  1
  Ni  Ni10  1  0.250000  0.509351  0.500549  1
  Ni  Ni11  1  0.004611  0.496485  0.718058  1
  Ni  Ni12  1  0.504611  0.003515  0.218058  1
  Ni  Ni13  1  0.000000  0.500000  0.000000  1
  Ni  Ni14  1  0.995389  0.503515  0.281942  1
  Ni  Ni15  1  0.750000  0.740526  0.114194  1
  Ni  Ni16  1  0.250000  0.009351  0.999451  1
  Ni  Ni17  1  0.000000  0.000000  0.500000  1
  Ni  Ni18  1  0.500000  0.000000  0.500000  1
  Ni  Ni19  1  0.500000  0.500000  0.000000  1
  Sn  Sn20  1  0.250000  0.240985  0.383651  1
  Sn  Sn21  1  0.250000  0.740985  0.116349  1
  Sn  Sn22  1  0.750000  0.759015  0.616349  1
  Sn  Sn23  1  0.750000  0.259015  0.883651  1
  B  B24  1  0.750000  0.273084  0.142554  1
  B  B25  1  0.250000  0.278234  0.136300  1
  B  B26  1  0.250000  0.726916  0.857446  1
  B  B27  1  0.250000  0.778234  0.363700  1
  B  B28  1  0.250000  0.226916  0.642554  1
  B  B29  1  0.750000  0.221766  0.636300  1
  B  B30  1  0.750000  0.721766  0.863700  1
  B  B31  1  0.750000  0.773084  0.357446  1
  O  O32  1  0.009400  0.890130  0.078531  1
  O  O33  1  0.500192  0.104967  0.357298  1
  O  O34  1  0.750000  0.625335  0.358813  1
  O  O35  1  0.490600  0.390130  0.421469  1
  O  O36  1  0.250000  0.631265  0.358741  1
  O  O37  1  0.250000  0.150235  0.544398  1
  O  O38  1  0.500192  0.604967  0.142702  1
  O  O39  1  0.990600  0.609870  0.578531  1
  O  O40  1  0.750000  0.849765  0.455602  1
  O  O41  1  0.750000  0.349502  0.237651  1
  O  O42  1  0.750000  0.644813  0.765935  1
  O  O43  1  0.509400  0.109870  0.921469  1
  O  O44  1  0.250000  0.855187  0.265935  1
  O  O45  1  0.250000  0.374665  0.641187  1
  O  O46  1  0.000192  0.395033  0.857298  1
  O  O47  1  0.250000  0.874665  0.858813  1
  O  O48  1  0.250000  0.355187  0.234065  1
  O  O49  1  0.750000  0.646753  0.959286  1
  O  O50  1  0.750000  0.144813  0.734065  1
  O  O51  1  0.499808  0.395033  0.857298  1
  O  O52  1  0.750000  0.349765  0.044398  1
  O  O53  1  0.999808  0.604967  0.142702  1
  O  O54  1  0.009400  0.390130  0.421469  1
  O  O55  1  0.999808  0.104967  0.357298  1
  O  O56  1  0.499808  0.895033  0.642702  1
  O  O57  1  0.250000  0.150498  0.737651  1
  O  O58  1  0.000192  0.895033  0.642702  1
  O  O59  1  0.509400  0.609870  0.578531  1
  O  O60  1  0.250000  0.650498  0.762349  1
  O  O61  1  0.750000  0.146753  0.540714  1
  O  O62  1  0.490600  0.890130  0.078531  1
  O  O63  1  0.990600  0.109870  0.921469  1
  O  O64  1  0.750000  0.868735  0.858741  1
  O  O65  1  0.250000  0.650235  0.955602  1
  O  O66  1  0.250000  0.131265  0.141259  1
  O  O67  1  0.750000  0.368735  0.641259  1
  O  O68  1  0.250000  0.353247  0.040714  1
  O  O69  1  0.750000  0.849502  0.262349  1
  O  O70  1  0.250000  0.853247  0.459286  1
  O  O71  1  0.750000  0.125335  0.141187  1
