# generated using pymatgen
data_K2Ge2Se5
_symmetry_space_group_name_H-M   'P 1'
_cell_length_a   10.25008812
_cell_length_b   10.03382793
_cell_length_c   23.98850204
_cell_angle_alpha   90.00000000
_cell_angle_beta   93.34450936
_cell_angle_gamma   90.00000000
_symmetry_Int_Tables_number   1
_chemical_formula_structural   K2Ge2Se5
_chemical_formula_sum   'K16 Ge16 Se40'
_cell_volume   2462.95828072
_cell_formula_units_Z   8
loop_
 _symmetry_equiv_pos_site_id
 _symmetry_equiv_pos_as_xyz
  1  'x, y, z'
loop_
 _atom_site_type_symbol
 _atom_site_label
 _atom_site_symmetry_multiplicity
 _atom_site_fract_x
 _atom_site_fract_y
 _atom_site_fract_z
 _atom_site_occupancy
  K  K0  1  0.159158  0.119576  0.156671  1
  K  K1  1  0.679828  0.146324  0.239184  1
  K  K2  1  0.679828  0.353676  0.739184  1
  K  K3  1  0.432940  0.501959  0.104764  1
  K  K4  1  0.682896  0.379467  0.502981  1
  K  K5  1  0.320172  0.646324  0.260816  1
  K  K6  1  0.840842  0.619576  0.343329  1
  K  K7  1  0.432940  0.998041  0.604764  1
  K  K8  1  0.567060  0.001959  0.395236  1
  K  K9  1  0.320172  0.853676  0.760816  1
  K  K10  1  0.840842  0.880424  0.843329  1
  K  K11  1  0.567060  0.498041  0.895236  1
  K  K12  1  0.159158  0.380424  0.656671  1
  K  K13  1  0.317104  0.620533  0.497019  1
  K  K14  1  0.317104  0.879467  0.997019  1
  K  K15  1  0.682896  0.120533  0.002981  1
  Ge  Ge16  1  0.160584  0.915625  0.379231  1
  Ge  Ge17  1  0.160584  0.584375  0.879231  1
  Ge  Ge18  1  0.726169  0.757625  0.692753  1
  Ge  Ge19  1  0.260156  0.271568  0.968235  1
  Ge  Ge20  1  0.839416  0.415625  0.120769  1
  Ge  Ge21  1  0.946273  0.228186  0.375607  1
  Ge  Ge22  1  0.053727  0.728186  0.124393  1
  Ge  Ge23  1  0.739844  0.771568  0.531765  1
  Ge  Ge24  1  0.739844  0.728432  0.031765  1
  Ge  Ge25  1  0.839416  0.084375  0.620769  1
  Ge  Ge26  1  0.273831  0.257625  0.807247  1
  Ge  Ge27  1  0.260156  0.228432  0.468235  1
  Ge  Ge28  1  0.053727  0.771814  0.624393  1
  Ge  Ge29  1  0.726169  0.742375  0.192753  1
  Ge  Ge30  1  0.946273  0.271814  0.875607  1
  Ge  Ge31  1  0.273831  0.242375  0.307247  1
  Se  Se32  1  0.369651  0.194354  0.048907  1
  Se  Se33  1  0.051016  0.317628  0.295755  1
  Se  Se34  1  0.948984  0.817628  0.204245  1
  Se  Se35  1  0.938388  0.510754  0.872197  1
  Se  Se36  1  0.960274  0.809646  0.036451  1
  Se  Se37  1  0.836715  0.312788  0.624645  1
  Se  Se38  1  0.061612  0.010754  0.627803  1
  Se  Se39  1  0.727779  0.012291  0.533463  1
  Se  Se40  1  0.369651  0.305646  0.548907  1
  Se  Se41  1  0.381537  0.179726  0.893605  1
  Se  Se42  1  0.269461  0.703703  0.632800  1
  Se  Se43  1  0.948984  0.682372  0.704245  1
  Se  Se44  1  0.272221  0.512291  0.966537  1
  Se  Se45  1  0.163285  0.812788  0.875355  1
  Se  Se46  1  0.039726  0.190354  0.963549  1
  Se  Se47  1  0.618463  0.820274  0.106395  1
  Se  Se48  1  0.613023  0.816392  0.267165  1
  Se  Se49  1  0.715495  0.998927  0.696445  1
  Se  Se50  1  0.613023  0.683608  0.767165  1
  Se  Se51  1  0.163285  0.687212  0.375355  1
  Se  Se52  1  0.386977  0.183608  0.732835  1
  Se  Se53  1  0.381537  0.320274  0.393605  1
  Se  Se54  1  0.039726  0.309646  0.463549  1
  Se  Se55  1  0.836715  0.187212  0.124645  1
  Se  Se56  1  0.284505  0.001073  0.303555  1
  Se  Se57  1  0.061612  0.489246  0.127803  1
  Se  Se58  1  0.618463  0.679726  0.606395  1
  Se  Se59  1  0.630349  0.694354  0.451093  1
  Se  Se60  1  0.727779  0.487709  0.033463  1
  Se  Se61  1  0.386977  0.316392  0.232835  1
  Se  Se62  1  0.938388  0.989246  0.372197  1
  Se  Se63  1  0.284505  0.498927  0.803555  1
  Se  Se64  1  0.960274  0.690354  0.536451  1
  Se  Se65  1  0.630349  0.805646  0.951093  1
  Se  Se66  1  0.272221  0.987709  0.466537  1
  Se  Se67  1  0.730539  0.296297  0.367200  1
  Se  Se68  1  0.051016  0.182372  0.795755  1
  Se  Se69  1  0.269461  0.796297  0.132800  1
  Se  Se70  1  0.715495  0.501073  0.196445  1
  Se  Se71  1  0.730539  0.203703  0.867200  1
