# generated using pymatgen
data_Bi20(PtBr12)3
_symmetry_space_group_name_H-M   'P 1'
_cell_length_a   11.58888226
_cell_length_b   11.58888226
_cell_length_c   18.74191142
_cell_angle_alpha   74.16927926
_cell_angle_beta   105.83072074
_cell_angle_gamma   93.52136738
_symmetry_Int_Tables_number   1
_chemical_formula_structural   Bi20(PtBr12)3
_chemical_formula_sum   'Bi20 Pt3 Br36'
_cell_volume   2329.53473201
_cell_formula_units_Z   1
loop_
 _symmetry_equiv_pos_site_id
 _symmetry_equiv_pos_as_xyz
  1  'x, y, z'
loop_
 _atom_site_type_symbol
 _atom_site_label
 _atom_site_symmetry_multiplicity
 _atom_site_fract_x
 _atom_site_fract_y
 _atom_site_fract_z
 _atom_site_occupancy
  Bi  Bi0  1  0.724411  0.528341  0.235128  1
  Bi  Bi1  1  0.041037  0.209074  0.896545  1
  Bi  Bi2  1  0.275589  0.471659  0.764872  1
  Bi  Bi3  1  0.658075  0.341925  0.831001  1
  Bi  Bi4  1  0.471659  0.275589  0.235128  1
  Bi  Bi5  1  0.191836  0.808164  0.716305  1
  Bi  Bi6  1  0.808164  0.191836  0.283695  1
  Bi  Bi7  1  0.209074  0.041037  0.103455  1
  Bi  Bi8  1  0.642607  0.113229  0.443934  1
  Bi  Bi9  1  0.446148  0.553852  0.597546  1
  Bi  Bi10  1  0.790926  0.958963  0.896545  1
  Bi  Bi11  1  0.341925  0.658075  0.168999  1
  Bi  Bi12  1  0.123769  0.876231  0.936640  1
  Bi  Bi13  1  0.886771  0.357393  0.443934  1
  Bi  Bi14  1  0.528341  0.724411  0.764872  1
  Bi  Bi15  1  0.958963  0.790926  0.103455  1
  Bi  Bi16  1  0.876231  0.123769  0.063360  1
  Bi  Bi17  1  0.553852  0.446148  0.402454  1
  Bi  Bi18  1  0.113229  0.642607  0.556066  1
  Bi  Bi19  1  0.357393  0.886771  0.556066  1
  Pt  Pt20  1  0.323376  0.676624  0.661847  1
  Pt  Pt21  1  0.000000  0.000000  0.000000  1
  Pt  Pt22  1  0.676624  0.323376  0.338153  1
  Br  Br23  1  0.260345  0.260345  0.000000  1
  Br  Br24  1  0.854385  0.145615  0.559642  1
  Br  Br25  1  0.848145  0.414440  0.162059  1
  Br  Br26  1  0.756108  0.504733  0.508436  1
  Br  Br27  1  0.967454  0.769308  0.613896  1
  Br  Br28  1  0.634008  0.109590  0.946943  1
  Br  Br29  1  0.585560  0.151855  0.162059  1
  Br  Br30  1  0.145615  0.854385  0.440358  1
  Br  Br31  1  0.769308  0.967454  0.386104  1
  Br  Br32  1  0.495267  0.243892  0.508436  1
  Br  Br33  1  0.230692  0.032546  0.613896  1
  Br  Br34  1  0.171364  0.088548  0.826209  1
  Br  Br35  1  0.471653  0.528347  0.107076  1
  Br  Br36  1  0.591295  0.932828  0.665166  1
  Br  Br37  1  0.803493  0.196507  0.775855  1
  Br  Br38  1  0.151855  0.585560  0.837941  1
  Br  Br39  1  0.828636  0.911452  0.173791  1
  Br  Br40  1  0.365992  0.890410  0.053057  1
  Br  Br41  1  0.528347  0.471653  0.892924  1
  Br  Br42  1  0.890410  0.365992  0.946943  1
  Br  Br43  1  0.555058  0.699606  0.275141  1
  Br  Br44  1  0.504733  0.756108  0.491564  1
  Br  Br45  1  0.032546  0.230692  0.386104  1
  Br  Br46  1  0.196507  0.803493  0.224145  1
  Br  Br47  1  0.300394  0.444942  0.275141  1
  Br  Br48  1  0.911452  0.828636  0.826209  1
  Br  Br49  1  0.699606  0.555058  0.724859  1
  Br  Br50  1  0.088548  0.171364  0.173791  1
  Br  Br51  1  0.408705  0.067172  0.334834  1
  Br  Br52  1  0.444942  0.300394  0.724859  1
  Br  Br53  1  0.414440  0.848145  0.837941  1
  Br  Br54  1  0.739655  0.739655  0.000000  1
  Br  Br55  1  0.243892  0.495267  0.491564  1
  Br  Br56  1  0.067172  0.408705  0.665166  1
  Br  Br57  1  0.109590  0.634008  0.053057  1
  Br  Br58  1  0.932828  0.591295  0.334834  1
