# generated using pymatgen
data_CsIOF4
_symmetry_space_group_name_H-M   'P 1'
_cell_length_a   6.15364083
_cell_length_b   6.33031881
_cell_length_c   15.79925404
_cell_angle_alpha   90.00000000
_cell_angle_beta   90.00000000
_cell_angle_gamma   90.00000000
_symmetry_Int_Tables_number   1
_chemical_formula_structural   CsIOF4
_chemical_formula_sum   'Cs4 I4 O4 F16'
_cell_volume   615.45217257
_cell_formula_units_Z   4
loop_
 _symmetry_equiv_pos_site_id
 _symmetry_equiv_pos_as_xyz
  1  'x, y, z'
loop_
 _atom_site_type_symbol
 _atom_site_label
 _atom_site_symmetry_multiplicity
 _atom_site_fract_x
 _atom_site_fract_y
 _atom_site_fract_z
 _atom_site_occupancy
  Cs  Cs0  1  0.750000  0.279311  0.603223  1
  Cs  Cs1  1  0.750000  0.779311  0.896777  1
  Cs  Cs2  1  0.250000  0.220689  0.103223  1
  Cs  Cs3  1  0.250000  0.720689  0.396777  1
  I  I4  1  0.750000  0.274260  0.339539  1
  I  I5  1  0.750000  0.774260  0.160461  1
  I  I6  1  0.250000  0.725740  0.660461  1
  I  I7  1  0.250000  0.225740  0.839539  1
  O  O8  1  0.250000  0.489448  0.600426  1
  O  O9  1  0.250000  0.989448  0.899574  1
  O  O10  1  0.750000  0.510552  0.399574  1
  O  O11  1  0.750000  0.010552  0.100426  1
  F  F12  1  0.478320  0.347768  0.915871  1
  F  F13  1  0.978320  0.152232  0.415871  1
  F  F14  1  0.521680  0.152232  0.415871  1
  F  F15  1  0.981633  0.397893  0.262475  1
  F  F16  1  0.021680  0.347768  0.915871  1
  F  F17  1  0.518367  0.897893  0.237525  1
  F  F18  1  0.478320  0.847768  0.584129  1
  F  F19  1  0.481633  0.102107  0.762475  1
  F  F20  1  0.521680  0.652232  0.084129  1
  F  F21  1  0.018367  0.102107  0.762475  1
  F  F22  1  0.021680  0.847768  0.584129  1
  F  F23  1  0.018367  0.602107  0.737525  1
  F  F24  1  0.981633  0.897893  0.237525  1
  F  F25  1  0.518367  0.397893  0.262475  1
  F  F26  1  0.978320  0.652232  0.084129  1
  F  F27  1  0.481633  0.602107  0.737525  1
