# generated using pymatgen
data_Li3BiO4
_symmetry_space_group_name_H-M   'P 1'
_cell_length_a   8.86838221
_cell_length_b   8.86838221
_cell_length_c   4.30858135
_cell_angle_alpha   90.00000000
_cell_angle_beta   90.00000000
_cell_angle_gamma   90.00000000
_symmetry_Int_Tables_number   1
_chemical_formula_structural   Li3BiO4
_chemical_formula_sum   'Li12 Bi4 O16'
_cell_volume   338.86218075
_cell_formula_units_Z   4
loop_
 _symmetry_equiv_pos_site_id
 _symmetry_equiv_pos_as_xyz
  1  'x, y, z'
loop_
 _atom_site_type_symbol
 _atom_site_label
 _atom_site_symmetry_multiplicity
 _atom_site_fract_x
 _atom_site_fract_y
 _atom_site_fract_z
 _atom_site_occupancy
  Li  Li0  1  0.869864  0.130136  0.500000  1
  Li  Li1  1  0.630136  0.630136  0.000000  1
  Li  Li2  1  0.394635  0.887609  0.000000  1
  Li  Li3  1  0.612391  0.894635  0.500000  1
  Li  Li4  1  0.130136  0.869864  0.500000  1
  Li  Li5  1  0.105365  0.387609  0.500000  1
  Li  Li6  1  0.887609  0.394635  0.000000  1
  Li  Li7  1  0.605365  0.112391  0.000000  1
  Li  Li8  1  0.894635  0.612391  0.500000  1
  Li  Li9  1  0.369864  0.369864  0.000000  1
  Li  Li10  1  0.112391  0.605365  0.000000  1
  Li  Li11  1  0.387609  0.105365  0.500000  1
  Bi  Bi12  1  0.366209  0.633791  0.500000  1
  Bi  Bi13  1  0.633791  0.366209  0.500000  1
  Bi  Bi14  1  0.866209  0.866209  0.000000  1
  Bi  Bi15  1  0.133791  0.133791  0.000000  1
  O  O16  1  0.887407  0.112593  0.000000  1
  O  O17  1  0.387407  0.387407  0.500000  1
  O  O18  1  0.620995  0.132567  0.500000  1
  O  O19  1  0.867433  0.379005  0.500000  1
  O  O20  1  0.875536  0.875536  0.500000  1
  O  O21  1  0.124464  0.124464  0.500000  1
  O  O22  1  0.132567  0.620995  0.500000  1
  O  O23  1  0.612593  0.612593  0.500000  1
  O  O24  1  0.632567  0.879005  0.000000  1
  O  O25  1  0.120995  0.367433  0.000000  1
  O  O26  1  0.375536  0.624464  0.000000  1
  O  O27  1  0.624464  0.375536  0.000000  1
  O  O28  1  0.879005  0.632567  0.000000  1
  O  O29  1  0.379005  0.867433  0.500000  1
  O  O30  1  0.112593  0.887407  0.000000  1
  O  O31  1  0.367433  0.120995  0.000000  1
