# generated using pymatgen
data_KZr2(PO4)3
_symmetry_space_group_name_H-M   'P 1'
_cell_length_a   9.57116742
_cell_length_b   9.57116742
_cell_length_c   9.57116742
_cell_angle_alpha   55.18406545
_cell_angle_beta   55.18406545
_cell_angle_gamma   55.18406545
_symmetry_Int_Tables_number   1
_chemical_formula_structural   KZr2(PO4)3
_chemical_formula_sum   'K2 Zr4 P6 O24'
_cell_volume   550.56523491
_cell_formula_units_Z   2
loop_
 _symmetry_equiv_pos_site_id
 _symmetry_equiv_pos_as_xyz
  1  'x, y, z'
loop_
 _atom_site_type_symbol
 _atom_site_label
 _atom_site_symmetry_multiplicity
 _atom_site_fract_x
 _atom_site_fract_y
 _atom_site_fract_z
 _atom_site_occupancy
  K  K0  1  0.000000  0.000000  0.000000  1
  K  K1  1  0.500000  0.500000  0.500000  1
  Zr  Zr2  1  0.850455  0.850455  0.850455  1
  Zr  Zr3  1  0.649545  0.649545  0.649545  1
  Zr  Zr4  1  0.149545  0.149545  0.149545  1
  Zr  Zr5  1  0.350455  0.350455  0.350455  1
  P  P6  1  0.462976  0.750000  0.037024  1
  P  P7  1  0.037024  0.462976  0.750000  1
  P  P8  1  0.750000  0.037024  0.462976  1
  P  P9  1  0.537024  0.250000  0.962976  1
  P  P10  1  0.962976  0.537024  0.250000  1
  P  P11  1  0.250000  0.962976  0.537024  1
  O  O12  1  0.577970  0.204957  0.429585  1
  O  O13  1  0.429585  0.577970  0.204957  1
  O  O14  1  0.204957  0.429585  0.577970  1
  O  O15  1  0.070415  0.295043  0.922030  1
  O  O16  1  0.922030  0.070415  0.295043  1
  O  O17  1  0.295043  0.922030  0.070415  1
  O  O18  1  0.422030  0.795043  0.570415  1
  O  O19  1  0.570415  0.422030  0.795043  1
  O  O20  1  0.795043  0.570415  0.422030  1
  O  O21  1  0.929585  0.704957  0.077970  1
  O  O22  1  0.077970  0.929585  0.704957  1
  O  O23  1  0.704957  0.077970  0.929585  1
  O  O24  1  0.758465  0.011332  0.632919  1
  O  O25  1  0.632919  0.758465  0.011332  1
  O  O26  1  0.011332  0.632919  0.758465  1
  O  O27  1  0.867081  0.488668  0.741535  1
  O  O28  1  0.741535  0.867081  0.488668  1
  O  O29  1  0.488668  0.741535  0.867081  1
  O  O30  1  0.241535  0.988668  0.367081  1
  O  O31  1  0.367081  0.241535  0.988668  1
  O  O32  1  0.988668  0.367081  0.241535  1
  O  O33  1  0.132919  0.511332  0.258465  1
  O  O34  1  0.258465  0.132919  0.511332  1
  O  O35  1  0.511332  0.258465  0.132919  1
