# generated using pymatgen
data_Na4Li5(BO3)3
_symmetry_space_group_name_H-M   'P 1'
_cell_length_a   7.29891450
_cell_length_b   7.29891450
_cell_length_c   9.87367684
_cell_angle_alpha   75.09956637
_cell_angle_beta   104.90043363
_cell_angle_gamma   118.90570484
_symmetry_Int_Tables_number   1
_chemical_formula_structural   Na4Li5(BO3)3
_chemical_formula_sum   'Na8 Li10 B6 O18'
_cell_volume   439.47444428
_cell_formula_units_Z   2
loop_
 _symmetry_equiv_pos_site_id
 _symmetry_equiv_pos_as_xyz
  1  'x, y, z'
loop_
 _atom_site_type_symbol
 _atom_site_label
 _atom_site_symmetry_multiplicity
 _atom_site_fract_x
 _atom_site_fract_y
 _atom_site_fract_z
 _atom_site_occupancy
  Na  Na0  1  0.121298  0.366592  0.483603  1
  Na  Na1  1  0.777212  0.333588  0.786966  1
  Na  Na2  1  0.333588  0.777212  0.713034  1
  Na  Na3  1  0.366592  0.121298  0.016397  1
  Na  Na4  1  0.666412  0.222788  0.286966  1
  Na  Na5  1  0.222788  0.666412  0.213034  1
  Na  Na6  1  0.633408  0.878702  0.983603  1
  Na  Na7  1  0.878702  0.633408  0.516397  1
  Li  Li8  1  0.987299  0.077257  0.860666  1
  Li  Li9  1  0.723023  0.723023  0.750000  1
  Li  Li10  1  0.295430  0.482065  0.987922  1
  Li  Li11  1  0.077257  0.987299  0.639334  1
  Li  Li12  1  0.482065  0.295430  0.512078  1
  Li  Li13  1  0.276977  0.276977  0.250000  1
  Li  Li14  1  0.922743  0.012701  0.360666  1
  Li  Li15  1  0.517935  0.704570  0.487922  1
  Li  Li16  1  0.704570  0.517935  0.012078  1
  Li  Li17  1  0.012701  0.922743  0.139334  1
  B  B18  1  0.395867  0.395867  0.750000  1
  B  B19  1  0.604133  0.604133  0.250000  1
  B  B20  1  0.748847  0.083554  0.596865  1
  B  B21  1  0.916446  0.251153  0.096865  1
  B  B22  1  0.083554  0.748847  0.903135  1
  B  B23  1  0.251153  0.916446  0.403135  1
  O  O24  1  0.208239  0.031908  0.475038  1
  O  O25  1  0.031908  0.208239  0.024962  1
  O  O26  1  0.467215  0.521540  0.854866  1
  O  O27  1  0.998771  0.290573  0.236735  1
  O  O28  1  0.791761  0.968092  0.524962  1
  O  O29  1  0.709427  0.001229  0.736735  1
  O  O30  1  0.248662  0.723725  0.469786  1
  O  O31  1  0.723725  0.248662  0.030214  1
  O  O32  1  0.209643  0.209643  0.750000  1
  O  O33  1  0.521540  0.467215  0.645134  1
  O  O34  1  0.968092  0.791761  0.975038  1
  O  O35  1  0.478460  0.532785  0.354866  1
  O  O36  1  0.532785  0.478460  0.145134  1
  O  O37  1  0.790357  0.790357  0.250000  1
  O  O38  1  0.001229  0.709427  0.763265  1
  O  O39  1  0.290573  0.998771  0.263265  1
  O  O40  1  0.276275  0.751338  0.969786  1
  O  O41  1  0.751338  0.276275  0.530214  1
