# generated using pymatgen
data_Fe2(SO4)3
_symmetry_space_group_name_H-M   'P 1'
_cell_length_a   8.44665113
_cell_length_b   8.66209133
_cell_length_c   14.49231218
_cell_angle_alpha   90.00000000
_cell_angle_beta   125.04097586
_cell_angle_gamma   90.00000000
_symmetry_Int_Tables_number   1
_chemical_formula_structural   Fe2(SO4)3
_chemical_formula_sum   'Fe8 S12 O48'
_cell_volume   868.14420681
_cell_formula_units_Z   4
loop_
 _symmetry_equiv_pos_site_id
 _symmetry_equiv_pos_as_xyz
  1  'x, y, z'
loop_
 _atom_site_type_symbol
 _atom_site_label
 _atom_site_symmetry_multiplicity
 _atom_site_fract_x
 _atom_site_fract_y
 _atom_site_fract_z
 _atom_site_occupancy
  Fe  Fe0  1  0.866051  0.467072  0.615366  1
  Fe  Fe1  1  0.133949  0.967072  0.884634  1
  Fe  Fe2  1  0.133949  0.532928  0.384634  1
  Fe  Fe3  1  0.866051  0.032928  0.115366  1
  Fe  Fe4  1  0.632434  0.034431  0.385321  1
  Fe  Fe5  1  0.367566  0.534431  0.114679  1
  Fe  Fe6  1  0.367566  0.965569  0.614679  1
  Fe  Fe7  1  0.632434  0.465569  0.885321  1
  S  S8  1  0.458892  0.252104  0.496087  1
  S  S9  1  0.541108  0.752104  0.003913  1
  S  S10  1  0.541108  0.747896  0.503913  1
  S  S11  1  0.458892  0.247896  0.996087  1
  S  S12  1  0.745338  0.381510  0.349676  1
  S  S13  1  0.254662  0.881510  0.150324  1
  S  S14  1  0.254662  0.618490  0.650324  1
  S  S15  1  0.745338  0.118490  0.849676  1
  S  S16  1  0.037739  0.115295  0.646013  1
  S  S17  1  0.962261  0.615295  0.853987  1
  S  S18  1  0.962261  0.884705  0.353987  1
  S  S19  1  0.037739  0.384705  0.146013  1
  O  O20  1  0.483517  0.127849  0.573551  1
  O  O21  1  0.516483  0.627849  0.926449  1
  O  O22  1  0.516483  0.872151  0.426449  1
  O  O23  1  0.483517  0.372151  0.073551  1
  O  O24  1  0.463594  0.189146  0.402392  1
  O  O25  1  0.536406  0.689146  0.097608  1
  O  O26  1  0.536406  0.810854  0.597608  1
  O  O27  1  0.463594  0.310854  0.902392  1
  O  O28  1  0.270210  0.328241  0.448770  1
  O  O29  1  0.729790  0.828241  0.051230  1
  O  O30  1  0.729790  0.671759  0.551230  1
  O  O31  1  0.270210  0.171759  0.948770  1
  O  O32  1  0.617304  0.364326  0.563743  1
  O  O33  1  0.382696  0.864326  0.936257  1
  O  O34  1  0.382696  0.635674  0.436257  1
  O  O35  1  0.617304  0.135674  0.063743  1
  O  O36  1  0.569997  0.478461  0.279069  1
  O  O37  1  0.430003  0.978461  0.220931  1
  O  O38  1  0.430003  0.521539  0.720931  1
  O  O39  1  0.569997  0.021539  0.779069  1
  O  O40  1  0.886983  0.416408  0.323399  1
  O  O41  1  0.113017  0.916408  0.176601  1
  O  O42  1  0.113017  0.583592  0.676601  1
  O  O43  1  0.886983  0.083592  0.823399  1
  O  O44  1  0.831268  0.413611  0.469660  1
  O  O45  1  0.168732  0.913611  0.030340  1
  O  O46  1  0.168732  0.586389  0.530340  1
  O  O47  1  0.831268  0.086389  0.969660  1
  O  O48  1  0.697346  0.214592  0.325731  1
  O  O49  1  0.302654  0.714592  0.174269  1
  O  O50  1  0.302654  0.785408  0.674269  1
  O  O51  1  0.697346  0.285408  0.825731  1
  O  O52  1  0.104616  0.005021  0.739478  1
  O  O53  1  0.895384  0.505021  0.760522  1
  O  O54  1  0.895384  0.994979  0.260522  1
  O  O55  1  0.104616  0.494979  0.239478  1
  O  O56  1  0.841568  0.068897  0.549618  1
  O  O57  1  0.158432  0.568897  0.950382  1
  O  O58  1  0.158432  0.931103  0.450382  1
  O  O59  1  0.841568  0.431103  0.049618  1
  O  O60  1  0.176178  0.112533  0.613868  1
  O  O61  1  0.823822  0.612533  0.886132  1
  O  O62  1  0.823822  0.887467  0.386132  1
  O  O63  1  0.176178  0.387467  0.113868  1
  O  O64  1  0.029659  0.273054  0.682729  1
  O  O65  1  0.970341  0.773054  0.817271  1
  O  O66  1  0.970341  0.726946  0.317271  1
  O  O67  1  0.029659  0.226946  0.182729  1
