# generated using pymatgen
data_KV3Cd4O12
_symmetry_space_group_name_H-M   'P 1'
_cell_length_a   9.52290456
_cell_length_b   9.52290456
_cell_length_c   7.20575150
_cell_angle_alpha   72.88665332
_cell_angle_beta   107.11334668
_cell_angle_gamma   87.54225965
_symmetry_Int_Tables_number   1
_chemical_formula_structural   KV3Cd4O12
_chemical_formula_sum   'K2 V6 Cd8 O24'
_cell_volume   590.84854433
_cell_formula_units_Z   2
loop_
 _symmetry_equiv_pos_site_id
 _symmetry_equiv_pos_as_xyz
  1  'x, y, z'
loop_
 _atom_site_type_symbol
 _atom_site_label
 _atom_site_symmetry_multiplicity
 _atom_site_fract_x
 _atom_site_fract_y
 _atom_site_fract_z
 _atom_site_occupancy
  K  K0  1  0.031313  0.032478  0.248970  1
  K  K1  1  0.967522  0.968687  0.748970  1
  V  V2  1  0.652875  0.130366  0.863021  1
  V  V3  1  0.120806  0.655084  0.636501  1
  V  V4  1  0.701212  0.704563  0.749228  1
  V  V5  1  0.344916  0.879194  0.136501  1
  V  V6  1  0.295437  0.298788  0.249228  1
  V  V7  1  0.869634  0.347125  0.363021  1
  Cd  Cd8  1  0.261529  0.268813  0.742388  1
  Cd  Cd9  1  0.510753  0.476383  0.962074  1
  Cd  Cd10  1  0.731187  0.738471  0.242388  1
  Cd  Cd11  1  0.377732  0.938319  0.647216  1
  Cd  Cd12  1  0.523617  0.489247  0.462074  1
  Cd  Cd13  1  0.937199  0.384047  0.853390  1
  Cd  Cd14  1  0.615953  0.062801  0.353390  1
  Cd  Cd15  1  0.061681  0.622268  0.147216  1
  O  O16  1  0.169058  0.829524  0.620527  1
  O  O17  1  0.480752  0.721654  0.211211  1
  O  O18  1  0.703108  0.477215  0.291946  1
  O  O19  1  0.825589  0.172110  0.376304  1
  O  O20  1  0.267024  0.182428  0.468788  1
  O  O21  1  0.003038  0.331127  0.598090  1
  O  O22  1  0.711874  0.523821  0.728342  1
  O  O23  1  0.522785  0.296892  0.791946  1
  O  O24  1  0.390400  0.968325  0.320327  1
  O  O25  1  0.817572  0.732976  0.968788  1
  O  O26  1  0.668873  0.996962  0.098090  1
  O  O27  1  0.476179  0.288126  0.228342  1
  O  O28  1  0.987642  0.670071  0.399206  1
  O  O29  1  0.170476  0.830942  0.120527  1
  O  O30  1  0.282421  0.476354  0.273528  1
  O  O31  1  0.600180  0.046791  0.675402  1
  O  O32  1  0.177782  0.272817  0.030142  1
  O  O33  1  0.953209  0.399820  0.175402  1
  O  O34  1  0.827890  0.174411  0.876304  1
  O  O35  1  0.523646  0.717579  0.773528  1
  O  O36  1  0.031675  0.609600  0.820327  1
  O  O37  1  0.329929  0.012358  0.899206  1
  O  O38  1  0.727183  0.822218  0.530142  1
  O  O39  1  0.278346  0.519248  0.711211  1
