# generated using pymatgen
data_Na2In2Sb3
_symmetry_space_group_name_H-M   'P 1'
_cell_length_a   15.84302388
_cell_length_b   7.68755744
_cell_length_c   21.70228603
_cell_angle_alpha   90.00000000
_cell_angle_beta   136.89490466
_cell_angle_gamma   90.00000000
_symmetry_Int_Tables_number   1
_chemical_formula_structural   Na2In2Sb3
_chemical_formula_sum   'Na16 In16 Sb24'
_cell_volume   1806.20879947
_cell_formula_units_Z   8
loop_
 _symmetry_equiv_pos_site_id
 _symmetry_equiv_pos_as_xyz
  1  'x, y, z'
loop_
 _atom_site_type_symbol
 _atom_site_label
 _atom_site_symmetry_multiplicity
 _atom_site_fract_x
 _atom_site_fract_y
 _atom_site_fract_z
 _atom_site_occupancy
  Na  Na0  1  0.154030  0.046817  0.141478  1
  Na  Na1  1  0.345970  0.546817  0.858522  1
  Na  Na2  1  0.845970  0.953183  0.858522  1
  Na  Na3  1  0.654030  0.453183  0.141478  1
  Na  Na4  1  0.634074  0.424889  0.659047  1
  Na  Na5  1  0.865926  0.924889  0.340953  1
  Na  Na6  1  0.365926  0.575111  0.340953  1
  Na  Na7  1  0.134074  0.075111  0.659047  1
  Na  Na8  1  0.802754  0.452404  0.918611  1
  Na  Na9  1  0.697246  0.952404  0.081389  1
  Na  Na10  1  0.197246  0.547596  0.081389  1
  Na  Na11  1  0.302754  0.047596  0.918611  1
  Na  Na12  1  0.527071  0.090543  0.438666  1
  Na  Na13  1  0.972929  0.590543  0.561334  1
  Na  Na14  1  0.472929  0.909457  0.561334  1
  Na  Na15  1  0.027071  0.409457  0.438666  1
  In  In16  1  0.831129  0.714336  0.680383  1
  In  In17  1  0.668871  0.214336  0.319617  1
  In  In18  1  0.168871  0.285664  0.319617  1
  In  In19  1  0.331129  0.785664  0.680383  1
  In  In20  1  0.365224  0.215972  0.092206  1
  In  In21  1  0.134776  0.715972  0.907794  1
  In  In22  1  0.634776  0.784028  0.907794  1
  In  In23  1  0.865224  0.284028  0.092206  1
  In  In24  1  0.977579  0.240817  0.815225  1
  In  In25  1  0.522421  0.740817  0.184775  1
  In  In26  1  0.022421  0.759183  0.184775  1
  In  In27  1  0.477579  0.259183  0.815225  1
  In  In28  1  0.827859  0.231160  0.586457  1
  In  In29  1  0.672141  0.731160  0.413543  1
  In  In30  1  0.172141  0.768840  0.413543  1
  In  In31  1  0.327859  0.268840  0.586457  1
  Sb  Sb32  1  0.135200  0.032603  0.977187  1
  Sb  Sb33  1  0.364800  0.532603  0.022813  1
  Sb  Sb34  1  0.864800  0.967397  0.022813  1
  Sb  Sb35  1  0.635200  0.467397  0.977187  1
  Sb  Sb36  1  0.915647  0.556443  0.845101  1
  Sb  Sb37  1  0.584353  0.056443  0.154899  1
  Sb  Sb38  1  0.084353  0.443557  0.154899  1
  Sb  Sb39  1  0.415647  0.943557  0.845101  1
  Sb  Sb40  1  0.744543  0.059369  0.656735  1
  Sb  Sb41  1  0.755457  0.559369  0.343265  1
  Sb  Sb42  1  0.255457  0.940631  0.343265  1
  Sb  Sb43  1  0.244543  0.440631  0.656735  1
  Sb  Sb44  1  0.582561  0.161527  0.751797  1
  Sb  Sb45  1  0.917439  0.661527  0.248203  1
  Sb  Sb46  1  0.417439  0.838473  0.248203  1
  Sb  Sb47  1  0.082561  0.338473  0.751797  1
  Sb  Sb48  1  0.658632  0.514751  0.514382  1
  Sb  Sb49  1  0.841368  0.014751  0.485618  1
  Sb  Sb50  1  0.341368  0.485249  0.485618  1
  Sb  Sb51  1  0.158632  0.985249  0.514382  1
  Sb  Sb52  1  0.566122  0.783669  0.741794  1
  Sb  Sb53  1  0.933878  0.283669  0.258206  1
  Sb  Sb54  1  0.433878  0.216331  0.258206  1
  Sb  Sb55  1  0.066122  0.716331  0.741794  1
