# generated using pymatgen
data_Rb2TeH6SO10
_symmetry_space_group_name_H-M   'P 1'
_cell_length_a   11.69528208
_cell_length_b   6.80641116
_cell_length_c   13.70941362
_cell_angle_alpha   90.00000000
_cell_angle_beta   107.37716561
_cell_angle_gamma   90.00000000
_symmetry_Int_Tables_number   1
_chemical_formula_structural   Rb2TeH6SO10
_chemical_formula_sum   'Rb8 Te4 H24 S4 O40'
_cell_volume   1041.50109446
_cell_formula_units_Z   4
loop_
 _symmetry_equiv_pos_site_id
 _symmetry_equiv_pos_as_xyz
  1  'x, y, z'
loop_
 _atom_site_type_symbol
 _atom_site_label
 _atom_site_symmetry_multiplicity
 _atom_site_fract_x
 _atom_site_fract_y
 _atom_site_fract_z
 _atom_site_occupancy
  Rb  Rb0  1  0.844175  0.521577  0.139793  1
  Rb  Rb1  1  0.901311  0.001099  0.639383  1
  Rb  Rb2  1  0.401311  0.498901  0.639383  1
  Rb  Rb3  1  0.098689  0.998901  0.360617  1
  Rb  Rb4  1  0.344175  0.978423  0.139793  1
  Rb  Rb5  1  0.155825  0.478423  0.860207  1
  Rb  Rb6  1  0.598689  0.501099  0.360617  1
  Rb  Rb7  1  0.655825  0.021577  0.860207  1
  Te  Te8  1  0.000000  0.000000  0.000000  1
  Te  Te9  1  0.000000  0.500000  0.500000  1
  Te  Te10  1  0.500000  0.000000  0.500000  1
  Te  Te11  1  0.500000  0.500000  0.000000  1
  H  H12  1  0.862640  0.707854  0.364506  1
  H  H13  1  0.870352  0.062568  0.111040  1
  H  H14  1  0.665308  0.991828  0.415276  1
  H  H15  1  0.908277  0.242909  0.862902  1
  H  H16  1  0.165308  0.508172  0.415276  1
  H  H17  1  0.862922  0.247933  0.391377  1
  H  H18  1  0.637360  0.207854  0.635494  1
  H  H19  1  0.834692  0.491828  0.584724  1
  H  H20  1  0.362922  0.252067  0.391377  1
  H  H21  1  0.091723  0.757091  0.137098  1
  H  H22  1  0.370352  0.437432  0.111040  1
  H  H23  1  0.591723  0.742909  0.137098  1
  H  H24  1  0.629648  0.562568  0.888960  1
  H  H25  1  0.137360  0.292146  0.635494  1
  H  H26  1  0.598969  0.181591  0.075435  1
  H  H27  1  0.901031  0.681591  0.924565  1
  H  H28  1  0.137078  0.752067  0.608623  1
  H  H29  1  0.637078  0.747933  0.608623  1
  H  H30  1  0.129648  0.937432  0.888960  1
  H  H31  1  0.401031  0.818409  0.924565  1
  H  H32  1  0.362640  0.792146  0.364506  1
  H  H33  1  0.098969  0.318409  0.075435  1
  H  H34  1  0.408277  0.257091  0.862902  1
  H  H35  1  0.334692  0.008172  0.584724  1
  S  S36  1  0.736818  0.010054  0.246723  1
  S  S37  1  0.763182  0.510054  0.753277  1
  S  S38  1  0.263182  0.989946  0.753277  1
  S  S39  1  0.236818  0.489946  0.246723  1
  O  O40  1  0.413201  0.404275  0.863125  1
  O  O41  1  0.763399  0.375738  0.666108  1
  O  O42  1  0.893779  0.772387  0.979881  1
  O  O43  1  0.859348  0.584947  0.538132  1
  O  O44  1  0.236601  0.624262  0.333892  1
  O  O45  1  0.610766  0.642400  0.944179  1
  O  O46  1  0.069953  0.758580  0.542431  1
  O  O47  1  0.586799  0.595725  0.136875  1
  O  O48  1  0.889234  0.142400  0.055821  1
  O  O49  1  0.569953  0.741420  0.542431  1
  O  O50  1  0.837427  0.949924  0.207289  1
  O  O51  1  0.359348  0.915053  0.538132  1
  O  O52  1  0.928226  0.613543  0.364373  1
  O  O53  1  0.662573  0.449924  0.792711  1
  O  O54  1  0.606221  0.272387  0.020119  1
  O  O55  1  0.880967  0.490306  0.835773  1
  O  O56  1  0.071774  0.386457  0.635627  1
  O  O57  1  0.913201  0.095725  0.863125  1
  O  O58  1  0.619033  0.990306  0.164227  1
  O  O59  1  0.748219  0.718129  0.718231  1
  O  O60  1  0.751781  0.218129  0.281769  1
  O  O61  1  0.430047  0.258580  0.457569  1
  O  O62  1  0.393779  0.727613  0.979881  1
  O  O63  1  0.380967  0.009694  0.835773  1
  O  O64  1  0.248219  0.781871  0.718231  1
  O  O65  1  0.106221  0.227613  0.020119  1
  O  O66  1  0.251781  0.281871  0.281769  1
  O  O67  1  0.086799  0.904275  0.136875  1
  O  O68  1  0.640652  0.084947  0.461868  1
  O  O69  1  0.110766  0.857600  0.944179  1
  O  O70  1  0.337427  0.550076  0.207289  1
  O  O71  1  0.428226  0.886457  0.364373  1
  O  O72  1  0.263399  0.124262  0.666108  1
  O  O73  1  0.736601  0.875738  0.333892  1
  O  O74  1  0.162573  0.050076  0.792711  1
  O  O75  1  0.119033  0.509694  0.164227  1
  O  O76  1  0.389234  0.357600  0.055821  1
  O  O77  1  0.930047  0.241420  0.457569  1
  O  O78  1  0.571774  0.113543  0.635627  1
  O  O79  1  0.140652  0.415053  0.461868  1
