# generated using pymatgen
data_KNa2FeO3
_symmetry_space_group_name_H-M   'P 1'
_cell_length_a   6.37008039
_cell_length_b   6.62438262
_cell_length_c   10.32274146
_cell_angle_alpha   90.00000000
_cell_angle_beta   90.00000000
_cell_angle_gamma   90.00000000
_symmetry_Int_Tables_number   1
_chemical_formula_structural   KNa2FeO3
_chemical_formula_sum   'K4 Na8 Fe4 O12'
_cell_volume   435.59749390
_cell_formula_units_Z   4
loop_
 _symmetry_equiv_pos_site_id
 _symmetry_equiv_pos_as_xyz
  1  'x, y, z'
loop_
 _atom_site_type_symbol
 _atom_site_label
 _atom_site_symmetry_multiplicity
 _atom_site_fract_x
 _atom_site_fract_y
 _atom_site_fract_z
 _atom_site_occupancy
  K  K0  1  0.750000  0.662279  0.974650  1
  K  K1  1  0.250000  0.337721  0.025350  1
  K  K2  1  0.750000  0.162279  0.525350  1
  K  K3  1  0.250000  0.837721  0.474650  1
  Na  Na4  1  0.993891  0.006519  0.230459  1
  Na  Na5  1  0.493891  0.993481  0.769541  1
  Na  Na6  1  0.506109  0.506519  0.269541  1
  Na  Na7  1  0.006109  0.493481  0.730459  1
  Na  Na8  1  0.006109  0.993481  0.769541  1
  Na  Na9  1  0.506109  0.006519  0.230459  1
  Na  Na10  1  0.493891  0.493481  0.730459  1
  Na  Na11  1  0.993891  0.506519  0.269541  1
  Fe  Fe12  1  0.750000  0.170002  0.992442  1
  Fe  Fe13  1  0.250000  0.829998  0.007558  1
  Fe  Fe14  1  0.750000  0.670002  0.507558  1
  Fe  Fe15  1  0.250000  0.329998  0.492442  1
  O  O16  1  0.750000  0.832911  0.358732  1
  O  O17  1  0.250000  0.167089  0.641268  1
  O  O18  1  0.750000  0.332911  0.141268  1
  O  O19  1  0.250000  0.667089  0.858732  1
  O  O20  1  0.000000  0.000000  0.000000  1
  O  O21  1  0.500000  0.000000  0.000000  1
  O  O22  1  0.500000  0.500000  0.500000  1
  O  O23  1  0.000000  0.500000  0.500000  1
  O  O24  1  0.750000  0.293595  0.828873  1
  O  O25  1  0.250000  0.706405  0.171127  1
  O  O26  1  0.750000  0.793595  0.671127  1
  O  O27  1  0.250000  0.206405  0.328873  1
