# generated using pymatgen
data_Na2TeO3
_symmetry_space_group_name_H-M   'P 1'
_cell_length_a   5.01558641
_cell_length_b   10.39270217
_cell_length_c   6.96836469
_cell_angle_alpha   90.00000000
_cell_angle_beta   91.30026616
_cell_angle_gamma   90.00000000
_symmetry_Int_Tables_number   1
_chemical_formula_structural   Na2TeO3
_chemical_formula_sum   'Na8 Te4 O12'
_cell_volume   363.13593422
_cell_formula_units_Z   4
loop_
 _symmetry_equiv_pos_site_id
 _symmetry_equiv_pos_as_xyz
  1  'x, y, z'
loop_
 _atom_site_type_symbol
 _atom_site_label
 _atom_site_symmetry_multiplicity
 _atom_site_fract_x
 _atom_site_fract_y
 _atom_site_fract_z
 _atom_site_occupancy
  Na  Na0  1  0.755482  0.413385  0.858771  1
  Na  Na1  1  0.244518  0.913385  0.641229  1
  Na  Na2  1  0.244518  0.586615  0.141229  1
  Na  Na3  1  0.755482  0.086615  0.358771  1
  Na  Na4  1  0.256339  0.246793  0.595311  1
  Na  Na5  1  0.743661  0.746793  0.904689  1
  Na  Na6  1  0.743661  0.753207  0.404689  1
  Na  Na7  1  0.256339  0.253207  0.095311  1
  Te  Te8  1  0.735647  0.082678  0.832877  1
  Te  Te9  1  0.264353  0.582678  0.667123  1
  Te  Te10  1  0.264353  0.917322  0.167123  1
  Te  Te11  1  0.735647  0.417322  0.332877  1
  O  O12  1  0.773291  0.216147  0.646014  1
  O  O13  1  0.226709  0.716147  0.853986  1
  O  O14  1  0.226709  0.783853  0.353986  1
  O  O15  1  0.773291  0.283853  0.146014  1
  O  O16  1  0.247793  0.437352  0.833088  1
  O  O17  1  0.752207  0.937352  0.666912  1
  O  O18  1  0.752207  0.562648  0.166912  1
  O  O19  1  0.247793  0.062648  0.333088  1
  O  O20  1  0.357514  0.095372  0.850604  1
  O  O21  1  0.642486  0.595372  0.649396  1
  O  O22  1  0.642486  0.904628  0.149396  1
  O  O23  1  0.357514  0.404628  0.350604  1
