# generated using pymatgen
data_LiMnP2O7
_symmetry_space_group_name_H-M   'P 1'
_cell_length_a   8.44698576
_cell_length_b   5.18307330
_cell_length_c   13.46310063
_cell_angle_alpha   90.00000000
_cell_angle_beta   117.81793015
_cell_angle_gamma   90.00000000
_symmetry_Int_Tables_number   1
_chemical_formula_structural   LiMnP2O7
_chemical_formula_sum   'Li4 Mn4 P8 O28'
_cell_volume   521.31487359
_cell_formula_units_Z   4
loop_
 _symmetry_equiv_pos_site_id
 _symmetry_equiv_pos_as_xyz
  1  'x, y, z'
loop_
 _atom_site_type_symbol
 _atom_site_label
 _atom_site_symmetry_multiplicity
 _atom_site_fract_x
 _atom_site_fract_y
 _atom_site_fract_z
 _atom_site_occupancy
  Li  Li0  1  0.441765  0.760159  0.799218  1
  Li  Li1  1  0.558235  0.260159  0.700782  1
  Li  Li2  1  0.558235  0.239841  0.200782  1
  Li  Li3  1  0.441765  0.739841  0.299218  1
  Mn  Mn4  1  0.268522  0.761099  0.029233  1
  Mn  Mn5  1  0.731478  0.238901  0.970767  1
  Mn  Mn6  1  0.731478  0.261099  0.470767  1
  Mn  Mn7  1  0.268522  0.738901  0.529233  1
  P  P8  1  0.171277  0.263015  0.647052  1
  P  P9  1  0.828723  0.763015  0.852948  1
  P  P10  1  0.312569  0.213448  0.385725  1
  P  P11  1  0.312569  0.286552  0.885725  1
  P  P12  1  0.828723  0.736985  0.352948  1
  P  P13  1  0.687431  0.713448  0.114275  1
  P  P14  1  0.687431  0.786552  0.614275  1
  P  P15  1  0.171277  0.236985  0.147052  1
  O  O16  1  0.152990  0.275148  0.261371  1
  O  O17  1  0.478580  0.293863  0.371690  1
  O  O18  1  0.521420  0.793863  0.128310  1
  O  O19  1  0.316390  0.922013  0.408211  1
  O  O20  1  0.016050  0.731140  0.948064  1
  O  O21  1  0.282099  0.122088  0.966555  1
  O  O22  1  0.700681  0.554667  0.854534  1
  O  O23  1  0.521420  0.706137  0.628310  1
  O  O24  1  0.717901  0.877912  0.033445  1
  O  O25  1  0.847010  0.775148  0.238629  1
  O  O26  1  0.983950  0.231140  0.551936  1
  O  O27  1  0.847010  0.724852  0.738629  1
  O  O28  1  0.745825  0.467006  0.340999  1
  O  O29  1  0.683610  0.422013  0.091789  1
  O  O30  1  0.717901  0.622088  0.533445  1
  O  O31  1  0.478580  0.206137  0.871690  1
  O  O32  1  0.282099  0.377912  0.466555  1
  O  O33  1  0.152990  0.224852  0.761371  1
  O  O34  1  0.700681  0.945333  0.354534  1
  O  O35  1  0.254175  0.532994  0.659001  1
  O  O36  1  0.299319  0.054667  0.645466  1
  O  O37  1  0.745825  0.032994  0.840999  1
  O  O38  1  0.683610  0.077987  0.591789  1
  O  O39  1  0.299319  0.445333  0.145466  1
  O  O40  1  0.254175  0.967006  0.159001  1
  O  O41  1  0.316390  0.577987  0.908211  1
  O  O42  1  0.016050  0.768860  0.448064  1
  O  O43  1  0.983950  0.268860  0.051936  1
