# generated using pymatgen
data_Li2V2(SO4)3
_symmetry_space_group_name_H-M   'P 1'
_cell_length_a   8.01328745
_cell_length_b   8.01328745
_cell_length_c   8.85351437
_cell_angle_alpha   68.34611292
_cell_angle_beta   111.65388708
_cell_angle_gamma   113.31282875
_symmetry_Int_Tables_number   1
_chemical_formula_structural   Li2V2(SO4)3
_chemical_formula_sum   'Li4 V4 S6 O24'
_cell_volume   468.40145065
_cell_formula_units_Z   2
loop_
 _symmetry_equiv_pos_site_id
 _symmetry_equiv_pos_as_xyz
  1  'x, y, z'
loop_
 _atom_site_type_symbol
 _atom_site_label
 _atom_site_symmetry_multiplicity
 _atom_site_fract_x
 _atom_site_fract_y
 _atom_site_fract_z
 _atom_site_occupancy
  Li  Li0  1  0.130206  0.674955  0.047655  1
  Li  Li1  1  0.325045  0.869794  0.547655  1
  Li  Li2  1  0.674955  0.130206  0.452345  1
  Li  Li3  1  0.869794  0.325045  0.952345  1
  V  V4  1  0.628414  0.871959  0.984475  1
  V  V5  1  0.128041  0.371586  0.484475  1
  V  V6  1  0.371586  0.128041  0.015525  1
  V  V7  1  0.871959  0.628415  0.515525  1
  S  S8  1  0.062649  0.062649  0.250000  1
  S  S9  1  0.248113  0.542622  0.820350  1
  S  S10  1  0.751887  0.457378  0.179650  1
  S  S11  1  0.457378  0.751887  0.320350  1
  S  S12  1  0.542622  0.248113  0.679650  1
  S  S13  1  0.937351  0.937351  0.750000  1
  O  O14  1  0.121881  0.946734  0.882506  1
  O  O15  1  0.504873  0.122928  0.575892  1
  O  O16  1  0.785636  0.898286  0.824546  1
  O  O17  1  0.654151  0.598232  0.119371  1
  O  O18  1  0.877072  0.495127  0.075892  1
  O  O19  1  0.618866  0.262418  0.192010  1
  O  O20  1  0.101714  0.214364  0.324546  1
  O  O21  1  0.544946  0.132937  0.862023  1
  O  O22  1  0.495127  0.877072  0.424108  1
  O  O23  1  0.262418  0.618866  0.307990  1
  O  O24  1  0.878119  0.053266  0.117494  1
  O  O25  1  0.867063  0.455054  0.362023  1
  O  O26  1  0.122928  0.504873  0.924108  1
  O  O27  1  0.214364  0.101714  0.175454  1
  O  O28  1  0.455054  0.867063  0.137977  1
  O  O29  1  0.345849  0.401768  0.880629  1
  O  O30  1  0.737582  0.381134  0.692010  1
  O  O31  1  0.598232  0.654151  0.380629  1
  O  O32  1  0.132937  0.544946  0.637977  1
  O  O33  1  0.381134  0.737582  0.807990  1
  O  O34  1  0.898286  0.785636  0.675454  1
  O  O35  1  0.946734  0.121881  0.617494  1
  O  O36  1  0.053266  0.878119  0.382506  1
  O  O37  1  0.401768  0.345849  0.619371  1
