# generated using pymatgen
data_Te10Mo3I10
_symmetry_space_group_name_H-M   'P 1'
_cell_length_a   11.19086396
_cell_length_b   11.23031261
_cell_length_c   18.14553279
_cell_angle_alpha   84.00523987
_cell_angle_beta   75.95011449
_cell_angle_gamma   67.22272946
_symmetry_Int_Tables_number   1
_chemical_formula_structural   Te10Mo3I10
_chemical_formula_sum   'Te20 Mo6 I20'
_cell_volume   2039.59550133
_cell_formula_units_Z   2
loop_
 _symmetry_equiv_pos_site_id
 _symmetry_equiv_pos_as_xyz
  1  'x, y, z'
loop_
 _atom_site_type_symbol
 _atom_site_label
 _atom_site_symmetry_multiplicity
 _atom_site_fract_x
 _atom_site_fract_y
 _atom_site_fract_z
 _atom_site_occupancy
  Te  Te0  1  0.942694  0.763816  0.725233  1
  Te  Te1  1  0.057306  0.236184  0.274767  1
  Te  Te2  1  0.720496  0.493308  0.719494  1
  Te  Te3  1  0.279504  0.506692  0.280506  1
  Te  Te4  1  0.877947  0.576173  0.601730  1
  Te  Te5  1  0.122053  0.423827  0.398270  1
  Te  Te6  1  0.822679  0.474688  0.898009  1
  Te  Te7  1  0.177321  0.525312  0.101991  1
  Te  Te8  1  0.048770  0.530457  0.871436  1
  Te  Te9  1  0.951230  0.469543  0.128564  1
  Te  Te10  1  0.539319  0.749855  0.858917  1
  Te  Te11  1  0.460681  0.250145  0.141083  1
  Te  Te12  1  0.609522  0.960434  0.820353  1
  Te  Te13  1  0.390478  0.039566  0.179647  1
  Te  Te14  1  0.666147  0.965340  0.627490  1
  Te  Te15  1  0.333853  0.034660  0.372510  1
  Te  Te16  1  0.181506  0.436515  0.646543  1
  Te  Te17  1  0.818494  0.563485  0.353457  1
  Te  Te18  1  0.925833  0.843270  0.925383  1
  Te  Te19  1  0.074167  0.156730  0.074617  1
  Mo  Mo20  1  0.713017  0.743595  0.720844  1
  Mo  Mo21  1  0.286983  0.256405  0.279156  1
  Mo  Mo22  1  0.935625  0.526211  0.750301  1
  Mo  Mo23  1  0.064375  0.473789  0.249699  1
  Mo  Mo24  1  0.795681  0.726849  0.860123  1
  Mo  Mo25  1  0.204319  0.273151  0.139877  1
  I  I26  1  0.484276  0.817592  0.651414  1
  I  I27  1  0.515724  0.182408  0.348586  1
  I  I28  1  0.800236  0.898376  0.476703  1
  I  I29  1  0.199764  0.101624  0.523297  1
  I  I30  1  0.818104  0.107090  0.654320  1
  I  I31  1  0.181896  0.892910  0.345680  1
  I  I32  1  0.067904  0.245741  0.736324  1
  I  I33  1  0.932096  0.754259  0.263676  1
  I  I34  1  0.388776  0.379469  0.722570  1
  I  I35  1  0.611224  0.620531  0.277430  1
  I  I36  1  0.228959  0.643254  0.555003  1
  I  I37  1  0.771041  0.356746  0.444997  1
  I  I38  1  0.695317  0.778498  0.022418  1
  I  I39  1  0.304683  0.221502  0.977582  1
  I  I40  1  0.785272  0.112768  0.926716  1
  I  I41  1  0.214728  0.887232  0.073284  1
  I  I42  1  0.162933  0.844905  0.820680  1
  I  I43  1  0.837067  0.155095  0.179320  1
  I  I44  1  0.546215  0.448608  0.885033  1
  I  I45  1  0.453785  0.551392  0.114967  1
