# generated using pymatgen
data_Tl2TeO3
_symmetry_space_group_name_H-M   'P 1'
_cell_length_a   5.44088963
_cell_length_b   11.47296485
_cell_length_c   17.07386435
_cell_angle_alpha   90.00000000
_cell_angle_beta   90.00000000
_cell_angle_gamma   90.00000000
_symmetry_Int_Tables_number   1
_chemical_formula_structural   Tl2TeO3
_chemical_formula_sum   'Tl16 Te8 O24'
_cell_volume   1065.80414745
_cell_formula_units_Z   8
loop_
 _symmetry_equiv_pos_site_id
 _symmetry_equiv_pos_as_xyz
  1  'x, y, z'
loop_
 _atom_site_type_symbol
 _atom_site_label
 _atom_site_symmetry_multiplicity
 _atom_site_fract_x
 _atom_site_fract_y
 _atom_site_fract_z
 _atom_site_occupancy
  Tl  Tl0  1  0.251260  0.633491  0.420581  1
  Tl  Tl1  1  0.251260  0.366509  0.579419  1
  Tl  Tl2  1  0.748740  0.633491  0.579419  1
  Tl  Tl3  1  0.748740  0.366509  0.420581  1
  Tl  Tl4  1  0.748740  0.866509  0.079419  1
  Tl  Tl5  1  0.748740  0.133491  0.920581  1
  Tl  Tl6  1  0.251260  0.866509  0.920581  1
  Tl  Tl7  1  0.251260  0.133491  0.079419  1
  Tl  Tl8  1  0.752705  0.615808  0.250919  1
  Tl  Tl9  1  0.752705  0.384192  0.749081  1
  Tl  Tl10  1  0.247295  0.615808  0.749081  1
  Tl  Tl11  1  0.247295  0.384192  0.250919  1
  Tl  Tl12  1  0.247295  0.884192  0.249081  1
  Tl  Tl13  1  0.247295  0.115808  0.750919  1
  Tl  Tl14  1  0.752705  0.884192  0.750919  1
  Tl  Tl15  1  0.752705  0.115808  0.249081  1
  Te  Te16  1  0.230993  0.640350  0.088769  1
  Te  Te17  1  0.230993  0.359650  0.911231  1
  Te  Te18  1  0.769007  0.640350  0.911231  1
  Te  Te19  1  0.769007  0.359650  0.088769  1
  Te  Te20  1  0.769007  0.859650  0.411231  1
  Te  Te21  1  0.769007  0.140350  0.588769  1
  Te  Te22  1  0.230993  0.859650  0.588769  1
  Te  Te23  1  0.230993  0.140350  0.411231  1
  O  O24  1  0.715501  0.699929  0.436795  1
  O  O25  1  0.715501  0.300071  0.563205  1
  O  O26  1  0.284499  0.699929  0.563205  1
  O  O27  1  0.284499  0.300071  0.436795  1
  O  O28  1  0.284499  0.800071  0.063205  1
  O  O29  1  0.284499  0.199929  0.936795  1
  O  O30  1  0.715501  0.800071  0.936795  1
  O  O31  1  0.715501  0.199929  0.063205  1
  O  O32  1  0.689246  0.852041  0.303074  1
  O  O33  1  0.689246  0.147959  0.696926  1
  O  O34  1  0.310754  0.852041  0.696926  1
  O  O35  1  0.310754  0.147959  0.303074  1
  O  O36  1  0.310754  0.647959  0.196926  1
  O  O37  1  0.310754  0.352041  0.803074  1
  O  O38  1  0.689246  0.647959  0.803074  1
  O  O39  1  0.689246  0.352041  0.196926  1
  O  O40  1  0.117962  0.853422  0.403050  1
  O  O41  1  0.117962  0.146578  0.596950  1
  O  O42  1  0.882038  0.853422  0.596950  1
  O  O43  1  0.882038  0.146578  0.403050  1
  O  O44  1  0.882038  0.646578  0.096950  1
  O  O45  1  0.882038  0.353422  0.903050  1
  O  O46  1  0.117962  0.646578  0.903050  1
  O  O47  1  0.117962  0.353422  0.096950  1
