# generated using pymatgen
data_BaZr(PO4)2
_symmetry_space_group_name_H-M   'P 1'
_cell_length_a   5.33619938
_cell_length_b   5.33619938
_cell_length_c   7.70731375
_cell_angle_alpha   90.00000000
_cell_angle_beta   90.00000000
_cell_angle_gamma   120.00000000
_symmetry_Int_Tables_number   1
_chemical_formula_structural   BaZr(PO4)2
_chemical_formula_sum   'Ba1 Zr1 P2 O8'
_cell_volume   190.06308174
_cell_formula_units_Z   1
loop_
 _symmetry_equiv_pos_site_id
 _symmetry_equiv_pos_as_xyz
  1  'x, y, z'
loop_
 _atom_site_type_symbol
 _atom_site_label
 _atom_site_symmetry_multiplicity
 _atom_site_fract_x
 _atom_site_fract_y
 _atom_site_fract_z
 _atom_site_occupancy
  Ba  Ba0  1  0.000000  0.000000  0.000000  1
  Zr  Zr1  1  0.000000  0.000000  0.500000  1
  P  P2  1  0.333333  0.666667  0.741589  1
  P  P3  1  0.666667  0.333333  0.258411  1
  O  O4  1  0.824062  0.648125  0.329960  1
  O  O5  1  0.175938  0.824062  0.670040  1
  O  O6  1  0.175938  0.351875  0.670040  1
  O  O7  1  0.351875  0.175938  0.329960  1
  O  O8  1  0.824062  0.175938  0.329960  1
  O  O9  1  0.666667  0.333333  0.061313  1
  O  O10  1  0.333333  0.666667  0.938687  1
  O  O11  1  0.648125  0.824062  0.670040  1
