# generated using pymatgen
data_Mn2Cu3H24(OF)12
_symmetry_space_group_name_H-M   'P 1'
_cell_length_a   7.53926562
_cell_length_b   7.65433925
_cell_length_c   8.26147889
_cell_angle_alpha   89.81712395
_cell_angle_beta   88.00261974
_cell_angle_gamma   86.27572515
_symmetry_Int_Tables_number   1
_chemical_formula_structural   Mn2Cu3H24(OF)12
_chemical_formula_sum   'Mn2 Cu3 H24 O12 F12'
_cell_volume   475.45814790
_cell_formula_units_Z   1
loop_
 _symmetry_equiv_pos_site_id
 _symmetry_equiv_pos_as_xyz
  1  'x, y, z'
loop_
 _atom_site_type_symbol
 _atom_site_label
 _atom_site_symmetry_multiplicity
 _atom_site_fract_x
 _atom_site_fract_y
 _atom_site_fract_z
 _atom_site_occupancy
  Mn  Mn0  1  0.500000  0.000000  0.000000  1
  Mn  Mn1  1  0.000000  0.500000  0.500000  1
  Cu  Cu2  1  0.000000  0.000000  0.000000  1
  Cu  Cu3  1  0.500000  0.000000  0.500000  1
  Cu  Cu4  1  0.500000  0.500000  0.000000  1
  H  H5  1  0.014414  0.213512  0.760029  1
  H  H6  1  0.985586  0.786488  0.239971  1
  H  H7  1  0.208414  0.112413  0.780286  1
  H  H8  1  0.791586  0.887587  0.219714  1
  H  H9  1  0.020891  0.226007  0.227796  1
  H  H10  1  0.979109  0.773993  0.772204  1
  H  H11  1  0.147350  0.271918  0.075840  1
  H  H12  1  0.852650  0.728082  0.924160  1
  H  H13  1  0.819374  0.119495  0.482895  1
  H  H14  1  0.180626  0.880505  0.517105  1
  H  H15  1  0.835062  0.930330  0.560985  1
  H  H16  1  0.164938  0.069670  0.439015  1
  H  H17  1  0.447695  0.240804  0.298144  1
  H  H18  1  0.552305  0.759196  0.701856  1
  H  H19  1  0.390207  0.322875  0.473382  1
  H  H20  1  0.609793  0.677125  0.526618  1
  H  H21  1  0.739819  0.503681  0.209916  1
  H  H22  1  0.260181  0.496319  0.790084  1
  H  H23  1  0.830331  0.384280  0.070382  1
  H  H24  1  0.169669  0.615720  0.929618  1
  H  H25  1  0.528725  0.284662  0.774176  1
  H  H26  1  0.471275  0.715338  0.225824  1
  H  H27  1  0.702336  0.399658  0.754600  1
  H  H28  1  0.297664  0.600342  0.245400  1
  O  O29  1  0.075751  0.099614  0.788412  1
  O  O30  1  0.924249  0.900386  0.211588  1
  O  O31  1  0.027475  0.233921  0.103735  1
  O  O32  1  0.972525  0.766079  0.896265  1
  O  O33  1  0.752092  0.035803  0.548308  1
  O  O34  1  0.247908  0.964197  0.451692  1
  O  O35  1  0.478175  0.241468  0.415078  1
  O  O36  1  0.521825  0.758532  0.584922  1
  O  O37  1  0.744980  0.486700  0.090683  1
  O  O38  1  0.255020  0.513300  0.909317  1
  O  O39  1  0.573276  0.404681  0.786243  1
  O  O40  1  0.426724  0.595319  0.213757  1
  F  F41  1  0.717418  0.098496  0.970251  1
  F  F42  1  0.282582  0.901504  0.029749  1
  F  F43  1  0.416212  0.112398  0.776212  1
  F  F44  1  0.583788  0.887602  0.223788  1
  F  F45  1  0.403627  0.216167  0.108367  1
  F  F46  1  0.596373  0.783833  0.891633  1
  F  F47  1  0.908464  0.412006  0.701536  1
  F  F48  1  0.091536  0.587994  0.298464  1
  F  F49  1  0.007539  0.234330  0.407826  1
  F  F50  1  0.992461  0.765670  0.592174  1
  F  F51  1  0.230401  0.453774  0.578052  1
  F  F52  1  0.769599  0.546226  0.421948  1
