# generated using pymatgen
data_SbI(ClF3)2
_symmetry_space_group_name_H-M   'P 1'
_cell_length_a   8.21803341
_cell_length_b   8.21803341
_cell_length_c   13.24702290
_cell_angle_alpha   90.00000000
_cell_angle_beta   90.00000000
_cell_angle_gamma   96.62586270
_symmetry_Int_Tables_number   1
_chemical_formula_structural   SbI(ClF3)2
_chemical_formula_sum   'Sb4 I4 Cl8 F24'
_cell_volume   888.67633401
_cell_formula_units_Z   4
loop_
 _symmetry_equiv_pos_site_id
 _symmetry_equiv_pos_as_xyz
  1  'x, y, z'
loop_
 _atom_site_type_symbol
 _atom_site_label
 _atom_site_symmetry_multiplicity
 _atom_site_fract_x
 _atom_site_fract_y
 _atom_site_fract_z
 _atom_site_occupancy
  Sb  Sb0  1  0.705339  0.294661  0.441764  1
  Sb  Sb1  1  0.794661  0.205339  0.941764  1
  Sb  Sb2  1  0.205339  0.794661  0.058236  1
  Sb  Sb3  1  0.294661  0.705339  0.558236  1
  I  I4  1  0.157639  0.342361  0.250000  1
  I  I5  1  0.842361  0.657639  0.750000  1
  I  I6  1  0.657639  0.842361  0.250000  1
  I  I7  1  0.342361  0.157639  0.750000  1
  Cl  Cl8  1  0.195004  0.132318  0.359344  1
  Cl  Cl9  1  0.695004  0.632318  0.140656  1
  Cl  Cl10  1  0.804996  0.867682  0.640656  1
  Cl  Cl11  1  0.132318  0.195004  0.640656  1
  Cl  Cl12  1  0.304996  0.367682  0.859344  1
  Cl  Cl13  1  0.632318  0.695004  0.859344  1
  Cl  Cl14  1  0.367682  0.304996  0.140656  1
  Cl  Cl15  1  0.867682  0.804996  0.359344  1
  F  F16  1  0.616376  0.135401  0.847549  1
  F  F17  1  0.929151  0.070849  0.869840  1
  F  F18  1  0.070849  0.929151  0.130160  1
  F  F19  1  0.116376  0.635401  0.652451  1
  F  F20  1  0.716707  0.030889  0.030487  1
  F  F21  1  0.154147  0.845853  0.495031  1
  F  F22  1  0.570849  0.429151  0.369840  1
  F  F23  1  0.429151  0.570849  0.630160  1
  F  F24  1  0.864599  0.383624  0.847549  1
  F  F25  1  0.030889  0.716707  0.969513  1
  F  F26  1  0.635401  0.116376  0.347549  1
  F  F27  1  0.283293  0.969111  0.969513  1
  F  F28  1  0.216707  0.530889  0.469513  1
  F  F29  1  0.345853  0.654147  0.995031  1
  F  F30  1  0.883624  0.364599  0.347549  1
  F  F31  1  0.135401  0.616376  0.152451  1
  F  F32  1  0.469111  0.783293  0.469513  1
  F  F33  1  0.383624  0.864599  0.152451  1
  F  F34  1  0.364599  0.883624  0.652451  1
  F  F35  1  0.845853  0.154147  0.504969  1
  F  F36  1  0.969111  0.283293  0.030487  1
  F  F37  1  0.783293  0.469111  0.530487  1
  F  F38  1  0.530889  0.216707  0.530487  1
  F  F39  1  0.654147  0.345853  0.004969  1
