# generated using pymatgen
data_LiSi2BO6
_symmetry_space_group_name_H-M   'P 1'
_cell_length_a   5.08036904
_cell_length_b   13.25509053
_cell_length_c   13.47956486
_cell_angle_alpha   90.00000000
_cell_angle_beta   90.11362157
_cell_angle_gamma   90.00000000
_symmetry_Int_Tables_number   1
_chemical_formula_structural   LiSi2BO6
_chemical_formula_sum   'Li8 Si16 B8 O48'
_cell_volume   907.72224384
_cell_formula_units_Z   8
loop_
 _symmetry_equiv_pos_site_id
 _symmetry_equiv_pos_as_xyz
  1  'x, y, z'
loop_
 _atom_site_type_symbol
 _atom_site_label
 _atom_site_symmetry_multiplicity
 _atom_site_fract_x
 _atom_site_fract_y
 _atom_site_fract_z
 _atom_site_occupancy
  Li  Li0  1  0.397068  0.329655  0.462045  1
  Li  Li1  1  0.602932  0.829655  0.537955  1
  Li  Li2  1  0.350692  0.055628  0.290051  1
  Li  Li3  1  0.159449  0.561003  0.227127  1
  Li  Li4  1  0.089819  0.842281  0.027529  1
  Li  Li5  1  0.910181  0.342281  0.972471  1
  Li  Li6  1  0.840551  0.061003  0.772873  1
  Li  Li7  1  0.649308  0.555628  0.709949  1
  Si  Si8  1  0.826333  0.627386  0.023653  1
  Si  Si9  1  0.938347  0.857322  0.332845  1
  Si  Si10  1  0.572313  0.269390  0.772302  1
  Si  Si11  1  0.758840  0.122596  0.481078  1
  Si  Si12  1  0.998978  0.767611  0.730696  1
  Si  Si13  1  0.427687  0.769390  0.227698  1
  Si  Si14  1  0.266253  0.034367  0.582094  1
  Si  Si15  1  0.495182  0.357877  0.167727  1
  Si  Si16  1  0.682699  0.038088  0.082726  1
  Si  Si17  1  0.733747  0.534367  0.417906  1
  Si  Si18  1  0.173667  0.127386  0.976347  1
  Si  Si19  1  0.317301  0.538088  0.917274  1
  Si  Si20  1  0.241160  0.622596  0.518922  1
  Si  Si21  1  0.001022  0.267611  0.269304  1
  Si  Si22  1  0.504818  0.857877  0.832273  1
  Si  Si23  1  0.061653  0.357322  0.667155  1
  B  B24  1  0.102358  0.831478  0.537041  1
  B  B25  1  0.660630  0.563266  0.212142  1
  B  B26  1  0.588989  0.832149  0.038012  1
  B  B27  1  0.897642  0.331478  0.462959  1
  B  B28  1  0.339370  0.063266  0.787858  1
  B  B29  1  0.850707  0.060359  0.286202  1
  B  B30  1  0.149293  0.560359  0.713798  1
  B  B31  1  0.411011  0.332149  0.961988  1
  O  O32  1  0.106252  0.615644  0.966319  1
  O  O33  1  0.853768  0.277623  0.714912  1
  O  O34  1  0.644875  0.829038  0.293686  1
  O  O35  1  0.287162  0.916185  0.550071  1
  O  O36  1  0.239316  0.422828  0.949981  1
  O  O37  1  0.712838  0.416185  0.449929  1
  O  O38  1  0.299267  0.796156  0.761702  1
  O  O39  1  0.281578  0.744533  0.523741  1
  O  O40  1  0.076531  0.318708  0.376575  1
  O  O41  1  0.146232  0.777623  0.285088  1
  O  O42  1  0.422819  0.840178  0.947880  1
  O  O43  1  0.392356  0.068297  0.041985  1
  O  O44  1  0.477462  0.649156  0.217234  1
  O  O45  1  0.062106  0.095188  0.509995  1
  O  O46  1  0.323512  0.571831  0.625527  1
  O  O47  1  0.779973  0.748345  0.034594  1
  O  O48  1  0.200750  0.312232  0.185956  1
  O  O49  1  0.479258  0.476518  0.198959  1
  O  O50  1  0.520742  0.976518  0.801041  1
  O  O51  1  0.335078  0.551702  0.797072  1
  O  O52  1  0.522538  0.149156  0.782766  1
  O  O53  1  0.923469  0.818708  0.623425  1
  O  O54  1  0.437170  0.579174  0.433393  1
  O  O55  1  0.799250  0.812232  0.814044  1
  O  O56  1  0.676488  0.071831  0.374473  1
  O  O57  1  0.760684  0.922828  0.050019  1
  O  O58  1  0.023882  0.970687  0.296552  1
  O  O59  1  0.142626  0.073442  0.867452  1
  O  O60  1  0.607644  0.568297  0.958015  1
  O  O61  1  0.220027  0.248345  0.965406  1
  O  O62  1  0.718422  0.244533  0.476259  1
  O  O63  1  0.080079  0.346352  0.546737  1
  O  O64  1  0.562830  0.079174  0.566607  1
  O  O65  1  0.937894  0.595188  0.490005  1
  O  O66  1  0.893748  0.115644  0.033681  1
  O  O67  1  0.355125  0.329038  0.706314  1
  O  O68  1  0.038156  0.145169  0.275345  1
  O  O69  1  0.857374  0.573442  0.132548  1
  O  O70  1  0.823837  0.551523  0.303044  1
  O  O71  1  0.664922  0.051702  0.202928  1
  O  O72  1  0.919921  0.846352  0.453263  1
  O  O73  1  0.394396  0.822434  0.118779  1
  O  O74  1  0.577181  0.340178  0.052120  1
  O  O75  1  0.700733  0.296156  0.238298  1
  O  O76  1  0.961844  0.645169  0.724655  1
  O  O77  1  0.605604  0.322434  0.881221  1
  O  O78  1  0.976118  0.470687  0.703448  1
  O  O79  1  0.176163  0.051523  0.696956  1
