# generated using pymatgen
data_Li7MnN4
_symmetry_space_group_name_H-M   'P 1'
_cell_length_a   9.57932924
_cell_length_b   9.57932924
_cell_length_c   9.57932924
_cell_angle_alpha   90.00000000
_cell_angle_beta   90.00000000
_cell_angle_gamma   90.00000000
_symmetry_Int_Tables_number   1
_chemical_formula_structural   Li7MnN4
_chemical_formula_sum   'Li56 Mn8 N32'
_cell_volume   879.03324512
_cell_formula_units_Z   8
loop_
 _symmetry_equiv_pos_site_id
 _symmetry_equiv_pos_as_xyz
  1  'x, y, z'
loop_
 _atom_site_type_symbol
 _atom_site_label
 _atom_site_symmetry_multiplicity
 _atom_site_fract_x
 _atom_site_fract_y
 _atom_site_fract_z
 _atom_site_occupancy
  Li  Li0  1  0.000000  0.500000  0.500000  1
  Li  Li1  1  0.500000  0.000000  0.000000  1
  Li  Li2  1  0.000000  0.000000  0.500000  1
  Li  Li3  1  0.000000  0.500000  0.000000  1
  Li  Li4  1  0.500000  0.000000  0.500000  1
  Li  Li5  1  0.500000  0.500000  0.000000  1
  Li  Li6  1  0.250000  0.000000  0.500000  1
  Li  Li7  1  0.000000  0.500000  0.750000  1
  Li  Li8  1  0.000000  0.500000  0.250000  1
  Li  Li9  1  0.500000  0.250000  0.000000  1
  Li  Li10  1  0.500000  0.750000  0.000000  1
  Li  Li11  1  0.750000  0.000000  0.500000  1
  Li  Li12  1  0.232035  0.232035  0.232035  1
  Li  Li13  1  0.267965  0.732035  0.267965  1
  Li  Li14  1  0.267965  0.267965  0.732035  1
  Li  Li15  1  0.732035  0.267965  0.267965  1
  Li  Li16  1  0.767965  0.767965  0.232035  1
  Li  Li17  1  0.232035  0.767965  0.767965  1
  Li  Li18  1  0.767965  0.232035  0.767965  1
  Li  Li19  1  0.732035  0.732035  0.732035  1
  Li  Li20  1  0.251080  0.238826  0.981710  1
  Li  Li21  1  0.248920  0.481710  0.261174  1
  Li  Li22  1  0.248920  0.518290  0.738826  1
  Li  Li23  1  0.518290  0.261174  0.751081  1
  Li  Li24  1  0.481710  0.261174  0.248920  1
  Li  Li25  1  0.738826  0.248920  0.518290  1
  Li  Li26  1  0.261174  0.751081  0.518290  1
  Li  Li27  1  0.981710  0.251080  0.238826  1
  Li  Li28  1  0.238826  0.981710  0.251080  1
  Li  Li29  1  0.761174  0.018290  0.251080  1
  Li  Li30  1  0.981710  0.748919  0.761174  1
  Li  Li31  1  0.761174  0.981710  0.748919  1
  Li  Li32  1  0.018290  0.748919  0.238826  1
  Li  Li33  1  0.018290  0.251080  0.761174  1
  Li  Li34  1  0.238826  0.018290  0.748919  1
  Li  Li35  1  0.251080  0.761174  0.018290  1
  Li  Li36  1  0.748919  0.238826  0.018290  1
  Li  Li37  1  0.748919  0.761174  0.981710  1
  Li  Li38  1  0.261174  0.248920  0.481710  1
  Li  Li39  1  0.738826  0.751081  0.481710  1
  Li  Li40  1  0.518290  0.738826  0.248920  1
  Li  Li41  1  0.481710  0.738826  0.751081  1
  Li  Li42  1  0.751081  0.518290  0.261174  1
  Li  Li43  1  0.751081  0.481710  0.738826  1
  Li  Li44  1  0.262656  0.000000  0.000000  1
  Li  Li45  1  0.237344  0.500000  0.500000  1
  Li  Li46  1  0.500000  0.500000  0.762656  1
  Li  Li47  1  0.500000  0.500000  0.237344  1
  Li  Li48  1  0.500000  0.237344  0.500000  1
  Li  Li49  1  0.500000  0.762656  0.500000  1
  Li  Li50  1  0.000000  0.262656  0.000000  1
  Li  Li51  1  0.000000  0.000000  0.262656  1
  Li  Li52  1  0.000000  0.737344  0.000000  1
  Li  Li53  1  0.000000  0.000000  0.737344  1
  Li  Li54  1  0.737344  0.000000  0.000000  1
  Li  Li55  1  0.762656  0.500000  0.500000  1
  Mn  Mn56  1  0.500000  0.500000  0.500000  1
  Mn  Mn57  1  0.000000  0.000000  0.000000  1
  Mn  Mn58  1  0.500000  0.000000  0.750000  1
  Mn  Mn59  1  0.750000  0.500000  0.000000  1
  Mn  Mn60  1  0.250000  0.500000  0.000000  1
  Mn  Mn61  1  0.000000  0.250000  0.500000  1
  Mn  Mn62  1  0.000000  0.750000  0.500000  1
  Mn  Mn63  1  0.500000  0.000000  0.250000  1
  N  N64  1  0.609453  0.609453  0.609453  1
  N  N65  1  0.890547  0.109453  0.890547  1
  N  N66  1  0.109453  0.890547  0.890547  1
  N  N67  1  0.890547  0.890547  0.109453  1
  N  N68  1  0.609453  0.390547  0.390547  1
  N  N69  1  0.390547  0.390547  0.609453  1
  N  N70  1  0.390547  0.609453  0.390547  1
  N  N71  1  0.109453  0.109453  0.109453  1
  N  N72  1  0.356423  0.383134  0.106755  1
  N  N73  1  0.143577  0.606755  0.116866  1
  N  N74  1  0.143577  0.393245  0.883134  1
  N  N75  1  0.393245  0.116866  0.856423  1
  N  N76  1  0.606755  0.116866  0.143577  1
  N  N77  1  0.883134  0.143577  0.393245  1
  N  N78  1  0.116866  0.856423  0.393245  1
  N  N79  1  0.106755  0.356423  0.383134  1
  N  N80  1  0.383134  0.106755  0.356423  1
  N  N81  1  0.616866  0.893245  0.356423  1
  N  N82  1  0.106755  0.643577  0.616866  1
  N  N83  1  0.616866  0.106755  0.643577  1
  N  N84  1  0.893245  0.643577  0.383134  1
  N  N85  1  0.893245  0.356423  0.616866  1
  N  N86  1  0.383134  0.893245  0.643577  1
  N  N87  1  0.356423  0.616866  0.893245  1
  N  N88  1  0.643577  0.383134  0.893245  1
  N  N89  1  0.643577  0.616866  0.106755  1
  N  N90  1  0.116866  0.143577  0.606755  1
  N  N91  1  0.883134  0.856423  0.606755  1
  N  N92  1  0.393245  0.883134  0.143577  1
  N  N93  1  0.606755  0.883134  0.856423  1
  N  N94  1  0.856423  0.393245  0.116866  1
  N  N95  1  0.856423  0.606755  0.883134  1
