# generated using pymatgen
data_MoPb3Cl2O5
_symmetry_space_group_name_H-M   'P 1'
_cell_length_a   7.26056699
_cell_length_b   7.26056699
_cell_length_c   11.21520221
_cell_angle_alpha   90.00000000
_cell_angle_beta   90.00000000
_cell_angle_gamma   133.88923907
_symmetry_Int_Tables_number   1
_chemical_formula_structural   MoPb3Cl2O5
_chemical_formula_sum   'Mo2 Pb6 Cl4 O10'
_cell_volume   426.08029850
_cell_formula_units_Z   2
loop_
 _symmetry_equiv_pos_site_id
 _symmetry_equiv_pos_as_xyz
  1  'x, y, z'
loop_
 _atom_site_type_symbol
 _atom_site_label
 _atom_site_symmetry_multiplicity
 _atom_site_fract_x
 _atom_site_fract_y
 _atom_site_fract_z
 _atom_site_occupancy
  Mo  Mo0  1  0.765840  0.234160  0.250000  1
  Mo  Mo1  1  0.234160  0.765840  0.750000  1
  Pb  Pb2  1  0.652584  0.347416  0.531256  1
  Pb  Pb3  1  0.347416  0.652584  0.031256  1
  Pb  Pb4  1  0.652584  0.347416  0.968744  1
  Pb  Pb5  1  0.898354  0.101646  0.750000  1
  Pb  Pb6  1  0.347416  0.652584  0.468744  1
  Pb  Pb7  1  0.101646  0.898354  0.250000  1
  Cl  Cl8  1  0.522028  0.477972  0.250000  1
  Cl  Cl9  1  0.000000  0.000000  0.500000  1
  Cl  Cl10  1  0.477972  0.522028  0.750000  1
  Cl  Cl11  1  0.000000  0.000000  0.000000  1
  O  O12  1  0.495928  0.037032  0.369409  1
  O  O13  1  0.037032  0.495928  0.630591  1
  O  O14  1  0.504072  0.962968  0.869409  1
  O  O15  1  0.504072  0.962968  0.630591  1
  O  O16  1  0.105150  0.894850  0.750000  1
  O  O17  1  0.037032  0.495928  0.869409  1
  O  O18  1  0.495928  0.037032  0.130591  1
  O  O19  1  0.962968  0.504072  0.369409  1
  O  O20  1  0.894850  0.105150  0.250000  1
  O  O21  1  0.962968  0.504072  0.130591  1
