# generated using pymatgen
data_InBr2
_symmetry_space_group_name_H-M   'P 1'
_cell_length_a   8.06913024
_cell_length_b   10.70083989
_cell_length_c   10.77919972
_cell_angle_alpha   90.00000000
_cell_angle_beta   90.00000000
_cell_angle_gamma   90.00000000
_symmetry_Int_Tables_number   1
_chemical_formula_structural   InBr2
_chemical_formula_sum   'In8 Br16'
_cell_volume   930.74585333
_cell_formula_units_Z   8
loop_
 _symmetry_equiv_pos_site_id
 _symmetry_equiv_pos_as_xyz
  1  'x, y, z'
loop_
 _atom_site_type_symbol
 _atom_site_label
 _atom_site_symmetry_multiplicity
 _atom_site_fract_x
 _atom_site_fract_y
 _atom_site_fract_z
 _atom_site_occupancy
  In  In0  1  0.750000  0.000000  0.818488  1
  In  In1  1  0.323865  0.750000  0.750000  1
  In  In2  1  0.250000  0.000000  0.181512  1
  In  In3  1  0.676135  0.250000  0.250000  1
  In  In4  1  0.176135  0.250000  0.750000  1
  In  In5  1  0.250000  0.500000  0.318488  1
  In  In6  1  0.823865  0.750000  0.250000  1
  In  In7  1  0.750000  0.500000  0.681512  1
  Br  Br8  1  0.498176  0.455545  0.818527  1
  Br  Br9  1  0.501824  0.544455  0.181473  1
  Br  Br10  1  0.998176  0.044455  0.318527  1
  Br  Br11  1  0.844267  0.314846  0.549801  1
  Br  Br12  1  0.501824  0.955545  0.318527  1
  Br  Br13  1  0.344267  0.314846  0.450199  1
  Br  Br14  1  0.844267  0.185154  0.950199  1
  Br  Br15  1  0.344267  0.185154  0.049801  1
  Br  Br16  1  0.655733  0.814846  0.950199  1
  Br  Br17  1  0.998176  0.455545  0.181473  1
  Br  Br18  1  0.155733  0.814846  0.049801  1
  Br  Br19  1  0.498176  0.044455  0.681473  1
  Br  Br20  1  0.655733  0.685154  0.549801  1
  Br  Br21  1  0.001824  0.544455  0.818527  1
  Br  Br22  1  0.155733  0.685154  0.450199  1
  Br  Br23  1  0.001824  0.955545  0.681473  1
