# generated using pymatgen
data_K2NaS2ClO6
_symmetry_space_group_name_H-M   'P 1'
_cell_length_a   12.32220551
_cell_length_b   12.32220551
_cell_length_c   5.67074689
_cell_angle_alpha   90.00000000
_cell_angle_beta   90.00000000
_cell_angle_gamma   90.00000000
_symmetry_Int_Tables_number   1
_chemical_formula_structural   K2NaS2ClO6
_chemical_formula_sum   'K8 Na4 S8 Cl4 O24'
_cell_volume   861.02777009
_cell_formula_units_Z   4
loop_
 _symmetry_equiv_pos_site_id
 _symmetry_equiv_pos_as_xyz
  1  'x, y, z'
loop_
 _atom_site_type_symbol
 _atom_site_label
 _atom_site_symmetry_multiplicity
 _atom_site_fract_x
 _atom_site_fract_y
 _atom_site_fract_z
 _atom_site_occupancy
  K  K0  1  0.055374  0.250151  0.482607  1
  K  K1  1  0.750151  0.444626  0.482607  1
  K  K2  1  0.444626  0.249849  0.517393  1
  K  K3  1  0.944626  0.749849  0.482607  1
  K  K4  1  0.249849  0.555374  0.482607  1
  K  K5  1  0.250151  0.944626  0.517393  1
  K  K6  1  0.555374  0.750151  0.517393  1
  K  K7  1  0.749849  0.055374  0.517393  1
  Na  Na8  1  0.500000  0.000000  0.947224  1
  Na  Na9  1  0.000000  0.000000  0.000000  1
  Na  Na10  1  0.000000  0.500000  0.052776  1
  Na  Na11  1  0.500000  0.500000  0.000000  1
  S  S12  1  0.759122  0.837717  0.024490  1
  S  S13  1  0.662283  0.259122  0.024490  1
  S  S14  1  0.837717  0.240878  0.975510  1
  S  S15  1  0.259122  0.337717  0.975510  1
  S  S16  1  0.740878  0.662283  0.975510  1
  S  S17  1  0.240878  0.162283  0.024490  1
  S  S18  1  0.337717  0.740878  0.024490  1
  S  S19  1  0.162283  0.759122  0.975510  1
  Cl  Cl20  1  0.500000  0.000000  0.438482  1
  Cl  Cl21  1  0.000000  0.000000  0.500000  1
  Cl  Cl22  1  0.000000  0.500000  0.561518  1
  Cl  Cl23  1  0.500000  0.500000  0.500000  1
  O  O24  1  0.867512  0.860447  0.928188  1
  O  O25  1  0.139553  0.867512  0.071812  1
  O  O26  1  0.387046  0.830015  0.888564  1
  O  O27  1  0.749459  0.647196  0.718930  1
  O  O28  1  0.169985  0.387046  0.111436  1
  O  O29  1  0.112954  0.669985  0.111436  1
  O  O30  1  0.639553  0.367512  0.928188  1
  O  O31  1  0.647196  0.250541  0.281070  1
  O  O32  1  0.147196  0.750541  0.718930  1
  O  O33  1  0.249459  0.147196  0.281070  1
  O  O34  1  0.367512  0.360447  0.071812  1
  O  O35  1  0.330015  0.112954  0.888564  1
  O  O36  1  0.632488  0.639553  0.071812  1
  O  O37  1  0.132488  0.139553  0.928188  1
  O  O38  1  0.352804  0.749459  0.281070  1
  O  O39  1  0.360447  0.632488  0.928188  1
  O  O40  1  0.860447  0.132488  0.071812  1
  O  O41  1  0.750541  0.852804  0.281070  1
  O  O42  1  0.852804  0.249459  0.718930  1
  O  O43  1  0.612954  0.169985  0.888564  1
  O  O44  1  0.887046  0.330015  0.111436  1
  O  O45  1  0.250541  0.352804  0.718930  1
  O  O46  1  0.669985  0.887046  0.888564  1
  O  O47  1  0.830015  0.612954  0.111436  1
