# generated using pymatgen
data_Ba2B5ClO9
_symmetry_space_group_name_H-M   'P 1'
_cell_length_a   6.76226366
_cell_length_b   11.72438271
_cell_length_c   11.78662579
_cell_angle_alpha   90.00000000
_cell_angle_beta   90.00000000
_cell_angle_gamma   90.00000000
_symmetry_Int_Tables_number   1
_chemical_formula_structural   Ba2B5ClO9
_chemical_formula_sum   'Ba8 B20 Cl4 O36'
_cell_volume   934.48337980
_cell_formula_units_Z   4
loop_
 _symmetry_equiv_pos_site_id
 _symmetry_equiv_pos_as_xyz
  1  'x, y, z'
loop_
 _atom_site_type_symbol
 _atom_site_label
 _atom_site_symmetry_multiplicity
 _atom_site_fract_x
 _atom_site_fract_y
 _atom_site_fract_z
 _atom_site_occupancy
  Ba  Ba0  1  0.993198  0.731680  0.020046  1
  Ba  Ba1  1  0.648472  0.457267  0.744865  1
  Ba  Ba2  1  0.993198  0.268320  0.979954  1
  Ba  Ba3  1  0.148472  0.957267  0.755135  1
  Ba  Ba4  1  0.148472  0.042733  0.244865  1
  Ba  Ba5  1  0.648472  0.542733  0.255135  1
  Ba  Ba6  1  0.493198  0.231680  0.479954  1
  Ba  Ba7  1  0.493198  0.768320  0.520046  1
  B  B8  1  0.843076  0.813285  0.272197  1
  B  B9  1  0.497927  0.201087  0.818511  1
  B  B10  1  0.130030  0.510913  0.751654  1
  B  B11  1  0.997927  0.298913  0.318511  1
  B  B12  1  0.497927  0.798913  0.181489  1
  B  B13  1  0.630030  0.989087  0.251654  1
  B  B14  1  0.963664  0.274074  0.543127  1
  B  B15  1  0.463664  0.225926  0.043127  1
  B  B16  1  0.343076  0.313285  0.227803  1
  B  B17  1  0.677482  0.214366  0.213581  1
  B  B18  1  0.177482  0.285634  0.713581  1
  B  B19  1  0.997927  0.701087  0.681489  1
  B  B20  1  0.843076  0.186715  0.727803  1
  B  B21  1  0.463664  0.774074  0.956873  1
  B  B22  1  0.963664  0.725926  0.456873  1
  B  B23  1  0.130030  0.489087  0.248346  1
  B  B24  1  0.343076  0.686715  0.772197  1
  B  B25  1  0.630030  0.010913  0.748346  1
  B  B26  1  0.677482  0.785634  0.786419  1
  B  B27  1  0.177482  0.714366  0.286419  1
  Cl  Cl28  1  0.006679  0.000000  0.000000  1
  Cl  Cl29  1  0.269293  0.000000  0.500000  1
  Cl  Cl30  1  0.769293  0.500000  0.000000  1
  Cl  Cl31  1  0.506679  0.500000  0.500000  1
  O  O32  1  0.980294  0.424493  0.295361  1
  O  O33  1  0.389407  0.268497  0.731197  1
  O  O34  1  0.309014  0.750268  0.881080  1
  O  O35  1  0.710107  0.233768  0.815516  1
  O  O36  1  0.409303  0.774676  0.068752  1
  O  O37  1  0.480294  0.075507  0.795361  1
  O  O38  1  0.309014  0.249732  0.118920  1
  O  O39  1  0.889407  0.768497  0.768803  1
  O  O40  1  0.889407  0.231503  0.231197  1
  O  O41  1  0.210107  0.266232  0.315516  1
  O  O42  1  0.097888  0.395364  0.767428  1
  O  O43  1  0.909303  0.274676  0.431248  1
  O  O44  1  0.210107  0.733768  0.684484  1
  O  O45  1  0.648879  0.206760  0.086201  1
  O  O46  1  0.597888  0.104636  0.267428  1
  O  O47  1  0.980294  0.575507  0.704639  1
  O  O48  1  0.800195  0.937641  0.290784  1
  O  O49  1  0.552949  0.306281  0.260747  1
  O  O50  1  0.148879  0.706760  0.413799  1
  O  O51  1  0.648879  0.793240  0.913799  1
  O  O52  1  0.552949  0.693719  0.739253  1
  O  O53  1  0.300195  0.437641  0.209216  1
  O  O54  1  0.597888  0.895364  0.732572  1
  O  O55  1  0.052949  0.806281  0.239253  1
  O  O56  1  0.097888  0.604636  0.232572  1
  O  O57  1  0.909303  0.725324  0.568752  1
  O  O58  1  0.809014  0.250268  0.618920  1
  O  O59  1  0.389407  0.731503  0.268803  1
  O  O60  1  0.409303  0.225324  0.931248  1
  O  O61  1  0.052949  0.193719  0.760747  1
  O  O62  1  0.800195  0.062359  0.709216  1
  O  O63  1  0.300195  0.562359  0.790784  1
  O  O64  1  0.809014  0.749732  0.381080  1
  O  O65  1  0.148879  0.293240  0.586201  1
  O  O66  1  0.710107  0.766232  0.184484  1
  O  O67  1  0.480294  0.924493  0.204639  1
