# generated using pymatgen
data_Pr10S19
_symmetry_space_group_name_H-M   'P 1'
_cell_length_a   9.03400144
_cell_length_b   9.03400144
_cell_length_c   16.33693988
_cell_angle_alpha   90.00000000
_cell_angle_beta   90.00000000
_cell_angle_gamma   90.00000000
_symmetry_Int_Tables_number   1
_chemical_formula_structural   Pr10S19
_chemical_formula_sum   'Pr20 S38'
_cell_volume   1333.30964804
_cell_formula_units_Z   2
loop_
 _symmetry_equiv_pos_site_id
 _symmetry_equiv_pos_as_xyz
  1  'x, y, z'
loop_
 _atom_site_type_symbol
 _atom_site_label
 _atom_site_symmetry_multiplicity
 _atom_site_fract_x
 _atom_site_fract_y
 _atom_site_fract_z
 _atom_site_occupancy
  Pr  Pr0  1  0.500000  0.000000  0.635751  1
  Pr  Pr1  1  0.104193  0.194439  0.647516  1
  Pr  Pr2  1  0.604193  0.694439  0.852484  1
  Pr  Pr3  1  0.098307  0.209211  0.127550  1
  Pr  Pr4  1  0.598307  0.709211  0.372450  1
  Pr  Pr5  1  0.194439  0.895807  0.352484  1
  Pr  Pr6  1  0.500000  0.000000  0.135751  1
  Pr  Pr7  1  0.000000  0.500000  0.864249  1
  Pr  Pr8  1  0.805561  0.104193  0.352484  1
  Pr  Pr9  1  0.290789  0.598307  0.627550  1
  Pr  Pr10  1  0.395807  0.305561  0.852484  1
  Pr  Pr11  1  0.401693  0.290789  0.372450  1
  Pr  Pr12  1  0.901693  0.790789  0.127550  1
  Pr  Pr13  1  0.895807  0.805561  0.647516  1
  Pr  Pr14  1  0.694439  0.395807  0.147516  1
  Pr  Pr15  1  0.209211  0.901693  0.872450  1
  Pr  Pr16  1  0.709211  0.401693  0.627550  1
  Pr  Pr17  1  0.000000  0.500000  0.364249  1
  Pr  Pr18  1  0.305561  0.604193  0.147516  1
  Pr  Pr19  1  0.790789  0.098307  0.872450  1
  S  S20  1  0.000000  0.500000  0.684037  1
  S  S21  1  0.719755  0.946500  0.500992  1
  S  S22  1  0.639606  0.171429  0.499957  1
  S  S23  1  0.598215  0.700773  0.675945  1
  S  S24  1  0.553500  0.219755  0.000992  1
  S  S25  1  0.700773  0.401785  0.324055  1
  S  S26  1  0.053500  0.719755  0.499008  1
  S  S27  1  0.901785  0.799227  0.824055  1
  S  S28  1  0.671429  0.860394  0.999957  1
  S  S29  1  0.780245  0.553500  0.999008  1
  S  S30  1  0.139606  0.671429  0.000043  1
  S  S31  1  0.000000  0.000000  0.000000  1
  S  S32  1  0.898174  0.803023  0.312006  1
  S  S33  1  0.200773  0.901785  0.175945  1
  S  S34  1  0.303023  0.601826  0.812006  1
  S  S35  1  0.219755  0.446500  0.999008  1
  S  S36  1  0.101826  0.196977  0.312006  1
  S  S37  1  0.299227  0.598215  0.324055  1
  S  S38  1  0.280245  0.053500  0.500992  1
  S  S39  1  0.860394  0.328571  0.000043  1
  S  S40  1  0.946500  0.280245  0.499008  1
  S  S41  1  0.098215  0.200773  0.824055  1
  S  S42  1  0.328571  0.139606  0.999957  1
  S  S43  1  0.500000  0.000000  0.315963  1
  S  S44  1  0.171429  0.360394  0.500043  1
  S  S45  1  0.000000  0.500000  0.184037  1
  S  S46  1  0.828571  0.639606  0.500043  1
  S  S47  1  0.398174  0.303023  0.187994  1
  S  S48  1  0.360394  0.828571  0.499957  1
  S  S49  1  0.601826  0.696977  0.187994  1
  S  S50  1  0.446500  0.780245  0.000992  1
  S  S51  1  0.799227  0.098215  0.175945  1
  S  S52  1  0.196977  0.898174  0.687994  1
  S  S53  1  0.696977  0.398174  0.812006  1
  S  S54  1  0.401785  0.299227  0.675945  1
  S  S55  1  0.500000  0.000000  0.815963  1
  S  S56  1  0.500000  0.500000  0.500000  1
  S  S57  1  0.803023  0.101826  0.687994  1
