# generated using pymatgen
data_Mo6PbI14
_symmetry_space_group_name_H-M   'P 1'
_cell_length_a   14.85007846
_cell_length_b   14.85007846
_cell_length_c   14.85007846
_cell_angle_alpha   90.00000000
_cell_angle_beta   90.00000000
_cell_angle_gamma   90.00000000
_symmetry_Int_Tables_number   1
_chemical_formula_structural   Mo6PbI14
_chemical_formula_sum   'Mo24 Pb4 I56'
_cell_volume   3274.81103186
_cell_formula_units_Z   4
loop_
 _symmetry_equiv_pos_site_id
 _symmetry_equiv_pos_as_xyz
  1  'x, y, z'
loop_
 _atom_site_type_symbol
 _atom_site_label
 _atom_site_symmetry_multiplicity
 _atom_site_fract_x
 _atom_site_fract_y
 _atom_site_fract_z
 _atom_site_occupancy
  Mo  Mo0  1  0.781643  0.871768  0.724844  1
  Mo  Mo1  1  0.724844  0.781643  0.871768  1
  Mo  Mo2  1  0.628232  0.224844  0.281643  1
  Mo  Mo3  1  0.275156  0.218357  0.871768  1
  Mo  Mo4  1  0.775156  0.281643  0.371768  1
  Mo  Mo5  1  0.371768  0.775156  0.281643  1
  Mo  Mo6  1  0.775156  0.718357  0.628232  1
  Mo  Mo7  1  0.224844  0.718357  0.371768  1
  Mo  Mo8  1  0.281643  0.371768  0.775156  1
  Mo  Mo9  1  0.281643  0.628232  0.224844  1
  Mo  Mo10  1  0.371768  0.224844  0.718357  1
  Mo  Mo11  1  0.224844  0.281643  0.628232  1
  Mo  Mo12  1  0.871768  0.724844  0.781643  1
  Mo  Mo13  1  0.718357  0.628232  0.775156  1
  Mo  Mo14  1  0.718357  0.371768  0.224844  1
  Mo  Mo15  1  0.871768  0.275156  0.218357  1
  Mo  Mo16  1  0.128232  0.275156  0.781643  1
  Mo  Mo17  1  0.218357  0.128232  0.724844  1
  Mo  Mo18  1  0.128232  0.724844  0.218357  1
  Mo  Mo19  1  0.628232  0.775156  0.718357  1
  Mo  Mo20  1  0.275156  0.781643  0.128232  1
  Mo  Mo21  1  0.218357  0.871768  0.275156  1
  Mo  Mo22  1  0.724844  0.218357  0.128232  1
  Mo  Mo23  1  0.781643  0.128232  0.275156  1
  Pb  Pb24  1  0.750000  0.750000  0.250000  1
  Pb  Pb25  1  0.250000  0.250000  0.250000  1
  Pb  Pb26  1  0.250000  0.750000  0.750000  1
  Pb  Pb27  1  0.750000  0.250000  0.750000  1
  I  I28  1  0.130824  0.564962  0.316849  1
  I  I29  1  0.055980  0.681971  0.832934  1
  I  I30  1  0.630824  0.935038  0.816849  1
  I  I31  1  0.369176  0.935038  0.183151  1
  I  I32  1  0.435038  0.683151  0.130824  1
  I  I33  1  0.183151  0.369176  0.935038  1
  I  I34  1  0.116684  0.883316  0.116684  1
  I  I35  1  0.332934  0.444020  0.181971  1
  I  I36  1  0.316849  0.869176  0.435038  1
  I  I37  1  0.683151  0.869176  0.564962  1
  I  I38  1  0.883316  0.116684  0.116684  1
  I  I39  1  0.181971  0.332934  0.444020  1
  I  I40  1  0.869176  0.435038  0.316849  1
  I  I41  1  0.935038  0.183151  0.369176  1
  I  I42  1  0.667066  0.444020  0.818029  1
  I  I43  1  0.555980  0.818029  0.332934  1
  I  I44  1  0.318029  0.832934  0.944020  1
  I  I45  1  0.383316  0.383316  0.616684  1
  I  I46  1  0.555980  0.181971  0.667066  1
  I  I47  1  0.444020  0.181971  0.332934  1
  I  I48  1  0.116684  0.116684  0.883316  1
  I  I49  1  0.616684  0.383316  0.383316  1
  I  I50  1  0.944020  0.318029  0.832934  1
  I  I51  1  0.383316  0.616684  0.383316  1
  I  I52  1  0.869176  0.564962  0.683151  1
  I  I53  1  0.630824  0.064962  0.183151  1
  I  I54  1  0.944020  0.681971  0.167066  1
  I  I55  1  0.064962  0.816849  0.369176  1
  I  I56  1  0.183151  0.630824  0.064962  1
  I  I57  1  0.681971  0.832934  0.055980  1
  I  I58  1  0.332934  0.555980  0.818029  1
  I  I59  1  0.883316  0.883316  0.883316  1
  I  I60  1  0.816849  0.369176  0.064962  1
  I  I61  1  0.616684  0.616684  0.616684  1
  I  I62  1  0.055980  0.318029  0.167066  1
  I  I63  1  0.316849  0.130824  0.564962  1
  I  I64  1  0.935038  0.816849  0.630824  1
  I  I65  1  0.181971  0.667066  0.555980  1
  I  I66  1  0.832934  0.055980  0.681971  1
  I  I67  1  0.064962  0.183151  0.630824  1
  I  I68  1  0.444020  0.818029  0.667066  1
  I  I69  1  0.667066  0.555980  0.181971  1
  I  I70  1  0.816849  0.630824  0.935038  1
  I  I71  1  0.818029  0.667066  0.444020  1
  I  I72  1  0.564962  0.316849  0.130824  1
  I  I73  1  0.167066  0.055980  0.318029  1
  I  I74  1  0.318029  0.167066  0.055980  1
  I  I75  1  0.130824  0.435038  0.683151  1
  I  I76  1  0.818029  0.332934  0.555980  1
  I  I77  1  0.681971  0.167066  0.944020  1
  I  I78  1  0.435038  0.316849  0.869176  1
  I  I79  1  0.832934  0.944020  0.318029  1
  I  I80  1  0.564962  0.683151  0.869176  1
  I  I81  1  0.369176  0.064962  0.816849  1
  I  I82  1  0.167066  0.944020  0.681971  1
  I  I83  1  0.683151  0.130824  0.435038  1
