# generated using pymatgen
data_NaLi3SiO4
_symmetry_space_group_name_H-M   'P 1'
_cell_length_a   9.98410177
_cell_length_b   9.98410177
_cell_length_c   9.98410177
_cell_angle_alpha   114.00610433
_cell_angle_beta   114.00610433
_cell_angle_gamma   100.73880425
_symmetry_Int_Tables_number   1
_chemical_formula_structural   NaLi3SiO4
_chemical_formula_sum   'Na8 Li24 Si8 O32'
_cell_volume   753.08130978
_cell_formula_units_Z   8
loop_
 _symmetry_equiv_pos_site_id
 _symmetry_equiv_pos_as_xyz
  1  'x, y, z'
loop_
 _atom_site_type_symbol
 _atom_site_label
 _atom_site_symmetry_multiplicity
 _atom_site_fract_x
 _atom_site_fract_y
 _atom_site_fract_z
 _atom_site_occupancy
  Na  Na0  1  0.765026  0.250918  0.956815  1
  Na  Na1  1  0.294102  0.808211  0.043185  1
  Na  Na2  1  0.191789  0.234974  0.485891  1
  Na  Na3  1  0.984974  0.999082  0.543185  1
  Na  Na4  1  0.000918  0.544102  0.985891  1
  Na  Na5  1  0.558211  0.015026  0.014109  1
  Na  Na6  1  0.749082  0.705898  0.514109  1
  Na  Na7  1  0.455898  0.441789  0.456815  1
  Li  Li8  1  0.968348  0.778416  0.870299  1
  Li  Li9  1  0.410314  0.588944  0.137532  1
  Li  Li10  1  0.339686  0.661056  0.362468  1
  Li  Li11  1  0.054276  0.687258  0.635360  1
  Li  Li12  1  0.727218  0.589686  0.178630  1
  Li  Li13  1  0.841883  0.151951  0.370299  1
  Li  Li14  1  0.221584  0.091883  0.189932  1
  Li  Li15  1  0.901951  0.031652  0.810068  1
  Li  Li16  1  0.848049  0.218348  0.689932  1
  Li  Li17  1  0.168916  0.304276  0.867018  1
  Li  Li18  1  0.451412  0.272782  0.862468  1
  Li  Li19  1  0.908117  0.098049  0.129701  1
  Li  Li20  1  0.411056  0.548588  0.821370  1
  Li  Li21  1  0.528416  0.158117  0.310068  1
  Li  Li22  1  0.312742  0.948102  0.367018  1
  Li  Li23  1  0.051898  0.418916  0.364640  1
  Li  Li24  1  0.338944  0.701412  0.678630  1
  Li  Li25  1  0.781652  0.471584  0.629701  1
  Li  Li26  1  0.022782  0.660314  0.321370  1
  Li  Li27  1  0.298588  0.977218  0.637532  1
  Li  Li28  1  0.698102  0.831084  0.135360  1
  Li  Li29  1  0.581084  0.945724  0.632982  1
  Li  Li30  1  0.437258  0.301898  0.132982  1
  Li  Li31  1  0.695724  0.562742  0.864640  1
  Si  Si32  1  0.111627  0.468989  0.720326  1
  Si  Si33  1  0.748663  0.391301  0.279674  1
  Si  Si34  1  0.608699  0.888373  0.357362  1
  Si  Si35  1  0.218989  0.998663  0.857362  1
  Si  Si36  1  0.001337  0.858699  0.220326  1
  Si  Si37  1  0.638373  0.781011  0.779674  1
  Si  Si38  1  0.141301  0.361627  0.142638  1
  Si  Si39  1  0.531011  0.251337  0.642638  1
  O  O40  1  0.274097  0.865035  0.755342  1
  O  O41  1  0.859482  0.673103  0.109150  1
  O  O42  1  0.097567  0.873043  0.122531  1
  O  O43  1  0.423103  0.813953  0.313621  1
  O  O44  1  0.024964  0.902433  0.775476  1
  O  O45  1  0.563953  0.750332  0.890850  1
  O  O46  1  0.017327  0.585273  0.760173  1
  O  O47  1  0.126957  0.249488  0.224524  1
  O  O48  1  0.481245  0.725903  0.590937  1
  O  O49  1  0.652433  0.376957  0.377469  1
  O  O50  1  0.007154  0.267327  0.932054  1
  O  O51  1  0.414727  0.174901  0.432054  1
  O  O52  1  0.732673  0.664727  0.739827  1
  O  O53  1  0.924901  0.992846  0.260173  1
  O  O54  1  0.500332  0.109482  0.686379  1
  O  O55  1  0.750512  0.975036  0.877469  1
  O  O56  1  0.475903  0.384965  0.744658  1
  O  O57  1  0.326897  0.436047  0.186379  1
  O  O58  1  0.999488  0.274964  0.622531  1
  O  O59  1  0.268755  0.524097  0.909063  1
  O  O60  1  0.742846  0.982673  0.567946  1
  O  O61  1  0.623043  0.000512  0.275476  1
  O  O62  1  0.725036  0.347567  0.724524  1
  O  O63  1  0.640307  0.731245  0.255342  1
  O  O64  1  0.109693  0.518755  0.244658  1
  O  O65  1  0.134965  0.890307  0.409063  1
  O  O66  1  0.186047  0.499668  0.609150  1
  O  O67  1  0.615035  0.359693  0.090937  1
  O  O68  1  0.335273  0.075099  0.067946  1
  O  O69  1  0.890518  0.576897  0.390850  1
  O  O70  1  0.825099  0.257154  0.239827  1
  O  O71  1  0.249668  0.140518  0.813621  1
