# generated using pymatgen
data_As3Pb2ClO6
_symmetry_space_group_name_H-M   'P 1'
_cell_length_a   5.46680188
_cell_length_b   8.40169881
_cell_length_c   19.93165144
_cell_angle_alpha   90.00000000
_cell_angle_beta   90.00000000
_cell_angle_gamma   90.00000000
_symmetry_Int_Tables_number   1
_chemical_formula_structural   As3Pb2ClO6
_chemical_formula_sum   'As12 Pb8 Cl4 O24'
_cell_volume   915.46917873
_cell_formula_units_Z   4
loop_
 _symmetry_equiv_pos_site_id
 _symmetry_equiv_pos_as_xyz
  1  'x, y, z'
loop_
 _atom_site_type_symbol
 _atom_site_label
 _atom_site_symmetry_multiplicity
 _atom_site_fract_x
 _atom_site_fract_y
 _atom_site_fract_z
 _atom_site_occupancy
  As  As0  1  0.750000  0.960488  0.177081  1
  As  As1  1  0.250000  0.687640  0.456060  1
  As  As2  1  0.750000  0.239732  0.832854  1
  As  As3  1  0.250000  0.460488  0.322919  1
  As  As4  1  0.250000  0.760268  0.167146  1
  As  As5  1  0.250000  0.812360  0.956060  1
  As  As6  1  0.750000  0.539512  0.677081  1
  As  As7  1  0.750000  0.312360  0.543940  1
  As  As8  1  0.750000  0.260268  0.332854  1
  As  As9  1  0.250000  0.039512  0.822919  1
  As  As10  1  0.750000  0.187640  0.043940  1
  As  As11  1  0.250000  0.739732  0.667146  1
  Pb  Pb12  1  0.250000  0.156358  0.641261  1
  Pb  Pb13  1  0.750000  0.610399  0.058717  1
  Pb  Pb14  1  0.250000  0.389601  0.941283  1
  Pb  Pb15  1  0.750000  0.843642  0.358739  1
  Pb  Pb16  1  0.250000  0.343642  0.141261  1
  Pb  Pb17  1  0.750000  0.656358  0.858739  1
  Pb  Pb18  1  0.250000  0.110399  0.441283  1
  Pb  Pb19  1  0.750000  0.889601  0.558717  1
  Cl  Cl20  1  0.750000  0.951760  0.712971  1
  Cl  Cl21  1  0.750000  0.548240  0.212971  1
  Cl  Cl22  1  0.250000  0.451760  0.787029  1
  Cl  Cl23  1  0.250000  0.048240  0.287029  1
  O  O24  1  0.508577  0.167726  0.546452  1
  O  O25  1  0.008577  0.667726  0.953548  1
  O  O26  1  0.250000  0.607818  0.105366  1
  O  O27  1  0.003347  0.125019  0.874482  1
  O  O28  1  0.750000  0.345437  0.637611  1
  O  O29  1  0.250000  0.654563  0.362389  1
  O  O30  1  0.250000  0.845437  0.862389  1
  O  O31  1  0.008577  0.832274  0.453548  1
  O  O32  1  0.503347  0.874981  0.125518  1
  O  O33  1  0.250000  0.892182  0.605366  1
  O  O34  1  0.991423  0.332274  0.046452  1
  O  O35  1  0.750000  0.154563  0.137611  1
  O  O36  1  0.491423  0.667726  0.953548  1
  O  O37  1  0.996653  0.874981  0.125518  1
  O  O38  1  0.496653  0.374981  0.374482  1
  O  O39  1  0.750000  0.107818  0.394634  1
  O  O40  1  0.996653  0.625019  0.625518  1
  O  O41  1  0.991423  0.167726  0.546452  1
  O  O42  1  0.491423  0.832274  0.453548  1
  O  O43  1  0.508577  0.332274  0.046452  1
  O  O44  1  0.003347  0.374981  0.374482  1
  O  O45  1  0.496653  0.125019  0.874482  1
  O  O46  1  0.750000  0.392182  0.894634  1
  O  O47  1  0.503347  0.625019  0.625518  1
