# generated using pymatgen
data_Na3Fe2(AsO4)3
_symmetry_space_group_name_H-M   'P 1'
_cell_length_a   10.76138930
_cell_length_b   10.76138930
_cell_length_c   10.76138930
_cell_angle_alpha   109.47122063
_cell_angle_beta   109.47122063
_cell_angle_gamma   109.47122063
_symmetry_Int_Tables_number   1
_chemical_formula_structural   Na3Fe2(AsO4)3
_chemical_formula_sum   'Na12 Fe8 As12 O48'
_cell_volume   959.36337922
_cell_formula_units_Z   4
loop_
 _symmetry_equiv_pos_site_id
 _symmetry_equiv_pos_as_xyz
  1  'x, y, z'
loop_
 _atom_site_type_symbol
 _atom_site_label
 _atom_site_symmetry_multiplicity
 _atom_site_fract_x
 _atom_site_fract_y
 _atom_site_fract_z
 _atom_site_occupancy
  Na  Na0  1  0.250000  0.375000  0.125000  1
  Na  Na1  1  0.375000  0.750000  0.125000  1
  Na  Na2  1  0.875000  0.625000  0.250000  1
  Na  Na3  1  0.125000  0.375000  0.750000  1
  Na  Na4  1  0.375000  0.125000  0.250000  1
  Na  Na5  1  0.625000  0.250000  0.875000  1
  Na  Na6  1  0.875000  0.750000  0.625000  1
  Na  Na7  1  0.125000  0.250000  0.375000  1
  Na  Na8  1  0.250000  0.875000  0.625000  1
  Na  Na9  1  0.625000  0.875000  0.750000  1
  Na  Na10  1  0.750000  0.125000  0.375000  1
  Na  Na11  1  0.750000  0.625000  0.875000  1
  Fe  Fe12  1  0.500000  1.000000  0.500000  1
  Fe  Fe13  1  0.500000  0.500000  0.500000  1
  Fe  Fe14  1  0.000000  0.000000  0.000000  1
  Fe  Fe15  1  1.000000  0.500000  0.000000  1
  Fe  Fe16  1  0.500000  1.000000  1.000000  1
  Fe  Fe17  1  1.000000  0.500000  0.500000  1
  Fe  Fe18  1  0.500000  0.500000  0.000000  1
  Fe  Fe19  1  1.000000  1.000000  0.500000  1
  As  As20  1  0.125000  0.750000  0.875000  1
  As  As21  1  0.375000  0.625000  0.750000  1
  As  As22  1  0.250000  0.625000  0.375000  1
  As  As23  1  0.875000  0.125000  0.750000  1
  As  As24  1  0.625000  0.750000  0.375000  1
  As  As25  1  0.375000  0.250000  0.625000  1
  As  As26  1  0.875000  0.250000  0.125000  1
  As  As27  1  0.750000  0.875000  0.125000  1
  As  As28  1  0.250000  0.125000  0.875000  1
  As  As29  1  0.750000  0.375000  0.625000  1
  As  As30  1  0.625000  0.375000  0.250000  1
  As  As31  1  0.125000  0.875000  0.250000  1
  O  O32  1  0.385646  0.299346  0.489965  1
  O  O33  1  0.114354  0.010035  0.200654  1
  O  O34  1  0.885646  0.989965  0.799346  1
  O  O35  1  0.690619  0.104319  0.989965  1
  O  O36  1  0.395681  0.809381  0.510035  1
  O  O37  1  0.895681  0.010035  0.309381  1
  O  O38  1  0.104319  0.989965  0.690619  1
  O  O39  1  0.700654  0.690619  0.086300  1
  O  O40  1  0.799346  0.413700  0.809381  1
  O  O41  1  0.299346  0.489965  0.385646  1
  O  O42  1  0.809381  0.510035  0.395681  1
  O  O43  1  0.104319  0.614354  0.413700  1
  O  O44  1  0.510035  0.395681  0.809381  1
  O  O45  1  0.700654  0.510035  0.614354  1
  O  O46  1  0.010035  0.200654  0.114354  1
  O  O47  1  0.200654  0.586300  0.190619  1
  O  O48  1  0.413700  0.104319  0.614354  1
  O  O49  1  0.086300  0.700654  0.690619  1
  O  O50  1  0.809381  0.799346  0.413700  1
  O  O51  1  0.604319  0.190619  0.489965  1
  O  O52  1  0.413700  0.809381  0.799346  1
  O  O53  1  0.010035  0.309381  0.895681  1
  O  O54  1  0.510035  0.614354  0.700654  1
  O  O55  1  0.586300  0.190619  0.200654  1
  O  O56  1  0.114354  0.604319  0.913700  1
  O  O57  1  0.309381  0.913700  0.299346  1
  O  O58  1  0.190619  0.200654  0.586300  1
  O  O59  1  0.885646  0.395681  0.086300  1
  O  O60  1  0.799346  0.885646  0.989965  1
  O  O61  1  0.614354  0.700654  0.510035  1
  O  O62  1  0.299346  0.309381  0.913700  1
  O  O63  1  0.690619  0.086300  0.700654  1
  O  O64  1  0.989965  0.690619  0.104319  1
  O  O65  1  0.190619  0.489965  0.604319  1
  O  O66  1  0.614354  0.413700  0.104319  1
  O  O67  1  0.604319  0.913700  0.114354  1
  O  O68  1  0.385646  0.586300  0.895681  1
  O  O69  1  0.913700  0.299346  0.309381  1
  O  O70  1  0.586300  0.895681  0.385646  1
  O  O71  1  0.895681  0.385646  0.586300  1
  O  O72  1  0.309381  0.895681  0.010035  1
  O  O73  1  0.489965  0.385646  0.299346  1
  O  O74  1  0.989965  0.799346  0.885646  1
  O  O75  1  0.489965  0.604319  0.190619  1
  O  O76  1  0.086300  0.885646  0.395681  1
  O  O77  1  0.395681  0.086300  0.885646  1
  O  O78  1  0.200654  0.114354  0.010035  1
  O  O79  1  0.913700  0.114354  0.604319  1
