# generated using pymatgen
data_CaBiClO2
_symmetry_space_group_name_H-M   'P 1'
_cell_length_a   6.51339761
_cell_length_b   4.17146236
_cell_length_c   7.82548682
_cell_angle_alpha   90.00000000
_cell_angle_beta   104.78454585
_cell_angle_gamma   90.00000000
_symmetry_Int_Tables_number   1
_chemical_formula_structural   CaBiClO2
_chemical_formula_sum   'Ca2 Bi2 Cl2 O4'
_cell_volume   205.58213158
_cell_formula_units_Z   2
loop_
 _symmetry_equiv_pos_site_id
 _symmetry_equiv_pos_as_xyz
  1  'x, y, z'
loop_
 _atom_site_type_symbol
 _atom_site_label
 _atom_site_symmetry_multiplicity
 _atom_site_fract_x
 _atom_site_fract_y
 _atom_site_fract_z
 _atom_site_occupancy
  Ca  Ca0  1  0.670650  0.250000  0.921242  1
  Ca  Ca1  1  0.329350  0.750000  0.078758  1
  Bi  Bi2  1  0.675743  0.250000  0.407149  1
  Bi  Bi3  1  0.324257  0.750000  0.592851  1
  Cl  Cl4  1  0.055550  0.250000  0.815031  1
  Cl  Cl5  1  0.944450  0.750000  0.184969  1
  O  O6  1  0.529104  0.750000  0.401942  1
  O  O7  1  0.470896  0.250000  0.598058  1
  O  O8  1  0.511356  0.750000  0.857195  1
  O  O9  1  0.488644  0.250000  0.142805  1
