# generated using pymatgen
data_CaCuAsHO5
_symmetry_space_group_name_H-M   'P 1'
_cell_length_a   5.88755764
_cell_length_b   7.43266400
_cell_length_c   9.49257048
_cell_angle_alpha   90.00000000
_cell_angle_beta   90.00000000
_cell_angle_gamma   90.00000000
_symmetry_Int_Tables_number   1
_chemical_formula_structural   CaCuAsHO5
_chemical_formula_sum   'Ca4 Cu4 As4 H4 O20'
_cell_volume   415.39714077
_cell_formula_units_Z   4
loop_
 _symmetry_equiv_pos_site_id
 _symmetry_equiv_pos_as_xyz
  1  'x, y, z'
loop_
 _atom_site_type_symbol
 _atom_site_label
 _atom_site_symmetry_multiplicity
 _atom_site_fract_x
 _atom_site_fract_y
 _atom_site_fract_z
 _atom_site_occupancy
  Ca  Ca0  1  0.020020  0.133155  0.679189  1
  Ca  Ca1  1  0.520020  0.366845  0.320811  1
  Ca  Ca2  1  0.979980  0.633155  0.820811  1
  Ca  Ca3  1  0.479980  0.866845  0.179189  1
  Cu  Cu4  1  0.751429  0.753368  0.500772  1
  Cu  Cu5  1  0.251429  0.746632  0.499228  1
  Cu  Cu6  1  0.248571  0.253368  0.999228  1
  Cu  Cu7  1  0.748571  0.246632  0.000772  1
  As  As8  1  0.485431  0.381338  0.663536  1
  As  As9  1  0.985431  0.118662  0.336464  1
  As  As10  1  0.514569  0.881338  0.836464  1
  As  As11  1  0.014569  0.618662  0.163536  1
  H  H12  1  0.489112  0.008715  0.483336  1
  H  H13  1  0.989112  0.491285  0.516664  1
  H  H14  1  0.510888  0.508715  0.016664  1
  H  H15  1  0.010888  0.991285  0.983336  1
  O  O16  1  0.504718  0.562093  0.541843  1
  O  O17  1  0.004718  0.937907  0.458157  1
  O  O18  1  0.495282  0.062093  0.958157  1
  O  O19  1  0.995282  0.437907  0.041843  1
  O  O20  1  0.415656  0.206932  0.552637  1
  O  O21  1  0.915656  0.293068  0.447363  1
  O  O22  1  0.584344  0.706932  0.947363  1
  O  O23  1  0.084344  0.793068  0.052637  1
  O  O24  1  0.254685  0.398612  0.773906  1
  O  O25  1  0.754685  0.101388  0.226094  1
  O  O26  1  0.745315  0.898612  0.726094  1
  O  O27  1  0.245315  0.601388  0.273906  1
  O  O28  1  0.738150  0.362947  0.752129  1
  O  O29  1  0.238150  0.137053  0.247871  1
  O  O30  1  0.261850  0.862947  0.747871  1
  O  O31  1  0.761850  0.637053  0.252129  1
  O  O32  1  0.499148  0.890438  0.432882  1
  O  O33  1  0.999148  0.609562  0.567118  1
  O  O34  1  0.500852  0.390438  0.067118  1
  O  O35  1  0.000852  0.109562  0.932882  1
