# generated using pymatgen
data_Na2Hg3S4
_symmetry_space_group_name_H-M   'P 1'
_cell_length_a   7.58126621
_cell_length_b   8.44157887
_cell_length_c   14.24905526
_cell_angle_alpha   90.00000000
_cell_angle_beta   90.00000000
_cell_angle_gamma   90.00000000
_symmetry_Int_Tables_number   1
_chemical_formula_structural   Na2Hg3S4
_chemical_formula_sum   'Na8 Hg12 S16'
_cell_volume   911.90899587
_cell_formula_units_Z   4
loop_
 _symmetry_equiv_pos_site_id
 _symmetry_equiv_pos_as_xyz
  1  'x, y, z'
loop_
 _atom_site_type_symbol
 _atom_site_label
 _atom_site_symmetry_multiplicity
 _atom_site_fract_x
 _atom_site_fract_y
 _atom_site_fract_z
 _atom_site_occupancy
  Na  Na0  1  0.435315  0.618096  0.606780  1
  Na  Na1  1  0.935315  0.381904  0.893220  1
  Na  Na2  1  0.064685  0.118096  0.393220  1
  Na  Na3  1  0.564685  0.881904  0.106780  1
  Na  Na4  1  0.564685  0.381904  0.393220  1
  Na  Na5  1  0.064685  0.618096  0.106780  1
  Na  Na6  1  0.935315  0.881904  0.606780  1
  Na  Na7  1  0.435315  0.118096  0.893220  1
  Hg  Hg8  1  0.269815  0.778041  0.306509  1
  Hg  Hg9  1  0.769815  0.221959  0.193491  1
  Hg  Hg10  1  0.230185  0.278041  0.693491  1
  Hg  Hg11  1  0.730185  0.721959  0.806509  1
  Hg  Hg12  1  0.730185  0.221959  0.693491  1
  Hg  Hg13  1  0.230185  0.778041  0.806509  1
  Hg  Hg14  1  0.769815  0.721959  0.306509  1
  Hg  Hg15  1  0.269815  0.278041  0.193491  1
  Hg  Hg16  1  0.500000  0.000000  0.500000  1
  Hg  Hg17  1  0.000000  0.000000  0.000000  1
  Hg  Hg18  1  0.000000  0.500000  0.500000  1
  Hg  Hg19  1  0.500000  0.500000  0.000000  1
  S  S20  1  0.739490  0.653534  0.482729  1
  S  S21  1  0.239490  0.346466  0.017271  1
  S  S22  1  0.760510  0.153534  0.517271  1
  S  S23  1  0.260510  0.846466  0.982729  1
  S  S24  1  0.260510  0.346466  0.517271  1
  S  S25  1  0.760510  0.653534  0.982729  1
  S  S26  1  0.239490  0.846466  0.482729  1
  S  S27  1  0.739490  0.153534  0.017271  1
  S  S28  1  0.509635  0.893399  0.731552  1
  S  S29  1  0.009635  0.106601  0.768448  1
  S  S30  1  0.990365  0.393399  0.268448  1
  S  S31  1  0.490365  0.606601  0.231552  1
  S  S32  1  0.490365  0.106601  0.268448  1
  S  S33  1  0.990365  0.893399  0.231552  1
  S  S34  1  0.009635  0.606601  0.731552  1
  S  S35  1  0.509635  0.393399  0.768448  1
