# generated using pymatgen
data_Li2ZrF6
_symmetry_space_group_name_H-M   'P 1'
_cell_length_a   7.55354352
_cell_length_b   5.03586436
_cell_length_c   11.15265347
_cell_angle_alpha   90.00000000
_cell_angle_beta   107.02428775
_cell_angle_gamma   90.00000000
_symmetry_Int_Tables_number   1
_chemical_formula_structural   Li2ZrF6
_chemical_formula_sum   'Li8 Zr4 F24'
_cell_volume   405.64203845
_cell_formula_units_Z   4
loop_
 _symmetry_equiv_pos_site_id
 _symmetry_equiv_pos_as_xyz
  1  'x, y, z'
loop_
 _atom_site_type_symbol
 _atom_site_label
 _atom_site_symmetry_multiplicity
 _atom_site_fract_x
 _atom_site_fract_y
 _atom_site_fract_z
 _atom_site_occupancy
  Li  Li0  1  0.410355  0.493049  0.306800  1
  Li  Li1  1  0.589645  0.993049  0.193200  1
  Li  Li2  1  0.589645  0.506951  0.693200  1
  Li  Li3  1  0.410355  0.006951  0.806800  1
  Li  Li4  1  0.038369  0.026271  0.163168  1
  Li  Li5  1  0.961631  0.526271  0.336832  1
  Li  Li6  1  0.961631  0.973729  0.836832  1
  Li  Li7  1  0.038369  0.473729  0.663168  1
  Zr  Zr8  1  0.253883  0.487292  0.000969  1
  Zr  Zr9  1  0.746117  0.987292  0.499031  1
  Zr  Zr10  1  0.746117  0.512708  0.999031  1
  Zr  Zr11  1  0.253883  0.012708  0.500969  1
  F  F12  1  0.455293  0.810835  0.429620  1
  F  F13  1  0.544707  0.310835  0.070380  1
  F  F14  1  0.544707  0.189165  0.570380  1
  F  F15  1  0.455293  0.689165  0.929620  1
  F  F16  1  0.103731  0.642046  0.827201  1
  F  F17  1  0.896269  0.142046  0.672799  1
  F  F18  1  0.896269  0.357954  0.172799  1
  F  F19  1  0.103731  0.857954  0.327201  1
  F  F20  1  0.047723  0.776761  0.546393  1
  F  F21  1  0.952277  0.276761  0.953607  1
  F  F22  1  0.952277  0.223239  0.453607  1
  F  F23  1  0.047723  0.723239  0.046393  1
  F  F24  1  0.400030  0.782549  0.655995  1
  F  F25  1  0.599970  0.282549  0.844005  1
  F  F26  1  0.599970  0.217451  0.344005  1
  F  F27  1  0.400030  0.717451  0.155995  1
  F  F28  1  0.245261  0.350017  0.397025  1
  F  F29  1  0.754739  0.850017  0.102975  1
  F  F30  1  0.754739  0.649983  0.602975  1
  F  F31  1  0.245261  0.149983  0.897025  1
  F  F32  1  0.248897  0.251487  0.649290  1
  F  F33  1  0.751103  0.751487  0.850710  1
  F  F34  1  0.751103  0.748513  0.350710  1
  F  F35  1  0.248897  0.248513  0.149290  1
