# generated using pymatgen
data_LiY6B3O14
_symmetry_space_group_name_H-M   'P 1'
_cell_length_a   8.43057165
_cell_length_b   15.63134411
_cell_length_c   12.06558201
_cell_angle_alpha   90.00000000
_cell_angle_beta   132.44308224
_cell_angle_gamma   90.00000000
_symmetry_Int_Tables_number   1
_chemical_formula_structural   LiY6B3O14
_chemical_formula_sum   'Li4 Y24 B12 O56'
_cell_volume   1173.34964296
_cell_formula_units_Z   4
loop_
 _symmetry_equiv_pos_site_id
 _symmetry_equiv_pos_as_xyz
  1  'x, y, z'
loop_
 _atom_site_type_symbol
 _atom_site_label
 _atom_site_symmetry_multiplicity
 _atom_site_fract_x
 _atom_site_fract_y
 _atom_site_fract_z
 _atom_site_occupancy
  Li  Li0  1  0.883619  0.894205  0.063765  1
  Li  Li1  1  0.116381  0.105795  0.936235  1
  Li  Li2  1  0.116381  0.394205  0.436235  1
  Li  Li3  1  0.883619  0.605795  0.563765  1
  Y  Y4  1  0.412502  0.666324  0.834920  1
  Y  Y5  1  0.014942  0.826413  0.556129  1
  Y  Y6  1  0.451232  0.178314  0.307321  1
  Y  Y7  1  0.664690  0.513444  0.716262  1
  Y  Y8  1  0.548768  0.821686  0.692679  1
  Y  Y9  1  0.147024  0.644239  0.424234  1
  Y  Y10  1  0.548768  0.678314  0.192679  1
  Y  Y11  1  0.412502  0.833676  0.334920  1
  Y  Y12  1  0.852976  0.355761  0.575766  1
  Y  Y13  1  0.451232  0.321686  0.807321  1
  Y  Y14  1  0.147024  0.855761  0.924234  1
  Y  Y15  1  0.335310  0.013444  0.783738  1
  Y  Y16  1  0.664690  0.986556  0.216262  1
  Y  Y17  1  0.239252  0.503773  0.938765  1
  Y  Y18  1  0.852976  0.144239  0.075766  1
  Y  Y19  1  0.985058  0.326413  0.943871  1
  Y  Y20  1  0.985058  0.173587  0.443871  1
  Y  Y21  1  0.760748  0.496227  0.061235  1
  Y  Y22  1  0.587498  0.166324  0.665080  1
  Y  Y23  1  0.014942  0.673587  0.056129  1
  Y  Y24  1  0.760748  0.003773  0.561235  1
  Y  Y25  1  0.239252  0.996227  0.438765  1
  Y  Y26  1  0.587498  0.333676  0.165080  1
  Y  Y27  1  0.335310  0.486556  0.283738  1
  B  B28  1  0.955915  0.808054  0.277778  1
  B  B29  1  0.543112  0.672574  0.471738  1
  B  B30  1  0.456888  0.327426  0.528262  1
  B  B31  1  0.211137  0.000139  0.145619  1
  B  B32  1  0.543112  0.827426  0.971738  1
  B  B33  1  0.955915  0.691946  0.777778  1
  B  B34  1  0.456888  0.172574  0.028262  1
  B  B35  1  0.211137  0.499861  0.645619  1
  B  B36  1  0.044085  0.308054  0.222222  1
  B  B37  1  0.788863  0.500139  0.354381  1
  B  B38  1  0.788863  0.999861  0.854381  1
  B  B39  1  0.044085  0.191946  0.722222  1
  O  O40  1  0.051269  0.394170  0.199484  1
  O  O41  1  0.849051  0.585318  0.381277  1
  O  O42  1  0.150949  0.414682  0.618723  1
  O  O43  1  0.556108  0.269210  0.504603  1
  O  O44  1  0.443892  0.730790  0.495397  1
  O  O45  1  0.363102  0.205665  0.078881  1
  O  O46  1  0.531903  0.586961  0.492160  1
  O  O47  1  0.697238  0.035030  0.906826  1
  O  O48  1  0.526531  0.909886  0.536346  1
  O  O49  1  0.181154  0.550963  0.723007  1
  O  O50  1  0.297898  0.098172  0.604755  1
  O  O51  1  0.047151  0.776771  0.224319  1
  O  O52  1  0.468097  0.413039  0.507840  1
  O  O53  1  0.531903  0.913039  0.992160  1
  O  O54  1  0.952849  0.276771  0.275681  1
  O  O55  1  0.118983  0.249838  0.177976  1
  O  O56  1  0.881017  0.750162  0.822024  1
  O  O57  1  0.636898  0.794335  0.921119  1
  O  O58  1  0.302762  0.964970  0.093174  1
  O  O59  1  0.526531  0.590114  0.036346  1
  O  O60  1  0.065169  0.579801  0.223016  1
  O  O61  1  0.047151  0.723229  0.724319  1
  O  O62  1  0.363102  0.294335  0.578881  1
  O  O63  1  0.473469  0.090114  0.463654  1
  O  O64  1  0.181154  0.949037  0.223007  1
  O  O65  1  0.556108  0.230790  0.004603  1
  O  O66  1  0.818846  0.449037  0.276993  1
  O  O67  1  0.948731  0.894170  0.300516  1
  O  O68  1  0.065169  0.920199  0.723016  1
  O  O69  1  0.849051  0.914682  0.881277  1
  O  O70  1  0.118983  0.250162  0.677976  1
  O  O71  1  0.934831  0.420199  0.776984  1
  O  O72  1  0.702102  0.901828  0.395245  1
  O  O73  1  0.713910  0.414991  0.875138  1
  O  O74  1  0.286090  0.585009  0.124862  1
  O  O75  1  0.273477  0.767847  0.121904  1
  O  O76  1  0.948731  0.605830  0.800516  1
  O  O77  1  0.702102  0.598172  0.895245  1
  O  O78  1  0.818846  0.050963  0.776993  1
  O  O79  1  0.636898  0.705665  0.421119  1
  O  O80  1  0.881017  0.749838  0.322024  1
  O  O81  1  0.726523  0.232153  0.878096  1
  O  O82  1  0.273477  0.732153  0.621904  1
  O  O83  1  0.726523  0.267847  0.378096  1
  O  O84  1  0.286090  0.914991  0.624862  1
  O  O85  1  0.297898  0.401828  0.104755  1
  O  O86  1  0.051269  0.105830  0.699484  1
  O  O87  1  0.697238  0.464970  0.406826  1
  O  O88  1  0.473469  0.409886  0.963654  1
  O  O89  1  0.302762  0.535030  0.593174  1
  O  O90  1  0.934831  0.079801  0.276984  1
  O  O91  1  0.443892  0.769210  0.995397  1
  O  O92  1  0.150949  0.085318  0.118723  1
  O  O93  1  0.468097  0.086961  0.007840  1
  O  O94  1  0.713910  0.085009  0.375138  1
  O  O95  1  0.952849  0.223229  0.775681  1
