# generated using pymatgen
data_Ba5Re3NO18
_symmetry_space_group_name_H-M   'P 1'
_cell_length_a   11.46720643
_cell_length_b   11.46720643
_cell_length_c   7.81434988
_cell_angle_alpha   90.00000000
_cell_angle_beta   90.00000000
_cell_angle_gamma   120.00000000
_symmetry_Int_Tables_number   1
_chemical_formula_structural   Ba5Re3NO18
_chemical_formula_sum   'Ba10 Re6 N2 O36'
_cell_volume   889.89495664
_cell_formula_units_Z   2
loop_
 _symmetry_equiv_pos_site_id
 _symmetry_equiv_pos_as_xyz
  1  'x, y, z'
loop_
 _atom_site_type_symbol
 _atom_site_label
 _atom_site_symmetry_multiplicity
 _atom_site_fract_x
 _atom_site_fract_y
 _atom_site_fract_z
 _atom_site_occupancy
  Ba  Ba0  1  0.279269  0.279269  0.252137  1
  Ba  Ba1  1  0.000000  0.720731  0.252137  1
  Ba  Ba2  1  0.666667  0.333333  0.503271  1
  Ba  Ba3  1  0.720731  0.000000  0.252137  1
  Ba  Ba4  1  0.000000  0.279269  0.752137  1
  Ba  Ba5  1  0.333333  0.666667  0.503271  1
  Ba  Ba6  1  0.666667  0.333333  0.003271  1
  Ba  Ba7  1  0.279269  0.000000  0.752137  1
  Ba  Ba8  1  0.333333  0.666667  0.003271  1
  Ba  Ba9  1  0.720731  0.720731  0.752137  1
  Re  Re10  1  0.395628  0.395628  0.802355  1
  Re  Re11  1  0.000000  0.395628  0.302355  1
  Re  Re12  1  0.395628  0.000000  0.302355  1
  Re  Re13  1  0.604372  0.000000  0.802355  1
  Re  Re14  1  0.000000  0.604372  0.802355  1
  Re  Re15  1  0.604372  0.604372  0.302355  1
  N  N16  1  0.000000  0.000000  0.438769  1
  N  N17  1  0.000000  0.000000  0.938769  1
  O  O18  1  0.695091  0.000000  0.620064  1
  O  O19  1  0.449603  0.872384  0.261037  1
  O  O20  1  0.870976  0.268072  0.444262  1
  O  O21  1  0.397096  0.268072  0.944262  1
  O  O22  1  0.889494  0.889494  0.436742  1
  O  O23  1  0.422781  0.550397  0.261037  1
  O  O24  1  0.000000  0.889494  0.936742  1
  O  O25  1  0.000000  0.110506  0.436742  1
  O  O26  1  0.577219  0.127616  0.261037  1
  O  O27  1  0.731928  0.129024  0.944262  1
  O  O28  1  0.872384  0.422781  0.761037  1
  O  O29  1  0.449603  0.577219  0.761037  1
  O  O30  1  0.695091  0.695091  0.120064  1
  O  O31  1  0.127616  0.577219  0.261037  1
  O  O32  1  0.000000  0.695091  0.620064  1
  O  O33  1  0.129024  0.731928  0.944262  1
  O  O34  1  0.889494  0.000000  0.936742  1
  O  O35  1  0.872384  0.449603  0.261037  1
  O  O36  1  0.127616  0.550397  0.761037  1
  O  O37  1  0.268072  0.397096  0.944262  1
  O  O38  1  0.268072  0.870976  0.444262  1
  O  O39  1  0.129024  0.397096  0.444262  1
  O  O40  1  0.304909  0.000000  0.120064  1
  O  O41  1  0.397096  0.129024  0.444262  1
  O  O42  1  0.602904  0.731928  0.444262  1
  O  O43  1  0.422781  0.872384  0.761037  1
  O  O44  1  0.110506  0.000000  0.436742  1
  O  O45  1  0.577219  0.449603  0.761037  1
  O  O46  1  0.602904  0.870976  0.944262  1
  O  O47  1  0.550397  0.422781  0.261037  1
  O  O48  1  0.110506  0.110506  0.936742  1
  O  O49  1  0.000000  0.304909  0.120064  1
  O  O50  1  0.550397  0.127616  0.761037  1
  O  O51  1  0.731928  0.602904  0.444262  1
  O  O52  1  0.870976  0.602904  0.944262  1
  O  O53  1  0.304909  0.304909  0.620064  1
