# generated using pymatgen
data_MgMo2O7
_symmetry_space_group_name_H-M   'P 1'
_cell_length_a   8.28940500
_cell_length_b   5.79234456
_cell_length_c   15.48288813
_cell_angle_alpha   90.00000000
_cell_angle_beta   114.91288274
_cell_angle_gamma   90.00000000
_symmetry_Int_Tables_number   1
_chemical_formula_structural   MgMo2O7
_chemical_formula_sum   'Mg4 Mo8 O28'
_cell_volume   674.23725169
_cell_formula_units_Z   4
loop_
 _symmetry_equiv_pos_site_id
 _symmetry_equiv_pos_as_xyz
  1  'x, y, z'
loop_
 _atom_site_type_symbol
 _atom_site_label
 _atom_site_symmetry_multiplicity
 _atom_site_fract_x
 _atom_site_fract_y
 _atom_site_fract_z
 _atom_site_occupancy
  Mg  Mg0  1  0.011767  0.627097  0.409232  1
  Mg  Mg1  1  0.988233  0.127097  0.090768  1
  Mg  Mg2  1  0.988233  0.372903  0.590768  1
  Mg  Mg3  1  0.011767  0.872903  0.909232  1
  Mo  Mo4  1  0.291352  0.863777  0.625713  1
  Mo  Mo5  1  0.291352  0.636223  0.125713  1
  Mo  Mo6  1  0.708648  0.136223  0.374287  1
  Mo  Mo7  1  0.708648  0.363777  0.874287  1
  Mo  Mo8  1  0.246298  0.126214  0.361048  1
  Mo  Mo9  1  0.753702  0.626214  0.138952  1
  Mo  Mo10  1  0.753702  0.873786  0.638952  1
  Mo  Mo11  1  0.246298  0.373786  0.861048  1
  O  O12  1  0.648609  0.179738  0.254296  1
  O  O13  1  0.351391  0.679738  0.245704  1
  O  O14  1  0.351391  0.820262  0.745704  1
  O  O15  1  0.648609  0.320262  0.754296  1
  O  O16  1  0.861175  0.367249  0.437697  1
  O  O17  1  0.138825  0.867249  0.062303  1
  O  O18  1  0.138825  0.632751  0.562303  1
  O  O19  1  0.861175  0.132751  0.937697  1
  O  O20  1  0.823530  0.871408  0.404460  1
  O  O21  1  0.176470  0.371408  0.095540  1
  O  O22  1  0.176470  0.128592  0.595540  1
  O  O23  1  0.823530  0.628592  0.904460  1
  O  O24  1  0.188847  0.611189  0.915300  1
  O  O25  1  0.811153  0.111189  0.584700  1
  O  O26  1  0.811153  0.388811  0.084700  1
  O  O27  1  0.188847  0.888811  0.415300  1
  O  O28  1  0.117840  0.384829  0.737343  1
  O  O29  1  0.882160  0.884829  0.762657  1
  O  O30  1  0.882160  0.615171  0.262657  1
  O  O31  1  0.117840  0.115171  0.237343  1
  O  O32  1  0.494340  0.128684  0.393081  1
  O  O33  1  0.809777  0.620406  0.595404  1
  O  O34  1  0.809777  0.879594  0.095404  1
  O  O35  1  0.190223  0.379594  0.404596  1
  O  O36  1  0.494340  0.371316  0.893081  1
  O  O37  1  0.505660  0.871316  0.606919  1
  O  O38  1  0.505660  0.628684  0.106919  1
  O  O39  1  0.190223  0.120406  0.904596  1
