# generated using pymatgen
data_P4O9
_symmetry_space_group_name_H-M   'P 1'
_cell_length_a   10.45276121
_cell_length_b   10.45276121
_cell_length_c   10.45276121
_cell_angle_alpha   57.78498287
_cell_angle_beta   57.78498287
_cell_angle_gamma   57.78498287
_symmetry_Int_Tables_number   1
_chemical_formula_structural   P4O9
_chemical_formula_sum   'P16 O36'
_cell_volume   766.48656711
_cell_formula_units_Z   4
loop_
 _symmetry_equiv_pos_site_id
 _symmetry_equiv_pos_as_xyz
  1  'x, y, z'
loop_
 _atom_site_type_symbol
 _atom_site_label
 _atom_site_symmetry_multiplicity
 _atom_site_fract_x
 _atom_site_fract_y
 _atom_site_fract_z
 _atom_site_occupancy
  P  P0  1  0.422778  0.422778  0.422778  1
  P  P1  1  0.077222  0.077222  0.077222  1
  P  P2  1  0.577222  0.577222  0.577222  1
  P  P3  1  0.922778  0.922778  0.922778  1
  P  P4  1  0.272802  0.514047  0.203646  1
  P  P5  1  0.203646  0.272802  0.514047  1
  P  P6  1  0.514047  0.203646  0.272802  1
  P  P7  1  0.296354  0.985953  0.227198  1
  P  P8  1  0.227198  0.296354  0.985953  1
  P  P9  1  0.985953  0.227198  0.296354  1
  P  P10  1  0.727198  0.485953  0.796354  1
  P  P11  1  0.796354  0.727198  0.485953  1
  P  P12  1  0.485953  0.796354  0.727198  1
  P  P13  1  0.703646  0.014047  0.772802  1
  P  P14  1  0.772802  0.703646  0.014047  1
  P  P15  1  0.014047  0.772802  0.703646  1
  O  O16  1  0.340598  0.555849  0.276982  1
  O  O17  1  0.276982  0.340598  0.555849  1
  O  O18  1  0.555849  0.276982  0.340598  1
  O  O19  1  0.223018  0.944151  0.159402  1
  O  O20  1  0.159402  0.223018  0.944151  1
  O  O21  1  0.944151  0.159402  0.223018  1
  O  O22  1  0.659402  0.444151  0.723018  1
  O  O23  1  0.723018  0.659402  0.444151  1
  O  O24  1  0.444151  0.723018  0.659402  1
  O  O25  1  0.776982  0.055849  0.840598  1
  O  O26  1  0.840598  0.776982  0.055849  1
  O  O27  1  0.055849  0.840598  0.776982  1
  O  O28  1  0.424240  0.362348  0.149797  1
  O  O29  1  0.149797  0.424240  0.362348  1
  O  O30  1  0.362348  0.149797  0.424240  1
  O  O31  1  0.350203  0.137652  0.075760  1
  O  O32  1  0.075760  0.350203  0.137652  1
  O  O33  1  0.137652  0.075760  0.350203  1
  O  O34  1  0.575760  0.637652  0.850203  1
  O  O35  1  0.850203  0.575760  0.637652  1
  O  O36  1  0.637652  0.850203  0.575760  1
  O  O37  1  0.649797  0.862348  0.924240  1
  O  O38  1  0.924240  0.649797  0.862348  1
  O  O39  1  0.862348  0.924240  0.649797  1
  O  O40  1  0.207770  0.642666  0.076994  1
  O  O41  1  0.076994  0.207770  0.642666  1
  O  O42  1  0.642666  0.076994  0.207770  1
  O  O43  1  0.423006  0.857334  0.292230  1
  O  O44  1  0.292230  0.423006  0.857334  1
  O  O45  1  0.857334  0.292230  0.423006  1
  O  O46  1  0.792230  0.357334  0.923006  1
  O  O47  1  0.923006  0.792230  0.357334  1
  O  O48  1  0.357334  0.923006  0.792230  1
  O  O49  1  0.576994  0.142666  0.707770  1
  O  O50  1  0.707770  0.576994  0.142666  1
  O  O51  1  0.142666  0.707770  0.576994  1
