# generated using pymatgen
data_FeBi3(MoO6)2
_symmetry_space_group_name_H-M   'P 1'
_cell_length_a   10.41314593
_cell_length_b   10.41314593
_cell_length_c   5.34780069
_cell_angle_alpha   75.58855762
_cell_angle_beta   104.41144238
_cell_angle_gamma   110.74789663
_symmetry_Int_Tables_number   1
_chemical_formula_structural   FeBi3(MoO6)2
_chemical_formula_sum   'Fe2 Bi6 Mo4 O24'
_cell_volume   516.87687164
_cell_formula_units_Z   2
loop_
 _symmetry_equiv_pos_site_id
 _symmetry_equiv_pos_as_xyz
  1  'x, y, z'
loop_
 _atom_site_type_symbol
 _atom_site_label
 _atom_site_symmetry_multiplicity
 _atom_site_fract_x
 _atom_site_fract_y
 _atom_site_fract_z
 _atom_site_occupancy
  Fe  Fe0  1  0.881908  0.881908  0.750000  1
  Fe  Fe1  1  0.118092  0.118092  0.250000  1
  Bi  Bi2  1  0.039557  0.735688  0.410034  1
  Bi  Bi3  1  0.344142  0.344142  0.750000  1
  Bi  Bi4  1  0.655858  0.655858  0.250000  1
  Bi  Bi5  1  0.960443  0.264312  0.589966  1
  Bi  Bi6  1  0.264312  0.960443  0.910034  1
  Bi  Bi7  1  0.735688  0.039557  0.089966  1
  Mo  Mo8  1  0.460206  0.796498  0.575621  1
  Mo  Mo9  1  0.203502  0.539794  0.075621  1
  Mo  Mo10  1  0.539794  0.203502  0.424379  1
  Mo  Mo11  1  0.796498  0.460206  0.924379  1
  O  O12  1  0.070863  0.504346  0.262958  1
  O  O13  1  0.593723  0.825245  0.376910  1
  O  O14  1  0.870603  0.046338  0.492361  1
  O  O15  1  0.362070  0.542845  0.303054  1
  O  O16  1  0.153480  0.253081  0.470651  1
  O  O17  1  0.825245  0.593723  0.123090  1
  O  O18  1  0.746919  0.846520  0.970651  1
  O  O19  1  0.637930  0.457155  0.696946  1
  O  O20  1  0.929137  0.495654  0.737042  1
  O  O21  1  0.788545  0.294572  0.141735  1
  O  O22  1  0.174755  0.406277  0.876910  1
  O  O23  1  0.504346  0.070863  0.237042  1
  O  O24  1  0.846520  0.746919  0.529349  1
  O  O25  1  0.129397  0.953662  0.507639  1
  O  O26  1  0.211455  0.705428  0.858265  1
  O  O27  1  0.542845  0.362070  0.196946  1
  O  O28  1  0.294572  0.788545  0.358265  1
  O  O29  1  0.406277  0.174755  0.623090  1
  O  O30  1  0.253081  0.153480  0.029349  1
  O  O31  1  0.457155  0.637930  0.803054  1
  O  O32  1  0.495654  0.929137  0.762958  1
  O  O33  1  0.046338  0.870603  0.007639  1
  O  O34  1  0.953662  0.129397  0.992361  1
  O  O35  1  0.705428  0.211455  0.641735  1
