# generated using pymatgen
data_CaP2H20C4(N2O3)4
_symmetry_space_group_name_H-M   'P 1'
_cell_length_a   5.67911663
_cell_length_b   21.95284701
_cell_length_c   9.31359168
_cell_angle_alpha   90.00000000
_cell_angle_beta   126.89770748
_cell_angle_gamma   90.00000000
_symmetry_Int_Tables_number   1
_chemical_formula_structural   CaP2H20C4(N2O3)4
_chemical_formula_sum   'Ca2 P4 H40 C8 N16 O24'
_cell_volume   928.58281760
_cell_formula_units_Z   2
loop_
 _symmetry_equiv_pos_site_id
 _symmetry_equiv_pos_as_xyz
  1  'x, y, z'
loop_
 _atom_site_type_symbol
 _atom_site_label
 _atom_site_symmetry_multiplicity
 _atom_site_fract_x
 _atom_site_fract_y
 _atom_site_fract_z
 _atom_site_occupancy
  Ca  Ca0  1  0.000000  0.000000  0.000000  1
  Ca  Ca1  1  0.000000  0.500000  0.500000  1
  P  P2  1  0.607319  0.909577  0.111597  1
  P  P3  1  0.392681  0.409577  0.388403  1
  P  P4  1  0.392681  0.090423  0.888403  1
  P  P5  1  0.607319  0.590423  0.611597  1
  H  H6  1  0.640751  0.818979  0.226364  1
  H  H7  1  0.359249  0.318979  0.273636  1
  H  H8  1  0.359249  0.181021  0.773636  1
  H  H9  1  0.640751  0.681021  0.726364  1
  H  H10  1  0.515570  0.903535  0.844454  1
  H  H11  1  0.484430  0.403535  0.655546  1
  H  H12  1  0.484430  0.096465  0.155546  1
  H  H13  1  0.515570  0.596465  0.344454  1
  H  H14  1  0.920456  0.984333  0.645909  1
  H  H15  1  0.079544  0.484333  0.854091  1
  H  H16  1  0.079544  0.015667  0.354091  1
  H  H17  1  0.920456  0.515667  0.145909  1
  H  H18  1  0.691504  0.950420  0.429609  1
  H  H19  1  0.308496  0.450420  0.070391  1
  H  H20  1  0.308496  0.049580  0.570391  1
  H  H21  1  0.691504  0.549580  0.929609  1
  H  H22  1  0.350678  0.880227  0.366409  1
  H  H23  1  0.649322  0.380227  0.133591  1
  H  H24  1  0.649322  0.119773  0.633591  1
  H  H25  1  0.350678  0.619773  0.866409  1
  H  H26  1  0.286601  0.861582  0.519553  1
  H  H27  1  0.713399  0.361582  0.980447  1
  H  H28  1  0.713399  0.138418  0.480447  1
  H  H29  1  0.286601  0.638418  0.019553  1
  H  H30  1  0.092199  0.841886  0.005334  1
  H  H31  1  0.907801  0.341886  0.494666  1
  H  H32  1  0.907801  0.158114  0.994666  1
  H  H33  1  0.092199  0.658114  0.505334  1
  H  H34  1  0.800437  0.789071  0.903230  1
  H  H35  1  0.199563  0.289071  0.596770  1
  H  H36  1  0.199563  0.210929  0.096770  1
  H  H37  1  0.800437  0.710929  0.403230  1
  H  H38  1  0.842575  0.703209  0.050182  1
  H  H39  1  0.157425  0.203209  0.449818  1
  H  H40  1  0.157425  0.296791  0.949818  1
  H  H41  1  0.842575  0.796791  0.550182  1
  H  H42  1  0.182438  0.680154  0.243958  1
  H  H43  1  0.817562  0.180154  0.256042  1
  H  H44  1  0.817562  0.319846  0.756042  1
  H  H45  1  0.182438  0.819846  0.743958  1
  C  C46  1  0.631076  0.920173  0.612687  1
  C  C47  1  0.368924  0.420173  0.887313  1
  C  C48  1  0.368924  0.079827  0.387313  1
  C  C49  1  0.631076  0.579827  0.112687  1
  C  C50  1  0.192286  0.759714  0.132670  1
  C  C51  1  0.807714  0.259714  0.367330  1
  C  C52  1  0.807714  0.240286  0.867330  1
  C  C53  1  0.192286  0.740286  0.632670  1
  N  N54  1  0.771485  0.951751  0.561177  1
  N  N55  1  0.228515  0.451751  0.938823  1
  N  N56  1  0.228515  0.048249  0.438823  1
  N  N57  1  0.771485  0.548249  0.061177  1
  N  N58  1  0.428558  0.878554  0.497294  1
  N  N59  1  0.571442  0.378554  0.002706  1
  N  N60  1  0.571442  0.121446  0.502706  1
  N  N61  1  0.428558  0.621446  0.997294  1
  N  N62  1  0.019459  0.798643  0.995065  1
  N  N63  1  0.980541  0.298643  0.504935  1
  N  N64  1  0.980541  0.201357  0.004935  1
  N  N65  1  0.019459  0.701357  0.495065  1
  N  N66  1  0.065663  0.707358  0.133036  1
  N  N67  1  0.934337  0.207358  0.366964  1
  N  N68  1  0.934337  0.292642  0.866964  1
  N  N69  1  0.065663  0.792642  0.633036  1
  O  O70  1  0.838804  0.956269  0.155419  1
  O  O71  1  0.161196  0.456269  0.344581  1
  O  O72  1  0.161196  0.043731  0.844581  1
  O  O73  1  0.838804  0.543731  0.655419  1
  O  O74  1  0.386303  0.927516  0.146648  1
  O  O75  1  0.613697  0.427516  0.353352  1
  O  O76  1  0.613697  0.072484  0.853352  1
  O  O77  1  0.386303  0.572484  0.646648  1
  O  O78  1  0.772847  0.849374  0.221998  1
  O  O79  1  0.227153  0.349374  0.278002  1
  O  O80  1  0.227153  0.150626  0.778002  1
  O  O81  1  0.772847  0.650626  0.721998  1
  O  O82  1  0.418895  0.891302  0.902552  1
  O  O83  1  0.581105  0.391302  0.597448  1
  O  O84  1  0.581105  0.108698  0.097448  1
  O  O85  1  0.418895  0.608698  0.402552  1
  O  O86  1  0.695819  0.927513  0.769276  1
  O  O87  1  0.304181  0.427513  0.730724  1
  O  O88  1  0.304181  0.072487  0.230724  1
  O  O89  1  0.695819  0.572487  0.269276  1
  O  O90  1  0.464769  0.769907  0.253621  1
  O  O91  1  0.535231  0.269907  0.246379  1
  O  O92  1  0.535231  0.230093  0.746379  1
  O  O93  1  0.464769  0.730093  0.753621  1
