# generated using pymatgen
data_Li2Cr3(P2O7)2
_symmetry_space_group_name_H-M   'P 1'
_cell_length_a   7.39826931
_cell_length_b   8.11352775
_cell_length_c   9.62549163
_cell_angle_alpha   90.00000000
_cell_angle_beta   108.50894997
_cell_angle_gamma   90.00000000
_symmetry_Int_Tables_number   1
_chemical_formula_structural   Li2Cr3(P2O7)2
_chemical_formula_sum   'Li4 Cr6 P8 O28'
_cell_volume   547.89414839
_cell_formula_units_Z   2
loop_
 _symmetry_equiv_pos_site_id
 _symmetry_equiv_pos_as_xyz
  1  'x, y, z'
loop_
 _atom_site_type_symbol
 _atom_site_label
 _atom_site_symmetry_multiplicity
 _atom_site_fract_x
 _atom_site_fract_y
 _atom_site_fract_z
 _atom_site_occupancy
  Li  Li0  1  0.295983  0.581342  0.857238  1
  Li  Li1  1  0.704017  0.081342  0.642762  1
  Li  Li2  1  0.295983  0.918658  0.357238  1
  Li  Li3  1  0.704017  0.418658  0.142762  1
  Cr  Cr4  1  0.805034  0.372887  0.481075  1
  Cr  Cr5  1  0.194966  0.872887  0.018925  1
  Cr  Cr6  1  0.805034  0.127113  0.981075  1
  Cr  Cr7  1  0.000000  0.000000  0.500000  1
  Cr  Cr8  1  0.194966  0.627113  0.518925  1
  Cr  Cr9  1  0.000000  0.500000  0.000000  1
  P  P10  1  0.597352  0.457352  0.717332  1
  P  P11  1  0.890989  0.710291  0.698320  1
  P  P12  1  0.597352  0.042648  0.217332  1
  P  P13  1  0.402648  0.542648  0.282668  1
  P  P14  1  0.890989  0.789709  0.198320  1
  P  P15  1  0.402648  0.957352  0.782668  1
  P  P16  1  0.109011  0.289709  0.301680  1
  P  P17  1  0.109011  0.210291  0.801680  1
  O  O18  1  0.147034  0.120958  0.374888  1
  O  O19  1  0.297825  0.903201  0.625946  1
  O  O20  1  0.313138  0.365142  0.312227  1
  O  O21  1  0.686862  0.634858  0.687773  1
  O  O22  1  0.388544  0.997080  0.193825  1
  O  O23  1  0.611456  0.497080  0.306175  1
  O  O24  1  0.686862  0.865142  0.187773  1
  O  O25  1  0.012476  0.406890  0.380980  1
  O  O26  1  0.702175  0.096799  0.374054  1
  O  O27  1  0.987524  0.906890  0.119020  1
  O  O28  1  0.375616  0.664718  0.396613  1
  O  O29  1  0.611456  0.002920  0.806175  1
  O  O30  1  0.297825  0.596799  0.125946  1
  O  O31  1  0.624384  0.335282  0.603387  1
  O  O32  1  0.005846  0.787362  0.364301  1
  O  O33  1  0.987524  0.593110  0.619020  1
  O  O34  1  0.702175  0.403201  0.874054  1
  O  O35  1  0.005846  0.712638  0.864301  1
  O  O36  1  0.388544  0.502920  0.693825  1
  O  O37  1  0.852966  0.879042  0.625112  1
  O  O38  1  0.994154  0.212638  0.635699  1
  O  O39  1  0.852966  0.620958  0.125112  1
  O  O40  1  0.147034  0.379042  0.874888  1
  O  O41  1  0.375616  0.835282  0.896613  1
  O  O42  1  0.012476  0.093110  0.880980  1
  O  O43  1  0.313138  0.134858  0.812227  1
  O  O44  1  0.624384  0.164718  0.103387  1
  O  O45  1  0.994154  0.287362  0.135699  1
