# generated using pymatgen
data_Cs2Sn(GeO3)3
_symmetry_space_group_name_H-M   'P 1'
_cell_length_a   7.40594663
_cell_length_b   7.40594663
_cell_length_c   10.62795166
_cell_angle_alpha   90.00000000
_cell_angle_beta   90.00000000
_cell_angle_gamma   120.00000000
_symmetry_Int_Tables_number   1
_chemical_formula_structural   Cs2Sn(GeO3)3
_chemical_formula_sum   'Cs4 Sn2 Ge6 O18'
_cell_volume   504.82558666
_cell_formula_units_Z   2
loop_
 _symmetry_equiv_pos_site_id
 _symmetry_equiv_pos_as_xyz
  1  'x, y, z'
loop_
 _atom_site_type_symbol
 _atom_site_label
 _atom_site_symmetry_multiplicity
 _atom_site_fract_x
 _atom_site_fract_y
 _atom_site_fract_z
 _atom_site_occupancy
  Cs  Cs0  1  0.333333  0.666667  0.060078  1
  Cs  Cs1  1  0.666667  0.333333  0.560078  1
  Cs  Cs2  1  0.666667  0.333333  0.939922  1
  Cs  Cs3  1  0.333333  0.666667  0.439922  1
  Sn  Sn4  1  0.000000  0.000000  0.000000  1
  Sn  Sn5  1  0.000000  0.000000  0.500000  1
  Ge  Ge6  1  0.374312  0.233541  0.250000  1
  Ge  Ge7  1  0.140772  0.374312  0.750000  1
  Ge  Ge8  1  0.233541  0.859228  0.750000  1
  Ge  Ge9  1  0.766459  0.140772  0.250000  1
  Ge  Ge10  1  0.859228  0.625688  0.250000  1
  Ge  Ge11  1  0.625688  0.766459  0.750000  1
  O  O12  1  0.494110  0.074701  0.250000  1
  O  O13  1  0.419410  0.494110  0.750000  1
  O  O14  1  0.074701  0.580590  0.750000  1
  O  O15  1  0.925299  0.419410  0.250000  1
  O  O16  1  0.580590  0.505890  0.250000  1
  O  O17  1  0.505890  0.925299  0.750000  1
  O  O18  1  0.247233  0.218303  0.108794  1
  O  O19  1  0.028930  0.247233  0.608794  1
  O  O20  1  0.218303  0.971070  0.608794  1
  O  O21  1  0.781697  0.028930  0.108794  1
  O  O22  1  0.971070  0.752767  0.108794  1
  O  O23  1  0.752767  0.781697  0.608794  1
  O  O24  1  0.752767  0.781697  0.891206  1
  O  O25  1  0.971070  0.752767  0.391206  1
  O  O26  1  0.781697  0.028930  0.391206  1
  O  O27  1  0.218303  0.971070  0.891206  1
  O  O28  1  0.028930  0.247233  0.891206  1
  O  O29  1  0.247233  0.218303  0.391206  1
