# generated using pymatgen
data_RbTb(PO3)4
_symmetry_space_group_name_H-M   'P 1'
_cell_length_a   10.45852947
_cell_length_b   8.99621828
_cell_length_c   12.91241536
_cell_angle_alpha   90.00000000
_cell_angle_beta   124.52351062
_cell_angle_gamma   90.00000000
_symmetry_Int_Tables_number   1
_chemical_formula_structural   RbTb(PO3)4
_chemical_formula_sum   'Rb4 Tb4 P16 O48'
_cell_volume   1000.94284486
_cell_formula_units_Z   4
loop_
 _symmetry_equiv_pos_site_id
 _symmetry_equiv_pos_as_xyz
  1  'x, y, z'
loop_
 _atom_site_type_symbol
 _atom_site_label
 _atom_site_symmetry_multiplicity
 _atom_site_fract_x
 _atom_site_fract_y
 _atom_site_fract_z
 _atom_site_occupancy
  Rb  Rb0  1  0.264538  0.933418  0.458077  1
  Rb  Rb1  1  0.735462  0.066582  0.541923  1
  Rb  Rb2  1  0.735462  0.433418  0.041923  1
  Rb  Rb3  1  0.264538  0.566582  0.958077  1
  Tb  Tb4  1  0.815600  0.773093  0.816957  1
  Tb  Tb5  1  0.184400  0.226907  0.183043  1
  Tb  Tb6  1  0.815600  0.726907  0.316957  1
  Tb  Tb7  1  0.184400  0.273093  0.683043  1
  P  P8  1  0.698583  0.890877  0.022916  1
  P  P9  1  0.175816  0.828457  0.135801  1
  P  P10  1  0.824184  0.328457  0.364199  1
  P  P11  1  0.525757  0.025806  0.777981  1
  P  P12  1  0.698583  0.609123  0.522916  1
  P  P13  1  0.888117  0.407871  0.741288  1
  P  P14  1  0.474243  0.974194  0.222019  1
  P  P15  1  0.525757  0.474194  0.277981  1
  P  P16  1  0.301417  0.390877  0.477084  1
  P  P17  1  0.111883  0.592129  0.258712  1
  P  P18  1  0.175816  0.671543  0.635801  1
  P  P19  1  0.474243  0.525806  0.722019  1
  P  P20  1  0.111883  0.907871  0.758712  1
  P  P21  1  0.824184  0.171543  0.864199  1
  P  P22  1  0.301417  0.109123  0.977084  1
  P  P23  1  0.888117  0.092129  0.241288  1
  O  O24  1  0.336585  0.288313  0.404505  1
  O  O25  1  0.020084  0.176429  0.254622  1
  O  O26  1  0.020084  0.323571  0.754622  1
  O  O27  1  0.778826  0.208534  0.254051  1
  O  O28  1  0.336585  0.211687  0.904505  1
  O  O29  1  0.234052  0.951943  0.903835  1
  O  O30  1  0.429097  0.084869  0.283515  1
  O  O31  1  0.076030  0.040326  0.675771  1
  O  O32  1  0.345239  0.657790  0.658912  1
  O  O33  1  0.979916  0.676429  0.245378  1
  O  O34  1  0.765948  0.451943  0.596165  1
  O  O35  1  0.570903  0.915131  0.716485  1
  O  O36  1  0.663415  0.788313  0.095495  1
  O  O37  1  0.923970  0.540326  0.824229  1
  O  O38  1  0.928883  0.258449  0.490836  1
  O  O39  1  0.866565  0.029214  0.830286  1
  O  O40  1  0.221174  0.708534  0.245949  1
  O  O41  1  0.071117  0.758449  0.009164  1
  O  O42  1  0.367782  0.405739  0.197730  1
  O  O43  1  0.345239  0.842210  0.158912  1
  O  O44  1  0.133435  0.529214  0.669714  1
  O  O45  1  0.429097  0.415131  0.783515  1
  O  O46  1  0.570903  0.584869  0.216485  1
  O  O47  1  0.928883  0.241551  0.990836  1
  O  O48  1  0.539035  0.546761  0.399255  1
  O  O49  1  0.539035  0.953239  0.899255  1
  O  O50  1  0.071117  0.741551  0.509164  1
  O  O51  1  0.201720  0.334376  0.517796  1
  O  O52  1  0.654761  0.157790  0.841088  1
  O  O53  1  0.765948  0.048057  0.096165  1
  O  O54  1  0.979916  0.823571  0.745378  1
  O  O55  1  0.632218  0.594261  0.802270  1
  O  O56  1  0.654761  0.342210  0.341088  1
  O  O57  1  0.367782  0.094261  0.697730  1
  O  O58  1  0.632218  0.905739  0.302270  1
  O  O59  1  0.866565  0.470786  0.330286  1
  O  O60  1  0.798280  0.834376  0.982204  1
  O  O61  1  0.076030  0.459674  0.175771  1
  O  O62  1  0.923970  0.959674  0.324229  1
  O  O63  1  0.201720  0.165624  0.017796  1
  O  O64  1  0.234052  0.548057  0.403835  1
  O  O65  1  0.460965  0.046761  0.100745  1
  O  O66  1  0.663415  0.711687  0.595495  1
  O  O67  1  0.778826  0.291466  0.754051  1
  O  O68  1  0.221174  0.791466  0.745949  1
  O  O69  1  0.460965  0.453239  0.600745  1
  O  O70  1  0.798280  0.665624  0.482204  1
  O  O71  1  0.133435  0.970786  0.169714  1
