# generated using pymatgen
data_AsS(BrF2)3
_symmetry_space_group_name_H-M   'P 1'
_cell_length_a   8.27350552
_cell_length_b   9.60021160
_cell_length_c   12.39208974
_cell_angle_alpha   90.00000000
_cell_angle_beta   96.82359501
_cell_angle_gamma   90.00000000
_symmetry_Int_Tables_number   1
_chemical_formula_structural   AsS(BrF2)3
_chemical_formula_sum   'As4 S4 Br12 F24'
_cell_volume   977.29958808
_cell_formula_units_Z   4
loop_
 _symmetry_equiv_pos_site_id
 _symmetry_equiv_pos_as_xyz
  1  'x, y, z'
loop_
 _atom_site_type_symbol
 _atom_site_label
 _atom_site_symmetry_multiplicity
 _atom_site_fract_x
 _atom_site_fract_y
 _atom_site_fract_z
 _atom_site_occupancy
  As  As0  1  0.710702  0.729182  0.058674  1
  As  As1  1  0.289298  0.270818  0.941326  1
  As  As2  1  0.289298  0.229182  0.441326  1
  As  As3  1  0.710702  0.770818  0.558674  1
  S  S4  1  0.702508  0.298780  0.212533  1
  S  S5  1  0.297492  0.798780  0.287467  1
  S  S6  1  0.702508  0.201220  0.712533  1
  S  S7  1  0.297492  0.701220  0.787467  1
  Br  Br8  1  0.920256  0.198846  0.628371  1
  Br  Br9  1  0.243382  0.559258  0.650091  1
  Br  Br10  1  0.756618  0.440742  0.349909  1
  Br  Br11  1  0.295001  0.907928  0.714851  1
  Br  Br12  1  0.295001  0.592072  0.214851  1
  Br  Br13  1  0.079744  0.698846  0.871629  1
  Br  Br14  1  0.079744  0.801154  0.371629  1
  Br  Br15  1  0.920256  0.301154  0.128371  1
  Br  Br16  1  0.756618  0.059258  0.849909  1
  Br  Br17  1  0.704999  0.407928  0.785149  1
  Br  Br18  1  0.243382  0.940742  0.150091  1
  Br  Br19  1  0.704999  0.092072  0.285149  1
  F  F20  1  0.209341  0.102140  0.966939  1
  F  F21  1  0.761705  0.672536  0.929035  1
  F  F22  1  0.339187  0.213224  0.813659  1
  F  F23  1  0.483147  0.282389  0.504190  1
  F  F24  1  0.238295  0.172536  0.570965  1
  F  F25  1  0.093002  0.177860  0.381890  1
  F  F26  1  0.516853  0.782389  0.995810  1
  F  F27  1  0.093002  0.322140  0.881890  1
  F  F28  1  0.366052  0.438932  0.917684  1
  F  F29  1  0.761705  0.827464  0.429035  1
  F  F30  1  0.660813  0.786776  0.186341  1
  F  F31  1  0.790659  0.897860  0.033061  1
  F  F32  1  0.790659  0.602140  0.533061  1
  F  F33  1  0.209341  0.397860  0.466939  1
  F  F34  1  0.238295  0.327464  0.070965  1
  F  F35  1  0.366052  0.061068  0.417684  1
  F  F36  1  0.483147  0.217611  0.004190  1
  F  F37  1  0.516853  0.717611  0.495810  1
  F  F38  1  0.633948  0.938932  0.582316  1
  F  F39  1  0.660813  0.713224  0.686341  1
  F  F40  1  0.633948  0.561068  0.082316  1
  F  F41  1  0.906998  0.822140  0.618110  1
  F  F42  1  0.906998  0.677860  0.118110  1
  F  F43  1  0.339187  0.286776  0.313659  1
