# generated using pymatgen
data_BiP3Pb4O13
_symmetry_space_group_name_H-M   'P 1'
_cell_length_a   9.66403954
_cell_length_b   10.22793461
_cell_length_c   13.39309407
_cell_angle_alpha   90.00000000
_cell_angle_beta   90.00000000
_cell_angle_gamma   90.00000000
_symmetry_Int_Tables_number   1
_chemical_formula_structural   BiP3Pb4O13
_chemical_formula_sum   'Bi4 P12 Pb16 O52'
_cell_volume   1323.81580010
_cell_formula_units_Z   4
loop_
 _symmetry_equiv_pos_site_id
 _symmetry_equiv_pos_as_xyz
  1  'x, y, z'
loop_
 _atom_site_type_symbol
 _atom_site_label
 _atom_site_symmetry_multiplicity
 _atom_site_fract_x
 _atom_site_fract_y
 _atom_site_fract_z
 _atom_site_occupancy
  Bi  Bi0  1  0.709544  0.250000  0.225227  1
  Bi  Bi1  1  0.290456  0.750000  0.774773  1
  Bi  Bi2  1  0.209544  0.750000  0.274773  1
  Bi  Bi3  1  0.790456  0.250000  0.725227  1
  P  P4  1  0.430386  0.461701  0.326166  1
  P  P5  1  0.930386  0.538299  0.173834  1
  P  P6  1  0.069614  0.461701  0.826166  1
  P  P7  1  0.590808  0.250000  0.013400  1
  P  P8  1  0.090808  0.750000  0.486600  1
  P  P9  1  0.930386  0.961701  0.173834  1
  P  P10  1  0.909192  0.250000  0.513400  1
  P  P11  1  0.430386  0.038299  0.326166  1
  P  P12  1  0.409192  0.750000  0.986600  1
  P  P13  1  0.569614  0.538299  0.673834  1
  P  P14  1  0.069614  0.038299  0.826166  1
  P  P15  1  0.569614  0.961701  0.673834  1
  Pb  Pb16  1  0.138438  0.250000  0.271792  1
  Pb  Pb17  1  0.199950  0.060926  0.565585  1
  Pb  Pb18  1  0.300050  0.439074  0.065585  1
  Pb  Pb19  1  0.527501  0.250000  0.512032  1
  Pb  Pb20  1  0.972499  0.250000  0.012032  1
  Pb  Pb21  1  0.800050  0.939074  0.434415  1
  Pb  Pb22  1  0.800050  0.560926  0.434415  1
  Pb  Pb23  1  0.361562  0.250000  0.771792  1
  Pb  Pb24  1  0.699950  0.560926  0.934415  1
  Pb  Pb25  1  0.472499  0.750000  0.487968  1
  Pb  Pb26  1  0.861562  0.750000  0.728208  1
  Pb  Pb27  1  0.638438  0.750000  0.228208  1
  Pb  Pb28  1  0.699950  0.939074  0.934415  1
  Pb  Pb29  1  0.027501  0.750000  0.987968  1
  Pb  Pb30  1  0.300050  0.060926  0.065585  1
  Pb  Pb31  1  0.199950  0.439074  0.565585  1
  O  O32  1  0.884769  0.581094  0.066949  1
  O  O33  1  0.837699  0.894277  0.252607  1
  O  O34  1  0.127784  0.629895  0.417596  1
  O  O35  1  0.569326  0.750000  0.006260  1
  O  O36  1  0.085715  0.577287  0.186928  1
  O  O37  1  0.414285  0.577287  0.686928  1
  O  O38  1  0.416990  0.613912  0.314530  1
  O  O39  1  0.916990  0.386088  0.185470  1
  O  O40  1  0.372216  0.629895  0.917596  1
  O  O41  1  0.872216  0.129895  0.582404  1
  O  O42  1  0.830725  0.250000  0.413885  1
  O  O43  1  0.884769  0.918906  0.066949  1
  O  O44  1  0.330725  0.750000  0.086115  1
  O  O45  1  0.069326  0.250000  0.493740  1
  O  O46  1  0.115231  0.081094  0.933051  1
  O  O47  1  0.162301  0.394277  0.747393  1
  O  O48  1  0.914285  0.077287  0.813072  1
  O  O49  1  0.585715  0.077287  0.313072  1
  O  O50  1  0.327855  0.250000  0.603142  1
  O  O51  1  0.914285  0.422713  0.813072  1
  O  O52  1  0.115231  0.418906  0.933051  1
  O  O53  1  0.172145  0.250000  0.103142  1
  O  O54  1  0.337699  0.394277  0.247393  1
  O  O55  1  0.162301  0.105723  0.747393  1
  O  O56  1  0.372216  0.870105  0.917596  1
  O  O57  1  0.827855  0.750000  0.896858  1
  O  O58  1  0.583010  0.386088  0.685470  1
  O  O59  1  0.085715  0.922713  0.186928  1
  O  O60  1  0.615231  0.918906  0.566949  1
  O  O61  1  0.430674  0.250000  0.993740  1
  O  O62  1  0.384769  0.418906  0.433051  1
  O  O63  1  0.627784  0.129895  0.082404  1
  O  O64  1  0.384769  0.081094  0.433051  1
  O  O65  1  0.930674  0.750000  0.506260  1
  O  O66  1  0.662301  0.605723  0.752607  1
  O  O67  1  0.583010  0.113912  0.685470  1
  O  O68  1  0.669275  0.250000  0.913885  1
  O  O69  1  0.916990  0.113912  0.185470  1
  O  O70  1  0.627784  0.370105  0.082404  1
  O  O71  1  0.083010  0.613912  0.814530  1
  O  O72  1  0.083010  0.886088  0.814530  1
  O  O73  1  0.337699  0.105723  0.247393  1
  O  O74  1  0.615231  0.581094  0.566949  1
  O  O75  1  0.662301  0.894277  0.752607  1
  O  O76  1  0.872216  0.370105  0.582404  1
  O  O77  1  0.672145  0.750000  0.396858  1
  O  O78  1  0.585715  0.422713  0.313072  1
  O  O79  1  0.837699  0.605723  0.252607  1
  O  O80  1  0.169275  0.750000  0.586115  1
  O  O81  1  0.416990  0.886088  0.314530  1
  O  O82  1  0.414285  0.922713  0.686928  1
  O  O83  1  0.127784  0.870105  0.417596  1
