# generated using pymatgen
data_NaMo2P3O13
_symmetry_space_group_name_H-M   'P 1'
_cell_length_a   6.46516857
_cell_length_b   7.58691709
_cell_length_c   11.35779677
_cell_angle_alpha   75.44815624
_cell_angle_beta   85.34279854
_cell_angle_gamma   79.38509991
_symmetry_Int_Tables_number   1
_chemical_formula_structural   NaMo2P3O13
_chemical_formula_sum   'Na2 Mo4 P6 O26'
_cell_volume   529.65155797
_cell_formula_units_Z   2
loop_
 _symmetry_equiv_pos_site_id
 _symmetry_equiv_pos_as_xyz
  1  'x, y, z'
loop_
 _atom_site_type_symbol
 _atom_site_label
 _atom_site_symmetry_multiplicity
 _atom_site_fract_x
 _atom_site_fract_y
 _atom_site_fract_z
 _atom_site_occupancy
  Na  Na0  1  0.320919  0.586444  0.771304  1
  Na  Na1  1  0.679081  0.413556  0.228696  1
  Mo  Mo2  1  0.782671  0.794545  0.909821  1
  Mo  Mo3  1  0.239446  0.195542  0.596073  1
  Mo  Mo4  1  0.217329  0.205455  0.090179  1
  Mo  Mo5  1  0.760554  0.804458  0.403927  1
  P  P6  1  0.878685  0.530616  0.687958  1
  P  P7  1  0.263033  0.932849  0.888932  1
  P  P8  1  0.738038  0.203700  0.664768  1
  P  P9  1  0.261962  0.796300  0.335232  1
  P  P10  1  0.121315  0.469384  0.312042  1
  P  P11  1  0.736967  0.067151  0.111068  1
  O  O12  1  0.893655  0.541428  0.346327  1
  O  O13  1  0.077823  0.784816  0.429780  1
  O  O14  1  0.246878  0.642332  0.259411  1
  O  O15  1  0.527376  0.196009  0.132434  1
  O  O16  1  0.267926  0.987478  0.009865  1
  O  O17  1  0.097021  0.806130  0.894070  1
  O  O18  1  0.473859  0.728893  0.396664  1
  O  O19  1  0.310311  0.974015  0.581872  1
  O  O20  1  0.220658  0.107875  0.784531  1
  O  O21  1  0.747996  0.655272  0.581780  1
  O  O22  1  0.902979  0.193870  0.105930  1
  O  O23  1  0.472624  0.803991  0.867566  1
  O  O24  1  0.252004  0.344728  0.418220  1
  O  O25  1  0.131277  0.380298  0.205492  1
  O  O26  1  0.245240  0.983084  0.247964  1
  O  O27  1  0.922177  0.215184  0.570220  1
  O  O28  1  0.764254  0.630663  0.043874  1
  O  O29  1  0.753122  0.357668  0.740589  1
  O  O30  1  0.779342  0.892125  0.215469  1
  O  O31  1  0.754760  0.016916  0.752036  1
  O  O32  1  0.235746  0.369337  0.956126  1
  O  O33  1  0.106345  0.458572  0.653673  1
  O  O34  1  0.526141  0.271107  0.603336  1
  O  O35  1  0.868723  0.619702  0.794508  1
  O  O36  1  0.689689  0.025985  0.418128  1
  O  O37  1  0.732074  0.012522  0.990135  1
