# generated using pymatgen
data_Hg2Te2O7
_symmetry_space_group_name_H-M   'P 1'
_cell_length_a   13.93557487
_cell_length_b   13.93557487
_cell_length_c   7.57796397
_cell_angle_alpha   90.00000000
_cell_angle_beta   90.00000000
_cell_angle_gamma   119.83218443
_symmetry_Int_Tables_number   1
_chemical_formula_structural   Hg2Te2O7
_chemical_formula_sum   'Hg16 Te16 O56'
_cell_volume   1276.62947135
_cell_formula_units_Z   8
loop_
 _symmetry_equiv_pos_site_id
 _symmetry_equiv_pos_as_xyz
  1  'x, y, z'
loop_
 _atom_site_type_symbol
 _atom_site_label
 _atom_site_symmetry_multiplicity
 _atom_site_fract_x
 _atom_site_fract_y
 _atom_site_fract_z
 _atom_site_occupancy
  Hg  Hg0  1  0.235827  0.726900  0.520255  1
  Hg  Hg1  1  0.494936  0.754263  0.953576  1
  Hg  Hg2  1  0.754263  0.494936  0.046424  1
  Hg  Hg3  1  0.726900  0.235827  0.479745  1
  Hg  Hg4  1  0.251844  0.011673  0.951676  1
  Hg  Hg5  1  0.283615  0.283615  0.000000  1
  Hg  Hg6  1  0.291704  0.291704  0.500000  1
  Hg  Hg7  1  0.791704  0.791704  0.000000  1
  Hg  Hg8  1  0.735827  0.226900  0.979745  1
  Hg  Hg9  1  0.254263  0.994936  0.453576  1
  Hg  Hg10  1  0.994936  0.254263  0.546424  1
  Hg  Hg11  1  0.011673  0.251844  0.048324  1
  Hg  Hg12  1  0.511673  0.751844  0.451676  1
  Hg  Hg13  1  0.783615  0.783615  0.500000  1
  Hg  Hg14  1  0.751844  0.511673  0.548324  1
  Hg  Hg15  1  0.226900  0.735827  0.020255  1
  Te  Te16  1  0.464701  0.967546  0.739530  1
  Te  Te17  1  0.042505  0.041028  0.250028  1
  Te  Te18  1  0.967546  0.464701  0.260470  1
  Te  Te19  1  0.541028  0.542505  0.750028  1
  Te  Te20  1  0.755433  0.031073  0.249660  1
  Te  Te21  1  0.964701  0.467546  0.760470  1
  Te  Te22  1  0.249941  0.479740  0.756857  1
  Te  Te23  1  0.031073  0.755433  0.750340  1
  Te  Te24  1  0.749941  0.979740  0.743143  1
  Te  Te25  1  0.979740  0.749941  0.256857  1
  Te  Te26  1  0.255433  0.531073  0.250340  1
  Te  Te27  1  0.479740  0.249941  0.243143  1
  Te  Te28  1  0.531073  0.255433  0.749660  1
  Te  Te29  1  0.542505  0.541028  0.249972  1
  Te  Te30  1  0.041028  0.042505  0.749972  1
  Te  Te31  1  0.467546  0.964701  0.239530  1
  O  O32  1  0.064852  0.917933  0.709608  1
  O  O33  1  0.564852  0.417933  0.790392  1
  O  O34  1  0.695759  0.631333  0.694849  1
  O  O35  1  0.950700  0.590654  0.190146  1
  O  O36  1  0.377105  0.209439  0.441065  1
  O  O37  1  0.195759  0.131333  0.805151  1
  O  O38  1  0.662916  0.507418  0.273293  1
  O  O39  1  0.090654  0.450700  0.690146  1
  O  O40  1  0.867356  0.310717  0.733069  1
  O  O41  1  0.136038  0.820281  0.945126  1
  O  O42  1  0.209439  0.377105  0.558935  1
  O  O43  1  0.877105  0.709439  0.058935  1
  O  O44  1  0.071688  0.628090  0.782448  1
  O  O45  1  0.383175  0.190593  0.044174  1
  O  O46  1  0.507418  0.662916  0.726707  1
  O  O47  1  0.587125  0.587125  0.000000  1
  O  O48  1  0.443438  0.381721  0.195862  1
  O  O49  1  0.709439  0.877105  0.941065  1
  O  O50  1  0.440319  0.993176  0.992277  1
  O  O51  1  0.500035  0.845452  0.195202  1
  O  O52  1  0.590654  0.950700  0.809854  1
  O  O53  1  0.320281  0.636038  0.445126  1
  O  O54  1  0.571688  0.128090  0.717552  1
  O  O55  1  0.495275  0.495275  0.500000  1
  O  O56  1  0.690593  0.883175  0.544174  1
  O  O57  1  0.943438  0.881721  0.304138  1
  O  O58  1  0.845452  0.500035  0.804798  1
  O  O59  1  0.793074  0.124751  0.454933  1
  O  O60  1  0.345452  0.000035  0.695202  1
  O  O61  1  0.493176  0.940319  0.492277  1
  O  O62  1  0.993176  0.440319  0.007723  1
  O  O63  1  0.820281  0.136038  0.054874  1
  O  O64  1  0.124751  0.793074  0.545067  1
  O  O65  1  0.631333  0.695759  0.305151  1
  O  O66  1  0.293074  0.624751  0.045067  1
  O  O67  1  0.917933  0.064852  0.290392  1
  O  O68  1  0.087125  0.087125  0.500000  1
  O  O69  1  0.450700  0.090654  0.309854  1
  O  O70  1  0.881721  0.943438  0.695862  1
  O  O71  1  0.940319  0.493176  0.507723  1
  O  O72  1  0.000035  0.345452  0.304798  1
  O  O73  1  0.628090  0.071688  0.217552  1
  O  O74  1  0.883175  0.690593  0.455826  1
  O  O75  1  0.007418  0.162916  0.773293  1
  O  O76  1  0.162916  0.007418  0.226707  1
  O  O77  1  0.624751  0.293074  0.954933  1
  O  O78  1  0.310717  0.867356  0.266931  1
  O  O79  1  0.810717  0.367356  0.233069  1
  O  O80  1  0.128090  0.571688  0.282448  1
  O  O81  1  0.367356  0.810717  0.766931  1
  O  O82  1  0.636038  0.320281  0.554874  1
  O  O83  1  0.381721  0.443438  0.804138  1
  O  O84  1  0.995275  0.995275  0.000000  1
  O  O85  1  0.131333  0.195759  0.194849  1
  O  O86  1  0.190593  0.383175  0.955826  1
  O  O87  1  0.417933  0.564852  0.209608  1
