# generated using pymatgen
data_Na4Zr(MoO4)4
_symmetry_space_group_name_H-M   'P 1'
_cell_length_a   9.92250598
_cell_length_b   9.92250598
_cell_length_c   9.92250598
_cell_angle_alpha   110.99503630
_cell_angle_beta   110.99503630
_cell_angle_gamma   106.46477770
_symmetry_Int_Tables_number   1
_chemical_formula_structural   Na4Zr(MoO4)4
_chemical_formula_sum   'Na8 Zr2 Mo8 O32'
_cell_volume   750.49959271
_cell_formula_units_Z   2
loop_
 _symmetry_equiv_pos_site_id
 _symmetry_equiv_pos_as_xyz
  1  'x, y, z'
loop_
 _atom_site_type_symbol
 _atom_site_label
 _atom_site_symmetry_multiplicity
 _atom_site_fract_x
 _atom_site_fract_y
 _atom_site_fract_z
 _atom_site_occupancy
  Na  Na0  1  0.334202  0.447371  0.340453  1
  Na  Na1  1  0.106918  0.993749  0.659547  1
  Na  Na2  1  0.197371  0.356918  0.613169  1
  Na  Na3  1  0.552629  0.893082  0.886831  1
  Na  Na4  1  0.415798  0.802629  0.159547  1
  Na  Na5  1  0.743749  0.584202  0.386831  1
  Na  Na6  1  0.006251  0.665798  0.113169  1
  Na  Na7  1  0.643082  0.256251  0.840453  1
  Zr  Zr8  1  0.750000  0.250000  0.500000  1
  Zr  Zr9  1  0.000000  0.000000  0.000000  1
  Mo  Mo10  1  0.427278  0.163308  0.093254  1
  Mo  Mo11  1  0.679946  0.915977  0.593254  1
  Mo  Mo12  1  0.322722  0.086692  0.406746  1
  Mo  Mo13  1  0.913308  0.320054  0.236030  1
  Mo  Mo14  1  0.070054  0.334023  0.906746  1
  Mo  Mo15  1  0.836692  0.929946  0.263970  1
  Mo  Mo16  1  0.084023  0.677278  0.763970  1
  Mo  Mo17  1  0.665977  0.572722  0.736030  1
  O  O18  1  0.236342  0.112321  0.536439  1
  O  O19  1  0.855236  0.105485  0.089802  1
  O  O20  1  0.734317  0.484566  0.589802  1
  O  O21  1  0.862321  0.825882  0.375979  1
  O  O22  1  0.028392  0.722911  0.602678  1
  O  O23  1  0.544754  0.212472  0.552760  1
  O  O24  1  0.787528  0.340288  0.332282  1
  O  O25  1  0.721608  0.527089  0.897322  1
  O  O26  1  0.659712  0.991994  0.447240  1
  O  O27  1  0.205246  0.037528  0.947240  1
  O  O28  1  0.120233  0.425714  0.397322  1
  O  O29  1  0.175714  0.278392  0.805481  1
  O  O30  1  0.574286  0.971608  0.694519  1
  O  O31  1  0.855485  0.265683  0.750250  1
  O  O32  1  0.887679  0.424118  0.124021  1
  O  O33  1  0.174118  0.550097  0.036439  1
  O  O34  1  0.234566  0.144764  0.250250  1
  O  O35  1  0.629767  0.824286  0.102678  1
  O  O36  1  0.575882  0.699903  0.463561  1
  O  O37  1  0.894515  0.984317  0.749750  1
  O  O38  1  0.962472  0.909712  0.167718  1
  O  O39  1  0.513658  0.137679  0.963561  1
  O  O40  1  0.090288  0.258006  0.052760  1
  O  O41  1  0.300097  0.763658  0.875979  1
  O  O42  1  0.449903  0.486342  0.624021  1
  O  O43  1  0.894764  0.144515  0.410198  1
  O  O44  1  0.015683  0.765434  0.910198  1
  O  O45  1  0.008006  0.455246  0.667718  1
  O  O46  1  0.472911  0.370233  0.194519  1
  O  O47  1  0.277089  0.879767  0.305481  1
  O  O48  1  0.515434  0.105236  0.249750  1
  O  O49  1  0.741994  0.794754  0.832282  1
