# generated using pymatgen
data_K2CdP2O7
_symmetry_space_group_name_H-M   'P 1'
_cell_length_a   5.70067622
_cell_length_b   5.70067622
_cell_length_c   13.00227361
_cell_angle_alpha   75.60587251
_cell_angle_beta   104.39412749
_cell_angle_gamma   120.66198799
_symmetry_Int_Tables_number   1
_chemical_formula_structural   K2CdP2O7
_chemical_formula_sum   'K4 Cd2 P4 O14'
_cell_volume   348.27567018
_cell_formula_units_Z   2
loop_
 _symmetry_equiv_pos_site_id
 _symmetry_equiv_pos_as_xyz
  1  'x, y, z'
loop_
 _atom_site_type_symbol
 _atom_site_label
 _atom_site_symmetry_multiplicity
 _atom_site_fract_x
 _atom_site_fract_y
 _atom_site_fract_z
 _atom_site_occupancy
  K  K0  1  0.940482  0.642319  0.168415  1
  K  K1  1  0.059518  0.357681  0.831585  1
  K  K2  1  0.642319  0.940482  0.331585  1
  K  K3  1  0.357681  0.059518  0.668415  1
  Cd  Cd4  1  0.500000  0.000000  0.000000  1
  Cd  Cd5  1  0.000000  0.500000  0.500000  1
  P  P6  1  0.689322  0.744920  0.630249  1
  P  P7  1  0.255080  0.310678  0.130249  1
  P  P8  1  0.744920  0.689322  0.869751  1
  P  P9  1  0.310678  0.255080  0.369751  1
  O  O10  1  0.157385  0.157385  0.250000  1
  O  O11  1  0.556005  0.800412  0.879110  1
  O  O12  1  0.842615  0.842615  0.750000  1
  O  O13  1  0.443995  0.199588  0.120890  1
  O  O14  1  0.588112  0.377665  0.865257  1
  O  O15  1  0.016376  0.790987  0.945086  1
  O  O16  1  0.800412  0.556005  0.620890  1
  O  O17  1  0.209013  0.983624  0.445086  1
  O  O18  1  0.199588  0.443995  0.379110  1
  O  O19  1  0.377665  0.588112  0.634743  1
  O  O20  1  0.790987  0.016376  0.554914  1
  O  O21  1  0.411888  0.622335  0.134743  1
  O  O22  1  0.983624  0.209013  0.054914  1
  O  O23  1  0.622335  0.411888  0.365257  1
