# generated using pymatgen
data_NaGe2(PO4)3
_symmetry_space_group_name_H-M   'P 1'
_cell_length_a   8.68919248
_cell_length_b   8.68919248
_cell_length_c   8.68919248
_cell_angle_alpha   56.45788576
_cell_angle_beta   56.45788576
_cell_angle_gamma   56.45788576
_symmetry_Int_Tables_number   1
_chemical_formula_structural   NaGe2(PO4)3
_chemical_formula_sum   'Na2 Ge4 P6 O24'
_cell_volume   425.91144249
_cell_formula_units_Z   2
loop_
 _symmetry_equiv_pos_site_id
 _symmetry_equiv_pos_as_xyz
  1  'x, y, z'
loop_
 _atom_site_type_symbol
 _atom_site_label
 _atom_site_symmetry_multiplicity
 _atom_site_fract_x
 _atom_site_fract_y
 _atom_site_fract_z
 _atom_site_occupancy
  Na  Na0  1  0.000000  0.000000  0.000000  1
  Na  Na1  1  0.500000  0.500000  0.500000  1
  Ge  Ge2  1  0.648011  0.648011  0.648011  1
  Ge  Ge3  1  0.351989  0.351989  0.351989  1
  Ge  Ge4  1  0.855726  0.855726  0.855726  1
  Ge  Ge5  1  0.144274  0.144274  0.144274  1
  P  P6  1  0.965542  0.249216  0.536448  1
  P  P7  1  0.536448  0.965542  0.249216  1
  P  P8  1  0.249216  0.536448  0.965542  1
  P  P9  1  0.034458  0.750784  0.463552  1
  P  P10  1  0.463552  0.034458  0.750784  1
  P  P11  1  0.750784  0.463552  0.034458  1
  O  O12  1  0.801816  0.457317  0.522084  1
  O  O13  1  0.522084  0.801816  0.457317  1
  O  O14  1  0.457317  0.522084  0.801816  1
  O  O15  1  0.198184  0.542683  0.477916  1
  O  O16  1  0.477916  0.198184  0.542683  1
  O  O17  1  0.542683  0.477916  0.198184  1
  O  O18  1  0.895593  0.097222  0.741892  1
  O  O19  1  0.741892  0.895593  0.097222  1
  O  O20  1  0.097222  0.741892  0.895593  1
  O  O21  1  0.104407  0.902778  0.258108  1
  O  O22  1  0.258108  0.104407  0.902778  1
  O  O23  1  0.902778  0.258108  0.104407  1
  O  O24  1  0.159366  0.233105  0.521512  1
  O  O25  1  0.521512  0.159366  0.233105  1
  O  O26  1  0.233105  0.521512  0.159366  1
  O  O27  1  0.840634  0.766895  0.478488  1
  O  O28  1  0.478488  0.840634  0.766895  1
  O  O29  1  0.766895  0.478488  0.840634  1
  O  O30  1  0.990186  0.204227  0.374733  1
  O  O31  1  0.374733  0.990186  0.204227  1
  O  O32  1  0.204227  0.374733  0.990186  1
  O  O33  1  0.009814  0.795773  0.625267  1
  O  O34  1  0.625267  0.009814  0.795773  1
  O  O35  1  0.795773  0.625267  0.009814  1
