# generated using pymatgen
data_Ta2Te4Br10O
_symmetry_space_group_name_H-M   'P 1'
_cell_length_a   7.45500464
_cell_length_b   8.91685997
_cell_length_c   9.68192523
_cell_angle_alpha   96.45914056
_cell_angle_beta   91.91675795
_cell_angle_gamma   105.53006448
_symmetry_Int_Tables_number   1
_chemical_formula_structural   Ta2Te4Br10O
_chemical_formula_sum   'Ta2 Te4 Br10 O1'
_cell_volume   614.81415878
_cell_formula_units_Z   1
loop_
 _symmetry_equiv_pos_site_id
 _symmetry_equiv_pos_as_xyz
  1  'x, y, z'
loop_
 _atom_site_type_symbol
 _atom_site_label
 _atom_site_symmetry_multiplicity
 _atom_site_fract_x
 _atom_site_fract_y
 _atom_site_fract_z
 _atom_site_occupancy
  Ta  Ta0  1  0.514476  0.362781  0.633729  1
  Ta  Ta1  1  0.485524  0.637219  0.366271  1
  Te  Te2  1  0.084939  0.814352  0.001131  1
  Te  Te3  1  0.915061  0.185648  0.998869  1
  Te  Te4  1  0.814265  0.893515  0.850182  1
  Te  Te5  1  0.185735  0.106485  0.149818  1
  Br  Br6  1  0.537990  0.166334  0.822686  1
  Br  Br7  1  0.397188  0.527383  0.821176  1
  Br  Br8  1  0.851228  0.531515  0.722332  1
  Br  Br9  1  0.190993  0.195441  0.570352  1
  Br  Br10  1  0.338436  0.793606  0.533454  1
  Br  Br11  1  0.661564  0.206394  0.466546  1
  Br  Br12  1  0.809007  0.804559  0.429648  1
  Br  Br13  1  0.148772  0.468485  0.277668  1
  Br  Br14  1  0.602812  0.472617  0.178824  1
  Br  Br15  1  0.462010  0.833666  0.177314  1
  O  O16  1  0.500000  0.500000  0.500000  1
