# generated using pymatgen
data_P2H19C6I2NCl4
_symmetry_space_group_name_H-M   'P 1'
_cell_length_a   12.56009896
_cell_length_b   11.14984663
_cell_length_c   15.43278257
_cell_angle_alpha   90.00000000
_cell_angle_beta   112.17949699
_cell_angle_gamma   90.00000000
_symmetry_Int_Tables_number   1
_chemical_formula_structural   P2H19C6I2NCl4
_chemical_formula_sum   'P8 H76 C24 I8 N4 Cl16'
_cell_volume   2001.33535891
_cell_formula_units_Z   4
loop_
 _symmetry_equiv_pos_site_id
 _symmetry_equiv_pos_as_xyz
  1  'x, y, z'
loop_
 _atom_site_type_symbol
 _atom_site_label
 _atom_site_symmetry_multiplicity
 _atom_site_fract_x
 _atom_site_fract_y
 _atom_site_fract_z
 _atom_site_occupancy
  P  P0  1  0.896359  0.749417  0.337525  1
  P  P1  1  0.103641  0.250583  0.662475  1
  P  P2  1  0.683955  0.617310  0.347024  1
  P  P3  1  0.896359  0.750583  0.837525  1
  P  P4  1  0.683955  0.882690  0.847024  1
  P  P5  1  0.316045  0.382690  0.652976  1
  P  P6  1  0.316045  0.117310  0.152976  1
  P  P7  1  0.103641  0.249417  0.162475  1
  H  H8  1  0.340863  0.194507  0.585682  1
  H  H9  1  0.528012  0.738862  0.338076  1
  H  H10  1  0.600932  0.978354  0.945366  1
  H  H11  1  0.897559  0.862913  0.207963  1
  H  H12  1  0.133922  0.445328  0.629371  1
  H  H13  1  0.753918  0.654983  0.703421  1
  H  H14  1  0.277005  0.558586  0.556895  1
  H  H15  1  0.387780  0.086993  0.318579  1
  H  H16  1  0.969824  0.382405  0.689804  1
  H  H17  1  0.931125  0.150797  0.067080  1
  H  H18  1  0.092216  0.739741  0.856400  1
  H  H19  1  0.059111  0.160479  0.512504  1
  H  H20  1  0.483040  0.029273  0.266446  1
  H  H21  1  0.399068  0.021646  0.054634  1
  H  H22  1  0.257032  0.423079  0.489305  1
  H  H23  1  0.722995  0.058586  0.943105  1
  H  H24  1  0.824255  0.916793  0.399119  1
  H  H25  1  0.246082  0.154983  0.796579  1
  H  H26  1  0.516960  0.970727  0.733554  1
  H  H27  1  0.031411  0.436732  0.094304  1
  H  H28  1  0.133922  0.054672  0.129371  1
  H  H29  1  0.646413  0.051684  0.745514  1
  H  H30  1  0.340863  0.305493  0.085682  1
  H  H31  1  0.907784  0.239741  0.643600  1
  H  H32  1  0.068875  0.849203  0.932920  1
  H  H33  1  0.866078  0.554672  0.370629  1
  H  H34  1  0.030176  0.882405  0.810196  1
  H  H35  1  0.753918  0.845017  0.203421  1
  H  H36  1  0.257032  0.076921  0.989305  1
  H  H37  1  0.175745  0.083207  0.600881  1
  H  H38  1  0.246082  0.345017  0.296579  1
  H  H39  1  0.277005  0.941414  0.056895  1
  H  H40  1  0.092216  0.760259  0.356400  1
  H  H41  1  0.968589  0.936732  0.405696  1
  H  H42  1  0.825402  0.721521  0.172208  1
  H  H43  1  0.174598  0.278479  0.827792  1
  H  H44  1  0.068875  0.650797  0.432920  1
  H  H45  1  0.742968  0.923079  0.010695  1
  H  H46  1  0.612220  0.913007  0.681421  1
  H  H47  1  0.907784  0.260259  0.143600  1
  H  H48  1  0.353587  0.948316  0.254486  1
  H  H49  1  0.102441  0.362913  0.292037  1
  H  H50  1  0.824255  0.583207  0.899119  1
  H  H51  1  0.483040  0.470727  0.766446  1
  H  H52  1  0.612220  0.586993  0.181421  1
  H  H53  1  0.516960  0.529273  0.233554  1
  H  H54  1  0.659137  0.805493  0.414318  1
  H  H55  1  0.931125  0.349203  0.567080  1
  H  H56  1  0.175745  0.416793  0.100881  1
  H  H57  1  0.616596  0.815425  0.288468  1
  H  H58  1  0.940889  0.660479  0.987496  1
  H  H59  1  0.102441  0.137087  0.792037  1
  H  H60  1  0.722995  0.441414  0.443105  1
  H  H61  1  0.968589  0.563268  0.905696  1
  H  H62  1  0.866078  0.945328  0.870629  1
  H  H63  1  0.387780  0.413007  0.818579  1
  H  H64  1  0.646413  0.448316  0.245514  1
  H  H65  1  0.471988  0.261138  0.661924  1
  H  H66  1  0.940889  0.839521  0.487496  1
  H  H67  1  0.471988  0.238862  0.161924  1
  H  H68  1  0.399068  0.478354  0.554634  1
  H  H69  1  0.059111  0.339521  0.012504  1
  H  H70  1  0.031411  0.063268  0.594304  1
  H  H71  1  0.528012  0.761138  0.838076  1
  H  H72  1  0.600932  0.521646  0.445366  1
  H  H73  1  0.616596  0.684575  0.788468  1
  H  H74  1  0.383404  0.315425  0.211532  1
  H  H75  1  0.825402  0.778479  0.672208  1
  H  H76  1  0.659137  0.694507  0.914318  1
  H  H77  1  0.174598  0.221521  0.327792  1
  H  H78  1  0.897559  0.637087  0.707963  1
  H  H79  1  0.969824  0.117595  0.189804  1
  H  H80  1  0.030176  0.617595  0.310196  1
  H  H81  1  0.383404  0.184575  0.711532  1
  H  H82  1  0.742968  0.576921  0.510695  1
  H  H83  1  0.353587  0.551684  0.754486  1
  C  C84  1  0.035707  0.812377  0.861660  1
  C  C85  1  0.392566  0.037512  0.258566  1
  C  C86  1  0.688488  0.531096  0.446307  1
  C  C87  1  0.836523  0.799390  0.218638  1
  C  C88  1  0.617400  0.740859  0.847166  1
  C  C89  1  0.382600  0.259141  0.152834  1
  C  C90  1  0.607434  0.962488  0.741434  1
  C  C91  1  0.311512  0.031096  0.053693  1
  C  C92  1  0.035707  0.687623  0.361660  1
  C  C93  1  0.907348  0.872223  0.415038  1
  C  C94  1  0.688488  0.968904  0.946307  1
  C  C95  1  0.163477  0.200610  0.781362  1
  C  C96  1  0.092652  0.127777  0.584962  1
  C  C97  1  0.617400  0.759141  0.347166  1
  C  C98  1  0.964293  0.187623  0.138340  1
  C  C99  1  0.607434  0.537512  0.241434  1
  C  C100  1  0.382600  0.240859  0.652834  1
  C  C101  1  0.163477  0.299390  0.281362  1
  C  C102  1  0.907348  0.627777  0.915038  1
  C  C103  1  0.392566  0.462488  0.758566  1
  C  C104  1  0.964293  0.312377  0.638340  1
  C  C105  1  0.092652  0.372223  0.084962  1
  C  C106  1  0.311512  0.468904  0.553693  1
  C  C107  1  0.836523  0.700610  0.718638  1
  I  I108  1  0.801598  0.218306  0.308680  1
  I  I109  1  0.198402  0.781694  0.691320  1
  I  I110  1  0.647255  0.140003  0.519444  1
  I  I111  1  0.352745  0.640003  0.980556  1
  I  I112  1  0.198402  0.718306  0.191320  1
  I  I113  1  0.352745  0.859997  0.480556  1
  I  I114  1  0.801598  0.281694  0.808680  1
  I  I115  1  0.647255  0.359997  0.019444  1
  N  N116  1  0.179040  0.136112  0.142268  1
  N  N117  1  0.820960  0.863888  0.857732  1
  N  N118  1  0.820960  0.636112  0.357732  1
  N  N119  1  0.179040  0.363888  0.642268  1
  Cl  Cl120  1  0.951601  0.384479  0.399283  1
  Cl  Cl121  1  0.520634  0.718824  0.564859  1
  Cl  Cl122  1  0.820826  0.999104  0.606343  1
  Cl  Cl123  1  0.479366  0.281176  0.435141  1
  Cl  Cl124  1  0.660592  0.440502  0.718460  1
  Cl  Cl125  1  0.660592  0.059498  0.218460  1
  Cl  Cl126  1  0.820826  0.500896  0.106343  1
  Cl  Cl127  1  0.048399  0.615521  0.600717  1
  Cl  Cl128  1  0.179174  0.000896  0.393657  1
  Cl  Cl129  1  0.339408  0.559498  0.281540  1
  Cl  Cl130  1  0.179174  0.499104  0.893657  1
  Cl  Cl131  1  0.520634  0.781176  0.064859  1
  Cl  Cl132  1  0.339408  0.940502  0.781540  1
  Cl  Cl133  1  0.048399  0.884479  0.100717  1
  Cl  Cl134  1  0.479366  0.218824  0.935141  1
  Cl  Cl135  1  0.951601  0.115521  0.899283  1
