# generated using pymatgen
data_Ti3(BiO3)4
_symmetry_space_group_name_H-M   'P 1'
_cell_length_a   17.00772809
_cell_length_b   17.00772809
_cell_length_c   5.49598955
_cell_angle_alpha   89.91640812
_cell_angle_beta   90.08359188
_cell_angle_gamma   161.62806905
_symmetry_Int_Tables_number   1
_chemical_formula_structural   Ti3(BiO3)4
_chemical_formula_sum   'Ti6 Bi8 O24'
_cell_volume   501.07461060
_cell_formula_units_Z   2
loop_
 _symmetry_equiv_pos_site_id
 _symmetry_equiv_pos_as_xyz
  1  'x, y, z'
loop_
 _atom_site_type_symbol
 _atom_site_label
 _atom_site_symmetry_multiplicity
 _atom_site_fract_x
 _atom_site_fract_y
 _atom_site_fract_z
 _atom_site_occupancy
  Ti  Ti0  1  0.993436  0.497313  0.519211  1
  Ti  Ti1  1  0.868353  0.625024  0.528526  1
  Ti  Ti2  1  0.631095  0.872679  0.023894  1
  Ti  Ti3  1  0.127321  0.368905  0.523894  1
  Ti  Ti4  1  0.374976  0.131647  0.028526  1
  Ti  Ti5  1  0.502687  0.006564  0.019211  1
  Bi  Bi6  1  0.280612  0.200131  0.460384  1
  Bi  Bi7  1  0.212046  0.285415  0.967985  1
  Bi  Bi8  1  0.799869  0.719388  0.960384  1
  Bi  Bi9  1  0.562076  0.928080  0.474998  1
  Bi  Bi10  1  0.714585  0.787954  0.467985  1
  Bi  Bi11  1  0.430168  0.062637  0.482156  1
  Bi  Bi12  1  0.937363  0.569832  0.982156  1
  Bi  Bi13  1  0.071920  0.437924  0.974998  1
  O  O14  1  0.274746  0.799826  0.768329  1
  O  O15  1  0.725880  0.863601  0.029479  1
  O  O16  1  0.676408  0.428002  0.847468  1
  O  O17  1  0.518935  0.139080  0.071674  1
  O  O18  1  0.002259  0.001014  0.737068  1
  O  O19  1  0.125611  0.514779  0.566266  1
  O  O20  1  0.860920  0.481065  0.571674  1
  O  O21  1  0.105802  0.827490  0.269158  1
  O  O22  1  0.485221  0.874389  0.066266  1
  O  O23  1  0.260799  0.122403  0.039498  1
  O  O24  1  0.879622  0.157959  0.269216  1
  O  O25  1  0.136399  0.274120  0.529479  1
  O  O26  1  0.801783  0.289404  0.846141  1
  O  O27  1  0.408213  0.663572  0.322865  1
  O  O28  1  0.571998  0.323592  0.347468  1
  O  O29  1  0.502676  0.500914  0.733383  1
  O  O30  1  0.842041  0.120378  0.769216  1
  O  O31  1  0.877597  0.739201  0.539498  1
  O  O32  1  0.710596  0.198217  0.346141  1
  O  O33  1  0.998986  0.997741  0.237068  1
  O  O34  1  0.172510  0.894198  0.769158  1
  O  O35  1  0.499086  0.497324  0.233383  1
  O  O36  1  0.336428  0.591787  0.822865  1
  O  O37  1  0.200174  0.725254  0.268329  1
