# generated using pymatgen
data_Tl2BiP2S7
_symmetry_space_group_name_H-M   'P 1'
_cell_length_a   12.27057599
_cell_length_b   12.27057599
_cell_length_c   19.09521686
_cell_angle_alpha   61.41387240
_cell_angle_beta   118.58612760
_cell_angle_gamma   147.74753101
_symmetry_Int_Tables_number   1
_chemical_formula_structural   Tl2BiP2S7
_chemical_formula_sum   'Tl8 Bi4 P8 S28'
_cell_volume   1330.44595062
_cell_formula_units_Z   4
loop_
 _symmetry_equiv_pos_site_id
 _symmetry_equiv_pos_as_xyz
  1  'x, y, z'
loop_
 _atom_site_type_symbol
 _atom_site_label
 _atom_site_symmetry_multiplicity
 _atom_site_fract_x
 _atom_site_fract_y
 _atom_site_fract_z
 _atom_site_occupancy
  Tl  Tl0  1  0.523201  0.536541  0.118192  1
  Tl  Tl1  1  0.463459  0.476799  0.618192  1
  Tl  Tl2  1  0.476799  0.463459  0.881808  1
  Tl  Tl3  1  0.179346  0.826821  0.526985  1
  Tl  Tl4  1  0.536541  0.523201  0.381808  1
  Tl  Tl5  1  0.820654  0.173179  0.473015  1
  Tl  Tl6  1  0.826821  0.179346  0.973015  1
  Tl  Tl7  1  0.173179  0.820654  0.026985  1
  Bi  Bi8  1  0.213559  0.886867  0.246564  1
  Bi  Bi9  1  0.786441  0.113133  0.753436  1
  Bi  Bi10  1  0.886867  0.213559  0.253436  1
  Bi  Bi11  1  0.113133  0.786441  0.746564  1
  P  P12  1  0.971639  0.069528  0.192387  1
  P  P13  1  0.069528  0.971639  0.307613  1
  P  P14  1  0.664848  0.334011  0.638354  1
  P  P15  1  0.028361  0.930472  0.807613  1
  P  P16  1  0.335152  0.665988  0.361646  1
  P  P17  1  0.930472  0.028361  0.692387  1
  P  P18  1  0.665988  0.335152  0.138354  1
  P  P19  1  0.334011  0.664848  0.861646  1
  S  S20  1  0.360073  0.140568  0.606936  1
  S  S21  1  0.140568  0.360073  0.893064  1
  S  S22  1  0.720911  0.257414  0.597506  1
  S  S23  1  0.684420  0.883760  0.198044  1
  S  S24  1  0.315580  0.116240  0.801956  1
  S  S25  1  0.833553  0.628907  0.588460  1
  S  S26  1  0.987524  0.045864  0.101861  1
  S  S27  1  0.012476  0.954136  0.898139  1
  S  S28  1  0.859432  0.639927  0.106936  1
  S  S29  1  0.672944  0.237522  0.262417  1
  S  S30  1  0.116240  0.315580  0.698044  1
  S  S31  1  0.166447  0.371093  0.411540  1
  S  S32  1  0.628907  0.833553  0.911540  1
  S  S33  1  0.639927  0.859432  0.393064  1
  S  S34  1  0.371093  0.166447  0.088460  1
  S  S35  1  0.883760  0.684420  0.301956  1
  S  S36  1  0.954136  0.012476  0.601861  1
  S  S37  1  0.762478  0.327056  0.762417  1
  S  S38  1  0.237522  0.672944  0.237583  1
  S  S39  1  0.257414  0.720911  0.902494  1
  S  S40  1  0.175935  0.367285  0.196437  1
  S  S41  1  0.742586  0.279089  0.097506  1
  S  S42  1  0.632715  0.824065  0.696437  1
  S  S43  1  0.279089  0.742586  0.402494  1
  S  S44  1  0.327056  0.762478  0.737583  1
  S  S45  1  0.824065  0.632715  0.803563  1
  S  S46  1  0.367285  0.175935  0.303563  1
  S  S47  1  0.045864  0.987524  0.398139  1
