# generated using pymatgen
data_Cs2ZnCl4
_symmetry_space_group_name_H-M   'P 1'
_cell_length_a   7.43343169
_cell_length_b   9.98696195
_cell_length_c   13.39908271
_cell_angle_alpha   90.00000000
_cell_angle_beta   90.00000000
_cell_angle_gamma   90.00000000
_symmetry_Int_Tables_number   1
_chemical_formula_structural   Cs2ZnCl4
_chemical_formula_sum   'Cs8 Zn4 Cl16'
_cell_volume   994.71305535
_cell_formula_units_Z   4
loop_
 _symmetry_equiv_pos_site_id
 _symmetry_equiv_pos_as_xyz
  1  'x, y, z'
loop_
 _atom_site_type_symbol
 _atom_site_label
 _atom_site_symmetry_multiplicity
 _atom_site_fract_x
 _atom_site_fract_y
 _atom_site_fract_z
 _atom_site_occupancy
  Cs  Cs0  1  0.750000  0.138469  0.403785  1
  Cs  Cs1  1  0.250000  0.861531  0.596215  1
  Cs  Cs2  1  0.750000  0.638469  0.096215  1
  Cs  Cs3  1  0.250000  0.361531  0.903785  1
  Cs  Cs4  1  0.750000  0.485458  0.673778  1
  Cs  Cs5  1  0.250000  0.514542  0.326222  1
  Cs  Cs6  1  0.750000  0.985458  0.826222  1
  Cs  Cs7  1  0.250000  0.014542  0.173778  1
  Zn  Zn8  1  0.750000  0.733212  0.423087  1
  Zn  Zn9  1  0.250000  0.266788  0.576913  1
  Zn  Zn10  1  0.750000  0.233212  0.076913  1
  Zn  Zn11  1  0.250000  0.766788  0.923087  1
  Cl  Cl12  1  0.750000  0.505800  0.407837  1
  Cl  Cl13  1  0.250000  0.494200  0.592163  1
  Cl  Cl14  1  0.750000  0.005800  0.092163  1
  Cl  Cl15  1  0.250000  0.994200  0.907837  1
  Cl  Cl16  1  0.750000  0.815267  0.583061  1
  Cl  Cl17  1  0.250000  0.184733  0.416939  1
  Cl  Cl18  1  0.750000  0.315267  0.916939  1
  Cl  Cl19  1  0.250000  0.684733  0.083061  1
  Cl  Cl20  1  0.999338  0.820102  0.346569  1
  Cl  Cl21  1  0.499338  0.179898  0.653431  1
  Cl  Cl22  1  0.500662  0.320102  0.153431  1
  Cl  Cl23  1  0.000662  0.679898  0.846569  1
  Cl  Cl24  1  0.000662  0.179898  0.653431  1
  Cl  Cl25  1  0.500662  0.820102  0.346569  1
  Cl  Cl26  1  0.499338  0.679898  0.846569  1
  Cl  Cl27  1  0.999338  0.320102  0.153431  1
