# generated using pymatgen
data_Na2PtO3
_symmetry_space_group_name_H-M   'P 1'
_cell_length_a   5.52532379
_cell_length_b   5.52532379
_cell_length_c   10.84714004
_cell_angle_alpha   85.00879365
_cell_angle_beta   94.99120635
_cell_angle_gamma   59.98514657
_symmetry_Int_Tables_number   1
_chemical_formula_structural   Na2PtO3
_chemical_formula_sum   'Na8 Pt4 O12'
_cell_volume   282.36892843
_cell_formula_units_Z   4
loop_
 _symmetry_equiv_pos_site_id
 _symmetry_equiv_pos_as_xyz
  1  'x, y, z'
loop_
 _atom_site_type_symbol
 _atom_site_label
 _atom_site_symmetry_multiplicity
 _atom_site_fract_x
 _atom_site_fract_y
 _atom_site_fract_z
 _atom_site_occupancy
  Na  Na0  1  0.083263  0.083263  0.250000  1
  Na  Na1  1  0.680171  0.160661  0.000944  1
  Na  Na2  1  0.916737  0.916737  0.750000  1
  Na  Na3  1  0.160661  0.680171  0.499056  1
  Na  Na4  1  0.319829  0.839339  0.999056  1
  Na  Na5  1  0.000000  0.500000  0.000000  1
  Na  Na6  1  0.839339  0.319829  0.500944  1
  Na  Na7  1  0.500000  1.000000  0.500000  1
  Pt  Pt8  1  0.250384  0.250384  0.750000  1
  Pt  Pt9  1  0.583310  0.583310  0.750000  1
  Pt  Pt10  1  0.749616  0.749616  0.250000  1
  Pt  Pt11  1  0.416690  0.416690  0.250000  1
  O  O12  1  0.518613  0.314556  0.646092  1
  O  O13  1  0.881275  0.590313  0.646171  1
  O  O14  1  0.685444  0.481387  0.146092  1
  O  O15  1  0.481387  0.685444  0.353908  1
  O  O16  1  0.409687  0.118725  0.146171  1
  O  O17  1  0.590313  0.881275  0.853829  1
  O  O18  1  0.048020  0.757321  0.145786  1
  O  O19  1  0.118725  0.409687  0.353829  1
  O  O20  1  0.242679  0.951980  0.645786  1
  O  O21  1  0.951980  0.242679  0.854214  1
  O  O22  1  0.757321  0.048020  0.354214  1
  O  O23  1  0.314556  0.518613  0.853908  1
