# generated using pymatgen
data_Pr3Si2S8I
_symmetry_space_group_name_H-M   'P 1'
_cell_length_a   8.97082767
_cell_length_b   8.97082767
_cell_length_c   10.93602648
_cell_angle_alpha   82.77270772
_cell_angle_beta   97.22729228
_cell_angle_gamma   127.64709496
_symmetry_Int_Tables_number   1
_chemical_formula_structural   Pr3Si2S8I
_chemical_formula_sum   'Pr6 Si4 S16 I2'
_cell_volume   689.95968271
_cell_formula_units_Z   2
loop_
 _symmetry_equiv_pos_site_id
 _symmetry_equiv_pos_as_xyz
  1  'x, y, z'
loop_
 _atom_site_type_symbol
 _atom_site_label
 _atom_site_symmetry_multiplicity
 _atom_site_fract_x
 _atom_site_fract_y
 _atom_site_fract_z
 _atom_site_occupancy
  Pr  Pr0  1  0.923759  0.321470  0.818611  1
  Pr  Pr1  1  0.597859  0.597859  0.750000  1
  Pr  Pr2  1  0.076241  0.678530  0.181389  1
  Pr  Pr3  1  0.321470  0.923759  0.681389  1
  Pr  Pr4  1  0.678530  0.076241  0.318611  1
  Pr  Pr5  1  0.402141  0.402141  0.250000  1
  Si  Si6  1  0.696677  0.377252  0.529404  1
  Si  Si7  1  0.377252  0.696677  0.970596  1
  Si  Si8  1  0.303323  0.622748  0.470596  1
  Si  Si9  1  0.622748  0.303323  0.029404  1
  S  S10  1  0.149569  0.712165  0.914173  1
  S  S11  1  0.721961  0.584917  0.042743  1
  S  S12  1  0.712165  0.149569  0.585827  1
  S  S13  1  0.550723  0.251509  0.838686  1
  S  S14  1  0.110523  0.400498  0.352594  1
  S  S15  1  0.400498  0.110523  0.147406  1
  S  S16  1  0.278039  0.415083  0.957257  1
  S  S17  1  0.850431  0.287835  0.085827  1
  S  S18  1  0.748491  0.449277  0.338686  1
  S  S19  1  0.251509  0.550723  0.661314  1
  S  S20  1  0.889477  0.599502  0.647406  1
  S  S21  1  0.415083  0.278039  0.542743  1
  S  S22  1  0.449277  0.748491  0.161314  1
  S  S23  1  0.599502  0.889477  0.852594  1
  S  S24  1  0.584917  0.721961  0.457257  1
  S  S25  1  0.287835  0.850431  0.414173  1
  I  I26  1  0.986616  0.986616  0.250000  1
  I  I27  1  0.013384  0.013384  0.750000  1
