# generated using pymatgen
data_Er3Si3O10F
_symmetry_space_group_name_H-M   'P 1'
_cell_length_a   7.34051611
_cell_length_b   11.17757478
_cell_length_c   11.94379444
_cell_angle_alpha   90.00000000
_cell_angle_beta   120.23834441
_cell_angle_gamma   90.00000000
_symmetry_Int_Tables_number   1
_chemical_formula_structural   Er3Si3O10F
_chemical_formula_sum   'Er12 Si12 O40 F4'
_cell_volume   846.64054357
_cell_formula_units_Z   4
loop_
 _symmetry_equiv_pos_site_id
 _symmetry_equiv_pos_as_xyz
  1  'x, y, z'
loop_
 _atom_site_type_symbol
 _atom_site_label
 _atom_site_symmetry_multiplicity
 _atom_site_fract_x
 _atom_site_fract_y
 _atom_site_fract_z
 _atom_site_occupancy
  Er  Er0  1  0.304927  0.401749  0.503017  1
  Er  Er1  1  0.695073  0.901749  0.996983  1
  Er  Er2  1  0.695073  0.598251  0.496983  1
  Er  Er3  1  0.304927  0.098251  0.003017  1
  Er  Er4  1  0.095222  0.270709  0.189005  1
  Er  Er5  1  0.904778  0.770709  0.310995  1
  Er  Er6  1  0.904778  0.729291  0.810995  1
  Er  Er7  1  0.095222  0.229291  0.689005  1
  Er  Er8  1  0.244782  0.031380  0.482190  1
  Er  Er9  1  0.755218  0.531380  0.017810  1
  Er  Er10  1  0.755218  0.968620  0.517810  1
  Er  Er11  1  0.244782  0.468620  0.982190  1
  Si  Si12  1  0.784464  0.085949  0.259231  1
  Si  Si13  1  0.215536  0.585949  0.240769  1
  Si  Si14  1  0.215536  0.914051  0.740769  1
  Si  Si15  1  0.784464  0.414051  0.759231  1
  Si  Si16  1  0.622107  0.244398  0.890204  1
  Si  Si17  1  0.377893  0.744398  0.609796  1
  Si  Si18  1  0.377893  0.755602  0.109796  1
  Si  Si19  1  0.622107  0.255602  0.390204  1
  Si  Si20  1  0.785864  0.036514  0.791453  1
  Si  Si21  1  0.214136  0.536514  0.708547  1
  Si  Si22  1  0.214136  0.963486  0.208547  1
  Si  Si23  1  0.785864  0.463486  0.291453  1
  O  O24  1  0.149990  0.025558  0.636749  1
  O  O25  1  0.850010  0.525558  0.863251  1
  O  O26  1  0.850010  0.974442  0.363251  1
  O  O27  1  0.149990  0.474442  0.136749  1
  O  O28  1  0.648098  0.050350  0.106757  1
  O  O29  1  0.351902  0.550350  0.393243  1
  O  O30  1  0.351902  0.949650  0.893243  1
  O  O31  1  0.648098  0.449650  0.606757  1
  O  O32  1  0.014799  0.143023  0.303254  1
  O  O33  1  0.985201  0.643023  0.196746  1
  O  O34  1  0.985201  0.856977  0.696746  1
  O  O35  1  0.014799  0.356977  0.803254  1
  O  O36  1  0.613504  0.321900  0.768820  1
  O  O37  1  0.386496  0.821900  0.731180  1
  O  O38  1  0.386496  0.678100  0.231180  1
  O  O39  1  0.613504  0.178100  0.268820  1
  O  O40  1  0.787658  0.319296  0.018797  1
  O  O41  1  0.212342  0.819296  0.481203  1
  O  O42  1  0.212342  0.680704  0.981203  1
  O  O43  1  0.787658  0.180704  0.518797  1
  O  O44  1  0.393862  0.226388  0.879802  1
  O  O45  1  0.606138  0.726388  0.620198  1
  O  O46  1  0.606138  0.773612  0.120198  1
  O  O47  1  0.393862  0.273612  0.379802  1
  O  O48  1  0.695311  0.107123  0.877635  1
  O  O49  1  0.304689  0.607123  0.622365  1
  O  O50  1  0.304689  0.892877  0.122365  1
  O  O51  1  0.695311  0.392877  0.377635  1
  O  O52  1  0.995543  0.394930  0.308749  1
  O  O53  1  0.004457  0.894930  0.191251  1
  O  O54  1  0.004457  0.605070  0.691251  1
  O  O55  1  0.995543  0.105070  0.808749  1
  O  O56  1  0.603168  0.021176  0.637215  1
  O  O57  1  0.396832  0.521176  0.862785  1
  O  O58  1  0.396832  0.978824  0.362785  1
  O  O59  1  0.603168  0.478824  0.137215  1
  O  O60  1  0.154990  0.409296  0.628678  1
  O  O61  1  0.845010  0.909296  0.871322  1
  O  O62  1  0.845010  0.590704  0.371322  1
  O  O63  1  0.154990  0.090704  0.128678  1
  F  F64  1  0.256646  0.214795  0.559847  1
  F  F65  1  0.743354  0.714795  0.940153  1
  F  F66  1  0.743354  0.785205  0.440153  1
  F  F67  1  0.256646  0.285205  0.059847  1
