# generated using pymatgen
data_PH3CS3
_symmetry_space_group_name_H-M   'P 1'
_cell_length_a   8.60428496
_cell_length_b   8.44006141
_cell_length_c   8.90653761
_cell_angle_alpha   90.00000000
_cell_angle_beta   110.66600280
_cell_angle_gamma   90.00000000
_symmetry_Int_Tables_number   1
_chemical_formula_structural   PH3CS3
_chemical_formula_sum   'P4 H12 C4 S12'
_cell_volume   605.17975765
_cell_formula_units_Z   4
loop_
 _symmetry_equiv_pos_site_id
 _symmetry_equiv_pos_as_xyz
  1  'x, y, z'
loop_
 _atom_site_type_symbol
 _atom_site_label
 _atom_site_symmetry_multiplicity
 _atom_site_fract_x
 _atom_site_fract_y
 _atom_site_fract_z
 _atom_site_occupancy
  P  P0  1  0.057654  0.578948  0.157404  1
  P  P1  1  0.557654  0.921052  0.157404  1
  P  P2  1  0.942346  0.421052  0.842596  1
  P  P3  1  0.442346  0.078948  0.842596  1
  H  H4  1  0.683400  0.288850  0.215483  1
  H  H5  1  0.975591  0.211931  0.219317  1
  H  H6  1  0.816600  0.788850  0.784517  1
  H  H7  1  0.183400  0.211150  0.215483  1
  H  H8  1  0.352223  0.662204  0.603325  1
  H  H9  1  0.852223  0.837796  0.603325  1
  H  H10  1  0.647777  0.337796  0.396675  1
  H  H11  1  0.475591  0.288069  0.219317  1
  H  H12  1  0.024409  0.788069  0.780683  1
  H  H13  1  0.316600  0.711150  0.784517  1
  H  H14  1  0.147777  0.162204  0.396675  1
  H  H15  1  0.524409  0.711931  0.780683  1
  C  C16  1  0.606668  0.263841  0.288229  1
  C  C17  1  0.893332  0.763841  0.711771  1
  C  C18  1  0.393332  0.736159  0.711771  1
  C  C19  1  0.106668  0.236159  0.288229  1
  S  S20  1  0.580553  0.701732  0.224031  1
  S  S21  1  0.080553  0.798268  0.224031  1
  S  S22  1  0.134644  0.438151  0.361905  1
  S  S23  1  0.365356  0.938151  0.638095  1
  S  S24  1  0.919447  0.201732  0.775969  1
  S  S25  1  0.180942  0.501153  0.998939  1
  S  S26  1  0.865356  0.561849  0.638095  1
  S  S27  1  0.680942  0.998847  0.998939  1
  S  S28  1  0.819058  0.498847  0.001061  1
  S  S29  1  0.319058  0.001153  0.001061  1
  S  S30  1  0.634644  0.061849  0.361905  1
  S  S31  1  0.419447  0.298268  0.775969  1
