# generated using pymatgen
data_VBiPbO5
_symmetry_space_group_name_H-M   'P 1'
_cell_length_a   7.28330590
_cell_length_b   7.28330590
_cell_length_c   7.28370892
_cell_angle_alpha   70.30082824
_cell_angle_beta   109.69917176
_cell_angle_gamma   134.30696007
_symmetry_Int_Tables_number   1
_chemical_formula_structural   VBiPbO5
_chemical_formula_sum   'V2 Bi2 Pb2 O10'
_cell_volume   257.33306493
_cell_formula_units_Z   2
loop_
 _symmetry_equiv_pos_site_id
 _symmetry_equiv_pos_as_xyz
  1  'x, y, z'
loop_
 _atom_site_type_symbol
 _atom_site_label
 _atom_site_symmetry_multiplicity
 _atom_site_fract_x
 _atom_site_fract_y
 _atom_site_fract_z
 _atom_site_occupancy
  V  V0  1  0.165694  0.834306  0.647971  1
  V  V1  1  0.834306  0.165694  0.352029  1
  Bi  Bi2  1  0.512918  0.487082  0.250307  1
  Bi  Bi3  1  0.487082  0.512918  0.749693  1
  Pb  Pb4  1  0.157676  0.842324  0.112476  1
  Pb  Pb5  1  0.842324  0.157676  0.887524  1
  O  O6  1  0.736871  0.736871  0.000000  1
  O  O7  1  0.263129  0.263129  0.000000  1
  O  O8  1  0.695572  0.304428  0.285860  1
  O  O9  1  0.304428  0.695572  0.714140  1
  O  O10  1  0.114936  0.383777  0.240625  1
  O  O11  1  0.383777  0.114936  0.759375  1
  O  O12  1  0.899824  0.100176  0.606758  1
  O  O13  1  0.100176  0.899824  0.393242  1
  O  O14  1  0.616223  0.885064  0.240625  1
  O  O15  1  0.885064  0.616223  0.759375  1
