# generated using pymatgen
data_Si3Bi2O9
_symmetry_space_group_name_H-M   'P 1'
_cell_length_a   6.89854005
_cell_length_b   6.89854005
_cell_length_c   9.75470600
_cell_angle_alpha   90.00000000
_cell_angle_beta   90.00000000
_cell_angle_gamma   120.00000000
_symmetry_Int_Tables_number   1
_chemical_formula_structural   Si3Bi2O9
_chemical_formula_sum   'Si6 Bi4 O18'
_cell_volume   402.03067954
_cell_formula_units_Z   2
loop_
 _symmetry_equiv_pos_site_id
 _symmetry_equiv_pos_as_xyz
  1  'x, y, z'
loop_
 _atom_site_type_symbol
 _atom_site_label
 _atom_site_symmetry_multiplicity
 _atom_site_fract_x
 _atom_site_fract_y
 _atom_site_fract_z
 _atom_site_occupancy
  Si  Si0  1  0.216869  0.277755  0.750000  1
  Si  Si1  1  0.722245  0.939114  0.750000  1
  Si  Si2  1  0.783131  0.722245  0.250000  1
  Si  Si3  1  0.939114  0.216869  0.250000  1
  Si  Si4  1  0.060886  0.783131  0.750000  1
  Si  Si5  1  0.277755  0.060886  0.250000  1
  Bi  Bi6  1  0.666667  0.333333  0.520551  1
  Bi  Bi7  1  0.666667  0.333333  0.979449  1
  Bi  Bi8  1  0.333333  0.666667  0.020551  1
  Bi  Bi9  1  0.333333  0.666667  0.479449  1
  O  O10  1  0.192920  0.245820  0.250000  1
  O  O11  1  0.587139  0.928324  0.610381  1
  O  O12  1  0.341185  0.412861  0.889619  1
  O  O13  1  0.947100  0.192920  0.750000  1
  O  O14  1  0.052900  0.807080  0.250000  1
  O  O15  1  0.928324  0.341185  0.389619  1
  O  O16  1  0.928324  0.341185  0.110381  1
  O  O17  1  0.245820  0.052900  0.750000  1
  O  O18  1  0.807080  0.754180  0.750000  1
  O  O19  1  0.071676  0.658815  0.610381  1
  O  O20  1  0.412861  0.071676  0.389619  1
  O  O21  1  0.071676  0.658815  0.889619  1
  O  O22  1  0.658815  0.587139  0.110381  1
  O  O23  1  0.658815  0.587139  0.389619  1
  O  O24  1  0.754180  0.947100  0.250000  1
  O  O25  1  0.412861  0.071676  0.110381  1
  O  O26  1  0.341185  0.412861  0.610381  1
  O  O27  1  0.587139  0.928324  0.889619  1
