# generated using pymatgen
data_CdI2
_symmetry_space_group_name_H-M   'P 1'
_cell_length_a   4.33268491
_cell_length_b   4.33268491
_cell_length_c   67.07753097
_cell_angle_alpha   90.00000000
_cell_angle_beta   90.00000000
_cell_angle_gamma   120.00000000
_symmetry_Int_Tables_number   1
_chemical_formula_structural   CdI2
_chemical_formula_sum   'Cd9 I18'
_cell_volume   1090.49056556
_cell_formula_units_Z   9
loop_
 _symmetry_equiv_pos_site_id
 _symmetry_equiv_pos_as_xyz
  1  'x, y, z'
loop_
 _atom_site_type_symbol
 _atom_site_label
 _atom_site_symmetry_multiplicity
 _atom_site_fract_x
 _atom_site_fract_y
 _atom_site_fract_z
 _atom_site_occupancy
  Cd  Cd0  1  0.000000  0.000000  0.000000  1
  Cd  Cd1  1  0.666667  0.333333  0.111158  1
  Cd  Cd2  1  0.000000  0.000000  0.777808  1
  Cd  Cd3  1  0.000000  0.000000  0.444510  1
  Cd  Cd4  1  0.666667  0.333333  0.333359  1
  Cd  Cd5  1  0.333333  0.666667  0.666641  1
  Cd  Cd6  1  0.000000  0.000000  0.555490  1
  Cd  Cd7  1  0.000000  0.000000  0.222192  1
  Cd  Cd8  1  0.333333  0.666667  0.888842  1
  I  I9  1  0.666667  0.333333  0.863229  1
  I  I10  1  0.000000  0.000000  0.307604  1
  I  I11  1  0.333333  0.666667  0.359105  1
  I  I12  1  0.000000  0.000000  0.914677  1
  I  I13  1  0.666667  0.333333  0.418767  1
  I  I14  1  0.666667  0.333333  0.752053  1
  I  I15  1  0.333333  0.666667  0.470259  1
  I  I16  1  0.000000  0.000000  0.692396  1
  I  I17  1  0.333333  0.666667  0.136771  1
  I  I18  1  0.333333  0.666667  0.247947  1
  I  I19  1  0.666667  0.333333  0.640895  1
  I  I20  1  0.000000  0.000000  0.085323  1
  I  I21  1  0.666667  0.333333  0.196512  1
  I  I22  1  0.333333  0.666667  0.025727  1
  I  I23  1  0.333333  0.666667  0.581233  1
  I  I24  1  0.666667  0.333333  0.974273  1
  I  I25  1  0.333333  0.666667  0.803488  1
  I  I26  1  0.666667  0.333333  0.529741  1
