# generated using pymatgen
data_Ca2SiO4
_symmetry_space_group_name_H-M   'P 1'
_cell_length_a   5.59797978
_cell_length_b   9.34881471
_cell_length_c   20.53646704
_cell_angle_alpha   90.00000000
_cell_angle_beta   90.00000000
_cell_angle_gamma   90.00000000
_symmetry_Int_Tables_number   1
_chemical_formula_structural   Ca2SiO4
_chemical_formula_sum   'Ca24 Si12 O48'
_cell_volume   1074.76523555
_cell_formula_units_Z   12
loop_
 _symmetry_equiv_pos_site_id
 _symmetry_equiv_pos_as_xyz
  1  'x, y, z'
loop_
 _atom_site_type_symbol
 _atom_site_label
 _atom_site_symmetry_multiplicity
 _atom_site_fract_x
 _atom_site_fract_y
 _atom_site_fract_z
 _atom_site_occupancy
  Ca  Ca0  1  0.240567  0.573811  0.279073  1
  Ca  Ca1  1  0.781933  0.058981  0.557366  1
  Ca  Ca2  1  0.765060  0.427097  0.389848  1
  Ca  Ca3  1  0.281933  0.558981  0.942634  1
  Ca  Ca4  1  0.739943  0.703501  0.836149  1
  Ca  Ca5  1  0.759096  0.789675  0.670588  1
  Ca  Ca6  1  0.740567  0.426189  0.720927  1
  Ca  Ca7  1  0.289977  0.199660  0.995930  1
  Ca  Ca8  1  0.281933  0.941019  0.442634  1
  Ca  Ca9  1  0.239943  0.296499  0.163851  1
  Ca  Ca10  1  0.239943  0.203501  0.663851  1
  Ca  Ca11  1  0.789977  0.800340  0.004070  1
  Ca  Ca12  1  0.759096  0.710325  0.170588  1
  Ca  Ca13  1  0.781933  0.441019  0.057367  1
  Ca  Ca14  1  0.789977  0.699660  0.504070  1
  Ca  Ca15  1  0.289977  0.300340  0.495930  1
  Ca  Ca16  1  0.765060  0.072903  0.889848  1
  Ca  Ca17  1  0.240567  0.926189  0.779073  1
  Ca  Ca18  1  0.740567  0.073811  0.220927  1
  Ca  Ca19  1  0.259096  0.210325  0.329412  1
  Ca  Ca20  1  0.739943  0.796499  0.336149  1
  Ca  Ca21  1  0.259096  0.289675  0.829412  1
  Ca  Ca22  1  0.265060  0.572903  0.610152  1
  Ca  Ca23  1  0.265060  0.927097  0.110152  1
  Si  Si24  1  0.258796  0.592444  0.428297  1
  Si  Si25  1  0.286493  0.592503  0.095984  1
  Si  Si26  1  0.258796  0.907556  0.928297  1
  Si  Si27  1  0.786493  0.092503  0.404016  1
  Si  Si28  1  0.744051  0.080219  0.740874  1
  Si  Si29  1  0.758796  0.092444  0.071703  1
  Si  Si30  1  0.744051  0.419781  0.240874  1
  Si  Si31  1  0.244051  0.580219  0.759126  1
  Si  Si32  1  0.758796  0.407556  0.571703  1
  Si  Si33  1  0.786493  0.407497  0.904016  1
  Si  Si34  1  0.244051  0.919781  0.259126  1
  Si  Si35  1  0.286493  0.907497  0.595984  1
  O  O36  1  0.025887  0.662442  0.076624  1
  O  O37  1  0.497293  0.788514  0.580479  1
  O  O38  1  0.340729  0.450260  0.385672  1
  O  O39  1  0.538179  0.295132  0.250119  1
  O  O40  1  0.496559  0.865039  0.224843  1
  O  O41  1  0.335244  0.050325  0.549106  1
  O  O42  1  0.835244  0.550325  0.950894  1
  O  O43  1  0.504734  0.351047  0.605288  1
  O  O44  1  0.840729  0.950260  0.114328  1
  O  O45  1  0.997293  0.211486  0.419521  1
  O  O46  1  0.967064  0.216966  0.076345  1
  O  O47  1  0.797280  0.455292  0.828024  1
  O  O48  1  0.189854  0.548537  0.502961  1
  O  O49  1  0.996559  0.134961  0.775157  1
  O  O50  1  0.189854  0.951463  0.002961  1
  O  O51  1  0.467064  0.783034  0.923655  1
  O  O52  1  0.497293  0.711486  0.080479  1
  O  O53  1  0.798884  0.046005  0.664832  1
  O  O54  1  0.004734  0.648953  0.394712  1
  O  O55  1  0.997293  0.288514  0.919521  1
  O  O56  1  0.667677  0.932216  0.780726  1
  O  O57  1  0.525887  0.162442  0.423376  1
  O  O58  1  0.004734  0.851047  0.894712  1
  O  O59  1  0.167677  0.432216  0.719274  1
  O  O60  1  0.797280  0.044708  0.328024  1
  O  O61  1  0.667677  0.567784  0.280726  1
  O  O62  1  0.467064  0.716966  0.423655  1
  O  O63  1  0.167677  0.067784  0.219274  1
  O  O64  1  0.038179  0.795132  0.249881  1
  O  O65  1  0.297280  0.955292  0.671976  1
  O  O66  1  0.689854  0.048537  0.997039  1
  O  O67  1  0.798884  0.453995  0.164832  1
  O  O68  1  0.298884  0.546005  0.835168  1
  O  O69  1  0.996559  0.365039  0.275157  1
  O  O70  1  0.689854  0.451463  0.497039  1
  O  O71  1  0.335244  0.449675  0.049106  1
  O  O72  1  0.025887  0.837558  0.576624  1
  O  O73  1  0.504734  0.148953  0.105288  1
  O  O74  1  0.340729  0.049740  0.885672  1
  O  O75  1  0.538179  0.204868  0.750119  1
  O  O76  1  0.840729  0.549740  0.614328  1
  O  O77  1  0.298884  0.953995  0.335168  1
  O  O78  1  0.525887  0.337558  0.923376  1
  O  O79  1  0.835244  0.949675  0.450894  1
  O  O80  1  0.496559  0.634961  0.724843  1
  O  O81  1  0.967064  0.283034  0.576345  1
  O  O82  1  0.038179  0.704868  0.749881  1
  O  O83  1  0.297280  0.544708  0.171976  1
