# generated using pymatgen
data_FeP4
_symmetry_space_group_name_H-M   'P 1'
_cell_length_a   5.69972238
_cell_length_b   5.69972238
_cell_length_c   5.53454769
_cell_angle_alpha   90.00000000
_cell_angle_beta   90.00000000
_cell_angle_gamma   127.86350639
_symmetry_Int_Tables_number   1
_chemical_formula_structural   FeP4
_chemical_formula_sum   'Fe2 P8'
_cell_volume   141.94758990
_cell_formula_units_Z   2
loop_
 _symmetry_equiv_pos_site_id
 _symmetry_equiv_pos_as_xyz
  1  'x, y, z'
loop_
 _atom_site_type_symbol
 _atom_site_label
 _atom_site_symmetry_multiplicity
 _atom_site_fract_x
 _atom_site_fract_y
 _atom_site_fract_z
 _atom_site_occupancy
  Fe  Fe0  1  0.825842  0.174158  0.250000  1
  Fe  Fe1  1  0.174158  0.825842  0.750000  1
  P  P2  1  0.636672  0.002658  0.867328  1
  P  P3  1  0.269669  0.306451  0.198278  1
  P  P4  1  0.363328  0.997342  0.367328  1
  P  P5  1  0.306451  0.269669  0.801722  1
  P  P6  1  0.002658  0.636672  0.132672  1
  P  P7  1  0.997342  0.363328  0.632672  1
  P  P8  1  0.730331  0.693549  0.698278  1
  P  P9  1  0.693549  0.730331  0.301722  1
