# generated using pymatgen
data_NaMn3F10
_symmetry_space_group_name_H-M   'P 1'
_cell_length_a   10.42616045
_cell_length_b   8.81495989
_cell_length_c   7.68163099
_cell_angle_alpha   78.06513505
_cell_angle_beta   55.81109842
_cell_angle_gamma   46.12376653
_symmetry_Int_Tables_number   1
_chemical_formula_structural   NaMn3F10
_chemical_formula_sum   'Na2 Mn6 F20'
_cell_volume   400.71935766
_cell_formula_units_Z   2
loop_
 _symmetry_equiv_pos_site_id
 _symmetry_equiv_pos_as_xyz
  1  'x, y, z'
loop_
 _atom_site_type_symbol
 _atom_site_label
 _atom_site_symmetry_multiplicity
 _atom_site_fract_x
 _atom_site_fract_y
 _atom_site_fract_z
 _atom_site_occupancy
  Na  Na0  1  0.013883  0.986117  0.986117  1
  Na  Na1  1  0.263883  0.236117  0.236117  1
  Mn  Mn2  1  0.494615  0.505385  0.505385  1
  Mn  Mn3  1  0.744615  0.755385  0.755385  1
  Mn  Mn4  1  0.741234  0.758234  0.258176  1
  Mn  Mn5  1  0.242356  0.258176  0.758234  1
  Mn  Mn6  1  0.991824  0.007644  0.508766  1
  Mn  Mn7  1  0.491766  0.508766  0.007644  1
  F  F8  1  0.844630  0.882332  0.148857  1
  F  F9  1  0.124181  0.148857  0.882332  1
  F  F10  1  0.101143  0.125819  0.405370  1
  F  F11  1  0.367668  0.405370  0.125819  1
  F  F12  1  0.784056  0.208119  0.808635  1
  F  F13  1  0.199189  0.808635  0.208119  1
  F  F14  1  0.441365  0.050811  0.465944  1
  F  F15  1  0.041881  0.465944  0.050811  1
  F  F16  1  0.463866  0.039489  0.841859  1
  F  F17  1  0.654786  0.841859  0.039489  1
  F  F18  1  0.408141  0.595214  0.786134  1
  F  F19  1  0.210511  0.786134  0.595214  1
  F  F20  1  0.364427  0.369537  0.635407  1
  F  F21  1  0.630628  0.635407  0.369537  1
  F  F22  1  0.614593  0.619372  0.885573  1
  F  F23  1  0.880463  0.885573  0.619372  1
  F  F24  1  0.824874  0.673207  0.477446  1
  F  F25  1  0.024473  0.477446  0.673207  1
  F  F26  1  0.772554  0.225527  0.425126  1
  F  F27  1  0.576793  0.425126  0.225527  1
