# generated using pymatgen
data_S
_symmetry_space_group_name_H-M   'P 1'
_cell_length_a   9.55845829
_cell_length_b   14.21192087
_cell_length_c   19.74620103
_cell_angle_alpha   90.00000000
_cell_angle_beta   90.00000000
_cell_angle_gamma   90.00000000
_symmetry_Int_Tables_number   1
_chemical_formula_structural   S
_chemical_formula_sum   S80
_cell_volume   2682.40397644
_cell_formula_units_Z   80
loop_
 _symmetry_equiv_pos_site_id
 _symmetry_equiv_pos_as_xyz
  1  'x, y, z'
loop_
 _atom_site_type_symbol
 _atom_site_label
 _atom_site_symmetry_multiplicity
 _atom_site_fract_x
 _atom_site_fract_y
 _atom_site_fract_z
 _atom_site_occupancy
  S  S0  1  0.288747  0.984872  0.451132  1
  S  S1  1  0.633266  0.730613  0.757640  1
  S  S2  1  0.768448  0.302648  0.448571  1
  S  S3  1  0.231552  0.697352  0.551429  1
  S  S4  1  0.536058  0.801230  0.679223  1
  S  S5  1  0.074754  0.101647  0.927019  1
  S  S6  1  0.211253  0.984872  0.548868  1
  S  S7  1  0.788747  0.015128  0.451132  1
  S  S8  1  0.574754  0.398353  0.572981  1
  S  S9  1  0.711253  0.515128  0.951132  1
  S  S10  1  0.731552  0.802648  0.948571  1
  S  S11  1  0.866734  0.230613  0.257640  1
  S  S12  1  0.805176  0.405458  0.899713  1
  S  S13  1  0.665911  0.794123  0.595782  1
  S  S14  1  0.866734  0.730613  0.242360  1
  S  S15  1  0.329281  0.474632  0.406237  1
  S  S16  1  0.170719  0.474632  0.593763  1
  S  S17  1  0.829281  0.525368  0.406237  1
  S  S18  1  0.919563  0.090059  0.251169  1
  S  S19  1  0.694824  0.905458  0.399713  1
  S  S20  1  0.731552  0.302648  0.551429  1
  S  S21  1  0.268448  0.697352  0.448571  1
  S  S22  1  0.633266  0.230613  0.742360  1
  S  S23  1  0.574754  0.898353  0.927019  1
  S  S24  1  0.732893  0.024066  0.805773  1
  S  S25  1  0.463942  0.198770  0.320777  1
  S  S26  1  0.036058  0.198770  0.679223  1
  S  S27  1  0.768448  0.802648  0.051429  1
  S  S28  1  0.767107  0.524066  0.305773  1
  S  S29  1  0.711253  0.015128  0.548868  1
  S  S30  1  0.829281  0.025368  0.093763  1
  S  S31  1  0.788747  0.515128  0.048868  1
  S  S32  1  0.694824  0.405458  0.100287  1
  S  S33  1  0.536058  0.301230  0.820777  1
  S  S34  1  0.211253  0.484872  0.951132  1
  S  S35  1  0.305176  0.094542  0.600287  1
  S  S36  1  0.334089  0.205877  0.404218  1
  S  S37  1  0.580437  0.090059  0.748831  1
  S  S38  1  0.665911  0.294123  0.904218  1
  S  S39  1  0.334089  0.705877  0.095782  1
  S  S40  1  0.963942  0.301230  0.179223  1
  S  S41  1  0.805176  0.905458  0.600287  1
  S  S42  1  0.732893  0.524066  0.694227  1
  S  S43  1  0.268448  0.197352  0.051429  1
  S  S44  1  0.074754  0.601647  0.572981  1
  S  S45  1  0.133266  0.269387  0.757640  1
  S  S46  1  0.925246  0.898353  0.072981  1
  S  S47  1  0.963942  0.801230  0.320777  1
  S  S48  1  0.080437  0.909941  0.748831  1
  S  S49  1  0.288747  0.484872  0.048868  1
  S  S50  1  0.231552  0.197352  0.948571  1
  S  S51  1  0.305176  0.594542  0.899713  1
  S  S52  1  0.329281  0.974632  0.093763  1
  S  S53  1  0.366734  0.269387  0.242360  1
  S  S54  1  0.670719  0.525368  0.593763  1
  S  S55  1  0.165911  0.205877  0.595782  1
  S  S56  1  0.267107  0.975934  0.194227  1
  S  S57  1  0.194824  0.594542  0.100287  1
  S  S58  1  0.670719  0.025368  0.906237  1
  S  S59  1  0.165911  0.705877  0.904218  1
  S  S60  1  0.425246  0.101647  0.072981  1
  S  S61  1  0.267107  0.475934  0.305773  1
  S  S62  1  0.767107  0.024066  0.194227  1
  S  S63  1  0.232893  0.975934  0.805773  1
  S  S64  1  0.834089  0.794123  0.404218  1
  S  S65  1  0.419563  0.909941  0.251169  1
  S  S66  1  0.232893  0.475934  0.694227  1
  S  S67  1  0.834089  0.294123  0.095782  1
  S  S68  1  0.036058  0.698770  0.820777  1
  S  S69  1  0.925246  0.398353  0.427019  1
  S  S70  1  0.463942  0.698770  0.179223  1
  S  S71  1  0.080437  0.409941  0.751169  1
  S  S72  1  0.170719  0.974632  0.906237  1
  S  S73  1  0.366734  0.769387  0.257640  1
  S  S74  1  0.425246  0.601647  0.427019  1
  S  S75  1  0.419563  0.409941  0.248831  1
  S  S76  1  0.194824  0.094542  0.399713  1
  S  S77  1  0.133266  0.769387  0.742360  1
  S  S78  1  0.580437  0.590059  0.751169  1
  S  S79  1  0.919563  0.590059  0.248831  1
