# generated using pymatgen
data_Na4Si2Te5
_symmetry_space_group_name_H-M   'P 1'
_cell_length_a   14.24839236
_cell_length_b   12.96756145
_cell_length_c   15.06802370
_cell_angle_alpha   90.00000000
_cell_angle_beta   92.09225896
_cell_angle_gamma   90.00000000
_symmetry_Int_Tables_number   1
_chemical_formula_structural   Na4Si2Te5
_chemical_formula_sum   'Na32 Si16 Te40'
_cell_volume   2782.21603787
_cell_formula_units_Z   8
loop_
 _symmetry_equiv_pos_site_id
 _symmetry_equiv_pos_as_xyz
  1  'x, y, z'
loop_
 _atom_site_type_symbol
 _atom_site_label
 _atom_site_symmetry_multiplicity
 _atom_site_fract_x
 _atom_site_fract_y
 _atom_site_fract_z
 _atom_site_occupancy
  Na  Na0  1  0.803124  0.088984  0.860718  1
  Na  Na1  1  0.095139  0.122769  0.951816  1
  Na  Na2  1  0.196876  0.911016  0.139282  1
  Na  Na3  1  0.904861  0.877231  0.048184  1
  Na  Na4  1  0.507518  0.907239  0.270368  1
  Na  Na5  1  0.096927  0.878155  0.440037  1
  Na  Na6  1  0.577651  0.635223  0.427576  1
  Na  Na7  1  0.196876  0.588984  0.639282  1
  Na  Na8  1  0.382149  0.634948  0.034032  1
  Na  Na9  1  0.492482  0.407239  0.229632  1
  Na  Na10  1  0.422349  0.135223  0.072424  1
  Na  Na11  1  0.803124  0.411016  0.360718  1
  Na  Na12  1  0.617851  0.365052  0.965968  1
  Na  Na13  1  0.903073  0.121845  0.559963  1
  Na  Na14  1  0.382149  0.865052  0.534032  1
  Na  Na15  1  0.987278  0.843787  0.765131  1
  Na  Na16  1  0.710401  0.857229  0.651857  1
  Na  Na17  1  0.096927  0.621845  0.940037  1
  Na  Na18  1  0.289599  0.142771  0.348143  1
  Na  Na19  1  0.903073  0.378155  0.059963  1
  Na  Na20  1  0.012722  0.156213  0.234869  1
  Na  Na21  1  0.422349  0.364777  0.572424  1
  Na  Na22  1  0.507518  0.592761  0.770368  1
  Na  Na23  1  0.987278  0.656213  0.265131  1
  Na  Na24  1  0.904861  0.622769  0.548184  1
  Na  Na25  1  0.289599  0.357229  0.848143  1
  Na  Na26  1  0.095139  0.377231  0.451816  1
  Na  Na27  1  0.492482  0.092761  0.729632  1
  Na  Na28  1  0.710401  0.642771  0.151857  1
  Na  Na29  1  0.577651  0.864777  0.927576  1
  Na  Na30  1  0.617851  0.134948  0.465968  1
  Na  Na31  1  0.012722  0.343787  0.734869  1
  Si  Si32  1  0.277825  0.591477  0.409150  1
  Si  Si33  1  0.221257  0.340369  0.086806  1
  Si  Si34  1  0.175809  0.057865  0.708966  1
  Si  Si35  1  0.318843  0.807213  0.786301  1
  Si  Si36  1  0.681157  0.307213  0.713699  1
  Si  Si37  1  0.722175  0.408523  0.590850  1
  Si  Si38  1  0.277825  0.908523  0.909150  1
  Si  Si39  1  0.722175  0.091477  0.090850  1
  Si  Si40  1  0.778743  0.659631  0.913194  1
  Si  Si41  1  0.221257  0.159631  0.586806  1
  Si  Si42  1  0.681157  0.192787  0.213699  1
  Si  Si43  1  0.824191  0.557865  0.791034  1
  Si  Si44  1  0.824191  0.942135  0.291034  1
  Si  Si45  1  0.175809  0.442135  0.208966  1
  Si  Si46  1  0.778743  0.840369  0.413194  1
  Si  Si47  1  0.318843  0.692787  0.286301  1
  Te  Te48  1  0.103402  0.127645  0.461094  1
  Te  Te49  1  0.292124  0.622426  0.829563  1
  Te  Te50  1  0.103402  0.372355  0.961094  1
  Te  Te51  1  0.989983  0.595562  0.752031  1
  Te  Te52  1  0.807300  0.365194  0.833999  1
  Te  Te53  1  0.293795  0.408323  0.340221  1
  Te  Te54  1  0.707876  0.122426  0.670437  1
  Te  Te55  1  0.480964  0.841549  0.734664  1
  Te  Te56  1  0.519036  0.158451  0.265336  1
  Te  Te57  1  0.888419  0.128325  0.050919  1
  Te  Te58  1  0.706205  0.591677  0.659779  1
  Te  Te59  1  0.896598  0.627645  0.038906  1
  Te  Te60  1  0.384489  0.115321  0.539564  1
  Te  Te61  1  0.896598  0.872355  0.538906  1
  Te  Te62  1  0.786161  0.658340  0.352623  1
  Te  Te63  1  0.192700  0.634806  0.166001  1
  Te  Te64  1  0.390538  0.883891  0.037842  1
  Te  Te65  1  0.384489  0.384679  0.039564  1
  Te  Te66  1  0.010017  0.404438  0.247969  1
  Te  Te67  1  0.786161  0.841660  0.852623  1
  Te  Te68  1  0.609462  0.383891  0.462158  1
  Te  Te69  1  0.615511  0.884679  0.460436  1
  Te  Te70  1  0.390538  0.616109  0.537842  1
  Te  Te71  1  0.480964  0.658451  0.234664  1
  Te  Te72  1  0.293795  0.091677  0.840221  1
  Te  Te73  1  0.807300  0.134806  0.333999  1
  Te  Te74  1  0.707876  0.377574  0.170437  1
  Te  Te75  1  0.888419  0.371675  0.550919  1
  Te  Te76  1  0.010017  0.095562  0.747969  1
  Te  Te77  1  0.213839  0.341660  0.647377  1
  Te  Te78  1  0.111581  0.871675  0.949081  1
  Te  Te79  1  0.111581  0.628325  0.449081  1
  Te  Te80  1  0.615511  0.615321  0.960436  1
  Te  Te81  1  0.609462  0.116109  0.962158  1
  Te  Te82  1  0.989983  0.904438  0.252031  1
  Te  Te83  1  0.192700  0.865194  0.666001  1
  Te  Te84  1  0.292124  0.877574  0.329563  1
  Te  Te85  1  0.519036  0.341549  0.765336  1
  Te  Te86  1  0.213839  0.158340  0.147377  1
  Te  Te87  1  0.706205  0.908323  0.159779  1
