# generated using pymatgen
data_NaLiCO3
_symmetry_space_group_name_H-M   'P 1'
_cell_length_a   8.41836185
_cell_length_b   8.41836185
_cell_length_c   3.40376078
_cell_angle_alpha   90.00000000
_cell_angle_beta   90.00000000
_cell_angle_gamma   120.00000000
_symmetry_Int_Tables_number   1
_chemical_formula_structural   NaLiCO3
_chemical_formula_sum   'Na3 Li3 C3 O9'
_cell_volume   208.90307831
_cell_formula_units_Z   3
loop_
 _symmetry_equiv_pos_site_id
 _symmetry_equiv_pos_as_xyz
  1  'x, y, z'
loop_
 _atom_site_type_symbol
 _atom_site_label
 _atom_site_symmetry_multiplicity
 _atom_site_fract_x
 _atom_site_fract_y
 _atom_site_fract_z
 _atom_site_occupancy
  Na  Na0  1  0.344482  0.344482  0.500000  1
  Na  Na1  1  0.000000  0.655518  0.500000  1
  Na  Na2  1  0.655518  0.000000  0.500000  1
  Li  Li3  1  0.710211  0.710211  0.000000  1
  Li  Li4  1  0.289789  0.000000  0.000000  1
  Li  Li5  1  0.000000  0.289789  0.000000  1
  C  C6  1  0.666667  0.333333  0.000000  1
  C  C7  1  0.333333  0.666667  0.000000  1
  C  C8  1  0.000000  0.000000  0.500000  1
  O  O9  1  0.845524  0.845524  0.500000  1
  O  O10  1  0.236522  0.748030  0.000000  1
  O  O11  1  0.488493  0.251970  0.000000  1
  O  O12  1  0.154476  0.000000  0.500000  1
  O  O13  1  0.000000  0.154476  0.500000  1
  O  O14  1  0.748030  0.236522  0.000000  1
  O  O15  1  0.511507  0.763478  0.000000  1
  O  O16  1  0.251970  0.488493  0.000000  1
  O  O17  1  0.763478  0.511507  0.000000  1
