# generated using pymatgen
data_LiCuO
_symmetry_space_group_name_H-M   'P 1'
_cell_length_a   6.32392832
_cell_length_b   6.32392832
_cell_length_c   6.32392832
_cell_angle_alpha   95.53735753
_cell_angle_beta   95.53735753
_cell_angle_gamma   143.80487060
_symmetry_Int_Tables_number   1
_chemical_formula_structural   LiCuO
_chemical_formula_sum   'Li4 Cu4 O4'
_cell_volume   141.96239646
_cell_formula_units_Z   4
loop_
 _symmetry_equiv_pos_site_id
 _symmetry_equiv_pos_as_xyz
  1  'x, y, z'
loop_
 _atom_site_type_symbol
 _atom_site_label
 _atom_site_symmetry_multiplicity
 _atom_site_fract_x
 _atom_site_fract_y
 _atom_site_fract_z
 _atom_site_occupancy
  Li  Li0  1  0.348521  0.000000  0.348521  1
  Li  Li1  1  0.651479  0.000000  0.651479  1
  Li  Li2  1  0.000000  0.651479  0.651479  1
  Li  Li3  1  0.000000  0.348521  0.348521  1
  Cu  Cu4  1  0.657560  0.342441  0.000000  1
  Cu  Cu5  1  0.342441  0.657560  0.000000  1
  Cu  Cu6  1  0.342441  0.342441  0.684881  1
  Cu  Cu7  1  0.657560  0.657560  0.315119  1
  O  O8  1  0.189615  0.500000  0.689615  1
  O  O9  1  0.810385  0.500000  0.310385  1
  O  O10  1  0.500000  0.810385  0.310385  1
  O  O11  1  0.500000  0.189615  0.689615  1
