# generated using pymatgen
data_RbAu(SO4)2
_symmetry_space_group_name_H-M   'P 1'
_cell_length_a   4.35617075
_cell_length_b   5.16817726
_cell_length_c   9.03767070
_cell_angle_alpha   103.04377174
_cell_angle_beta   88.30908707
_cell_angle_gamma   105.68840958
_symmetry_Int_Tables_number   1
_chemical_formula_structural   RbAu(SO4)2
_chemical_formula_sum   'Rb1 Au1 S2 O8'
_cell_volume   190.72715464
_cell_formula_units_Z   1
loop_
 _symmetry_equiv_pos_site_id
 _symmetry_equiv_pos_as_xyz
  1  'x, y, z'
loop_
 _atom_site_type_symbol
 _atom_site_label
 _atom_site_symmetry_multiplicity
 _atom_site_fract_x
 _atom_site_fract_y
 _atom_site_fract_z
 _atom_site_occupancy
  Rb  Rb0  1  0.000000  0.500000  0.000000  1
  Au  Au1  1  0.000000  0.000000  0.500000  1
  S  S2  1  0.550642  0.123474  0.268868  1
  S  S3  1  0.449358  0.876526  0.731132  1
  O  O4  1  0.523380  0.633339  0.757515  1
  O  O5  1  0.320024  0.038145  0.857781  1
  O  O6  1  0.679976  0.961855  0.142219  1
  O  O7  1  0.220959  0.765124  0.589213  1
  O  O8  1  0.779041  0.234876  0.410787  1
  O  O9  1  0.251844  0.911262  0.310273  1
  O  O10  1  0.748156  0.088738  0.689727  1
  O  O11  1  0.476620  0.366661  0.242485  1
