# generated using pymatgen
data_Sr2GeO4
_symmetry_space_group_name_H-M   'P 1'
_cell_length_a   5.91828062
_cell_length_b   7.29468940
_cell_length_c   11.25951134
_cell_angle_alpha   90.00000000
_cell_angle_beta   117.10950729
_cell_angle_gamma   90.00000000
_symmetry_Int_Tables_number   1
_chemical_formula_structural   Sr2GeO4
_chemical_formula_sum   'Sr8 Ge4 O16'
_cell_volume   432.69198799
_cell_formula_units_Z   4
loop_
 _symmetry_equiv_pos_site_id
 _symmetry_equiv_pos_as_xyz
  1  'x, y, z'
loop_
 _atom_site_type_symbol
 _atom_site_label
 _atom_site_symmetry_multiplicity
 _atom_site_fract_x
 _atom_site_fract_y
 _atom_site_fract_z
 _atom_site_occupancy
  Sr  Sr0  1  0.298300  0.345252  0.569016  1
  Sr  Sr1  1  0.701700  0.845252  0.930984  1
  Sr  Sr2  1  0.701700  0.654748  0.430984  1
  Sr  Sr3  1  0.298300  0.154748  0.069016  1
  Sr  Sr4  1  0.020311  0.994891  0.299660  1
  Sr  Sr5  1  0.979689  0.494891  0.200340  1
  Sr  Sr6  1  0.979689  0.005109  0.700340  1
  Sr  Sr7  1  0.020311  0.505109  0.799660  1
  Ge  Ge8  1  0.348739  0.783869  0.584016  1
  Ge  Ge9  1  0.651261  0.283869  0.915984  1
  Ge  Ge10  1  0.651261  0.216131  0.415984  1
  Ge  Ge11  1  0.348739  0.716131  0.084016  1
  O  O12  1  0.274396  0.017808  0.556991  1
  O  O13  1  0.725604  0.517808  0.943009  1
  O  O14  1  0.725604  0.982192  0.443009  1
  O  O15  1  0.274396  0.482192  0.056991  1
  O  O16  1  0.270610  0.665964  0.429513  1
  O  O17  1  0.729390  0.165964  0.070487  1
  O  O18  1  0.729390  0.334036  0.570487  1
  O  O19  1  0.270610  0.834036  0.929513  1
  O  O20  1  0.143438  0.674106  0.639947  1
  O  O21  1  0.856562  0.174106  0.860053  1
  O  O22  1  0.856562  0.325894  0.360053  1
  O  O23  1  0.143438  0.825894  0.139947  1
  O  O24  1  0.675349  0.752100  0.696814  1
  O  O25  1  0.324651  0.252100  0.803186  1
  O  O26  1  0.324651  0.247900  0.303186  1
  O  O27  1  0.675349  0.747900  0.196814  1
