# generated using pymatgen
data_SbSe(BrF2)3
_symmetry_space_group_name_H-M   'P 1'
_cell_length_a   8.52494285
_cell_length_b   9.72428654
_cell_length_c   12.85796603
_cell_angle_alpha   90.00000000
_cell_angle_beta   90.00000000
_cell_angle_gamma   90.00000000
_symmetry_Int_Tables_number   1
_chemical_formula_structural   SbSe(BrF2)3
_chemical_formula_sum   'Sb4 Se4 Br12 F24'
_cell_volume   1065.91235890
_cell_formula_units_Z   4
loop_
 _symmetry_equiv_pos_site_id
 _symmetry_equiv_pos_as_xyz
  1  'x, y, z'
loop_
 _atom_site_type_symbol
 _atom_site_label
 _atom_site_symmetry_multiplicity
 _atom_site_fract_x
 _atom_site_fract_y
 _atom_site_fract_z
 _atom_site_occupancy
  Sb  Sb0  1  0.812553  0.459962  0.183411  1
  Sb  Sb1  1  0.687447  0.540038  0.683411  1
  Sb  Sb2  1  0.187447  0.959962  0.316589  1
  Sb  Sb3  1  0.312553  0.040038  0.816589  1
  Se  Se4  1  0.364319  0.466169  0.970930  1
  Se  Se5  1  0.135681  0.533831  0.470930  1
  Se  Se6  1  0.864319  0.033831  0.029070  1
  Se  Se7  1  0.635681  0.966169  0.529070  1
  Br  Br8  1  0.859652  0.988910  0.630463  1
  Br  Br9  1  0.860515  0.825089  0.942319  1
  Br  Br10  1  0.359652  0.511090  0.369537  1
  Br  Br11  1  0.209369  0.684022  0.602073  1
  Br  Br12  1  0.140348  0.488910  0.869537  1
  Br  Br13  1  0.290631  0.315978  0.102073  1
  Br  Br14  1  0.790631  0.184022  0.897927  1
  Br  Br15  1  0.640348  0.011090  0.130463  1
  Br  Br16  1  0.360515  0.674911  0.057681  1
  Br  Br17  1  0.139485  0.325089  0.557681  1
  Br  Br18  1  0.709369  0.815978  0.397927  1
  Br  Br19  1  0.639485  0.174911  0.442319  1
  F  F20  1  0.261212  0.139499  0.277168  1
  F  F21  1  0.053977  0.952042  0.195834  1
  F  F22  1  0.675884  0.459415  0.063716  1
  F  F23  1  0.824116  0.540585  0.563716  1
  F  F24  1  0.386232  0.220712  0.855347  1
  F  F25  1  0.613768  0.720712  0.644653  1
  F  F26  1  0.854889  0.619967  0.764014  1
  F  F27  1  0.446023  0.047958  0.695834  1
  F  F28  1  0.113768  0.779288  0.355347  1
  F  F29  1  0.738788  0.639499  0.222832  1
  F  F30  1  0.354889  0.880033  0.235986  1
  F  F31  1  0.175884  0.040585  0.936284  1
  F  F32  1  0.976008  0.542267  0.103314  1
  F  F33  1  0.238788  0.860501  0.777168  1
  F  F34  1  0.645111  0.380033  0.264014  1
  F  F35  1  0.946023  0.452042  0.304166  1
  F  F36  1  0.476008  0.957733  0.896686  1
  F  F37  1  0.145111  0.119967  0.735986  1
  F  F38  1  0.553977  0.547958  0.804166  1
  F  F39  1  0.523992  0.457733  0.603314  1
  F  F40  1  0.023992  0.042267  0.396686  1
  F  F41  1  0.886232  0.279288  0.144653  1
  F  F42  1  0.324116  0.959415  0.436284  1
  F  F43  1  0.761212  0.360501  0.722832  1
