# generated using pymatgen
data_Sm3Si2S8I
_symmetry_space_group_name_H-M   'P 1'
_cell_length_a   8.85329525
_cell_length_b   8.85329525
_cell_length_c   10.80343698
_cell_angle_alpha   82.45814855
_cell_angle_beta   97.54185145
_cell_angle_gamma   127.80433990
_symmetry_Int_Tables_number   1
_chemical_formula_structural   Sm3Si2S8I
_chemical_formula_sum   'Sm6 Si4 S16 I2'
_cell_volume   661.86597233
_cell_formula_units_Z   2
loop_
 _symmetry_equiv_pos_site_id
 _symmetry_equiv_pos_as_xyz
  1  'x, y, z'
loop_
 _atom_site_type_symbol
 _atom_site_label
 _atom_site_symmetry_multiplicity
 _atom_site_fract_x
 _atom_site_fract_y
 _atom_site_fract_z
 _atom_site_occupancy
  Sm  Sm0  1  0.075962  0.675965  0.181400  1
  Sm  Sm1  1  0.924038  0.324035  0.818600  1
  Sm  Sm2  1  0.324035  0.924038  0.681400  1
  Sm  Sm3  1  0.396740  0.396740  0.250000  1
  Sm  Sm4  1  0.675965  0.075962  0.318600  1
  Sm  Sm5  1  0.603260  0.603260  0.750000  1
  Si  Si6  1  0.303421  0.621780  0.472286  1
  Si  Si7  1  0.621780  0.303421  0.027714  1
  Si  Si8  1  0.378220  0.696579  0.972286  1
  Si  Si9  1  0.696579  0.378220  0.527714  1
  S  S10  1  0.603898  0.892195  0.853021  1
  S  S11  1  0.449500  0.746808  0.165668  1
  S  S12  1  0.148733  0.713566  0.913792  1
  S  S13  1  0.746808  0.449500  0.334332  1
  S  S14  1  0.396102  0.107805  0.146979  1
  S  S15  1  0.851267  0.286434  0.086208  1
  S  S16  1  0.107805  0.396102  0.353021  1
  S  S17  1  0.550500  0.253192  0.834332  1
  S  S18  1  0.713566  0.148733  0.586208  1
  S  S19  1  0.286434  0.851267  0.413792  1
  S  S20  1  0.589990  0.725656  0.460027  1
  S  S21  1  0.410010  0.274344  0.539973  1
  S  S22  1  0.253192  0.550500  0.665668  1
  S  S23  1  0.892195  0.603898  0.646979  1
  S  S24  1  0.725656  0.589990  0.039973  1
  S  S25  1  0.274344  0.410010  0.960027  1
  I  I26  1  0.984862  0.984862  0.250000  1
  I  I27  1  0.015138  0.015138  0.750000  1
