# generated using pymatgen
data_Pr2O3
_symmetry_space_group_name_H-M   'P 1'
_cell_length_a   7.56823714
_cell_length_b   7.56823714
_cell_length_c   9.13814520
_cell_angle_alpha   80.14918886
_cell_angle_beta   99.85081114
_cell_angle_gamma   151.36884483
_symmetry_Int_Tables_number   1
_chemical_formula_structural   Pr2O3
_chemical_formula_sum   'Pr6 O9'
_cell_volume   246.86468149
_cell_formula_units_Z   3
loop_
 _symmetry_equiv_pos_site_id
 _symmetry_equiv_pos_as_xyz
  1  'x, y, z'
loop_
 _atom_site_type_symbol
 _atom_site_label
 _atom_site_symmetry_multiplicity
 _atom_site_fract_x
 _atom_site_fract_y
 _atom_site_fract_z
 _atom_site_occupancy
  Pr  Pr0  1  0.033272  0.966728  0.811771  1
  Pr  Pr1  1  0.966728  0.033272  0.188229  1
  Pr  Pr2  1  0.690797  0.309203  0.138069  1
  Pr  Pr3  1  0.365558  0.634442  0.510009  1
  Pr  Pr4  1  0.634442  0.365558  0.489991  1
  Pr  Pr5  1  0.309203  0.690797  0.861931  1
  O  O6  1  0.870815  0.129185  0.714175  1
  O  O7  1  0.824531  0.175469  0.026349  1
  O  O8  1  0.526091  0.473909  0.655929  1
  O  O9  1  0.201742  0.798258  0.626974  1
  O  O10  1  0.129185  0.870815  0.285825  1
  O  O11  1  0.500000  0.500000  0.000000  1
  O  O12  1  0.473909  0.526091  0.344071  1
  O  O13  1  0.175469  0.824531  0.973651  1
  O  O14  1  0.798258  0.201742  0.373026  1
