# generated using pymatgen
data_BaHgRuO5
_symmetry_space_group_name_H-M   'P 1'
_cell_length_a   10.36590785
_cell_length_b   10.36590785
_cell_length_c   8.62070103
_cell_angle_alpha   90.00000000
_cell_angle_beta   90.00000000
_cell_angle_gamma   120.00000000
_symmetry_Int_Tables_number   1
_chemical_formula_structural   BaHgRuO5
_chemical_formula_sum   'Ba6 Hg6 Ru6 O30'
_cell_volume   802.20968940
_cell_formula_units_Z   6
loop_
 _symmetry_equiv_pos_site_id
 _symmetry_equiv_pos_as_xyz
  1  'x, y, z'
loop_
 _atom_site_type_symbol
 _atom_site_label
 _atom_site_symmetry_multiplicity
 _atom_site_fract_x
 _atom_site_fract_y
 _atom_site_fract_z
 _atom_site_occupancy
  Ba  Ba0  1  0.333333  0.666667  0.483359  1
  Ba  Ba1  1  0.666667  0.333333  0.516641  1
  Ba  Ba2  1  0.666667  0.333333  0.983359  1
  Ba  Ba3  1  0.000000  0.000000  0.000000  1
  Ba  Ba4  1  0.333333  0.666667  0.016641  1
  Ba  Ba5  1  0.000000  0.000000  0.500000  1
  Hg  Hg6  1  0.666732  0.987186  0.750000  1
  Hg  Hg7  1  0.012814  0.679546  0.750000  1
  Hg  Hg8  1  0.679546  0.666732  0.250000  1
  Hg  Hg9  1  0.320454  0.333268  0.750000  1
  Hg  Hg10  1  0.987186  0.320454  0.250000  1
  Hg  Hg11  1  0.333268  0.012814  0.250000  1
  Ru  Ru12  1  0.657663  0.987383  0.250000  1
  Ru  Ru13  1  0.987383  0.329720  0.750000  1
  Ru  Ru14  1  0.342337  0.012617  0.750000  1
  Ru  Ru15  1  0.012617  0.670280  0.250000  1
  Ru  Ru16  1  0.329720  0.342337  0.250000  1
  Ru  Ru17  1  0.670280  0.657663  0.750000  1
  O  O18  1  0.090788  0.208164  0.750000  1
  O  O19  1  0.243041  0.350944  0.426339  1
  O  O20  1  0.570630  0.119712  0.750000  1
  O  O21  1  0.336739  0.836414  0.750000  1
  O  O22  1  0.649056  0.892097  0.073661  1
  O  O23  1  0.649056  0.892097  0.426339  1
  O  O24  1  0.756959  0.649056  0.926339  1
  O  O25  1  0.163586  0.500325  0.750000  1
  O  O26  1  0.500325  0.336739  0.250000  1
  O  O27  1  0.791836  0.882624  0.750000  1
  O  O28  1  0.350944  0.107903  0.926339  1
  O  O29  1  0.892097  0.243041  0.573661  1
  O  O30  1  0.892097  0.243041  0.926339  1
  O  O31  1  0.107903  0.756959  0.426339  1
  O  O32  1  0.909212  0.791836  0.250000  1
  O  O33  1  0.836414  0.499675  0.250000  1
  O  O34  1  0.882624  0.090788  0.250000  1
  O  O35  1  0.880288  0.450918  0.750000  1
  O  O36  1  0.350944  0.107903  0.573661  1
  O  O37  1  0.429370  0.880288  0.250000  1
  O  O38  1  0.117376  0.909212  0.750000  1
  O  O39  1  0.499675  0.663261  0.750000  1
  O  O40  1  0.450918  0.570630  0.250000  1
  O  O41  1  0.756959  0.649056  0.573661  1
  O  O42  1  0.243041  0.350944  0.073661  1
  O  O43  1  0.107903  0.756959  0.073661  1
  O  O44  1  0.549082  0.429370  0.750000  1
  O  O45  1  0.663261  0.163586  0.250000  1
  O  O46  1  0.119712  0.549082  0.250000  1
  O  O47  1  0.208164  0.117376  0.250000  1
