# generated using pymatgen
data_PCl5
_symmetry_space_group_name_H-M   'P 1'
_cell_length_a   8.78962468
_cell_length_b   8.78962468
_cell_length_c   9.24075421
_cell_angle_alpha   61.54518273
_cell_angle_beta   118.45481727
_cell_angle_gamma   120.84496237
_symmetry_Int_Tables_number   1
_chemical_formula_structural   PCl5
_chemical_formula_sum   'P3 Cl15'
_cell_volume   512.76778010
_cell_formula_units_Z   3
loop_
 _symmetry_equiv_pos_site_id
 _symmetry_equiv_pos_as_xyz
  1  'x, y, z'
loop_
 _atom_site_type_symbol
 _atom_site_label
 _atom_site_symmetry_multiplicity
 _atom_site_fract_x
 _atom_site_fract_y
 _atom_site_fract_z
 _atom_site_occupancy
  P  P0  1  0.260149  0.739851  0.776195  1
  P  P1  1  0.739851  0.260149  0.223805  1
  P  P2  1  0.500000  0.500000  0.500000  1
  Cl  Cl3  1  0.338717  0.661283  0.425799  1
  Cl  Cl4  1  0.639511  0.713153  0.308473  1
  Cl  Cl5  1  0.148220  0.851780  0.528831  1
  Cl  Cl6  1  0.533301  0.838877  0.833005  1
  Cl  Cl7  1  0.661283  0.338717  0.574201  1
  Cl  Cl8  1  0.713153  0.639511  0.691527  1
  Cl  Cl9  1  0.286847  0.360489  0.308473  1
  Cl  Cl10  1  0.804833  0.195167  0.089324  1
  Cl  Cl11  1  0.466699  0.161123  0.166995  1
  Cl  Cl12  1  0.195167  0.804833  0.910676  1
  Cl  Cl13  1  0.851780  0.148220  0.471169  1
  Cl  Cl14  1  0.360489  0.286847  0.691527  1
  Cl  Cl15  1  0.161123  0.466699  0.833005  1
  Cl  Cl16  1  0.000000  0.000000  0.000000  1
  Cl  Cl17  1  0.838877  0.533301  0.166995  1
