# generated using pymatgen
data_Hg9P5I6
_symmetry_space_group_name_H-M   'P 1'
_cell_length_a   13.42696415
_cell_length_b   12.71593073
_cell_length_c   17.65692907
_cell_angle_alpha   90.00000000
_cell_angle_beta   119.77140247
_cell_angle_gamma   90.00000000
_symmetry_Int_Tables_number   1
_chemical_formula_structural   Hg9P5I6
_chemical_formula_sum   'Hg36 P20 I24'
_cell_volume   2616.78223297
_cell_formula_units_Z   4
loop_
 _symmetry_equiv_pos_site_id
 _symmetry_equiv_pos_as_xyz
  1  'x, y, z'
loop_
 _atom_site_type_symbol
 _atom_site_label
 _atom_site_symmetry_multiplicity
 _atom_site_fract_x
 _atom_site_fract_y
 _atom_site_fract_z
 _atom_site_occupancy
  Hg  Hg0  1  0.758360  0.895415  0.738025  1
  Hg  Hg1  1  0.649310  0.180139  0.725282  1
  Hg  Hg2  1  0.597711  0.475150  0.570007  1
  Hg  Hg3  1  0.123690  0.098030  0.711251  1
  Hg  Hg4  1  0.402289  0.524850  0.429993  1
  Hg  Hg5  1  0.557376  0.444404  0.802489  1
  Hg  Hg6  1  0.784755  0.726469  0.461591  1
  Hg  Hg7  1  0.102402  0.684167  0.313106  1
  Hg  Hg8  1  0.123690  0.401970  0.211251  1
  Hg  Hg9  1  0.241640  0.104585  0.261975  1
  Hg  Hg10  1  0.879704  0.172282  0.450034  1
  Hg  Hg11  1  0.876310  0.901970  0.288749  1
  Hg  Hg12  1  0.120296  0.827718  0.549966  1
  Hg  Hg13  1  0.597711  0.024850  0.070007  1
  Hg  Hg14  1  0.784755  0.773531  0.961591  1
  Hg  Hg15  1  0.897598  0.315833  0.686894  1
  Hg  Hg16  1  0.897598  0.184167  0.186894  1
  Hg  Hg17  1  0.120296  0.672282  0.049966  1
  Hg  Hg18  1  0.876310  0.598030  0.788749  1
  Hg  Hg19  1  0.758360  0.604585  0.238025  1
  Hg  Hg20  1  0.557376  0.055596  0.302489  1
  Hg  Hg21  1  0.879704  0.327718  0.950034  1
  Hg  Hg22  1  0.402289  0.975150  0.929993  1
  Hg  Hg23  1  0.000000  0.500000  0.500000  1
  Hg  Hg24  1  0.350690  0.680139  0.774718  1
  Hg  Hg25  1  0.215245  0.273531  0.538409  1
  Hg  Hg26  1  0.442624  0.555596  0.197511  1
  Hg  Hg27  1  0.241640  0.395415  0.761975  1
  Hg  Hg28  1  0.102402  0.815833  0.813106  1
  Hg  Hg29  1  0.215245  0.226469  0.038409  1
  Hg  Hg30  1  0.350690  0.819861  0.274718  1
  Hg  Hg31  1  0.649310  0.319861  0.225282  1
  Hg  Hg32  1  0.000000  0.000000  0.000000  1
  Hg  Hg33  1  0.442624  0.944404  0.697511  1
  Hg  Hg34  1  0.500000  0.500000  0.000000  1
  Hg  Hg35  1  0.500000  0.000000  0.500000  1
  P  P36  1  0.586037  0.005567  0.659193  1
  P  P37  1  0.413963  0.994433  0.340807  1
  P  P38  1  0.715870  0.146223  0.295470  1
  P  P39  1  0.284130  0.853777  0.704530  1
  P  P40  1  0.031668  0.307080  0.538214  1
  P  P41  1  0.284130  0.646223  0.204530  1
  P  P42  1  0.586037  0.494433  0.159193  1
  P  P43  1  0.031668  0.192920  0.038214  1
  P  P44  1  0.071248  0.284886  0.673270  1
  P  P45  1  0.772275  0.063788  0.214237  1
  P  P46  1  0.413963  0.505567  0.840807  1
  P  P47  1  0.071248  0.215114  0.173270  1
  P  P48  1  0.227725  0.936212  0.785763  1
  P  P49  1  0.968332  0.692920  0.461786  1
  P  P50  1  0.715870  0.353777  0.795470  1
  P  P51  1  0.968332  0.807080  0.961786  1
  P  P52  1  0.928752  0.715114  0.326730  1
  P  P53  1  0.772275  0.436212  0.714237  1
  P  P54  1  0.928752  0.784886  0.826730  1
  P  P55  1  0.227725  0.563788  0.285763  1
  I  I56  1  0.614695  0.811760  0.277281  1
  I  I57  1  0.293350  0.508962  0.595005  1
  I  I58  1  0.385305  0.188240  0.722719  1
  I  I59  1  0.659696  0.754163  0.545033  1
  I  I60  1  0.706650  0.008962  0.904995  1
  I  I61  1  0.385305  0.311760  0.222719  1
  I  I62  1  0.614695  0.688240  0.777281  1
  I  I63  1  0.091101  0.020484  0.439542  1
  I  I64  1  0.340304  0.254163  0.954967  1
  I  I65  1  0.048374  0.884918  0.194210  1
  I  I66  1  0.688821  0.280213  0.026468  1
  I  I67  1  0.091101  0.479516  0.939542  1
  I  I68  1  0.688821  0.219787  0.526468  1
  I  I69  1  0.951626  0.384918  0.305790  1
  I  I70  1  0.951626  0.115082  0.805790  1
  I  I71  1  0.659696  0.745837  0.045033  1
  I  I72  1  0.048374  0.615082  0.694210  1
  I  I73  1  0.340304  0.245837  0.454967  1
  I  I74  1  0.908899  0.979516  0.560458  1
  I  I75  1  0.311179  0.780213  0.473532  1
  I  I76  1  0.293350  0.991038  0.095005  1
  I  I77  1  0.908899  0.520484  0.060458  1
  I  I78  1  0.706650  0.491038  0.404995  1
  I  I79  1  0.311179  0.719787  0.973532  1
