# generated using pymatgen
data_Cs3Mg2Cl7
_symmetry_space_group_name_H-M   'P 1'
_cell_length_a   14.09436106
_cell_length_b   14.09436106
_cell_length_c   14.09436106
_cell_angle_alpha   158.95173319
_cell_angle_beta   158.95173319
_cell_angle_gamma   29.93909605
_symmetry_Int_Tables_number   1
_chemical_formula_structural   Cs3Mg2Cl7
_chemical_formula_sum   'Cs3 Mg2 Cl7'
_cell_volume   360.94371442
_cell_formula_units_Z   1
loop_
 _symmetry_equiv_pos_site_id
 _symmetry_equiv_pos_as_xyz
  1  'x, y, z'
loop_
 _atom_site_type_symbol
 _atom_site_label
 _atom_site_symmetry_multiplicity
 _atom_site_fract_x
 _atom_site_fract_y
 _atom_site_fract_z
 _atom_site_occupancy
  Cs  Cs0  1  0.184541  0.184541  0.000000  1
  Cs  Cs1  1  0.815459  0.815459  0.000000  1
  Cs  Cs2  1  0.000000  0.000000  0.000000  1
  Mg  Mg3  1  0.403982  0.403982  0.000000  1
  Mg  Mg4  1  0.596018  0.596018  0.000000  1
  Cl  Cl5  1  0.905455  0.405455  0.500000  1
  Cl  Cl6  1  0.312245  0.312245  0.000000  1
  Cl  Cl7  1  0.405455  0.905455  0.500000  1
  Cl  Cl8  1  0.594545  0.094545  0.500000  1
  Cl  Cl9  1  0.687755  0.687755  0.000000  1
  Cl  Cl10  1  0.094545  0.594545  0.500000  1
  Cl  Cl11  1  0.500000  0.500000  0.000000  1
