# generated using pymatgen
data_Li2Ge7O15
_symmetry_space_group_name_H-M   'P 1'
_cell_length_a   7.46664702
_cell_length_b   9.88425921
_cell_length_c   17.04281660
_cell_angle_alpha   90.00000000
_cell_angle_beta   90.00000000
_cell_angle_gamma   90.00000000
_symmetry_Int_Tables_number   1
_chemical_formula_structural   Li2Ge7O15
_chemical_formula_sum   'Li8 Ge28 O60'
_cell_volume   1257.79863025
_cell_formula_units_Z   4
loop_
 _symmetry_equiv_pos_site_id
 _symmetry_equiv_pos_as_xyz
  1  'x, y, z'
loop_
 _atom_site_type_symbol
 _atom_site_label
 _atom_site_symmetry_multiplicity
 _atom_site_fract_x
 _atom_site_fract_y
 _atom_site_fract_z
 _atom_site_occupancy
  Li  Li0  1  0.500000  0.750000  0.740003  1
  Li  Li1  1  0.000000  0.250000  0.759997  1
  Li  Li2  1  0.500000  0.250000  0.259997  1
  Li  Li3  1  0.000000  0.750000  0.240003  1
  Li  Li4  1  0.000000  0.500000  0.500000  1
  Li  Li5  1  0.500000  0.500000  0.000000  1
  Li  Li6  1  0.500000  0.000000  0.000000  1
  Li  Li7  1  0.000000  0.000000  0.500000  1
  Ge  Ge8  1  0.714047  0.027846  0.655610  1
  Ge  Ge9  1  0.214047  0.972154  0.844390  1
  Ge  Ge10  1  0.785953  0.527846  0.844390  1
  Ge  Ge11  1  0.285953  0.472154  0.655610  1
  Ge  Ge12  1  0.285953  0.972154  0.344390  1
  Ge  Ge13  1  0.785953  0.027846  0.155610  1
  Ge  Ge14  1  0.214047  0.472154  0.155610  1
  Ge  Ge15  1  0.714047  0.527846  0.344390  1
  Ge  Ge16  1  0.716852  0.467994  0.659977  1
  Ge  Ge17  1  0.216852  0.532006  0.840023  1
  Ge  Ge18  1  0.783148  0.967994  0.840023  1
  Ge  Ge19  1  0.283148  0.032006  0.659977  1
  Ge  Ge20  1  0.283148  0.532006  0.340023  1
  Ge  Ge21  1  0.783148  0.467994  0.159977  1
  Ge  Ge22  1  0.216852  0.032006  0.159977  1
  Ge  Ge23  1  0.716852  0.967994  0.340023  1
  Ge  Ge24  1  0.785909  0.251056  0.940794  1
  Ge  Ge25  1  0.285909  0.748944  0.559206  1
  Ge  Ge26  1  0.714091  0.751056  0.559206  1
  Ge  Ge27  1  0.214091  0.248944  0.940794  1
  Ge  Ge28  1  0.214091  0.748944  0.059206  1
  Ge  Ge29  1  0.714091  0.251056  0.440794  1
  Ge  Ge30  1  0.285909  0.248944  0.440794  1
  Ge  Ge31  1  0.785909  0.751056  0.059206  1
  Ge  Ge32  1  0.500000  0.750000  0.913155  1
  Ge  Ge33  1  0.000000  0.250000  0.586845  1
  Ge  Ge34  1  0.500000  0.250000  0.086845  1
  Ge  Ge35  1  0.000000  0.750000  0.413155  1
  O  O36  1  0.857543  0.331679  0.506581  1
  O  O37  1  0.357543  0.668321  0.993419  1
  O  O38  1  0.642457  0.831679  0.993419  1
  O  O39  1  0.142457  0.168321  0.506581  1
  O  O40  1  0.142457  0.668321  0.493419  1
  O  O41  1  0.642457  0.331679  0.006581  1
  O  O42  1  0.357543  0.168321  0.006581  1
  O  O43  1  0.857543  0.831679  0.493419  1
  O  O44  1  0.855003  0.091302  0.582904  1
  O  O45  1  0.355003  0.908698  0.917096  1
  O  O46  1  0.644997  0.591302  0.917096  1
  O  O47  1  0.144997  0.408698  0.582904  1
  O  O48  1  0.144997  0.908698  0.417096  1
  O  O49  1  0.644997  0.091302  0.082904  1
  O  O50  1  0.355003  0.408698  0.082904  1
  O  O51  1  0.855003  0.591302  0.417096  1
  O  O52  1  0.501254  0.404428  0.641002  1
  O  O53  1  0.001254  0.595572  0.858998  1
  O  O54  1  0.998746  0.904428  0.858998  1
  O  O55  1  0.498746  0.095572  0.641002  1
  O  O56  1  0.498746  0.595572  0.358998  1
  O  O57  1  0.998746  0.404428  0.141002  1
  O  O58  1  0.001254  0.095572  0.141002  1
  O  O59  1  0.501254  0.904428  0.358998  1
  O  O60  1  0.861400  0.330011  0.669266  1
  O  O61  1  0.361400  0.669989  0.830734  1
  O  O62  1  0.638600  0.830011  0.830734  1
  O  O63  1  0.138600  0.169989  0.669266  1
  O  O64  1  0.138600  0.669989  0.330734  1
  O  O65  1  0.638600  0.330011  0.169266  1
  O  O66  1  0.361400  0.169989  0.169266  1
  O  O67  1  0.861400  0.830011  0.330734  1
  O  O68  1  0.799845  0.063675  0.750932  1
  O  O69  1  0.299845  0.936325  0.749068  1
  O  O70  1  0.700155  0.563675  0.749068  1
  O  O71  1  0.200155  0.436325  0.750932  1
  O  O72  1  0.200155  0.936325  0.249068  1
  O  O73  1  0.700155  0.063675  0.250932  1
  O  O74  1  0.299845  0.436325  0.250932  1
  O  O75  1  0.799845  0.563675  0.249068  1
  O  O76  1  0.809691  0.346512  0.850905  1
  O  O77  1  0.309691  0.653488  0.649095  1
  O  O78  1  0.690309  0.846512  0.649095  1
  O  O79  1  0.190309  0.153488  0.850905  1
  O  O80  1  0.190309  0.653488  0.149095  1
  O  O81  1  0.690309  0.346512  0.350905  1
  O  O82  1  0.309691  0.153488  0.350905  1
  O  O83  1  0.809691  0.846512  0.149095  1
  O  O84  1  0.707970  0.088250  0.911282  1
  O  O85  1  0.207970  0.911750  0.588718  1
  O  O86  1  0.792030  0.588250  0.588718  1
  O  O87  1  0.292030  0.411750  0.911282  1
  O  O88  1  0.292030  0.911750  0.088718  1
  O  O89  1  0.792030  0.088250  0.411282  1
  O  O90  1  0.207970  0.411750  0.411282  1
  O  O91  1  0.707970  0.588250  0.088718  1
  O  O92  1  0.500000  0.750000  0.515847  1
  O  O93  1  0.000000  0.250000  0.984153  1
  O  O94  1  0.500000  0.250000  0.484153  1
  O  O95  1  0.000000  0.750000  0.015847  1
