# generated using pymatgen
data_LiAl(PO3)4
_symmetry_space_group_name_H-M   'P 1'
_cell_length_a   8.36171977
_cell_length_b   9.05321945
_cell_length_c   12.58499062
_cell_angle_alpha   90.00000000
_cell_angle_beta   90.00000000
_cell_angle_gamma   90.00000000
_symmetry_Int_Tables_number   1
_chemical_formula_structural   LiAl(PO3)4
_chemical_formula_sum   'Li4 Al4 P16 O48'
_cell_volume   952.68988179
_cell_formula_units_Z   4
loop_
 _symmetry_equiv_pos_site_id
 _symmetry_equiv_pos_as_xyz
  1  'x, y, z'
loop_
 _atom_site_type_symbol
 _atom_site_label
 _atom_site_symmetry_multiplicity
 _atom_site_fract_x
 _atom_site_fract_y
 _atom_site_fract_z
 _atom_site_occupancy
  Li  Li0  1  0.005925  0.750000  0.000000  1
  Li  Li1  1  0.494075  0.250000  0.500000  1
  Li  Li2  1  0.505925  0.750000  0.500000  1
  Li  Li3  1  0.994075  0.250000  0.000000  1
  Al  Al4  1  0.132044  0.250000  0.500000  1
  Al  Al5  1  0.367956  0.750000  0.000000  1
  Al  Al6  1  0.632044  0.250000  0.000000  1
  Al  Al7  1  0.867956  0.750000  0.500000  1
  P  P8  1  0.317057  0.006362  0.361036  1
  P  P9  1  0.682943  0.993638  0.638964  1
  P  P10  1  0.182943  0.506362  0.138964  1
  P  P11  1  0.535617  0.511874  0.148076  1
  P  P12  1  0.535617  0.988126  0.851924  1
  P  P13  1  0.964383  0.488126  0.648076  1
  P  P14  1  0.317057  0.493638  0.638964  1
  P  P15  1  0.964383  0.011874  0.351924  1
  P  P16  1  0.464383  0.488126  0.851924  1
  P  P17  1  0.035617  0.988126  0.648076  1
  P  P18  1  0.035617  0.511874  0.351924  1
  P  P19  1  0.464383  0.011874  0.148076  1
  P  P20  1  0.817057  0.493638  0.861036  1
  P  P21  1  0.817057  0.006362  0.138964  1
  P  P22  1  0.182943  0.993638  0.861036  1
  P  P23  1  0.682943  0.506362  0.361036  1
  O  O24  1  0.526811  0.634908  0.067957  1
  O  O25  1  0.906560  0.625648  0.895781  1
  O  O26  1  0.093440  0.374352  0.104219  1
  O  O27  1  0.366848  0.621374  0.880921  1
  O  O28  1  0.199086  0.636675  0.063412  1
  O  O29  1  0.526811  0.865092  0.932043  1
  O  O30  1  0.133152  0.121374  0.619079  1
  O  O31  1  0.473189  0.365092  0.932043  1
  O  O32  1  0.593440  0.374352  0.395781  1
  O  O33  1  0.894472  0.079789  0.244608  1
  O  O34  1  0.973189  0.365092  0.567957  1
  O  O35  1  0.894472  0.420211  0.755392  1
  O  O36  1  0.300914  0.136675  0.436588  1
  O  O37  1  0.593440  0.125648  0.604219  1
  O  O38  1  0.093440  0.125648  0.895781  1
  O  O39  1  0.866848  0.621374  0.619079  1
  O  O40  1  0.973189  0.134908  0.432043  1
  O  O41  1  0.605528  0.920211  0.744608  1
  O  O42  1  0.133152  0.378626  0.380921  1
  O  O43  1  0.358629  0.460514  0.180785  1
  O  O44  1  0.633152  0.121374  0.880921  1
  O  O45  1  0.026811  0.634908  0.432043  1
  O  O46  1  0.800914  0.136675  0.063412  1
  O  O47  1  0.858629  0.460514  0.319215  1
  O  O48  1  0.406560  0.874352  0.395781  1
  O  O49  1  0.633152  0.378626  0.119079  1
  O  O50  1  0.406560  0.625648  0.604219  1
  O  O51  1  0.866848  0.878626  0.380921  1
  O  O52  1  0.699086  0.863325  0.563412  1
  O  O53  1  0.366848  0.878626  0.119079  1
  O  O54  1  0.473189  0.134908  0.067957  1
  O  O55  1  0.394472  0.420211  0.744608  1
  O  O56  1  0.141371  0.539486  0.680785  1
  O  O57  1  0.026811  0.865092  0.567957  1
  O  O58  1  0.605528  0.579789  0.255392  1
  O  O59  1  0.641371  0.539486  0.819215  1
  O  O60  1  0.641371  0.960514  0.180785  1
  O  O61  1  0.199086  0.863325  0.936588  1
  O  O62  1  0.358629  0.039486  0.819215  1
  O  O63  1  0.141371  0.960514  0.319215  1
  O  O64  1  0.699086  0.636675  0.436588  1
  O  O65  1  0.858629  0.039486  0.680785  1
  O  O66  1  0.800914  0.363325  0.936588  1
  O  O67  1  0.394472  0.079789  0.255392  1
  O  O68  1  0.105528  0.920211  0.755392  1
  O  O69  1  0.105528  0.579789  0.244608  1
  O  O70  1  0.906560  0.874352  0.104219  1
  O  O71  1  0.300914  0.363325  0.563412  1
