# generated using pymatgen
data_Tl4Ni7(PO4)6
_symmetry_space_group_name_H-M   'P 1'
_cell_length_a   9.03733401
_cell_length_b   9.03733401
_cell_length_c   6.78230134
_cell_angle_alpha   82.00772584
_cell_angle_beta   97.99227416
_cell_angle_gamma   73.76836121
_symmetry_Int_Tables_number   1
_chemical_formula_structural   Tl4Ni7(PO4)6
_chemical_formula_sum   'Tl4 Ni7 P6 O24'
_cell_volume   517.38601072
_cell_formula_units_Z   1
loop_
 _symmetry_equiv_pos_site_id
 _symmetry_equiv_pos_as_xyz
  1  'x, y, z'
loop_
 _atom_site_type_symbol
 _atom_site_label
 _atom_site_symmetry_multiplicity
 _atom_site_fract_x
 _atom_site_fract_y
 _atom_site_fract_z
 _atom_site_occupancy
  Tl  Tl0  1  0.302060  0.697940  0.504620  1
  Tl  Tl1  1  0.735521  0.493561  0.533115  1
  Tl  Tl2  1  0.918145  0.081855  0.479293  1
  Tl  Tl3  1  0.506439  0.264479  0.533115  1
  Ni  Ni4  1  0.999331  0.000669  0.999683  1
  Ni  Ni5  1  0.362502  0.016880  0.825576  1
  Ni  Ni6  1  0.030389  0.362114  0.185381  1
  Ni  Ni7  1  0.382329  0.377197  0.009591  1
  Ni  Ni8  1  0.983120  0.637498  0.825576  1
  Ni  Ni9  1  0.637886  0.969611  0.185381  1
  Ni  Ni10  1  0.622803  0.617671  0.009591  1
  P  P11  1  0.304632  0.695368  0.011344  1
  P  P12  1  0.116496  0.284183  0.733257  1
  P  P13  1  0.715817  0.883504  0.733257  1
  P  P14  1  0.284251  0.101007  0.272979  1
  P  P15  1  0.700376  0.299624  0.008871  1
  P  P16  1  0.898993  0.715749  0.272979  1
  O  O17  1  0.989332  0.602135  0.146250  1
  O  O18  1  0.190321  0.809679  0.104079  1
  O  O19  1  0.661615  0.954670  0.507722  1
  O  O20  1  0.398567  0.779464  0.879535  1
  O  O21  1  0.023786  0.396876  0.860398  1
  O  O22  1  0.435613  0.564387  0.169739  1
  O  O23  1  0.277965  0.281756  0.226733  1
  O  O24  1  0.220536  0.601433  0.879535  1
  O  O25  1  0.891306  0.880149  0.801160  1
  O  O26  1  0.609130  0.210176  0.138440  1
  O  O27  1  0.333353  0.030860  0.499134  1
  O  O28  1  0.728563  0.703241  0.785075  1
  O  O29  1  0.789824  0.390870  0.138440  1
  O  O30  1  0.563540  0.436460  0.863721  1
  O  O31  1  0.806538  0.193462  0.897384  1
  O  O32  1  0.045330  0.338385  0.507722  1
  O  O33  1  0.397865  0.010668  0.146250  1
  O  O34  1  0.296759  0.271437  0.785075  1
  O  O35  1  0.603124  0.976214  0.860398  1
  O  O36  1  0.885875  0.892565  0.200186  1
  O  O37  1  0.969140  0.666647  0.499134  1
  O  O38  1  0.119851  0.108694  0.801160  1
  O  O39  1  0.718244  0.722035  0.226733  1
  O  O40  1  0.107435  0.114125  0.200186  1
