# generated using pymatgen
data_Na2YC(OF)3
_symmetry_space_group_name_H-M   'P 1'
_cell_length_a   6.54048989
_cell_length_b   10.79300237
_cell_length_c   14.25097635
_cell_angle_alpha   90.00000000
_cell_angle_beta   90.00000000
_cell_angle_gamma   90.00000000
_symmetry_Int_Tables_number   1
_chemical_formula_structural   Na2YC(OF)3
_chemical_formula_sum   'Na16 Y8 C8 O24 F24'
_cell_volume   1005.99812313
_cell_formula_units_Z   8
loop_
 _symmetry_equiv_pos_site_id
 _symmetry_equiv_pos_as_xyz
  1  'x, y, z'
loop_
 _atom_site_type_symbol
 _atom_site_label
 _atom_site_symmetry_multiplicity
 _atom_site_fract_x
 _atom_site_fract_y
 _atom_site_fract_z
 _atom_site_occupancy
  Na  Na0  1  0.052543  0.993304  0.607092  1
  Na  Na1  1  0.235642  0.278292  0.256104  1
  Na  Na2  1  0.552543  0.506696  0.392908  1
  Na  Na3  1  0.052543  0.506696  0.107092  1
  Na  Na4  1  0.764358  0.778292  0.243896  1
  Na  Na5  1  0.235642  0.221708  0.756104  1
  Na  Na6  1  0.264358  0.778292  0.256104  1
  Na  Na7  1  0.264358  0.721708  0.756104  1
  Na  Na8  1  0.947457  0.493304  0.892908  1
  Na  Na9  1  0.447457  0.006696  0.107092  1
  Na  Na10  1  0.735642  0.278292  0.243896  1
  Na  Na11  1  0.764358  0.721708  0.743896  1
  Na  Na12  1  0.552543  0.993304  0.892908  1
  Na  Na13  1  0.447457  0.493304  0.607092  1
  Na  Na14  1  0.735642  0.221708  0.743896  1
  Na  Na15  1  0.947457  0.006696  0.392908  1
  Y  Y16  1  0.994377  0.316100  0.514207  1
  Y  Y17  1  0.005623  0.683900  0.485793  1
  Y  Y18  1  0.994377  0.183900  0.014207  1
  Y  Y19  1  0.005623  0.816100  0.985793  1
  Y  Y20  1  0.505623  0.816100  0.514207  1
  Y  Y21  1  0.505623  0.683900  0.014207  1
  Y  Y22  1  0.494377  0.316100  0.985793  1
  Y  Y23  1  0.494377  0.183900  0.485793  1
  C  C24  1  0.996949  0.517561  0.325334  1
  C  C25  1  0.503051  0.017561  0.325334  1
  C  C26  1  0.003051  0.482439  0.674666  1
  C  C27  1  0.996949  0.982439  0.825334  1
  C  C28  1  0.503051  0.482439  0.825334  1
  C  C29  1  0.496949  0.982439  0.674666  1
  C  C30  1  0.496949  0.517561  0.174666  1
  C  C31  1  0.003051  0.017561  0.174666  1
  O  O32  1  0.431997  0.487450  0.089450  1
  O  O33  1  0.998724  0.438536  0.259001  1
  O  O34  1  0.931997  0.012550  0.910550  1
  O  O35  1  0.001276  0.938536  0.240999  1
  O  O36  1  0.551938  0.867644  0.684330  1
  O  O37  1  0.051938  0.632356  0.315670  1
  O  O38  1  0.051938  0.867644  0.815670  1
  O  O39  1  0.948062  0.132356  0.184330  1
  O  O40  1  0.068003  0.512550  0.589450  1
  O  O41  1  0.431997  0.012550  0.589450  1
  O  O42  1  0.501276  0.938536  0.259001  1
  O  O43  1  0.001276  0.561464  0.740999  1
  O  O44  1  0.551938  0.632356  0.184330  1
  O  O45  1  0.448062  0.132356  0.315670  1
  O  O46  1  0.568003  0.512550  0.910550  1
  O  O47  1  0.498724  0.438536  0.240999  1
  O  O48  1  0.568003  0.987450  0.410550  1
  O  O49  1  0.501276  0.561464  0.759001  1
  O  O50  1  0.998724  0.061464  0.759001  1
  O  O51  1  0.448062  0.367644  0.815670  1
  O  O52  1  0.931997  0.487450  0.410550  1
  O  O53  1  0.068003  0.987450  0.089450  1
  O  O54  1  0.948062  0.367644  0.684330  1
  O  O55  1  0.498724  0.061464  0.740999  1
  F  F56  1  0.849195  0.625832  0.020568  1
  F  F57  1  0.708934  0.661656  0.579388  1
  F  F58  1  0.150805  0.374168  0.979432  1
  F  F59  1  0.349195  0.874168  0.979432  1
  F  F60  1  0.197917  0.779321  0.601668  1
  F  F61  1  0.802083  0.279321  0.898332  1
  F  F62  1  0.197917  0.720679  0.101668  1
  F  F63  1  0.302083  0.279321  0.601668  1
  F  F64  1  0.791066  0.338344  0.079388  1
  F  F65  1  0.697917  0.720679  0.398332  1
  F  F66  1  0.291066  0.338344  0.420612  1
  F  F67  1  0.208934  0.838344  0.420612  1
  F  F68  1  0.802083  0.220679  0.398332  1
  F  F69  1  0.849195  0.874168  0.520568  1
  F  F70  1  0.650805  0.374168  0.520568  1
  F  F71  1  0.302083  0.220679  0.101668  1
  F  F72  1  0.150805  0.125832  0.479432  1
  F  F73  1  0.291066  0.161656  0.920612  1
  F  F74  1  0.697917  0.779321  0.898332  1
  F  F75  1  0.208934  0.661656  0.920612  1
  F  F76  1  0.349195  0.625832  0.479432  1
  F  F77  1  0.791066  0.161656  0.579388  1
  F  F78  1  0.708934  0.838344  0.079388  1
  F  F79  1  0.650805  0.125832  0.020568  1
