# generated using pymatgen
data_Pr2Si2O7
_symmetry_space_group_name_H-M   'P 1'
_cell_length_a   5.50202137
_cell_length_b   8.78318442
_cell_length_c   14.24065775
_cell_angle_alpha   90.00000000
_cell_angle_beta   112.34353514
_cell_angle_gamma   90.00000000
_symmetry_Int_Tables_number   1
_chemical_formula_structural   Pr2Si2O7
_chemical_formula_sum   'Pr8 Si8 O28'
_cell_volume   636.51555831
_cell_formula_units_Z   4
loop_
 _symmetry_equiv_pos_site_id
 _symmetry_equiv_pos_as_xyz
  1  'x, y, z'
loop_
 _atom_site_type_symbol
 _atom_site_label
 _atom_site_symmetry_multiplicity
 _atom_site_fract_x
 _atom_site_fract_y
 _atom_site_fract_z
 _atom_site_occupancy
  Pr  Pr0  1  0.168660  0.894320  0.410780  1
  Pr  Pr1  1  0.831340  0.394320  0.089220  1
  Pr  Pr2  1  0.831340  0.105680  0.589220  1
  Pr  Pr3  1  0.168660  0.605680  0.910780  1
  Pr  Pr4  1  0.480307  0.687905  0.233399  1
  Pr  Pr5  1  0.519693  0.187905  0.266601  1
  Pr  Pr6  1  0.519693  0.312095  0.766601  1
  Pr  Pr7  1  0.480307  0.812095  0.733399  1
  Si  Si8  1  0.040250  0.002775  0.820661  1
  Si  Si9  1  0.959750  0.502775  0.679339  1
  Si  Si10  1  0.959750  0.997225  0.179339  1
  Si  Si11  1  0.040250  0.497225  0.320661  1
  Si  Si12  1  0.254793  0.253255  0.974337  1
  Si  Si13  1  0.745207  0.753255  0.525663  1
  Si  Si14  1  0.745207  0.746745  0.025663  1
  Si  Si15  1  0.254793  0.246745  0.474337  1
  O  O16  1  0.958839  0.826747  0.829828  1
  O  O17  1  0.041161  0.326747  0.670172  1
  O  O18  1  0.041161  0.173253  0.170172  1
  O  O19  1  0.958839  0.673253  0.329828  1
  O  O20  1  0.213256  0.018789  0.748319  1
  O  O21  1  0.786744  0.518789  0.751681  1
  O  O22  1  0.786744  0.981211  0.251681  1
  O  O23  1  0.213256  0.481211  0.248319  1
  O  O24  1  0.757790  0.087505  0.760316  1
  O  O25  1  0.242210  0.587505  0.739684  1
  O  O26  1  0.242210  0.912495  0.239684  1
  O  O27  1  0.757790  0.412495  0.260316  1
  O  O28  1  0.448650  0.255203  0.093635  1
  O  O29  1  0.551350  0.755203  0.406365  1
  O  O30  1  0.551350  0.744797  0.906365  1
  O  O31  1  0.448650  0.244797  0.593635  1
  O  O32  1  0.203309  0.421838  0.432212  1
  O  O33  1  0.796691  0.921838  0.067788  1
  O  O34  1  0.796691  0.578162  0.567788  1
  O  O35  1  0.203309  0.078162  0.932212  1
  O  O36  1  0.419640  0.143858  0.419242  1
  O  O37  1  0.580360  0.643858  0.080758  1
  O  O38  1  0.580360  0.856142  0.580758  1
  O  O39  1  0.419640  0.356142  0.919242  1
  O  O40  1  0.978465  0.153230  0.450043  1
  O  O41  1  0.021535  0.653230  0.049957  1
  O  O42  1  0.021535  0.846770  0.549957  1
  O  O43  1  0.978465  0.346770  0.950043  1
