# generated using pymatgen
data_NaCa2ScZn2(SiO3)6
_symmetry_space_group_name_H-M   'P 1'
_cell_length_a   14.50546722
_cell_length_b   14.50546722
_cell_length_c   5.34732434
_cell_angle_alpha   84.49020907
_cell_angle_beta   95.50979093
_cell_angle_gamma   40.16526870
_symmetry_Int_Tables_number   1
_chemical_formula_structural   NaCa2ScZn2(SiO3)6
_chemical_formula_sum   'Na2 Ca4 Sc2 Zn4 Si12 O36'
_cell_volume   696.74981195
_cell_formula_units_Z   2
loop_
 _symmetry_equiv_pos_site_id
 _symmetry_equiv_pos_as_xyz
  1  'x, y, z'
loop_
 _atom_site_type_symbol
 _atom_site_label
 _atom_site_symmetry_multiplicity
 _atom_site_fract_x
 _atom_site_fract_y
 _atom_site_fract_z
 _atom_site_occupancy
  Na  Na0  1  0.767983  0.767983  0.250000  1
  Na  Na1  1  0.232017  0.232017  0.750000  1
  Ca  Ca2  1  0.099425  0.099425  0.250000  1
  Ca  Ca3  1  0.433059  0.433059  0.250000  1
  Ca  Ca4  1  0.566941  0.566941  0.750000  1
  Ca  Ca5  1  0.900575  0.900575  0.750000  1
  Sc  Sc6  1  0.298873  0.298873  0.250000  1
  Sc  Sc7  1  0.701127  0.701127  0.750000  1
  Zn  Zn8  1  0.634314  0.634314  0.250000  1
  Zn  Zn9  1  0.967997  0.967997  0.250000  1
  Zn  Zn10  1  0.032003  0.032003  0.750000  1
  Zn  Zn11  1  0.365686  0.365686  0.750000  1
  Si  Si12  1  0.317031  0.744349  0.230381  1
  Si  Si13  1  0.744349  0.317031  0.269619  1
  Si  Si14  1  0.652796  0.074726  0.237198  1
  Si  Si15  1  0.925274  0.347204  0.737198  1
  Si  Si16  1  0.074726  0.652796  0.262802  1
  Si  Si17  1  0.983566  0.409395  0.237339  1
  Si  Si18  1  0.347204  0.925274  0.762802  1
  Si  Si19  1  0.255651  0.682969  0.730381  1
  Si  Si20  1  0.409395  0.983566  0.262661  1
  Si  Si21  1  0.682969  0.255651  0.769619  1
  Si  Si22  1  0.590605  0.016434  0.737339  1
  Si  Si23  1  0.016434  0.590605  0.762661  1
  O  O24  1  0.657059  0.354781  0.503476  1
  O  O25  1  0.445552  0.718592  0.324181  1
  O  O26  1  0.146685  0.913265  0.144429  1
  O  O27  1  0.991218  0.687151  0.498097  1
  O  O28  1  0.913265  0.146685  0.355571  1
  O  O29  1  0.776822  0.055742  0.322492  1
  O  O30  1  0.312849  0.008782  0.998097  1
  O  O31  1  0.718592  0.445552  0.175819  1
  O  O32  1  0.479788  0.244255  0.151134  1
  O  O33  1  0.944258  0.223178  0.822492  1
  O  O34  1  0.354781  0.657059  0.996524  1
  O  O35  1  0.320333  0.020482  0.490966  1
  O  O36  1  0.755745  0.520212  0.651134  1
  O  O37  1  0.244255  0.479788  0.348866  1
  O  O38  1  0.109348  0.389165  0.312329  1
  O  O39  1  0.645219  0.342941  0.003476  1
  O  O40  1  0.055742  0.776822  0.177508  1
  O  O41  1  0.520212  0.755745  0.848866  1
  O  O42  1  0.812086  0.577697  0.143066  1
  O  O43  1  0.281408  0.554448  0.824181  1
  O  O44  1  0.687151  0.991218  0.001903  1
  O  O45  1  0.223178  0.944258  0.677508  1
  O  O46  1  0.086735  0.853315  0.644429  1
  O  O47  1  0.577697  0.812086  0.356934  1
  O  O48  1  0.008782  0.312849  0.501903  1
  O  O49  1  0.979518  0.679667  0.990966  1
  O  O50  1  0.389165  0.109348  0.187671  1
  O  O51  1  0.853315  0.086735  0.855571  1
  O  O52  1  0.610835  0.890652  0.812329  1
  O  O53  1  0.020482  0.320333  0.009034  1
  O  O54  1  0.554448  0.281408  0.675819  1
  O  O55  1  0.422303  0.187914  0.643066  1
  O  O56  1  0.342941  0.645219  0.496524  1
  O  O57  1  0.187914  0.422303  0.856934  1
  O  O58  1  0.890652  0.610835  0.687671  1
  O  O59  1  0.679667  0.979518  0.509034  1
