# generated using pymatgen
data_Y2(MoO4)3
_symmetry_space_group_name_H-M   'P 1'
_cell_length_a   10.13750010
_cell_length_b   10.26133003
_cell_length_c   14.19811588
_cell_angle_alpha   90.00000000
_cell_angle_beta   90.00000000
_cell_angle_gamma   90.00000000
_symmetry_Int_Tables_number   1
_chemical_formula_structural   Y2(MoO4)3
_chemical_formula_sum   'Y8 Mo12 O48'
_cell_volume   1476.94813157
_cell_formula_units_Z   4
loop_
 _symmetry_equiv_pos_site_id
 _symmetry_equiv_pos_as_xyz
  1  'x, y, z'
loop_
 _atom_site_type_symbol
 _atom_site_label
 _atom_site_symmetry_multiplicity
 _atom_site_fract_x
 _atom_site_fract_y
 _atom_site_fract_z
 _atom_site_occupancy
  Y  Y0  1  0.749325  0.030925  0.882466  1
  Y  Y1  1  0.250675  0.530925  0.882466  1
  Y  Y2  1  0.249325  0.469075  0.382466  1
  Y  Y3  1  0.250675  0.969075  0.117534  1
  Y  Y4  1  0.750675  0.530925  0.617534  1
  Y  Y5  1  0.749325  0.469075  0.117534  1
  Y  Y6  1  0.249325  0.030925  0.617534  1
  Y  Y7  1  0.750675  0.969075  0.382466  1
  Mo  Mo8  1  0.890710  0.115515  0.143198  1
  Mo  Mo9  1  0.609290  0.884485  0.643198  1
  Mo  Mo10  1  0.471978  0.250000  0.000000  1
  Mo  Mo11  1  0.109290  0.615515  0.143198  1
  Mo  Mo12  1  0.609290  0.615515  0.356802  1
  Mo  Mo13  1  0.390710  0.384485  0.643198  1
  Mo  Mo14  1  0.028022  0.750000  0.500000  1
  Mo  Mo15  1  0.971978  0.250000  0.500000  1
  Mo  Mo16  1  0.528022  0.750000  0.000000  1
  Mo  Mo17  1  0.390710  0.115515  0.356802  1
  Mo  Mo18  1  0.109290  0.884485  0.856802  1
  Mo  Mo19  1  0.890710  0.384485  0.856802  1
  O  O20  1  0.819155  0.432187  0.966711  1
  O  O21  1  0.319155  0.432187  0.533289  1
  O  O22  1  0.857666  0.214788  0.837425  1
  O  O23  1  0.369658  0.359996  0.934724  1
  O  O24  1  0.680845  0.567813  0.466711  1
  O  O25  1  0.574366  0.160411  0.919913  1
  O  O26  1  0.565503  0.088960  0.361160  1
  O  O27  1  0.142334  0.785212  0.162575  1
  O  O28  1  0.679874  0.519933  0.263682  1
  O  O29  1  0.869658  0.359996  0.565276  1
  O  O30  1  0.180845  0.567813  0.033289  1
  O  O31  1  0.869658  0.140004  0.434724  1
  O  O32  1  0.320126  0.019933  0.263682  1
  O  O33  1  0.320126  0.480067  0.736318  1
  O  O34  1  0.925634  0.839589  0.419913  1
  O  O35  1  0.642334  0.714788  0.662575  1
  O  O36  1  0.130342  0.859996  0.565276  1
  O  O37  1  0.357666  0.285212  0.337425  1
  O  O38  1  0.130342  0.640004  0.434724  1
  O  O39  1  0.434497  0.588960  0.361160  1
  O  O40  1  0.369658  0.140004  0.065276  1
  O  O41  1  0.934497  0.911040  0.861160  1
  O  O42  1  0.925634  0.660411  0.580087  1
  O  O43  1  0.425634  0.660411  0.919913  1
  O  O44  1  0.434497  0.911040  0.638840  1
  O  O45  1  0.319155  0.067813  0.466711  1
  O  O46  1  0.857666  0.285212  0.162575  1
  O  O47  1  0.357666  0.214788  0.662575  1
  O  O48  1  0.820126  0.019933  0.236318  1
  O  O49  1  0.180845  0.932187  0.966711  1
  O  O50  1  0.820126  0.480067  0.763682  1
  O  O51  1  0.065503  0.088960  0.138840  1
  O  O52  1  0.142334  0.714788  0.837425  1
  O  O53  1  0.642334  0.785212  0.337425  1
  O  O54  1  0.630342  0.640004  0.065276  1
  O  O55  1  0.819155  0.067813  0.033289  1
  O  O56  1  0.425634  0.839589  0.080087  1
  O  O57  1  0.565503  0.411040  0.638840  1
  O  O58  1  0.680845  0.932187  0.533289  1
  O  O59  1  0.179874  0.519933  0.236318  1
  O  O60  1  0.934497  0.588960  0.138840  1
  O  O61  1  0.679874  0.980067  0.736318  1
  O  O62  1  0.630342  0.859996  0.934724  1
  O  O63  1  0.074366  0.339589  0.419913  1
  O  O64  1  0.179874  0.980067  0.763682  1
  O  O65  1  0.065503  0.411040  0.861160  1
  O  O66  1  0.074366  0.160411  0.580087  1
  O  O67  1  0.574366  0.339589  0.080087  1
