# generated using pymatgen
data_Mg3B(OF)3
_symmetry_space_group_name_H-M   'P 1'
_cell_length_a   8.89948268
_cell_length_b   8.89948268
_cell_length_c   3.14100404
_cell_angle_alpha   90.00000000
_cell_angle_beta   90.00000000
_cell_angle_gamma   120.00000000
_symmetry_Int_Tables_number   1
_chemical_formula_structural   Mg3B(OF)3
_chemical_formula_sum   'Mg6 B2 O6 F6'
_cell_volume   215.44114634
_cell_formula_units_Z   2
loop_
 _symmetry_equiv_pos_site_id
 _symmetry_equiv_pos_as_xyz
  1  'x, y, z'
loop_
 _atom_site_type_symbol
 _atom_site_label
 _atom_site_symmetry_multiplicity
 _atom_site_fract_x
 _atom_site_fract_y
 _atom_site_fract_z
 _atom_site_occupancy
  Mg  Mg0  1  0.366866  0.029930  0.250000  1
  Mg  Mg1  1  0.029930  0.663064  0.750000  1
  Mg  Mg2  1  0.633134  0.970070  0.750000  1
  Mg  Mg3  1  0.663064  0.633134  0.250000  1
  Mg  Mg4  1  0.970070  0.336936  0.250000  1
  Mg  Mg5  1  0.336936  0.366866  0.750000  1
  B  B6  1  0.333333  0.666667  0.250000  1
  B  B7  1  0.666667  0.333333  0.750000  1
  O  O8  1  0.449171  0.845196  0.250000  1
  O  O9  1  0.845196  0.396025  0.750000  1
  O  O10  1  0.396025  0.550829  0.250000  1
  O  O11  1  0.603975  0.449171  0.750000  1
  O  O12  1  0.550829  0.154804  0.750000  1
  O  O13  1  0.154804  0.603975  0.250000  1
  F  F14  1  0.700694  0.789881  0.750000  1
  F  F15  1  0.210119  0.910813  0.750000  1
  F  F16  1  0.299306  0.210119  0.250000  1
  F  F17  1  0.910813  0.700694  0.250000  1
  F  F18  1  0.789881  0.089187  0.250000  1
  F  F19  1  0.089187  0.299306  0.750000  1
