# generated using pymatgen
data_Ba3V4O13
_symmetry_space_group_name_H-M   'P 1'
_cell_length_a   9.29444355
_cell_length_b   9.29444355
_cell_length_c   10.43472344
_cell_angle_alpha   70.95480690
_cell_angle_beta   109.04519310
_cell_angle_gamma   121.32607232
_symmetry_Int_Tables_number   1
_chemical_formula_structural   Ba3V4O13
_chemical_formula_sum   'Ba6 V8 O26'
_cell_volume   714.03403559
_cell_formula_units_Z   2
loop_
 _symmetry_equiv_pos_site_id
 _symmetry_equiv_pos_as_xyz
  1  'x, y, z'
loop_
 _atom_site_type_symbol
 _atom_site_label
 _atom_site_symmetry_multiplicity
 _atom_site_fract_x
 _atom_site_fract_y
 _atom_site_fract_z
 _atom_site_occupancy
  Ba  Ba0  1  0.110983  0.110983  0.250000  1
  Ba  Ba1  1  0.889017  0.889017  0.750000  1
  Ba  Ba2  1  0.968614  0.373517  0.809852  1
  Ba  Ba3  1  0.373517  0.968614  0.690148  1
  Ba  Ba4  1  0.031386  0.626483  0.190148  1
  Ba  Ba5  1  0.626483  0.031386  0.309852  1
  V  V6  1  0.629418  0.404789  0.864884  1
  V  V7  1  0.404789  0.629418  0.635116  1
  V  V8  1  0.370582  0.595211  0.135116  1
  V  V9  1  0.595211  0.370582  0.364884  1
  V  V10  1  0.279717  0.100654  0.998262  1
  V  V11  1  0.100654  0.279717  0.501738  1
  V  V12  1  0.720283  0.899346  0.001738  1
  V  V13  1  0.899346  0.720283  0.498262  1
  O  O14  1  0.567538  0.567538  0.750000  1
  O  O15  1  0.432462  0.432462  0.250000  1
  O  O16  1  0.279104  0.989703  0.166307  1
  O  O17  1  0.989703  0.279104  0.333693  1
  O  O18  1  0.720896  0.010297  0.833693  1
  O  O19  1  0.010297  0.720896  0.666307  1
  O  O20  1  0.142646  0.186010  0.960551  1
  O  O21  1  0.186010  0.142646  0.539449  1
  O  O22  1  0.857354  0.813990  0.039449  1
  O  O23  1  0.813990  0.857354  0.460551  1
  O  O24  1  0.215387  0.967139  0.887333  1
  O  O25  1  0.967139  0.215387  0.612667  1
  O  O26  1  0.784613  0.032861  0.112667  1
  O  O27  1  0.032861  0.784613  0.387333  1
  O  O28  1  0.728684  0.497788  0.494601  1
  O  O29  1  0.497788  0.728684  0.005399  1
  O  O30  1  0.271316  0.502212  0.505399  1
  O  O31  1  0.502212  0.271316  0.994601  1
  O  O32  1  0.487759  0.161392  0.436200  1
  O  O33  1  0.161392  0.487759  0.063800  1
  O  O34  1  0.616743  0.280257  0.771365  1
  O  O35  1  0.838608  0.512241  0.936200  1
  O  O36  1  0.719743  0.383257  0.271365  1
  O  O37  1  0.383257  0.719743  0.228635  1
  O  O38  1  0.280257  0.616743  0.728635  1
  O  O39  1  0.512241  0.838608  0.563800  1
