# generated using pymatgen
data_Ag2PS3
_symmetry_space_group_name_H-M   'P 1'
_cell_length_a   6.60011742
_cell_length_b   12.02477433
_cell_length_c   19.99040921
_cell_angle_alpha   90.00000000
_cell_angle_beta   93.37872887
_cell_angle_gamma   90.00000000
_symmetry_Int_Tables_number   1
_chemical_formula_structural   Ag2PS3
_chemical_formula_sum   'Ag24 P12 S36'
_cell_volume   1583.77952232
_cell_formula_units_Z   12
loop_
 _symmetry_equiv_pos_site_id
 _symmetry_equiv_pos_as_xyz
  1  'x, y, z'
loop_
 _atom_site_type_symbol
 _atom_site_label
 _atom_site_symmetry_multiplicity
 _atom_site_fract_x
 _atom_site_fract_y
 _atom_site_fract_z
 _atom_site_occupancy
  Ag  Ag0  1  0.424141  0.075266  0.833340  1
  Ag  Ag1  1  0.963320  0.776563  0.215088  1
  Ag  Ag2  1  0.921188  0.700051  0.992284  1
  Ag  Ag3  1  0.522978  0.367896  0.892878  1
  Ag  Ag4  1  0.478700  0.666726  0.871716  1
  Ag  Ag5  1  0.575859  0.924734  0.166660  1
  Ag  Ag6  1  0.963320  0.723437  0.715088  1
  Ag  Ag7  1  0.084134  0.055047  0.093120  1
  Ag  Ag8  1  0.036680  0.223437  0.784912  1
  Ag  Ag9  1  0.575859  0.575266  0.666660  1
  Ag  Ag10  1  0.521300  0.166726  0.628284  1
  Ag  Ag11  1  0.036680  0.276563  0.284912  1
  Ag  Ag12  1  0.921188  0.799949  0.492284  1
  Ag  Ag13  1  0.078812  0.200051  0.507716  1
  Ag  Ag14  1  0.477022  0.632104  0.107122  1
  Ag  Ag15  1  0.915866  0.944953  0.906880  1
  Ag  Ag16  1  0.478700  0.833274  0.371716  1
  Ag  Ag17  1  0.477022  0.867896  0.607122  1
  Ag  Ag18  1  0.522978  0.132104  0.392878  1
  Ag  Ag19  1  0.915866  0.555047  0.406880  1
  Ag  Ag20  1  0.078812  0.299949  0.007716  1
  Ag  Ag21  1  0.521300  0.333274  0.128284  1
  Ag  Ag22  1  0.084134  0.444953  0.593120  1
  Ag  Ag23  1  0.424141  0.424734  0.333340  1
  P  P24  1  0.461441  0.906498  0.990562  1
  P  P25  1  0.047001  0.994976  0.374282  1
  P  P26  1  0.538559  0.406498  0.509438  1
  P  P27  1  0.159846  0.484987  0.767993  1
  P  P28  1  0.840154  0.984987  0.732007  1
  P  P29  1  0.461441  0.593502  0.490562  1
  P  P30  1  0.952999  0.494976  0.125718  1
  P  P31  1  0.159846  0.015013  0.267993  1
  P  P32  1  0.840154  0.515013  0.232007  1
  P  P33  1  0.538559  0.093502  0.009438  1
  P  P34  1  0.047001  0.505024  0.874281  1
  P  P35  1  0.952999  0.005024  0.625718  1
  S  S36  1  0.087396  0.536651  0.297440  1
  S  S37  1  0.164093  0.613341  0.507681  1
  S  S38  1  0.835907  0.386659  0.492319  1
  S  S39  1  0.903898  0.143417  0.392290  1
  S  S40  1  0.912604  0.036651  0.202560  1
  S  S41  1  0.536988  0.621633  0.393507  1
  S  S42  1  0.311747  0.632004  0.749584  1
  S  S43  1  0.087396  0.963349  0.797440  1
  S  S44  1  0.646386  0.682730  0.557904  1
  S  S45  1  0.298740  0.978021  0.438611  1
  S  S46  1  0.164093  0.886659  0.007681  1
  S  S47  1  0.353614  0.182730  0.942096  1
  S  S48  1  0.877954  0.852766  0.371172  1
  S  S49  1  0.122046  0.352766  0.128828  1
  S  S50  1  0.122046  0.147234  0.628828  1
  S  S51  1  0.701260  0.478021  0.061389  1
  S  S52  1  0.463012  0.121633  0.106493  1
  S  S53  1  0.701260  0.021979  0.561389  1
  S  S54  1  0.341945  0.152022  0.270820  1
  S  S55  1  0.912604  0.463349  0.702560  1
  S  S56  1  0.096102  0.643417  0.107710  1
  S  S57  1  0.658055  0.847978  0.729180  1
  S  S58  1  0.298740  0.521979  0.938611  1
  S  S59  1  0.463012  0.378367  0.606493  1
  S  S60  1  0.536988  0.878367  0.893507  1
  S  S61  1  0.341945  0.347978  0.770820  1
  S  S62  1  0.646386  0.817270  0.057904  1
  S  S63  1  0.353614  0.317270  0.442096  1
  S  S64  1  0.688253  0.132004  0.750416  1
  S  S65  1  0.903898  0.356583  0.892290  1
  S  S66  1  0.835907  0.113341  0.992319  1
  S  S67  1  0.311747  0.867996  0.249584  1
  S  S68  1  0.877954  0.647234  0.871172  1
  S  S69  1  0.096102  0.856583  0.607710  1
  S  S70  1  0.658055  0.652022  0.229180  1
  S  S71  1  0.688253  0.367996  0.250416  1
