# generated using pymatgen
data_Ag2B8O13
_symmetry_space_group_name_H-M   'P 1'
_cell_length_a   6.70229253
_cell_length_b   8.84924776
_cell_length_c   17.77354645
_cell_angle_alpha   90.00000000
_cell_angle_beta   90.05320567
_cell_angle_gamma   90.00000000
_symmetry_Int_Tables_number   1
_chemical_formula_structural   Ag2B8O13
_chemical_formula_sum   'Ag8 B32 O52'
_cell_volume   1054.15297864
_cell_formula_units_Z   4
loop_
 _symmetry_equiv_pos_site_id
 _symmetry_equiv_pos_as_xyz
  1  'x, y, z'
loop_
 _atom_site_type_symbol
 _atom_site_label
 _atom_site_symmetry_multiplicity
 _atom_site_fract_x
 _atom_site_fract_y
 _atom_site_fract_z
 _atom_site_occupancy
  Ag  Ag0  1  0.926034  0.985833  0.382664  1
  Ag  Ag1  1  0.469495  0.060697  0.094576  1
  Ag  Ag2  1  0.469495  0.439303  0.594576  1
  Ag  Ag3  1  0.073966  0.485833  0.117336  1
  Ag  Ag4  1  0.926034  0.514167  0.882664  1
  Ag  Ag5  1  0.530505  0.939303  0.905424  1
  Ag  Ag6  1  0.073966  0.014167  0.617336  1
  Ag  Ag7  1  0.530505  0.560697  0.405424  1
  B  B8  1  0.026371  0.808280  0.770059  1
  B  B9  1  0.996912  0.631578  0.407763  1
  B  B10  1  0.978843  0.067561  0.810006  1
  B  B11  1  0.231784  0.731400  0.503921  1
  B  B12  1  0.026371  0.691720  0.270059  1
  B  B13  1  0.768216  0.268600  0.496079  1
  B  B14  1  0.003088  0.131578  0.092237  1
  B  B15  1  0.003088  0.368422  0.592237  1
  B  B16  1  0.534154  0.761955  0.230009  1
  B  B17  1  0.465578  0.198265  0.407566  1
  B  B18  1  0.465846  0.261955  0.269991  1
  B  B19  1  0.534422  0.698265  0.092434  1
  B  B20  1  0.534422  0.801735  0.592434  1
  B  B21  1  0.127463  0.271622  0.980333  1
  B  B22  1  0.021157  0.567561  0.689994  1
  B  B23  1  0.127463  0.228378  0.480333  1
  B  B24  1  0.973629  0.191720  0.229941  1
  B  B25  1  0.996912  0.868422  0.907763  1
  B  B26  1  0.768216  0.231400  0.996079  1
  B  B27  1  0.465846  0.238045  0.769991  1
  B  B28  1  0.515142  0.495827  0.809253  1
  B  B29  1  0.231784  0.768600  0.003921  1
  B  B30  1  0.534154  0.738045  0.730009  1
  B  B31  1  0.484858  0.995827  0.690747  1
  B  B32  1  0.515142  0.004173  0.309253  1
  B  B33  1  0.465578  0.301735  0.907566  1
  B  B34  1  0.872537  0.771622  0.519667  1
  B  B35  1  0.484858  0.504173  0.190747  1
  B  B36  1  0.973629  0.308280  0.729941  1
  B  B37  1  0.021157  0.932439  0.189994  1
  B  B38  1  0.872537  0.728378  0.019667  1
  B  B39  1  0.978843  0.432439  0.310006  1
  O  O40  1  0.535826  0.852843  0.292929  1
  O  O41  1  0.048794  0.782771  0.208215  1
  O  O42  1  0.835372  0.819866  0.958588  1
  O  O43  1  0.533249  0.607031  0.247520  1
  O  O44  1  0.000564  0.740614  0.341719  1
  O  O45  1  0.000564  0.759386  0.841719  1
  O  O46  1  0.453780  0.551310  0.118781  1
  O  O47  1  0.580638  0.265853  0.468250  1
  O  O48  1  0.031026  0.963402  0.754080  1
  O  O49  1  0.952308  0.478200  0.381854  1
  O  O50  1  0.164628  0.319866  0.541412  1
  O  O51  1  0.535068  0.689580  0.657542  1
  O  O52  1  0.073763  0.818639  0.531880  1
  O  O53  1  0.419362  0.765853  0.031750  1
  O  O54  1  0.952308  0.021800  0.881854  1
  O  O55  1  0.951206  0.217229  0.791785  1
  O  O56  1  0.073763  0.681361  0.031880  1
  O  O57  1  0.951206  0.282771  0.291785  1
  O  O58  1  0.464932  0.189580  0.842458  1
  O  O59  1  0.464174  0.147157  0.707071  1
  O  O60  1  0.164628  0.180134  0.041412  1
  O  O61  1  0.999436  0.259386  0.658281  1
  O  O62  1  0.535826  0.647157  0.792929  1
  O  O63  1  0.741027  0.672513  0.069427  1
  O  O64  1  0.466751  0.392969  0.752480  1
  O  O65  1  0.535068  0.810420  0.157542  1
  O  O66  1  0.806136  0.362734  0.556106  1
  O  O67  1  0.258973  0.327487  0.930573  1
  O  O68  1  0.466751  0.107031  0.252480  1
  O  O69  1  0.741027  0.827487  0.569427  1
  O  O70  1  0.968974  0.463402  0.745920  1
  O  O71  1  0.806136  0.137266  0.056106  1
  O  O72  1  0.926237  0.181361  0.468120  1
  O  O73  1  0.453780  0.948690  0.618781  1
  O  O74  1  0.968974  0.036598  0.245920  1
  O  O75  1  0.047692  0.521800  0.618146  1
  O  O76  1  0.546220  0.051310  0.381219  1
  O  O77  1  0.193864  0.637266  0.443894  1
  O  O78  1  0.835372  0.680134  0.458588  1
  O  O79  1  0.580638  0.234147  0.968250  1
  O  O80  1  0.258973  0.172513  0.430573  1
  O  O81  1  0.464932  0.310420  0.342458  1
  O  O82  1  0.419362  0.734147  0.531750  1
  O  O83  1  0.031026  0.536598  0.254080  1
  O  O84  1  0.193864  0.862734  0.943894  1
  O  O85  1  0.047692  0.978200  0.118146  1
  O  O86  1  0.546220  0.448690  0.881219  1
  O  O87  1  0.926237  0.318639  0.968120  1
  O  O88  1  0.464174  0.352843  0.207071  1
  O  O89  1  0.048794  0.717229  0.708215  1
  O  O90  1  0.533249  0.892969  0.747520  1
  O  O91  1  0.999436  0.240614  0.158281  1
