# generated using pymatgen
data_Tc2O5F4
_symmetry_space_group_name_H-M   'P 1'
_cell_length_a   5.48703128
_cell_length_b   15.40851985
_cell_length_c   8.63694714
_cell_angle_alpha   90.00000000
_cell_angle_beta   90.42823697
_cell_angle_gamma   90.00000000
_symmetry_Int_Tables_number   1
_chemical_formula_structural   Tc2O5F4
_chemical_formula_sum   'Tc8 O20 F16'
_cell_volume   730.20783632
_cell_formula_units_Z   4
loop_
 _symmetry_equiv_pos_site_id
 _symmetry_equiv_pos_as_xyz
  1  'x, y, z'
loop_
 _atom_site_type_symbol
 _atom_site_label
 _atom_site_symmetry_multiplicity
 _atom_site_fract_x
 _atom_site_fract_y
 _atom_site_fract_z
 _atom_site_occupancy
  Tc  Tc0  1  0.323827  0.124159  0.373962  1
  Tc  Tc1  1  0.823827  0.375841  0.373962  1
  Tc  Tc2  1  0.176173  0.624159  0.626038  1
  Tc  Tc3  1  0.482940  0.353272  0.873466  1
  Tc  Tc4  1  0.017060  0.853272  0.126534  1
  Tc  Tc5  1  0.676173  0.875841  0.626038  1
  Tc  Tc6  1  0.517060  0.646728  0.126534  1
  Tc  Tc7  1  0.982940  0.146728  0.873466  1
  O  O8  1  0.711860  0.095651  0.883914  1
  O  O9  1  0.318257  0.563457  0.112428  1
  O  O10  1  0.788140  0.595651  0.116086  1
  O  O11  1  0.923441  0.942346  0.641294  1
  O  O12  1  0.003946  0.394648  0.217608  1
  O  O13  1  0.482091  0.096946  0.537605  1
  O  O14  1  0.818257  0.936543  0.112428  1
  O  O15  1  0.496054  0.894648  0.782392  1
  O  O16  1  0.288140  0.904349  0.116086  1
  O  O17  1  0.423441  0.557654  0.641294  1
  O  O18  1  0.576559  0.442346  0.358706  1
  O  O19  1  0.503946  0.105352  0.217608  1
  O  O20  1  0.076559  0.057654  0.358706  1
  O  O21  1  0.017909  0.596946  0.462395  1
  O  O22  1  0.996054  0.605352  0.782392  1
  O  O23  1  0.982091  0.403054  0.537605  1
  O  O24  1  0.681743  0.436543  0.887572  1
  O  O25  1  0.181743  0.063457  0.887572  1
  O  O26  1  0.517909  0.903054  0.462395  1
  O  O27  1  0.211860  0.404349  0.883914  1
  F  F28  1  0.505558  0.315384  0.079027  1
  F  F29  1  0.773851  0.759902  0.618951  1
  F  F30  1  0.994442  0.815384  0.920973  1
  F  F31  1  0.992103  0.162630  0.658989  1
  F  F32  1  0.007897  0.837370  0.341011  1
  F  F33  1  0.212487  0.733372  0.144802  1
  F  F34  1  0.507897  0.662630  0.341011  1
  F  F35  1  0.226149  0.240098  0.381049  1
  F  F36  1  0.726149  0.259902  0.381049  1
  F  F37  1  0.787513  0.266628  0.855198  1
  F  F38  1  0.492103  0.337370  0.658989  1
  F  F39  1  0.712487  0.766628  0.144802  1
  F  F40  1  0.287513  0.233372  0.855198  1
  F  F41  1  0.005558  0.184616  0.079027  1
  F  F42  1  0.273851  0.740098  0.618951  1
  F  F43  1  0.494442  0.684616  0.920973  1
