# generated using pymatgen
data_CrPO5
_symmetry_space_group_name_H-M   'P 1'
_cell_length_a   7.04715074
_cell_length_b   7.29380237
_cell_length_c   7.37678930
_cell_angle_alpha   91.92567022
_cell_angle_beta   110.90896278
_cell_angle_gamma   89.69762005
_symmetry_Int_Tables_number   1
_chemical_formula_structural   CrPO5
_chemical_formula_sum   'Cr4 P4 O20'
_cell_volume   353.99274452
_cell_formula_units_Z   4
loop_
 _symmetry_equiv_pos_site_id
 _symmetry_equiv_pos_as_xyz
  1  'x, y, z'
loop_
 _atom_site_type_symbol
 _atom_site_label
 _atom_site_symmetry_multiplicity
 _atom_site_fract_x
 _atom_site_fract_y
 _atom_site_fract_z
 _atom_site_occupancy
  Cr  Cr0  1  0.693799  0.279919  0.457100  1
  Cr  Cr1  1  0.306201  0.720081  0.542900  1
  Cr  Cr2  1  0.199528  0.216009  0.947465  1
  Cr  Cr3  1  0.800472  0.783991  0.052535  1
  P  P4  1  0.528096  0.086197  0.759678  1
  P  P5  1  0.471904  0.913803  0.240322  1
  P  P6  1  0.978881  0.412839  0.243219  1
  P  P7  1  0.021119  0.587161  0.756781  1
  O  O8  1  0.892827  0.264282  0.340801  1
  O  O9  1  0.107173  0.735718  0.659199  1
  O  O10  1  0.396860  0.755691  0.333168  1
  O  O11  1  0.603140  0.244309  0.666832  1
  O  O12  1  0.506494  0.366876  0.295845  1
  O  O13  1  0.493506  0.633124  0.704155  1
  O  O14  1  0.644648  0.026713  0.393653  1
  O  O15  1  0.355352  0.973287  0.606347  1
  O  O16  1  0.712952  0.962708  0.858501  1
  O  O17  1  0.287048  0.037292  0.141499  1
  O  O18  1  0.040869  0.311617  0.088077  1
  O  O19  1  0.959131  0.688383  0.911923  1
  O  O20  1  0.162110  0.512883  0.392940  1
  O  O21  1  0.837890  0.487117  0.607060  1
  O  O22  1  0.448228  0.178598  0.909808  1
  O  O23  1  0.551772  0.821402  0.090192  1
  O  O24  1  0.198383  0.452115  0.851083  1
  O  O25  1  0.801617  0.547885  0.148917  1
  O  O26  1  0.040059  0.113261  0.766283  1
  O  O27  1  0.959941  0.886739  0.233717  1
