# generated using pymatgen
data_ScH24C3S3(N3O5)3
_symmetry_space_group_name_H-M   'P 1'
_cell_length_a   11.76330602
_cell_length_b   11.76330602
_cell_length_c   11.76330602
_cell_angle_alpha   112.72751201
_cell_angle_beta   112.72751201
_cell_angle_gamma   112.72751201
_symmetry_Int_Tables_number   1
_chemical_formula_structural   ScH24C3S3(N3O5)3
_chemical_formula_sum   'Sc2 H48 C6 S6 N18 O30'
_cell_volume   1075.87650549
_cell_formula_units_Z   2
loop_
 _symmetry_equiv_pos_site_id
 _symmetry_equiv_pos_as_xyz
  1  'x, y, z'
loop_
 _atom_site_type_symbol
 _atom_site_label
 _atom_site_symmetry_multiplicity
 _atom_site_fract_x
 _atom_site_fract_y
 _atom_site_fract_z
 _atom_site_occupancy
  Sc  Sc0  1  0.500000  0.500000  0.500000  1
  Sc  Sc1  1  0.000000  0.000000  0.000000  1
  H  H2  1  0.770416  0.404677  0.000636  1
  H  H3  1  0.205700  0.564546  0.345641  1
  H  H4  1  0.669482  0.052056  0.016191  1
  H  H5  1  0.654359  0.794300  0.435454  1
  H  H6  1  0.172238  0.648275  0.253474  1
  H  H7  1  0.840529  0.187707  0.185798  1
  H  H8  1  0.463757  0.951004  0.335706  1
  H  H9  1  0.746526  0.827762  0.351725  1
  H  H10  1  0.536243  0.048996  0.664294  1
  H  H11  1  0.016191  0.669482  0.052056  1
  H  H12  1  0.330518  0.947944  0.983809  1
  H  H13  1  0.563424  0.494758  0.123250  1
  H  H14  1  0.564546  0.345641  0.205700  1
  H  H15  1  0.229584  0.595323  0.999364  1
  H  H16  1  0.253474  0.172238  0.648275  1
  H  H17  1  0.187707  0.185798  0.840529  1
  H  H18  1  0.232139  0.707501  0.933963  1
  H  H19  1  0.951004  0.335706  0.463757  1
  H  H20  1  0.435454  0.654359  0.794300  1
  H  H21  1  0.664294  0.536243  0.048996  1
  H  H22  1  0.707501  0.933963  0.232139  1
  H  H23  1  0.983809  0.330518  0.947944  1
  H  H24  1  0.052056  0.016191  0.669482  1
  H  H25  1  0.494758  0.123250  0.563424  1
  H  H26  1  0.066037  0.767861  0.292499  1
  H  H27  1  0.292499  0.066037  0.767861  1
  H  H28  1  0.814202  0.159471  0.812293  1
  H  H29  1  0.767861  0.292499  0.066037  1
  H  H30  1  0.876750  0.436576  0.505242  1
  H  H31  1  0.436576  0.505242  0.876750  1
  H  H32  1  0.812293  0.814202  0.159471  1
  H  H33  1  0.947944  0.983809  0.330518  1
  H  H34  1  0.505242  0.876750  0.436576  1
  H  H35  1  0.185798  0.840529  0.187707  1
  H  H36  1  0.335706  0.463757  0.951004  1
  H  H37  1  0.345641  0.205700  0.564546  1
  H  H38  1  0.404677  0.000636  0.770416  1
  H  H39  1  0.648275  0.253474  0.172238  1
  H  H40  1  0.827762  0.351725  0.746526  1
  H  H41  1  0.351725  0.746526  0.827762  1
  H  H42  1  0.794300  0.435454  0.654359  1
  H  H43  1  0.595323  0.999364  0.229584  1
  H  H44  1  0.933963  0.232139  0.707501  1
  H  H45  1  0.048996  0.664294  0.536243  1
  H  H46  1  0.123250  0.563424  0.494758  1
  H  H47  1  0.159471  0.812293  0.814202  1
  H  H48  1  0.999364  0.229584  0.595323  1
  H  H49  1  0.000636  0.770416  0.404677  1
  C  C50  1  0.110952  0.671487  0.396322  1
  C  C51  1  0.328513  0.603678  0.889048  1
  C  C52  1  0.889048  0.328513  0.603678  1
  C  C53  1  0.603678  0.889048  0.328513  1
  C  C54  1  0.396322  0.110952  0.671487  1
  C  C55  1  0.671487  0.396322  0.110952  1
  S  S56  1  0.254727  0.379992  0.123355  1
  S  S57  1  0.620008  0.876645  0.745273  1
  S  S58  1  0.379992  0.123355  0.254727  1
  S  S59  1  0.745273  0.620008  0.876645  1
  S  S60  1  0.876645  0.745273  0.620008  1
  S  S61  1  0.123355  0.254727  0.379992  1
  N  N62  1  0.823473  0.367640  0.665729  1
  N  N63  1  0.334271  0.176527  0.632360  1
  N  N64  1  0.370303  0.062885  0.751246  1
  N  N65  1  0.665729  0.823472  0.367640  1
  N  N66  1  0.751246  0.370303  0.062885  1
  N  N67  1  0.098698  0.635691  0.488127  1
  N  N68  1  0.176527  0.632360  0.334271  1
  N  N69  1  0.632360  0.334271  0.176527  1
  N  N70  1  0.901302  0.364309  0.511873  1
  N  N71  1  0.488127  0.098698  0.635691  1
  N  N72  1  0.635691  0.488127  0.098698  1
  N  N73  1  0.937115  0.248754  0.629697  1
  N  N74  1  0.364309  0.511873  0.901302  1
  N  N75  1  0.511873  0.901302  0.364309  1
  N  N76  1  0.367640  0.665729  0.823473  1
  N  N77  1  0.062885  0.751246  0.370303  1
  N  N78  1  0.629697  0.937115  0.248754  1
  N  N79  1  0.248754  0.629697  0.937115  1
  O  O80  1  0.886835  0.781953  0.955529  1
  O  O81  1  0.044471  0.113165  0.218047  1
  O  O82  1  0.218047  0.044471  0.113165  1
  O  O83  1  0.802069  0.540179  0.919844  1
  O  O84  1  0.128292  0.728126  0.140126  1
  O  O85  1  0.300328  0.353456  0.473264  1
  O  O86  1  0.540179  0.919844  0.802069  1
  O  O87  1  0.635043  0.928274  0.651769  1
  O  O88  1  0.859874  0.871708  0.271874  1
  O  O89  1  0.071726  0.348231  0.364957  1
  O  O90  1  0.728126  0.140126  0.128292  1
  O  O91  1  0.955529  0.886835  0.781953  1
  O  O92  1  0.348231  0.364957  0.071726  1
  O  O93  1  0.871708  0.271874  0.859874  1
  O  O94  1  0.699672  0.646544  0.526736  1
  O  O95  1  0.919844  0.802069  0.540179  1
  O  O96  1  0.526736  0.699672  0.646544  1
  O  O97  1  0.364957  0.071726  0.348231  1
  O  O98  1  0.928274  0.651769  0.635043  1
  O  O99  1  0.113165  0.218047  0.044471  1
  O  O100  1  0.781953  0.955529  0.886835  1
  O  O101  1  0.271874  0.859874  0.871708  1
  O  O102  1  0.353456  0.473264  0.300328  1
  O  O103  1  0.197931  0.459821  0.080156  1
  O  O104  1  0.140126  0.128292  0.728126  1
  O  O105  1  0.473264  0.300328  0.353456  1
  O  O106  1  0.646544  0.526736  0.699672  1
  O  O107  1  0.080156  0.197931  0.459821  1
  O  O108  1  0.651769  0.635043  0.928274  1
  O  O109  1  0.459821  0.080156  0.197931  1
