# generated using pymatgen
data_LuSF
_symmetry_space_group_name_H-M   'P 1'
_cell_length_a   8.55924185
_cell_length_b   8.55924185
_cell_length_c   8.55924185
_cell_angle_alpha   26.81409971
_cell_angle_beta   26.81409971
_cell_angle_gamma   26.81409971
_symmetry_Int_Tables_number   1
_chemical_formula_structural   LuSF
_chemical_formula_sum   'Lu2 S2 F2'
_cell_volume   112.51869352
_cell_formula_units_Z   2
loop_
 _symmetry_equiv_pos_site_id
 _symmetry_equiv_pos_as_xyz
  1  'x, y, z'
loop_
 _atom_site_type_symbol
 _atom_site_label
 _atom_site_symmetry_multiplicity
 _atom_site_fract_x
 _atom_site_fract_y
 _atom_site_fract_z
 _atom_site_occupancy
  Lu  Lu0  1  0.000000  0.000000  0.000000  1
  Lu  Lu1  1  0.500000  0.500000  0.500000  1
  S  S2  1  0.609211  0.609211  0.609211  1
  S  S3  1  0.390789  0.390789  0.390789  1
  F  F4  1  0.832635  0.832635  0.832635  1
  F  F5  1  0.167365  0.167365  0.167365  1
