# generated using pymatgen
data_Rb2Sb4O11
_symmetry_space_group_name_H-M   'P 1'
_cell_length_a   10.64963769
_cell_length_b   10.64963769
_cell_length_c   7.34175450
_cell_angle_alpha   84.89695418
_cell_angle_beta   95.10304582
_cell_angle_gamma   137.56500562
_symmetry_Int_Tables_number   1
_chemical_formula_structural   Rb2Sb4O11
_chemical_formula_sum   'Rb4 Sb8 O22'
_cell_volume   559.27906155
_cell_formula_units_Z   2
loop_
 _symmetry_equiv_pos_site_id
 _symmetry_equiv_pos_as_xyz
  1  'x, y, z'
loop_
 _atom_site_type_symbol
 _atom_site_label
 _atom_site_symmetry_multiplicity
 _atom_site_fract_x
 _atom_site_fract_y
 _atom_site_fract_z
 _atom_site_occupancy
  Rb  Rb0  1  0.508081  0.491919  0.254745  1
  Rb  Rb1  1  0.265363  0.734637  0.994033  1
  Rb  Rb2  1  0.491919  0.508081  0.745255  1
  Rb  Rb3  1  0.734637  0.265363  0.005967  1
  Sb  Sb4  1  0.928390  0.071610  0.901773  1
  Sb  Sb5  1  0.431215  0.082438  0.436692  1
  Sb  Sb6  1  0.082438  0.431215  0.563308  1
  Sb  Sb7  1  0.917562  0.568785  0.436692  1
  Sb  Sb8  1  0.924068  0.075932  0.382823  1
  Sb  Sb9  1  0.071610  0.928390  0.098227  1
  Sb  Sb10  1  0.075932  0.924068  0.617177  1
  Sb  Sb11  1  0.568785  0.917562  0.563308  1
  O  O12  1  0.050383  0.523944  0.333164  1
  O  O13  1  0.117616  0.882384  0.868635  1
  O  O14  1  0.476056  0.949617  0.333164  1
  O  O15  1  0.165495  0.343279  0.429193  1
  O  O16  1  0.833514  0.166486  0.489982  1
  O  O17  1  0.339970  0.660030  0.641779  1
  O  O18  1  0.327035  0.069718  0.189513  1
  O  O19  1  0.829104  0.829104  0.000000  1
  O  O20  1  0.656721  0.834505  0.429193  1
  O  O21  1  0.672965  0.930282  0.810487  1
  O  O22  1  0.166486  0.833514  0.510018  1
  O  O23  1  0.834505  0.656721  0.570807  1
  O  O24  1  0.069718  0.327035  0.810487  1
  O  O25  1  0.170896  0.170896  0.000000  1
  O  O26  1  0.523944  0.050383  0.666836  1
  O  O27  1  0.930283  0.672965  0.189513  1
  O  O28  1  0.660030  0.339970  0.358221  1
  O  O29  1  0.976684  0.023316  0.654211  1
  O  O30  1  0.949617  0.476056  0.666836  1
  O  O31  1  0.343279  0.165495  0.570807  1
  O  O32  1  0.023316  0.976684  0.345789  1
  O  O33  1  0.882384  0.117616  0.131365  1
