# generated using pymatgen
data_Sm(IO3)3
_symmetry_space_group_name_H-M   'P 1'
_cell_length_a   7.34740755
_cell_length_b   8.73374301
_cell_length_c   13.70298083
_cell_angle_alpha   90.00000000
_cell_angle_beta   99.71694414
_cell_angle_gamma   90.00000000
_symmetry_Int_Tables_number   1
_chemical_formula_structural   Sm(IO3)3
_chemical_formula_sum   'Sm4 I12 O36'
_cell_volume   866.71018630
_cell_formula_units_Z   4
loop_
 _symmetry_equiv_pos_site_id
 _symmetry_equiv_pos_as_xyz
  1  'x, y, z'
loop_
 _atom_site_type_symbol
 _atom_site_label
 _atom_site_symmetry_multiplicity
 _atom_site_fract_x
 _atom_site_fract_y
 _atom_site_fract_z
 _atom_site_occupancy
  Sm  Sm0  1  0.825623  0.743811  0.355388  1
  Sm  Sm1  1  0.825623  0.756189  0.855388  1
  Sm  Sm2  1  0.174377  0.243811  0.144612  1
  Sm  Sm3  1  0.174377  0.256189  0.644612  1
  I  I4  1  0.834340  0.297336  0.891950  1
  I  I5  1  0.672368  0.049680  0.645449  1
  I  I6  1  0.165660  0.702664  0.108050  1
  I  I7  1  0.834340  0.202664  0.391950  1
  I  I8  1  0.265024  0.023812  0.890682  1
  I  I9  1  0.734976  0.523812  0.609318  1
  I  I10  1  0.734976  0.976188  0.109318  1
  I  I11  1  0.672368  0.450320  0.145449  1
  I  I12  1  0.327632  0.950320  0.354551  1
  I  I13  1  0.165660  0.797336  0.608050  1
  I  I14  1  0.265024  0.476188  0.390682  1
  I  I15  1  0.327632  0.549680  0.854551  1
  O  O16  1  0.480108  0.180182  0.644251  1
  O  O17  1  0.228279  0.207689  0.824334  1
  O  O18  1  0.857106  0.308600  0.177422  1
  O  O19  1  0.165340  0.525819  0.179996  1
  O  O20  1  0.165340  0.974181  0.679996  1
  O  O21  1  0.669510  0.528422  0.269319  1
  O  O22  1  0.771721  0.792311  0.175666  1
  O  O23  1  0.321432  0.415556  0.519303  1
  O  O24  1  0.857106  0.191400  0.677422  1
  O  O25  1  0.771721  0.707689  0.675666  1
  O  O26  1  0.142894  0.808600  0.322578  1
  O  O27  1  0.023158  0.973482  0.889288  1
  O  O28  1  0.519892  0.680182  0.855749  1
  O  O29  1  0.480108  0.319818  0.144251  1
  O  O30  1  0.834660  0.474181  0.820004  1
  O  O31  1  0.228279  0.292311  0.324334  1
  O  O32  1  0.976842  0.026518  0.110712  1
  O  O33  1  0.645409  0.165224  0.459893  1
  O  O34  1  0.669510  0.971578  0.769319  1
  O  O35  1  0.976842  0.473482  0.610712  1
  O  O36  1  0.035235  0.333770  0.987328  1
  O  O37  1  0.330490  0.028422  0.230681  1
  O  O38  1  0.330490  0.471578  0.730681  1
  O  O39  1  0.678568  0.584444  0.480697  1
  O  O40  1  0.964765  0.833770  0.512672  1
  O  O41  1  0.354591  0.834776  0.540107  1
  O  O42  1  0.023158  0.526518  0.389288  1
  O  O43  1  0.678568  0.915556  0.980697  1
  O  O44  1  0.142894  0.691400  0.822578  1
  O  O45  1  0.645409  0.334776  0.959893  1
  O  O46  1  0.354591  0.665224  0.040107  1
  O  O47  1  0.321432  0.084444  0.019303  1
  O  O48  1  0.964765  0.666230  0.012672  1
  O  O49  1  0.519892  0.819818  0.355749  1
  O  O50  1  0.035235  0.166230  0.487328  1
  O  O51  1  0.834660  0.025819  0.320004  1
