# generated using pymatgen
data_K2Ti(SiO3)3
_symmetry_space_group_name_H-M   'P 1'
_cell_length_a   7.71575152
_cell_length_b   7.71575152
_cell_length_c   7.71575152
_cell_angle_alpha   82.44123626
_cell_angle_beta   82.44123626
_cell_angle_gamma   82.44123626
_symmetry_Int_Tables_number   1
_chemical_formula_structural   K2Ti(SiO3)3
_chemical_formula_sum   'K4 Ti2 Si6 O18'
_cell_volume   448.33173830
_cell_formula_units_Z   2
loop_
 _symmetry_equiv_pos_site_id
 _symmetry_equiv_pos_as_xyz
  1  'x, y, z'
loop_
 _atom_site_type_symbol
 _atom_site_label
 _atom_site_symmetry_multiplicity
 _atom_site_fract_x
 _atom_site_fract_y
 _atom_site_fract_z
 _atom_site_occupancy
  K  K0  1  0.230383  0.771788  0.005095  1
  K  K1  1  0.005095  0.230383  0.771788  1
  K  K2  1  0.771788  0.005095  0.230383  1
  K  K3  1  0.503500  0.503500  0.503500  1
  Ti  Ti4  1  0.777596  0.777596  0.777596  1
  Ti  Ti5  1  0.259222  0.259222  0.259222  1
  Si  Si6  1  0.490021  0.109442  0.902000  1
  Si  Si7  1  0.109442  0.902000  0.490020  1
  Si  Si8  1  0.902000  0.490021  0.109442  1
  Si  Si9  1  0.450951  0.984790  0.563669  1
  Si  Si10  1  0.984790  0.563669  0.450951  1
  Si  Si11  1  0.563669  0.450951  0.984790  1
  O  O12  1  0.900030  0.676123  0.982485  1
  O  O13  1  0.842750  0.532973  0.316045  1
  O  O14  1  0.532973  0.316045  0.842750  1
  O  O15  1  0.057583  0.756244  0.371180  1
  O  O16  1  0.371180  0.057583  0.756244  1
  O  O17  1  0.152143  0.412426  0.443546  1
  O  O18  1  0.089381  0.368399  0.095741  1
  O  O19  1  0.095741  0.089381  0.368399  1
  O  O20  1  0.412426  0.443546  0.152143  1
  O  O21  1  0.756244  0.371180  0.057583  1
  O  O22  1  0.368399  0.095741  0.089381  1
  O  O23  1  0.443546  0.152143  0.412426  1
  O  O24  1  0.316045  0.842750  0.532973  1
  O  O25  1  0.878948  0.573602  0.645633  1
  O  O26  1  0.573602  0.645633  0.878948  1
  O  O27  1  0.982485  0.900030  0.676123  1
  O  O28  1  0.645633  0.878948  0.573602  1
  O  O29  1  0.676123  0.982485  0.900030  1
