# generated using pymatgen
data_Cs2Na3InO4
_symmetry_space_group_name_H-M   'P 1'
_cell_length_a   6.44599231
_cell_length_b   10.35980878
_cell_length_c   12.62575285
_cell_angle_alpha   90.00000000
_cell_angle_beta   111.11512749
_cell_angle_gamma   90.00000000
_symmetry_Int_Tables_number   1
_chemical_formula_structural   Cs2Na3InO4
_chemical_formula_sum   'Cs8 Na12 In4 O16'
_cell_volume   786.52866984
_cell_formula_units_Z   4
loop_
 _symmetry_equiv_pos_site_id
 _symmetry_equiv_pos_as_xyz
  1  'x, y, z'
loop_
 _atom_site_type_symbol
 _atom_site_label
 _atom_site_symmetry_multiplicity
 _atom_site_fract_x
 _atom_site_fract_y
 _atom_site_fract_z
 _atom_site_occupancy
  Cs  Cs0  1  0.783999  0.726555  0.391673  1
  Cs  Cs1  1  0.216001  0.226555  0.108327  1
  Cs  Cs2  1  0.216001  0.273445  0.608327  1
  Cs  Cs3  1  0.783999  0.773445  0.891673  1
  Cs  Cs4  1  0.773887  0.502274  0.634704  1
  Cs  Cs5  1  0.226113  0.002274  0.865296  1
  Cs  Cs6  1  0.226113  0.497726  0.365296  1
  Cs  Cs7  1  0.773887  0.997726  0.134704  1
  Na  Na8  1  0.890138  0.255041  0.798704  1
  Na  Na9  1  0.109862  0.755041  0.701296  1
  Na  Na10  1  0.109862  0.744959  0.201296  1
  Na  Na11  1  0.890138  0.244959  0.298704  1
  Na  Na12  1  0.587851  0.029491  0.704697  1
  Na  Na13  1  0.412149  0.529491  0.795303  1
  Na  Na14  1  0.412149  0.970509  0.295303  1
  Na  Na15  1  0.587851  0.470509  0.204697  1
  Na  Na16  1  0.138525  0.488588  0.931902  1
  Na  Na17  1  0.861475  0.988588  0.568098  1
  Na  Na18  1  0.861475  0.511412  0.068098  1
  Na  Na19  1  0.138525  0.011412  0.431902  1
  In  In20  1  0.602772  0.215890  0.435924  1
  In  In21  1  0.397228  0.715890  0.064076  1
  In  In22  1  0.397228  0.784110  0.564076  1
  In  In23  1  0.602772  0.284110  0.935924  1
  O  O24  1  0.261181  0.318148  0.850653  1
  O  O25  1  0.738819  0.818148  0.649347  1
  O  O26  1  0.738819  0.681852  0.149347  1
  O  O27  1  0.261181  0.181852  0.350653  1
  O  O28  1  0.721314  0.190056  0.613191  1
  O  O29  1  0.278686  0.690056  0.886809  1
  O  O30  1  0.278686  0.809944  0.386809  1
  O  O31  1  0.721314  0.309944  0.113191  1
  O  O32  1  0.713554  0.107302  0.891719  1
  O  O33  1  0.286446  0.607302  0.608281  1
  O  O34  1  0.286446  0.892698  0.108281  1
  O  O35  1  0.713554  0.392698  0.391719  1
  O  O36  1  0.761833  0.065337  0.376896  1
  O  O37  1  0.238167  0.565337  0.123104  1
  O  O38  1  0.238167  0.934663  0.623104  1
  O  O39  1  0.761833  0.434663  0.876896  1
