# generated using pymatgen
data_KZrH2OF5
_symmetry_space_group_name_H-M   'P 1'
_cell_length_a   7.73947223
_cell_length_b   12.36381531
_cell_length_c   11.21428438
_cell_angle_alpha   90.00000000
_cell_angle_beta   98.76778862
_cell_angle_gamma   90.00000000
_symmetry_Int_Tables_number   1
_chemical_formula_structural   KZrH2OF5
_chemical_formula_sum   'K8 Zr8 H16 O8 F40'
_cell_volume   1060.54834421
_cell_formula_units_Z   8
loop_
 _symmetry_equiv_pos_site_id
 _symmetry_equiv_pos_as_xyz
  1  'x, y, z'
loop_
 _atom_site_type_symbol
 _atom_site_label
 _atom_site_symmetry_multiplicity
 _atom_site_fract_x
 _atom_site_fract_y
 _atom_site_fract_z
 _atom_site_occupancy
  K  K0  1  0.797540  0.961441  0.852938  1
  K  K1  1  0.298563  0.475885  0.120291  1
  K  K2  1  0.202460  0.461441  0.647062  1
  K  K3  1  0.202460  0.038559  0.147062  1
  K  K4  1  0.701437  0.524115  0.879709  1
  K  K5  1  0.701437  0.975885  0.379709  1
  K  K6  1  0.797540  0.538559  0.352938  1
  K  K7  1  0.298563  0.024115  0.620291  1
  Zr  Zr8  1  0.975660  0.736766  0.122224  1
  Zr  Zr9  1  0.975660  0.763234  0.622224  1
  Zr  Zr10  1  0.471149  0.245050  0.392160  1
  Zr  Zr11  1  0.024340  0.263234  0.877776  1
  Zr  Zr12  1  0.528851  0.745050  0.107840  1
  Zr  Zr13  1  0.471149  0.254950  0.892160  1
  Zr  Zr14  1  0.024340  0.236766  0.377776  1
  Zr  Zr15  1  0.528851  0.754950  0.607840  1
  H  H16  1  0.254662  0.855969  0.950903  1
  H  H17  1  0.582600  0.146200  0.122943  1
  H  H18  1  0.417400  0.646200  0.377057  1
  H  H19  1  0.751836  0.338180  0.201032  1
  H  H20  1  0.745338  0.355969  0.549097  1
  H  H21  1  0.751836  0.161820  0.701032  1
  H  H22  1  0.071129  0.650648  0.854338  1
  H  H23  1  0.928871  0.150648  0.645662  1
  H  H24  1  0.928871  0.349352  0.145662  1
  H  H25  1  0.254662  0.644031  0.450903  1
  H  H26  1  0.248164  0.838180  0.298968  1
  H  H27  1  0.071129  0.849352  0.354338  1
  H  H28  1  0.417400  0.853800  0.877057  1
  H  H29  1  0.582600  0.353800  0.622943  1
  H  H30  1  0.248164  0.661820  0.798968  1
  H  H31  1  0.745338  0.144031  0.049097  1
  O  O32  1  0.121126  0.654730  0.777225  1
  O  O33  1  0.121126  0.845270  0.277225  1
  O  O34  1  0.382804  0.857208  0.958897  1
  O  O35  1  0.617196  0.357208  0.541103  1
  O  O36  1  0.382804  0.642792  0.458897  1
  O  O37  1  0.878874  0.154730  0.722775  1
  O  O38  1  0.617196  0.142792  0.041103  1
  O  O39  1  0.878874  0.345270  0.222775  1
  F  F40  1  0.939015  0.381014  0.756545  1
  F  F41  1  0.489809  0.145157  0.246770  1
  F  F42  1  0.251798  0.724504  0.114168  1
  F  F43  1  0.250618  0.373160  0.884291  1
  F  F44  1  0.529559  0.378126  0.297446  1
  F  F45  1  0.986250  0.860457  0.474503  1
  F  F46  1  0.281843  0.200752  0.996629  1
  F  F47  1  0.251798  0.775496  0.614168  1
  F  F48  1  0.718157  0.799248  0.003371  1
  F  F49  1  0.963982  0.371036  0.473263  1
  F  F50  1  0.036018  0.628964  0.526737  1
  F  F51  1  0.489809  0.354843  0.746770  1
  F  F52  1  0.554241  0.367688  0.021494  1
  F  F53  1  0.749382  0.873160  0.615709  1
  F  F54  1  0.013750  0.139543  0.525497  1
  F  F55  1  0.013750  0.360457  0.025497  1
  F  F56  1  0.036018  0.871036  0.026737  1
  F  F57  1  0.060985  0.618986  0.243455  1
  F  F58  1  0.281843  0.299248  0.496629  1
  F  F59  1  0.470441  0.878126  0.202554  1
  F  F60  1  0.554241  0.132312  0.521494  1
  F  F61  1  0.445759  0.632312  0.978506  1
  F  F62  1  0.749382  0.626840  0.115709  1
  F  F63  1  0.510191  0.854843  0.753230  1
  F  F64  1  0.529559  0.121874  0.797446  1
  F  F65  1  0.250618  0.126840  0.384291  1
  F  F66  1  0.748202  0.224504  0.385832  1
  F  F67  1  0.788719  0.701223  0.726395  1
  F  F68  1  0.788719  0.798777  0.226395  1
  F  F69  1  0.718157  0.700752  0.503371  1
  F  F70  1  0.060985  0.881014  0.743455  1
  F  F71  1  0.963982  0.128964  0.973263  1
  F  F72  1  0.445759  0.867688  0.478506  1
  F  F73  1  0.470441  0.621874  0.702554  1
  F  F74  1  0.939015  0.118986  0.256545  1
  F  F75  1  0.986250  0.639543  0.974503  1
  F  F76  1  0.211281  0.201223  0.773605  1
  F  F77  1  0.211281  0.298777  0.273605  1
  F  F78  1  0.748202  0.275496  0.885832  1
  F  F79  1  0.510191  0.645157  0.253230  1
