# generated using pymatgen
data_CsAlBP2HO9
_symmetry_space_group_name_H-M   'P 1'
_cell_length_a   9.36154603
_cell_length_b   8.81671668
_cell_length_c   9.59614083
_cell_angle_alpha   90.00000000
_cell_angle_beta   104.56745295
_cell_angle_gamma   90.00000000
_symmetry_Int_Tables_number   1
_chemical_formula_structural   CsAlBP2HO9
_chemical_formula_sum   'Cs4 Al4 B4 P8 H4 O36'
_cell_volume   766.58464848
_cell_formula_units_Z   4
loop_
 _symmetry_equiv_pos_site_id
 _symmetry_equiv_pos_as_xyz
  1  'x, y, z'
loop_
 _atom_site_type_symbol
 _atom_site_label
 _atom_site_symmetry_multiplicity
 _atom_site_fract_x
 _atom_site_fract_y
 _atom_site_fract_z
 _atom_site_occupancy
  Cs  Cs0  1  0.304588  0.617742  0.443461  1
  Cs  Cs1  1  0.695412  0.117742  0.056539  1
  Cs  Cs2  1  0.695412  0.382258  0.556539  1
  Cs  Cs3  1  0.304588  0.882258  0.943461  1
  Al  Al4  1  0.302897  0.153504  0.572327  1
  Al  Al5  1  0.697103  0.653504  0.927673  1
  Al  Al6  1  0.697103  0.846496  0.427673  1
  Al  Al7  1  0.302897  0.346496  0.072327  1
  B  B8  1  0.156318  0.966815  0.298681  1
  B  B9  1  0.843682  0.466815  0.201319  1
  B  B10  1  0.843682  0.033185  0.701319  1
  B  B11  1  0.156318  0.533185  0.798681  1
  P  P12  1  0.428457  0.073895  0.299416  1
  P  P13  1  0.571543  0.573895  0.200584  1
  P  P14  1  0.571543  0.926105  0.700584  1
  P  P15  1  0.428457  0.426105  0.799416  1
  P  P16  1  0.910973  0.772251  0.217360  1
  P  P17  1  0.089027  0.272251  0.282640  1
  P  P18  1  0.089027  0.227749  0.782640  1
  P  P19  1  0.910973  0.727749  0.717360  1
  H  H20  1  0.105769  0.945044  0.497699  1
  H  H21  1  0.894231  0.445044  0.002301  1
  H  H22  1  0.894231  0.054956  0.502301  1
  H  H23  1  0.105769  0.554956  0.997699  1
  O  O24  1  0.299274  0.951144  0.263647  1
  O  O25  1  0.700726  0.451144  0.236353  1
  O  O26  1  0.700726  0.048856  0.736353  1
  O  O27  1  0.299274  0.548856  0.763647  1
  O  O28  1  0.070915  0.101771  0.232104  1
  O  O29  1  0.929085  0.601771  0.267896  1
  O  O30  1  0.929085  0.898229  0.767896  1
  O  O31  1  0.070915  0.398229  0.732104  1
  O  O32  1  0.405023  0.181360  0.169649  1
  O  O33  1  0.594977  0.681360  0.330351  1
  O  O34  1  0.594977  0.818640  0.830351  1
  O  O35  1  0.405023  0.318640  0.669649  1
  O  O36  1  0.075147  0.827578  0.244139  1
  O  O37  1  0.924853  0.327578  0.255861  1
  O  O38  1  0.924853  0.172422  0.755861  1
  O  O39  1  0.075147  0.672422  0.744139  1
  O  O40  1  0.836974  0.782086  0.056891  1
  O  O41  1  0.163026  0.282086  0.443109  1
  O  O42  1  0.163026  0.217914  0.943109  1
  O  O43  1  0.836974  0.717914  0.556891  1
  O  O44  1  0.834661  0.866458  0.311474  1
  O  O45  1  0.165339  0.366458  0.188526  1
  O  O46  1  0.165339  0.133542  0.688526  1
  O  O47  1  0.834661  0.633542  0.811474  1
  O  O48  1  0.573759  0.989964  0.309435  1
  O  O49  1  0.426241  0.489964  0.190565  1
  O  O50  1  0.426241  0.010036  0.690565  1
  O  O51  1  0.573759  0.510036  0.809435  1
  O  O52  1  0.421674  0.155742  0.438628  1
  O  O53  1  0.578326  0.655742  0.061372  1
  O  O54  1  0.578326  0.844258  0.561372  1
  O  O55  1  0.421674  0.344258  0.938628  1
  O  O56  1  0.188910  0.974680  0.460060  1
  O  O57  1  0.811090  0.474680  0.039940  1
  O  O58  1  0.811090  0.025320  0.539940  1
  O  O59  1  0.188910  0.525320  0.960060  1
