# generated using pymatgen
data_Sr3Al2Cl2O5
_symmetry_space_group_name_H-M   'P 1'
_cell_length_a   9.49874227
_cell_length_b   9.51415971
_cell_length_c   9.51885145
_cell_angle_alpha   90.00000000
_cell_angle_beta   90.00000000
_cell_angle_gamma   90.00000000
_symmetry_Int_Tables_number   1
_chemical_formula_structural   Sr3Al2Cl2O5
_chemical_formula_sum   'Sr12 Al8 Cl8 O20'
_cell_volume   860.24288814
_cell_formula_units_Z   4
loop_
 _symmetry_equiv_pos_site_id
 _symmetry_equiv_pos_as_xyz
  1  'x, y, z'
loop_
 _atom_site_type_symbol
 _atom_site_label
 _atom_site_symmetry_multiplicity
 _atom_site_fract_x
 _atom_site_fract_y
 _atom_site_fract_z
 _atom_site_occupancy
  Sr  Sr0  1  0.992039  0.751480  0.088886  1
  Sr  Sr1  1  0.587766  0.487331  0.241653  1
  Sr  Sr2  1  0.759770  0.910831  0.499431  1
  Sr  Sr3  1  0.259770  0.589169  0.500569  1
  Sr  Sr4  1  0.740230  0.089169  0.999431  1
  Sr  Sr5  1  0.240230  0.410831  0.000569  1
  Sr  Sr6  1  0.492039  0.748520  0.911114  1
  Sr  Sr7  1  0.912234  0.512669  0.741653  1
  Sr  Sr8  1  0.507961  0.248520  0.588886  1
  Sr  Sr9  1  0.007961  0.251480  0.411114  1
  Sr  Sr10  1  0.087766  0.012669  0.758347  1
  Sr  Sr11  1  0.412234  0.987331  0.258347  1
  Al  Al12  1  0.594039  0.400836  0.902638  1
  Al  Al13  1  0.399475  0.094911  0.902781  1
  Al  Al14  1  0.600525  0.594911  0.597219  1
  Al  Al15  1  0.405961  0.900836  0.597362  1
  Al  Al16  1  0.100525  0.905089  0.402781  1
  Al  Al17  1  0.899475  0.405089  0.097219  1
  Al  Al18  1  0.905961  0.599164  0.402638  1
  Al  Al19  1  0.094039  0.099164  0.097362  1
  Cl  Cl20  1  0.682396  0.797525  0.197858  1
  Cl  Cl21  1  0.317604  0.297525  0.302142  1
  Cl  Cl22  1  0.295706  0.684628  0.189787  1
  Cl  Cl23  1  0.182396  0.702475  0.802142  1
  Cl  Cl24  1  0.704294  0.184628  0.310213  1
  Cl  Cl25  1  0.795706  0.815372  0.810213  1
  Cl  Cl26  1  0.204294  0.315372  0.689787  1
  Cl  Cl27  1  0.817604  0.202475  0.697858  1
  O  O28  1  0.494208  0.742113  0.644248  1
  O  O29  1  0.000083  0.011752  0.514316  1
  O  O30  1  0.005792  0.257887  0.144248  1
  O  O31  1  0.854888  0.503444  0.250468  1
  O  O32  1  0.739414  0.355644  0.012940  1
  O  O33  1  0.999917  0.511752  0.985684  1
  O  O34  1  0.500083  0.488248  0.485684  1
  O  O35  1  0.354888  0.996556  0.749532  1
  O  O36  1  0.260586  0.855644  0.487060  1
  O  O37  1  0.994208  0.757887  0.355752  1
  O  O38  1  0.239414  0.144356  0.987060  1
  O  O39  1  0.145112  0.003444  0.249532  1
  O  O40  1  0.518304  0.006544  0.496875  1
  O  O41  1  0.505792  0.242113  0.855752  1
  O  O42  1  0.981696  0.993456  0.996875  1
  O  O43  1  0.481696  0.506544  0.003125  1
  O  O44  1  0.760586  0.644356  0.512940  1
  O  O45  1  0.645112  0.496556  0.750468  1
  O  O46  1  0.499917  0.988248  0.014316  1
  O  O47  1  0.018304  0.493456  0.503125  1
