# generated using pymatgen
data_K4GeS4
_symmetry_space_group_name_H-M   'P 1'
_cell_length_a   12.92572365
_cell_length_b   12.92572365
_cell_length_c   12.92572365
_cell_angle_alpha   90.00000000
_cell_angle_beta   90.00000000
_cell_angle_gamma   90.00000000
_symmetry_Int_Tables_number   1
_chemical_formula_structural   K4GeS4
_chemical_formula_sum   'K32 Ge8 S32'
_cell_volume   2159.55664284
_cell_formula_units_Z   8
loop_
 _symmetry_equiv_pos_site_id
 _symmetry_equiv_pos_as_xyz
  1  'x, y, z'
loop_
 _atom_site_type_symbol
 _atom_site_label
 _atom_site_symmetry_multiplicity
 _atom_site_fract_x
 _atom_site_fract_y
 _atom_site_fract_z
 _atom_site_occupancy
  K  K0  1  0.365568  0.150797  0.413949  1
  K  K1  1  0.150797  0.586051  0.634432  1
  K  K2  1  0.913949  0.349203  0.134432  1
  K  K3  1  0.652070  0.652070  0.652070  1
  K  K4  1  0.152070  0.847930  0.847930  1
  K  K5  1  0.634432  0.849203  0.413949  1
  K  K6  1  0.865568  0.086051  0.349203  1
  K  K7  1  0.413949  0.365568  0.150797  1
  K  K8  1  0.849203  0.586051  0.365568  1
  K  K9  1  0.650797  0.134432  0.086051  1
  K  K10  1  0.847930  0.152070  0.847930  1
  K  K11  1  0.849203  0.413949  0.634432  1
  K  K12  1  0.652070  0.347930  0.347930  1
  K  K13  1  0.650797  0.865568  0.913949  1
  K  K14  1  0.134432  0.086051  0.650797  1
  K  K15  1  0.150797  0.413949  0.365568  1
  K  K16  1  0.152070  0.152070  0.152070  1
  K  K17  1  0.347930  0.347930  0.652070  1
  K  K18  1  0.634432  0.150797  0.586051  1
  K  K19  1  0.349203  0.865568  0.086051  1
  K  K20  1  0.349203  0.134432  0.913949  1
  K  K21  1  0.086051  0.349203  0.865568  1
  K  K22  1  0.413949  0.634432  0.849203  1
  K  K23  1  0.365568  0.849203  0.586051  1
  K  K24  1  0.134432  0.913949  0.349203  1
  K  K25  1  0.865568  0.913949  0.650797  1
  K  K26  1  0.347930  0.652070  0.347930  1
  K  K27  1  0.913949  0.650797  0.865568  1
  K  K28  1  0.586051  0.365568  0.849203  1
  K  K29  1  0.086051  0.650797  0.134432  1
  K  K30  1  0.586051  0.634432  0.150797  1
  K  K31  1  0.847930  0.847930  0.152070  1
  Ge  Ge32  1  0.000000  0.750000  0.500000  1
  Ge  Ge33  1  0.500000  0.000000  0.250000  1
  Ge  Ge34  1  0.500000  0.000000  0.750000  1
  Ge  Ge35  1  0.250000  0.500000  0.000000  1
  Ge  Ge36  1  0.000000  0.250000  0.500000  1
  Ge  Ge37  1  0.750000  0.500000  0.000000  1
  Ge  Ge38  1  0.000000  0.000000  0.000000  1
  Ge  Ge39  1  0.500000  0.500000  0.500000  1
  S  S40  1  0.844893  0.595691  0.110095  1
  S  S41  1  0.899811  0.100189  0.100189  1
  S  S42  1  0.389905  0.095691  0.655107  1
  S  S43  1  0.655107  0.389905  0.095691  1
  S  S44  1  0.899811  0.899811  0.899811  1
  S  S45  1  0.600189  0.399811  0.600189  1
  S  S46  1  0.344893  0.610095  0.095691  1
  S  S47  1  0.110095  0.155107  0.404309  1
  S  S48  1  0.095691  0.655107  0.389905  1
  S  S49  1  0.344893  0.389905  0.904309  1
  S  S50  1  0.889905  0.844893  0.404309  1
  S  S51  1  0.110095  0.844893  0.595691  1
  S  S52  1  0.595691  0.889905  0.155107  1
  S  S53  1  0.610095  0.904309  0.655107  1
  S  S54  1  0.155107  0.404309  0.110095  1
  S  S55  1  0.904309  0.344893  0.389905  1
  S  S56  1  0.610095  0.095691  0.344893  1
  S  S57  1  0.404309  0.110095  0.155107  1
  S  S58  1  0.399811  0.399811  0.399811  1
  S  S59  1  0.595691  0.110095  0.844893  1
  S  S60  1  0.889905  0.155107  0.595691  1
  S  S61  1  0.399811  0.600189  0.600189  1
  S  S62  1  0.655107  0.610095  0.904309  1
  S  S63  1  0.100189  0.899811  0.100189  1
  S  S64  1  0.904309  0.655107  0.610095  1
  S  S65  1  0.100189  0.100189  0.899811  1
  S  S66  1  0.844893  0.404309  0.889905  1
  S  S67  1  0.389905  0.904309  0.344893  1
  S  S68  1  0.095691  0.344893  0.610095  1
  S  S69  1  0.404309  0.889905  0.844893  1
  S  S70  1  0.155107  0.595691  0.889905  1
  S  S71  1  0.600189  0.600189  0.399811  1
