# generated using pymatgen
data_Hg3PClO4
_symmetry_space_group_name_H-M   'P 1'
_cell_length_a   8.50610772
_cell_length_b   8.50610772
_cell_length_c   8.50610772
_cell_angle_alpha   90.00000000
_cell_angle_beta   90.00000000
_cell_angle_gamma   90.00000000
_symmetry_Int_Tables_number   1
_chemical_formula_structural   Hg3PClO4
_chemical_formula_sum   'Hg12 P4 Cl4 O16'
_cell_volume   615.44979980
_cell_formula_units_Z   4
loop_
 _symmetry_equiv_pos_site_id
 _symmetry_equiv_pos_as_xyz
  1  'x, y, z'
loop_
 _atom_site_type_symbol
 _atom_site_label
 _atom_site_symmetry_multiplicity
 _atom_site_fract_x
 _atom_site_fract_y
 _atom_site_fract_z
 _atom_site_occupancy
  Hg  Hg0  1  0.355653  0.957331  0.113038  1
  Hg  Hg1  1  0.386962  0.644347  0.457331  1
  Hg  Hg2  1  0.886962  0.855653  0.542669  1
  Hg  Hg3  1  0.613038  0.144347  0.042669  1
  Hg  Hg4  1  0.644347  0.457331  0.386962  1
  Hg  Hg5  1  0.457331  0.386962  0.644347  1
  Hg  Hg6  1  0.957331  0.113038  0.355653  1
  Hg  Hg7  1  0.042669  0.613038  0.144347  1
  Hg  Hg8  1  0.542669  0.886962  0.855653  1
  Hg  Hg9  1  0.855653  0.542669  0.886962  1
  Hg  Hg10  1  0.144347  0.042669  0.613038  1
  Hg  Hg11  1  0.113038  0.355653  0.957331  1
  P  P12  1  0.515937  0.015937  0.484063  1
  P  P13  1  0.984063  0.984063  0.984063  1
  P  P14  1  0.015937  0.484063  0.515937  1
  P  P15  1  0.484063  0.515937  0.015937  1
  Cl  Cl16  1  0.235260  0.235260  0.235260  1
  Cl  Cl17  1  0.735260  0.264740  0.764740  1
  Cl  Cl18  1  0.264740  0.764740  0.735260  1
  Cl  Cl19  1  0.764740  0.735260  0.264740  1
  O  O20  1  0.407277  0.902664  0.383793  1
  O  O21  1  0.402664  0.116207  0.592723  1
  O  O22  1  0.592723  0.402664  0.116207  1
  O  O23  1  0.380338  0.619662  0.119662  1
  O  O24  1  0.880338  0.880338  0.880338  1
  O  O25  1  0.616207  0.907277  0.597336  1
  O  O26  1  0.883793  0.092723  0.097336  1
  O  O27  1  0.097336  0.883793  0.092723  1
  O  O28  1  0.902664  0.383793  0.407277  1
  O  O29  1  0.119662  0.380338  0.619662  1
  O  O30  1  0.619662  0.119662  0.380338  1
  O  O31  1  0.907277  0.597336  0.616207  1
  O  O32  1  0.092723  0.097336  0.883793  1
  O  O33  1  0.116207  0.592723  0.402664  1
  O  O34  1  0.597336  0.616207  0.907277  1
  O  O35  1  0.383793  0.407277  0.902664  1
