# generated using pymatgen
data_P4Se3
_symmetry_space_group_name_H-M   'P 1'
_cell_length_a   10.60695287
_cell_length_b   11.89151562
_cell_length_c   14.95032231
_cell_angle_alpha   90.00000000
_cell_angle_beta   90.00000000
_cell_angle_gamma   90.00000000
_symmetry_Int_Tables_number   1
_chemical_formula_structural   P4Se3
_chemical_formula_sum   'P32 Se24'
_cell_volume   1885.72520257
_cell_formula_units_Z   8
loop_
 _symmetry_equiv_pos_site_id
 _symmetry_equiv_pos_as_xyz
  1  'x, y, z'
loop_
 _atom_site_type_symbol
 _atom_site_label
 _atom_site_symmetry_multiplicity
 _atom_site_fract_x
 _atom_site_fract_y
 _atom_site_fract_z
 _atom_site_occupancy
  P  P0  1  0.855588  0.427583  0.757245  1
  P  P1  1  0.355588  0.572417  0.242755  1
  P  P2  1  0.644412  0.927583  0.742755  1
  P  P3  1  0.144412  0.072417  0.257245  1
  P  P4  1  0.144412  0.572417  0.242755  1
  P  P5  1  0.644412  0.427583  0.757245  1
  P  P6  1  0.355588  0.072417  0.257245  1
  P  P7  1  0.855588  0.927583  0.742755  1
  P  P8  1  0.750000  0.288991  0.826965  1
  P  P9  1  0.250000  0.711009  0.173035  1
  P  P10  1  0.750000  0.788991  0.673035  1
  P  P11  1  0.250000  0.211009  0.326965  1
  P  P12  1  0.750000  0.528020  0.962492  1
  P  P13  1  0.250000  0.471980  0.037508  1
  P  P14  1  0.750000  0.028020  0.537508  1
  P  P15  1  0.250000  0.971980  0.462492  1
  P  P16  1  0.355858  0.231150  0.841149  1
  P  P17  1  0.855858  0.768850  0.158851  1
  P  P18  1  0.144142  0.731150  0.658851  1
  P  P19  1  0.644142  0.268850  0.341149  1
  P  P20  1  0.644142  0.768850  0.158851  1
  P  P21  1  0.144142  0.231150  0.841149  1
  P  P22  1  0.855858  0.268850  0.341149  1
  P  P23  1  0.355858  0.731150  0.658851  1
  P  P24  1  0.250000  0.096842  0.766726  1
  P  P25  1  0.750000  0.903158  0.233274  1
  P  P26  1  0.250000  0.596842  0.733274  1
  P  P27  1  0.750000  0.403158  0.266726  1
  P  P28  1  0.250000  0.031126  0.993297  1
  P  P29  1  0.750000  0.968874  0.006703  1
  P  P30  1  0.250000  0.531126  0.506703  1
  P  P31  1  0.750000  0.468874  0.493297  1
  Se  Se32  1  0.913413  0.550085  0.865396  1
  Se  Se33  1  0.413413  0.449915  0.134604  1
  Se  Se34  1  0.586587  0.050085  0.634604  1
  Se  Se35  1  0.086587  0.949915  0.365396  1
  Se  Se36  1  0.086587  0.449915  0.134604  1
  Se  Se37  1  0.586587  0.550085  0.865396  1
  Se  Se38  1  0.413413  0.949915  0.365396  1
  Se  Se39  1  0.913413  0.050085  0.634604  1
  Se  Se40  1  0.750000  0.336786  0.973311  1
  Se  Se41  1  0.250000  0.663214  0.026689  1
  Se  Se42  1  0.750000  0.836786  0.526689  1
  Se  Se43  1  0.250000  0.163214  0.473311  1
  Se  Se44  1  0.413673  0.152148  0.972440  1
  Se  Se45  1  0.913673  0.847852  0.027560  1
  Se  Se46  1  0.086327  0.652148  0.527560  1
  Se  Se47  1  0.586327  0.347852  0.472440  1
  Se  Se48  1  0.586327  0.847852  0.027560  1
  Se  Se49  1  0.086327  0.152148  0.972440  1
  Se  Se50  1  0.913673  0.347852  0.472440  1
  Se  Se51  1  0.413673  0.652148  0.527560  1
  Se  Se52  1  0.250000  0.944818  0.857536  1
  Se  Se53  1  0.750000  0.055182  0.142464  1
  Se  Se54  1  0.250000  0.444818  0.642464  1
  Se  Se55  1  0.750000  0.555182  0.357536  1
