# generated using pymatgen
data_SbSe(IF2)3
_symmetry_space_group_name_H-M   'P 1'
_cell_length_a   8.85150958
_cell_length_b   10.54241337
_cell_length_c   13.09297227
_cell_angle_alpha   90.00000000
_cell_angle_beta   98.01954889
_cell_angle_gamma   90.00000000
_symmetry_Int_Tables_number   1
_chemical_formula_structural   SbSe(IF2)3
_chemical_formula_sum   'Sb4 Se4 I12 F24'
_cell_volume   1209.83893676
_cell_formula_units_Z   4
loop_
 _symmetry_equiv_pos_site_id
 _symmetry_equiv_pos_as_xyz
  1  'x, y, z'
loop_
 _atom_site_type_symbol
 _atom_site_label
 _atom_site_symmetry_multiplicity
 _atom_site_fract_x
 _atom_site_fract_y
 _atom_site_fract_z
 _atom_site_occupancy
  Sb  Sb0  1  0.800006  0.221068  0.932832  1
  Sb  Sb1  1  0.800006  0.278932  0.432832  1
  Sb  Sb2  1  0.199994  0.778932  0.067168  1
  Sb  Sb3  1  0.199994  0.721068  0.567168  1
  Se  Se4  1  0.800238  0.691516  0.292390  1
  Se  Se5  1  0.800238  0.808484  0.792390  1
  Se  Se6  1  0.199762  0.308484  0.707610  1
  Se  Se7  1  0.199762  0.191516  0.207610  1
  I  I8  1  0.560794  0.681247  0.379923  1
  I  I9  1  0.560794  0.818753  0.879923  1
  I  I10  1  0.741935  0.951505  0.635109  1
  I  I11  1  0.789660  0.584655  0.720383  1
  I  I12  1  0.439206  0.318753  0.620077  1
  I  I13  1  0.210340  0.084655  0.779617  1
  I  I14  1  0.210340  0.415345  0.279617  1
  I  I15  1  0.741935  0.548495  0.135109  1
  I  I16  1  0.789660  0.915345  0.220383  1
  I  I17  1  0.258065  0.048495  0.364891  1
  I  I18  1  0.439206  0.181247  0.120077  1
  I  I19  1  0.258065  0.451505  0.864891  1
  F  F20  1  0.996316  0.234875  0.505878  1
  F  F21  1  0.141395  0.715019  0.193209  1
  F  F22  1  0.858605  0.215019  0.306791  1
  F  F23  1  0.276168  0.887082  0.536183  1
  F  F24  1  0.600723  0.321349  0.364891  1
  F  F25  1  0.858605  0.284981  0.806791  1
  F  F26  1  0.872571  0.054730  0.904633  1
  F  F27  1  0.723832  0.112918  0.463817  1
  F  F28  1  0.259941  0.840627  0.938973  1
  F  F29  1  0.740059  0.340627  0.561027  1
  F  F30  1  0.127429  0.945270  0.095367  1
  F  F31  1  0.127429  0.554730  0.595367  1
  F  F32  1  0.259941  0.659373  0.438973  1
  F  F33  1  0.141395  0.784981  0.693209  1
  F  F34  1  0.399277  0.821349  0.135109  1
  F  F35  1  0.723832  0.387082  0.963817  1
  F  F36  1  0.399277  0.678651  0.635109  1
  F  F37  1  0.740059  0.159373  0.061027  1
  F  F38  1  0.276168  0.612918  0.036183  1
  F  F39  1  0.872571  0.445270  0.404633  1
  F  F40  1  0.996316  0.265125  0.005878  1
  F  F41  1  0.003684  0.765125  0.494122  1
  F  F42  1  0.003684  0.734875  0.994122  1
  F  F43  1  0.600723  0.178651  0.864891  1
