# generated using pymatgen
data_Sr2NF
_symmetry_space_group_name_H-M   'P 1'
_cell_length_a   13.24858752
_cell_length_b   13.24858752
_cell_length_c   7.60257382
_cell_angle_alpha   90.00000000
_cell_angle_beta   90.00000000
_cell_angle_gamma   109.20466541
_symmetry_Int_Tables_number   1
_chemical_formula_structural   Sr2NF
_chemical_formula_sum   'Sr32 N16 F16'
_cell_volume   1260.18004740
_cell_formula_units_Z   16
loop_
 _symmetry_equiv_pos_site_id
 _symmetry_equiv_pos_as_xyz
  1  'x, y, z'
loop_
 _atom_site_type_symbol
 _atom_site_label
 _atom_site_symmetry_multiplicity
 _atom_site_fract_x
 _atom_site_fract_y
 _atom_site_fract_z
 _atom_site_occupancy
  Sr  Sr0  1  0.630934  0.369066  0.515086  1
  Sr  Sr1  1  0.352112  0.361095  0.250000  1
  Sr  Sr2  1  0.638905  0.647888  0.250000  1
  Sr  Sr3  1  0.127584  0.369849  0.017846  1
  Sr  Sr4  1  0.630151  0.872416  0.017846  1
  Sr  Sr5  1  0.369066  0.630934  0.015086  1
  Sr  Sr6  1  0.630934  0.369066  0.984914  1
  Sr  Sr7  1  0.629435  0.140268  0.750000  1
  Sr  Sr8  1  0.360849  0.870798  0.750000  1
  Sr  Sr9  1  0.129202  0.639151  0.750000  1
  Sr  Sr10  1  0.859732  0.370565  0.750000  1
  Sr  Sr11  1  0.647888  0.638905  0.750000  1
  Sr  Sr12  1  0.361095  0.352112  0.750000  1
  Sr  Sr13  1  0.130541  0.869459  0.518256  1
  Sr  Sr14  1  0.369849  0.127584  0.517846  1
  Sr  Sr15  1  0.872416  0.630151  0.517846  1
  Sr  Sr16  1  0.630151  0.872416  0.482154  1
  Sr  Sr17  1  0.127584  0.369849  0.482154  1
  Sr  Sr18  1  0.369066  0.630934  0.484914  1
  Sr  Sr19  1  0.126400  0.137136  0.250000  1
  Sr  Sr20  1  0.862864  0.873600  0.250000  1
  Sr  Sr21  1  0.639151  0.129202  0.250000  1
  Sr  Sr22  1  0.370565  0.859732  0.250000  1
  Sr  Sr23  1  0.140268  0.629435  0.250000  1
  Sr  Sr24  1  0.870798  0.360849  0.250000  1
  Sr  Sr25  1  0.869459  0.130541  0.018256  1
  Sr  Sr26  1  0.130541  0.869459  0.981744  1
  Sr  Sr27  1  0.369849  0.127584  0.982154  1
  Sr  Sr28  1  0.872416  0.630151  0.982154  1
  Sr  Sr29  1  0.137136  0.126400  0.750000  1
  Sr  Sr30  1  0.873600  0.862864  0.750000  1
  Sr  Sr31  1  0.869459  0.130541  0.481744  1
  N  N32  1  0.749490  0.250510  0.999505  1
  N  N33  1  0.749490  0.250510  0.500495  1
  N  N34  1  0.247077  0.247077  0.000000  1
  N  N35  1  0.752923  0.752923  0.000000  1
  N  N36  1  0.747670  0.500457  0.750000  1
  N  N37  1  0.499543  0.252330  0.750000  1
  N  N38  1  0.250510  0.749490  0.499505  1
  N  N39  1  0.752923  0.752923  0.500000  1
  N  N40  1  0.247077  0.247077  0.500000  1
  N  N41  1  0.500457  0.747670  0.250000  1
  N  N42  1  0.252330  0.499543  0.250000  1
  N  N43  1  0.999259  0.248505  0.250000  1
  N  N44  1  0.751495  0.000741  0.250000  1
  N  N45  1  0.250510  0.749490  0.000495  1
  N  N46  1  0.000741  0.751495  0.750000  1
  N  N47  1  0.248505  0.999259  0.750000  1
  F  F48  1  0.549286  0.450714  0.250000  1
  F  F49  1  0.785911  0.511002  0.250000  1
  F  F50  1  0.450714  0.549286  0.750000  1
  F  F51  1  0.511002  0.785911  0.750000  1
  F  F52  1  0.214089  0.488998  0.750000  1
  F  F53  1  0.752765  0.002782  0.750000  1
  F  F54  1  0.000000  0.500000  0.500000  1
  F  F55  1  0.500000  0.000000  0.500000  1
  F  F56  1  0.002782  0.752765  0.250000  1
  F  F57  1  0.488998  0.214089  0.250000  1
  F  F58  1  0.247235  0.997218  0.250000  1
  F  F59  1  0.000000  0.000000  0.000000  1
  F  F60  1  0.500000  0.000000  0.000000  1
  F  F61  1  0.000000  0.500000  0.000000  1
  F  F62  1  0.997218  0.247235  0.750000  1
  F  F63  1  0.000000  0.000000  0.500000  1
