# generated using pymatgen
data_Ba2TeP2O9
_symmetry_space_group_name_H-M   'P 1'
_cell_length_a   7.06439338
_cell_length_b   7.51544342
_cell_length_c   9.03956799
_cell_angle_alpha   76.84057687
_cell_angle_beta   80.01598170
_cell_angle_gamma   75.47643114
_symmetry_Int_Tables_number   1
_chemical_formula_structural   Ba2TeP2O9
_chemical_formula_sum   'Ba4 Te2 P4 O18'
_cell_volume   448.93749010
_cell_formula_units_Z   2
loop_
 _symmetry_equiv_pos_site_id
 _symmetry_equiv_pos_as_xyz
  1  'x, y, z'
loop_
 _atom_site_type_symbol
 _atom_site_label
 _atom_site_symmetry_multiplicity
 _atom_site_fract_x
 _atom_site_fract_y
 _atom_site_fract_z
 _atom_site_occupancy
  Ba  Ba0  1  0.630595  0.195038  0.582745  1
  Ba  Ba1  1  0.896966  0.616727  0.756998  1
  Ba  Ba2  1  0.369405  0.804962  0.417255  1
  Ba  Ba3  1  0.103034  0.383273  0.243002  1
  Te  Te4  1  0.355903  0.886801  0.954399  1
  Te  Te5  1  0.644097  0.113199  0.045601  1
  P  P6  1  0.134615  0.120524  0.648472  1
  P  P7  1  0.865385  0.879476  0.351528  1
  P  P8  1  0.376399  0.521441  0.816452  1
  P  P9  1  0.623601  0.478559  0.183548  1
  O  O10  1  0.276999  0.147616  0.497223  1
  O  O11  1  0.378874  0.071312  0.102312  1
  O  O12  1  0.198576  0.530260  0.938698  1
  O  O13  1  0.065234  0.936195  0.676100  1
  O  O14  1  0.801424  0.469740  0.061302  1
  O  O15  1  0.729029  0.889914  0.220733  1
  O  O16  1  0.038568  0.708781  0.347354  1
  O  O17  1  0.531797  0.298657  0.198085  1
  O  O18  1  0.550628  0.349041  0.855534  1
  O  O19  1  0.670675  0.477309  0.343386  1
  O  O20  1  0.621126  0.928688  0.897688  1
  O  O21  1  0.468203  0.701343  0.801915  1
  O  O22  1  0.449372  0.650959  0.144466  1
  O  O23  1  0.723001  0.852384  0.502777  1
  O  O24  1  0.270971  0.110086  0.779267  1
  O  O25  1  0.961432  0.291219  0.652646  1
  O  O26  1  0.934766  0.063805  0.323900  1
  O  O27  1  0.329325  0.522691  0.656614  1
