# generated using pymatgen
data_Na3VF6
_symmetry_space_group_name_H-M   'P 1'
_cell_length_a   5.60017838
_cell_length_b   5.82943806
_cell_length_c   9.80549130
_cell_angle_alpha   90.00000000
_cell_angle_beta   124.16723965
_cell_angle_gamma   90.00000000
_symmetry_Int_Tables_number   1
_chemical_formula_structural   Na3VF6
_chemical_formula_sum   'Na6 V2 F12'
_cell_volume   264.85878685
_cell_formula_units_Z   2
loop_
 _symmetry_equiv_pos_site_id
 _symmetry_equiv_pos_as_xyz
  1  'x, y, z'
loop_
 _atom_site_type_symbol
 _atom_site_label
 _atom_site_symmetry_multiplicity
 _atom_site_fract_x
 _atom_site_fract_y
 _atom_site_fract_z
 _atom_site_occupancy
  Na  Na0  1  0.725293  0.554048  0.740561  1
  Na  Na1  1  0.274707  0.054048  0.759439  1
  Na  Na2  1  0.274707  0.445952  0.259439  1
  Na  Na3  1  0.725293  0.945952  0.240561  1
  Na  Na4  1  0.500000  0.500000  0.000000  1
  Na  Na5  1  0.500000  0.000000  0.500000  1
  V  V6  1  0.000000  0.500000  0.500000  1
  V  V7  1  0.000000  0.000000  0.000000  1
  F  F8  1  0.758849  0.220089  0.425572  1
  F  F9  1  0.241151  0.720089  0.074428  1
  F  F10  1  0.241151  0.779911  0.574428  1
  F  F11  1  0.758849  0.279911  0.925572  1
  F  F12  1  0.341597  0.321704  0.551001  1
  F  F13  1  0.658403  0.821704  0.948999  1
  F  F14  1  0.658403  0.678296  0.448999  1
  F  F15  1  0.341597  0.178296  0.051001  1
  F  F16  1  0.108648  0.062944  0.227283  1
  F  F17  1  0.891352  0.562944  0.272717  1
  F  F18  1  0.891352  0.937056  0.772717  1
  F  F19  1  0.108648  0.437056  0.727283  1
