# generated using pymatgen
data_RbNbS2O9
_symmetry_space_group_name_H-M   'P 1'
_cell_length_a   5.25480333
_cell_length_b   9.08004151
_cell_length_c   17.67494357
_cell_angle_alpha   90.00000000
_cell_angle_beta   90.00000000
_cell_angle_gamma   90.00000000
_symmetry_Int_Tables_number   1
_chemical_formula_structural   RbNbS2O9
_chemical_formula_sum   'Rb4 Nb4 S8 O36'
_cell_volume   843.33929453
_cell_formula_units_Z   4
loop_
 _symmetry_equiv_pos_site_id
 _symmetry_equiv_pos_as_xyz
  1  'x, y, z'
loop_
 _atom_site_type_symbol
 _atom_site_label
 _atom_site_symmetry_multiplicity
 _atom_site_fract_x
 _atom_site_fract_y
 _atom_site_fract_z
 _atom_site_occupancy
  Rb  Rb0  1  0.750000  0.671108  0.065020  1
  Rb  Rb1  1  0.250000  0.171108  0.434980  1
  Rb  Rb2  1  0.750000  0.828892  0.565020  1
  Rb  Rb3  1  0.250000  0.328892  0.934980  1
  Nb  Nb4  1  0.750000  0.579344  0.309675  1
  Nb  Nb5  1  0.250000  0.079344  0.190325  1
  Nb  Nb6  1  0.750000  0.920656  0.809675  1
  Nb  Nb7  1  0.250000  0.420656  0.690325  1
  S  S8  1  0.750000  0.977243  0.304857  1
  S  S9  1  0.750000  0.369067  0.569576  1
  S  S10  1  0.250000  0.630933  0.430424  1
  S  S11  1  0.250000  0.022757  0.695143  1
  S  S12  1  0.250000  0.869067  0.930424  1
  S  S13  1  0.750000  0.130933  0.069576  1
  S  S14  1  0.750000  0.522757  0.804857  1
  S  S15  1  0.250000  0.477243  0.195143  1
  O  O16  1  0.750000  0.521240  0.546571  1
  O  O17  1  0.250000  0.757272  0.988888  1
  O  O18  1  0.750000  0.101599  0.840420  1
  O  O19  1  0.750000  0.978760  0.046571  1
  O  O20  1  0.019495  0.936198  0.723071  1
  O  O21  1  0.250000  0.168273  0.731329  1
  O  O22  1  0.023055  0.662866  0.377799  1
  O  O23  1  0.750000  0.668273  0.768671  1
  O  O24  1  0.019495  0.563802  0.223071  1
  O  O25  1  0.519495  0.436198  0.776929  1
  O  O26  1  0.976945  0.337134  0.622201  1
  O  O27  1  0.750000  0.257272  0.511112  1
  O  O28  1  0.250000  0.742728  0.488888  1
  O  O29  1  0.750000  0.979036  0.386789  1
  O  O30  1  0.523055  0.162866  0.122201  1
  O  O31  1  0.480505  0.936198  0.723071  1
  O  O32  1  0.250000  0.331727  0.231329  1
  O  O33  1  0.476945  0.662866  0.377799  1
  O  O34  1  0.750000  0.831727  0.268671  1
  O  O35  1  0.476945  0.837134  0.877799  1
  O  O36  1  0.980505  0.063802  0.276929  1
  O  O37  1  0.523055  0.337134  0.622201  1
  O  O38  1  0.250000  0.020964  0.613211  1
  O  O39  1  0.750000  0.242728  0.011112  1
  O  O40  1  0.750000  0.398401  0.340420  1
  O  O41  1  0.023055  0.837134  0.877799  1
  O  O42  1  0.250000  0.478760  0.453429  1
  O  O43  1  0.976945  0.162866  0.122201  1
  O  O44  1  0.750000  0.520964  0.886789  1
  O  O45  1  0.250000  0.479036  0.113211  1
  O  O46  1  0.480505  0.563802  0.223071  1
  O  O47  1  0.250000  0.601599  0.659580  1
  O  O48  1  0.519495  0.063802  0.276929  1
  O  O49  1  0.250000  0.021240  0.953429  1
  O  O50  1  0.250000  0.898401  0.159580  1
  O  O51  1  0.980505  0.436198  0.776929  1
