# generated using pymatgen
data_CuB4O7
_symmetry_space_group_name_H-M   'P 1'
_cell_length_a   6.35134871
_cell_length_b   6.35134871
_cell_length_c   5.15631760
_cell_angle_alpha   90.00000000
_cell_angle_beta   90.00000000
_cell_angle_gamma   117.85611947
_symmetry_Int_Tables_number   1
_chemical_formula_structural   CuB4O7
_chemical_formula_sum   'Cu2 B8 O14'
_cell_volume   183.90122668
_cell_formula_units_Z   2
loop_
 _symmetry_equiv_pos_site_id
 _symmetry_equiv_pos_as_xyz
  1  'x, y, z'
loop_
 _atom_site_type_symbol
 _atom_site_label
 _atom_site_symmetry_multiplicity
 _atom_site_fract_x
 _atom_site_fract_y
 _atom_site_fract_z
 _atom_site_occupancy
  Cu  Cu0  1  0.721247  0.721247  0.750000  1
  Cu  Cu1  1  0.278753  0.278753  0.250000  1
  B  B2  1  0.074204  0.301830  0.750000  1
  B  B3  1  0.296798  0.703202  0.500000  1
  B  B4  1  0.301830  0.074204  0.750000  1
  B  B5  1  0.698170  0.925796  0.250000  1
  B  B6  1  0.703202  0.296798  0.000000  1
  B  B7  1  0.703202  0.296798  0.500000  1
  B  B8  1  0.925796  0.698170  0.250000  1
  B  B9  1  0.296798  0.703202  0.000000  1
  O  O10  1  0.078274  0.078274  0.750000  1
  O  O11  1  0.197097  0.756150  0.250000  1
  O  O12  1  0.243850  0.802903  0.750000  1
  O  O13  1  0.810079  0.555402  0.020976  1
  O  O14  1  0.810079  0.555402  0.479024  1
  O  O15  1  0.444598  0.189921  0.520976  1
  O  O16  1  0.444598  0.189921  0.979024  1
  O  O17  1  0.756150  0.197097  0.250000  1
  O  O18  1  0.921726  0.921726  0.250000  1
  O  O19  1  0.189921  0.444598  0.979024  1
  O  O20  1  0.555402  0.810079  0.020976  1
  O  O21  1  0.555402  0.810079  0.479024  1
  O  O22  1  0.802903  0.243850  0.750000  1
  O  O23  1  0.189921  0.444598  0.520976  1
