# generated using pymatgen
data_PbI2
_symmetry_space_group_name_H-M   'P 1'
_cell_length_a   15.18486960
_cell_length_b   15.18486960
_cell_length_c   15.18486960
_cell_angle_alpha   17.63081685
_cell_angle_beta   17.63081685
_cell_angle_gamma   17.63081685
_symmetry_Int_Tables_number   1
_chemical_formula_structural   PbI2
_chemical_formula_sum   'Pb2 I4'
_cell_volume   280.36588286
_cell_formula_units_Z   2
loop_
 _symmetry_equiv_pos_site_id
 _symmetry_equiv_pos_as_xyz
  1  'x, y, z'
loop_
 _atom_site_type_symbol
 _atom_site_label
 _atom_site_symmetry_multiplicity
 _atom_site_fract_x
 _atom_site_fract_y
 _atom_site_fract_z
 _atom_site_occupancy
  Pb  Pb0  1  0.000000  0.000000  0.000000  1
  Pb  Pb1  1  0.500000  0.500000  0.500000  1
  I  I2  1  0.875305  0.875305  0.875305  1
  I  I3  1  0.124695  0.124695  0.124695  1
  I  I4  1  0.708549  0.708549  0.708549  1
  I  I5  1  0.291451  0.291451  0.291451  1
