# generated using pymatgen
data_CuAg3S2
_symmetry_space_group_name_H-M   'P 1'
_cell_length_a   8.58476049
_cell_length_b   8.58476049
_cell_length_c   8.58476049
_cell_angle_alpha   118.75590749
_cell_angle_beta   118.75590749
_cell_angle_gamma   92.16868620
_symmetry_Int_Tables_number   1
_chemical_formula_structural   CuAg3S2
_chemical_formula_sum   'Cu4 Ag12 S8'
_cell_volume   455.43240501
_cell_formula_units_Z   4
loop_
 _symmetry_equiv_pos_site_id
 _symmetry_equiv_pos_as_xyz
  1  'x, y, z'
loop_
 _atom_site_type_symbol
 _atom_site_label
 _atom_site_symmetry_multiplicity
 _atom_site_fract_x
 _atom_site_fract_y
 _atom_site_fract_z
 _atom_site_occupancy
  Cu  Cu0  1  0.096811  0.596811  0.500000  1
  Cu  Cu1  1  0.346811  0.346811  0.000000  1
  Cu  Cu2  1  0.653189  0.653189  0.000000  1
  Cu  Cu3  1  0.403189  0.903189  0.500000  1
  Ag  Ag4  1  0.685575  0.314425  0.000000  1
  Ag  Ag5  1  0.064425  0.564425  0.128850  1
  Ag  Ag6  1  0.435575  0.935575  0.871150  1
  Ag  Ag7  1  0.314425  0.685575  1.000000  1
  Ag  Ag8  1  0.064425  0.935575  0.500000  1
  Ag  Ag9  1  0.685575  0.685575  0.371150  1
  Ag  Ag10  1  0.314425  0.314425  0.628850  1
  Ag  Ag11  1  0.435575  0.564425  0.500000  1
  Ag  Ag12  1  0.875000  0.125000  0.250000  1
  Ag  Ag13  1  0.875000  0.125000  0.750000  1
  Ag  Ag14  1  0.375000  0.125000  0.250000  1
  Ag  Ag15  1  0.875000  0.625000  0.750000  1
  S  S16  1  0.163472  0.912205  0.251268  1
  S  S17  1  0.660937  0.912205  0.748732  1
  S  S18  1  0.087795  0.339063  0.251268  1
  S  S19  1  0.662205  0.413472  0.751268  1
  S  S20  1  0.662205  0.910937  0.248732  1
  S  S21  1  0.087795  0.836528  0.748732  1
  S  S22  1  0.089063  0.337795  0.751268  1
  S  S23  1  0.586528  0.337795  0.248732  1
