# generated using pymatgen
data_Bi2MoO6
_symmetry_space_group_name_H-M   'P 1'
_cell_length_a   8.87768010
_cell_length_b   8.87768010
_cell_length_c   5.46401846
_cell_angle_alpha   90.00000000
_cell_angle_beta   90.00000000
_cell_angle_gamma   144.27204901
_symmetry_Int_Tables_number   1
_chemical_formula_structural   Bi2MoO6
_chemical_formula_sum   'Bi4 Mo2 O12'
_cell_volume   251.46489367
_cell_formula_units_Z   2
loop_
 _symmetry_equiv_pos_site_id
 _symmetry_equiv_pos_as_xyz
  1  'x, y, z'
loop_
 _atom_site_type_symbol
 _atom_site_label
 _atom_site_symmetry_multiplicity
 _atom_site_fract_x
 _atom_site_fract_y
 _atom_site_fract_z
 _atom_site_occupancy
  Bi  Bi0  1  0.173382  0.826618  0.524655  1
  Bi  Bi1  1  0.826618  0.173382  0.475345  1
  Bi  Bi2  1  0.326618  0.673382  0.024655  1
  Bi  Bi3  1  0.673382  0.326618  0.975345  1
  Mo  Mo4  1  0.000000  0.000000  0.000000  1
  Mo  Mo5  1  0.500000  0.500000  0.500000  1
  O  O6  1  0.890281  0.109719  0.080876  1
  O  O7  1  0.609719  0.390281  0.580876  1
  O  O8  1  0.998864  0.501136  0.250000  1
  O  O9  1  0.770243  0.729757  0.250000  1
  O  O10  1  0.001136  0.498864  0.750000  1
  O  O11  1  0.729757  0.770243  0.750000  1
  O  O12  1  0.390281  0.609719  0.419124  1
  O  O13  1  0.229757  0.270243  0.750000  1
  O  O14  1  0.270243  0.229757  0.250000  1
  O  O15  1  0.109719  0.890281  0.919124  1
  O  O16  1  0.501136  0.998864  0.750000  1
  O  O17  1  0.498864  0.001136  0.250000  1
