# generated using pymatgen
data_CdAs2(XeF5)4
_symmetry_space_group_name_H-M   'P 1'
_cell_length_a   8.93293865
_cell_length_b   13.98558897
_cell_length_c   17.10906015
_cell_angle_alpha   90.00000000
_cell_angle_beta   90.00000000
_cell_angle_gamma   90.00000000
_symmetry_Int_Tables_number   1
_chemical_formula_structural   CdAs2(XeF5)4
_chemical_formula_sum   'Cd4 As8 Xe16 F80'
_cell_volume   2137.47608749
_cell_formula_units_Z   4
loop_
 _symmetry_equiv_pos_site_id
 _symmetry_equiv_pos_as_xyz
  1  'x, y, z'
loop_
 _atom_site_type_symbol
 _atom_site_label
 _atom_site_symmetry_multiplicity
 _atom_site_fract_x
 _atom_site_fract_y
 _atom_site_fract_z
 _atom_site_occupancy
  Cd  Cd0  1  0.633590  0.949858  0.596342  1
  Cd  Cd1  1  0.866410  0.050142  0.096342  1
  Cd  Cd2  1  0.133590  0.550142  0.403658  1
  Cd  Cd3  1  0.366410  0.449858  0.903658  1
  As  As4  1  0.232375  0.710905  0.221820  1
  As  As5  1  0.530131  0.992513  0.011824  1
  As  As6  1  0.969869  0.007487  0.511824  1
  As  As7  1  0.469869  0.492513  0.488176  1
  As  As8  1  0.767625  0.210905  0.278180  1
  As  As9  1  0.732375  0.789095  0.778180  1
  As  As10  1  0.267625  0.289095  0.721820  1
  As  As11  1  0.030131  0.507487  0.988176  1
  Xe  Xe12  1  0.929680  0.342290  0.539028  1
  Xe  Xe13  1  0.429680  0.157710  0.460972  1
  Xe  Xe14  1  0.774127  0.866254  0.285063  1
  Xe  Xe15  1  0.274127  0.633746  0.714937  1
  Xe  Xe16  1  0.725873  0.133746  0.785063  1
  Xe  Xe17  1  0.748703  0.462000  0.772361  1
  Xe  Xe18  1  0.570320  0.657710  0.039028  1
  Xe  Xe19  1  0.070320  0.842290  0.960972  1
  Xe  Xe20  1  0.679009  0.314460  0.040740  1
  Xe  Xe21  1  0.751297  0.538000  0.272361  1
  Xe  Xe22  1  0.251297  0.962000  0.727639  1
  Xe  Xe23  1  0.248703  0.038000  0.227639  1
  Xe  Xe24  1  0.320991  0.814460  0.459260  1
  Xe  Xe25  1  0.225873  0.366254  0.214937  1
  Xe  Xe26  1  0.820991  0.685540  0.540740  1
  Xe  Xe27  1  0.179009  0.185540  0.959260  1
  F  F28  1  0.360583  0.947983  0.048892  1
  F  F29  1  0.605784  0.040758  0.709875  1
  F  F30  1  0.333213  0.274851  0.140261  1
  F  F31  1  0.063174  0.402195  0.447811  1
  F  F32  1  0.517314  0.608596  0.454799  1
  F  F33  1  0.823277  0.308483  0.218157  1
  F  F34  1  0.920002  0.750488  0.771549  1
  F  F35  1  0.139417  0.052017  0.548892  1
  F  F36  1  0.666787  0.774851  0.359739  1
  F  F37  1  0.176723  0.808483  0.281843  1
  F  F38  1  0.639417  0.447983  0.451108  1
  F  F39  1  0.017314  0.891404  0.545201  1
  F  F40  1  0.203907  0.778893  0.136765  1
  F  F41  1  0.888467  0.507312  0.685775  1
  F  F42  1  0.860583  0.552017  0.951108  1
  F  F43  1  0.393977  0.912609  0.635318  1
  F  F44  1  0.650176  0.787342  0.553276  1
  F  F45  1  0.209246  0.458508  0.018953  1
  F  F46  1  0.878244  0.027115  0.605407  1
  F  F47  1  0.700531  0.714709  0.125301  1
  F  F48  1  0.454768  0.329933  0.721937  1
  F  F49  1  0.788816  0.890328  0.831998  1
  F  F50  1  0.105784  0.459242  0.290125  1
  F  F51  1  0.017889  0.079799  0.975733  1
  F  F52  1  0.765210  0.859041  0.688501  1
  F  F53  1  0.563174  0.097805  0.552189  1
  F  F54  1  0.982686  0.391404  0.954799  1
  F  F55  1  0.150176  0.712658  0.446724  1
  F  F56  1  0.046862  0.981959  0.419561  1
  F  F57  1  0.936826  0.902195  0.052189  1
  F  F58  1  0.045232  0.670067  0.221937  1
  F  F59  1  0.296093  0.221107  0.636765  1
  F  F60  1  0.453138  0.018041  0.919561  1
  F  F61  1  0.299469  0.214709  0.374699  1
  F  F62  1  0.121756  0.527115  0.894593  1
  F  F63  1  0.517889  0.420201  0.024267  1
  F  F64  1  0.086314  0.621271  0.018317  1
  F  F65  1  0.482111  0.920201  0.475733  1
  F  F66  1  0.079998  0.250488  0.728451  1
  F  F67  1  0.894216  0.959242  0.209875  1
  F  F68  1  0.234790  0.359041  0.811499  1
  F  F69  1  0.349824  0.287342  0.946724  1
  F  F70  1  0.799469  0.285291  0.625301  1
  F  F71  1  0.265210  0.640959  0.311499  1
  F  F72  1  0.711184  0.109672  0.331998  1
  F  F73  1  0.579998  0.249512  0.271549  1
  F  F74  1  0.913686  0.121271  0.481683  1
  F  F75  1  0.546862  0.518041  0.580439  1
  F  F76  1  0.790754  0.958508  0.481047  1
  F  F77  1  0.200531  0.785291  0.874699  1
  F  F78  1  0.394216  0.540758  0.790125  1
  F  F79  1  0.796093  0.278893  0.363235  1
  F  F80  1  0.606023  0.412609  0.864682  1
  F  F81  1  0.586314  0.878729  0.981683  1
  F  F82  1  0.954768  0.170067  0.278063  1
  F  F83  1  0.211184  0.390328  0.668002  1
  F  F84  1  0.378244  0.472885  0.394593  1
  F  F85  1  0.436826  0.597805  0.947811  1
  F  F86  1  0.166787  0.725149  0.640261  1
  F  F87  1  0.290754  0.541492  0.518953  1
  F  F88  1  0.288816  0.609672  0.168002  1
  F  F89  1  0.953138  0.481959  0.080439  1
  F  F90  1  0.621756  0.972885  0.105407  1
  F  F91  1  0.413686  0.378729  0.518317  1
  F  F92  1  0.833213  0.225149  0.859739  1
  F  F93  1  0.106023  0.087391  0.135318  1
  F  F94  1  0.849824  0.212658  0.053276  1
  F  F95  1  0.482686  0.108596  0.045201  1
  F  F96  1  0.703907  0.721107  0.863235  1
  F  F97  1  0.420002  0.749512  0.228451  1
  F  F98  1  0.611533  0.492688  0.185775  1
  F  F99  1  0.893977  0.587391  0.364682  1
  F  F100  1  0.734790  0.140959  0.188501  1
  F  F101  1  0.545232  0.829933  0.778063  1
  F  F102  1  0.676723  0.691517  0.718157  1
  F  F103  1  0.982111  0.579799  0.524267  1
  F  F104  1  0.709246  0.041492  0.981047  1
  F  F105  1  0.111533  0.007312  0.814225  1
  F  F106  1  0.323277  0.191517  0.781843  1
  F  F107  1  0.388467  0.992688  0.314225  1
