# generated using pymatgen
data_Rb2Mo3SO13
_symmetry_space_group_name_H-M   'P 1'
_cell_length_a   9.60367738
_cell_length_b   13.68319147
_cell_length_c   11.61937115
_cell_angle_alpha   90.00000000
_cell_angle_beta   118.55178087
_cell_angle_gamma   90.00000000
_symmetry_Int_Tables_number   1
_chemical_formula_structural   Rb2Mo3SO13
_chemical_formula_sum   'Rb8 Mo12 S4 O52'
_cell_volume   1341.19757695
_cell_formula_units_Z   4
loop_
 _symmetry_equiv_pos_site_id
 _symmetry_equiv_pos_as_xyz
  1  'x, y, z'
loop_
 _atom_site_type_symbol
 _atom_site_label
 _atom_site_symmetry_multiplicity
 _atom_site_fract_x
 _atom_site_fract_y
 _atom_site_fract_z
 _atom_site_occupancy
  Rb  Rb0  1  0.021241  0.685943  0.957433  1
  Rb  Rb1  1  0.467890  0.194628  0.949290  1
  Rb  Rb2  1  0.467890  0.305372  0.449290  1
  Rb  Rb3  1  0.532110  0.805372  0.050710  1
  Rb  Rb4  1  0.021241  0.814057  0.457433  1
  Rb  Rb5  1  0.532110  0.694628  0.550710  1
  Rb  Rb6  1  0.978759  0.185943  0.542567  1
  Rb  Rb7  1  0.978759  0.314057  0.042567  1
  Mo  Mo8  1  0.806908  0.515600  0.475210  1
  Mo  Mo9  1  0.149651  0.438646  0.799177  1
  Mo  Mo10  1  0.458830  0.992902  0.633800  1
  Mo  Mo11  1  0.806908  0.984400  0.975210  1
  Mo  Mo12  1  0.149651  0.061354  0.299177  1
  Mo  Mo13  1  0.541170  0.007098  0.366200  1
  Mo  Mo14  1  0.193092  0.484400  0.524790  1
  Mo  Mo15  1  0.541170  0.492902  0.866200  1
  Mo  Mo16  1  0.850349  0.561354  0.200823  1
  Mo  Mo17  1  0.193092  0.015600  0.024790  1
  Mo  Mo18  1  0.850349  0.938646  0.700823  1
  Mo  Mo19  1  0.458830  0.507098  0.133800  1
  S  S20  1  0.750199  0.333770  0.249392  1
  S  S21  1  0.249801  0.666230  0.750608  1
  S  S22  1  0.750199  0.166230  0.749392  1
  S  S23  1  0.249801  0.833770  0.250608  1
  O  O24  1  0.423029  0.856082  0.335609  1
  O  O25  1  0.610183  0.126880  0.397757  1
  O  O26  1  0.843220  0.398399  0.204917  1
  O  O27  1  0.168745  0.313157  0.784228  1
  O  O28  1  0.329983  0.464360  0.715756  1
  O  O29  1  0.843220  0.101601  0.704917  1
  O  O30  1  0.156780  0.601601  0.795083  1
  O  O31  1  0.825035  0.638761  0.516030  1
  O  O32  1  0.638733  0.541076  0.048016  1
  O  O33  1  0.576971  0.143918  0.664391  1
  O  O34  1  0.576971  0.356082  0.164391  1
  O  O35  1  0.796854  0.359373  0.389535  1
  O  O36  1  0.987088  0.964115  0.891085  1
  O  O37  1  0.389817  0.626880  0.102243  1
  O  O38  1  0.203146  0.640627  0.610465  1
  O  O39  1  0.168745  0.186843  0.284228  1
  O  O40  1  0.423029  0.643918  0.835609  1
  O  O41  1  0.971842  0.550377  0.129776  1
  O  O42  1  0.610183  0.373120  0.897757  1
  O  O43  1  0.325324  0.524928  0.473962  1
  O  O44  1  0.796854  0.140627  0.889535  1
  O  O45  1  0.156780  0.898399  0.295083  1
  O  O46  1  0.346590  0.454457  0.197287  1
  O  O47  1  0.218037  0.768225  0.762882  1
  O  O48  1  0.670017  0.535640  0.284244  1
  O  O49  1  0.028158  0.449623  0.870224  1
  O  O50  1  0.674676  0.475072  0.526038  1
  O  O51  1  0.831255  0.813157  0.715772  1
  O  O52  1  0.361267  0.041076  0.451984  1
  O  O53  1  0.781963  0.268225  0.737118  1
  O  O54  1  0.781963  0.231775  0.237118  1
  O  O55  1  0.218037  0.731775  0.262882  1
  O  O56  1  0.653410  0.954457  0.302713  1
  O  O57  1  0.361267  0.458924  0.951984  1
  O  O58  1  0.971842  0.949623  0.629776  1
  O  O59  1  0.987088  0.535885  0.391085  1
  O  O60  1  0.825035  0.861239  0.016030  1
  O  O61  1  0.203146  0.859373  0.110465  1
  O  O62  1  0.389817  0.873120  0.602243  1
  O  O63  1  0.653410  0.545543  0.802713  1
  O  O64  1  0.325324  0.975072  0.973962  1
  O  O65  1  0.174965  0.361239  0.483970  1
  O  O66  1  0.174965  0.138761  0.983970  1
  O  O67  1  0.012912  0.464115  0.608915  1
  O  O68  1  0.670017  0.964360  0.784244  1
  O  O69  1  0.346590  0.045543  0.697287  1
  O  O70  1  0.012912  0.035885  0.108915  1
  O  O71  1  0.831255  0.686843  0.215772  1
  O  O72  1  0.028158  0.050377  0.370224  1
  O  O73  1  0.638733  0.958924  0.548016  1
  O  O74  1  0.329983  0.035640  0.215756  1
  O  O75  1  0.674676  0.024928  0.026038  1
