# generated using pymatgen
data_Fe2Cu(P2O7)2
_symmetry_space_group_name_H-M   'P 1'
_cell_length_a   6.70243160
_cell_length_b   5.25675684
_cell_length_c   17.00197656
_cell_angle_alpha   90.00000000
_cell_angle_beta   111.03321020
_cell_angle_gamma   90.00000000
_symmetry_Int_Tables_number   1
_chemical_formula_structural   Fe2Cu(P2O7)2
_chemical_formula_sum   'Fe4 Cu2 P8 O28'
_cell_volume   559.11959967
_cell_formula_units_Z   2
loop_
 _symmetry_equiv_pos_site_id
 _symmetry_equiv_pos_as_xyz
  1  'x, y, z'
loop_
 _atom_site_type_symbol
 _atom_site_label
 _atom_site_symmetry_multiplicity
 _atom_site_fract_x
 _atom_site_fract_y
 _atom_site_fract_z
 _atom_site_occupancy
  Fe  Fe0  1  0.217036  0.251935  0.380138  1
  Fe  Fe1  1  0.782964  0.751935  0.119862  1
  Fe  Fe2  1  0.782964  0.748065  0.619862  1
  Fe  Fe3  1  0.217036  0.248065  0.880138  1
  Cu  Cu4  1  0.000000  0.500000  0.500000  1
  Cu  Cu5  1  0.000000  0.000000  0.000000  1
  P  P6  1  0.114307  0.247192  0.668054  1
  P  P7  1  0.885693  0.747192  0.831946  1
  P  P8  1  0.885693  0.752808  0.331946  1
  P  P9  1  0.114307  0.252808  0.168054  1
  P  P10  1  0.449145  0.230031  0.594326  1
  P  P11  1  0.550855  0.730031  0.905674  1
  P  P12  1  0.550855  0.769969  0.405674  1
  P  P13  1  0.449145  0.269969  0.094326  1
  O  O14  1  0.528017  0.962331  0.588472  1
  O  O15  1  0.471983  0.462331  0.911528  1
  O  O16  1  0.471983  0.037669  0.411528  1
  O  O17  1  0.528017  0.537669  0.088472  1
  O  O18  1  0.619884  0.432525  0.617474  1
  O  O19  1  0.380116  0.932525  0.882526  1
  O  O20  1  0.380116  0.567475  0.382526  1
  O  O21  1  0.619884  0.067475  0.117474  1
  O  O22  1  0.130360  0.277428  0.758040  1
  O  O23  1  0.869640  0.777428  0.741960  1
  O  O24  1  0.869640  0.722572  0.241960  1
  O  O25  1  0.130360  0.222572  0.258040  1
  O  O26  1  0.986071  0.023337  0.619617  1
  O  O27  1  0.013929  0.523337  0.880383  1
  O  O28  1  0.256135  0.203854  0.011923  1
  O  O29  1  0.743865  0.703854  0.488077  1
  O  O30  1  0.743865  0.796146  0.988077  1
  O  O31  1  0.256135  0.296146  0.511923  1
  O  O32  1  0.355319  0.277668  0.169577  1
  O  O33  1  0.644681  0.777668  0.330423  1
  O  O34  1  0.644681  0.722332  0.830423  1
  O  O35  1  0.355319  0.222332  0.669577  1
  O  O36  1  0.032405  0.998596  0.118227  1
  O  O37  1  0.967595  0.498596  0.381773  1
  O  O38  1  0.967595  0.001404  0.881773  1
  O  O39  1  0.032405  0.501404  0.618227  1
  O  O40  1  0.986071  0.476663  0.119617  1
  O  O41  1  0.013929  0.976663  0.380383  1
