# generated using pymatgen
data_BaFe12O19
_symmetry_space_group_name_H-M   'P 1'
_cell_length_a   6.01681046
_cell_length_b   6.01681046
_cell_length_c   23.49536771
_cell_angle_alpha   90.00000000
_cell_angle_beta   90.00000000
_cell_angle_gamma   120.00000000
_symmetry_Int_Tables_number   1
_chemical_formula_structural   BaFe12O19
_chemical_formula_sum   'Ba2 Fe24 O38'
_cell_volume   736.62344857
_cell_formula_units_Z   2
loop_
 _symmetry_equiv_pos_site_id
 _symmetry_equiv_pos_as_xyz
  1  'x, y, z'
loop_
 _atom_site_type_symbol
 _atom_site_label
 _atom_site_symmetry_multiplicity
 _atom_site_fract_x
 _atom_site_fract_y
 _atom_site_fract_z
 _atom_site_occupancy
  Ba  Ba0  1  0.666667  0.333333  0.250000  1
  Ba  Ba1  1  0.333333  0.666667  0.750000  1
  Fe  Fe2  1  0.831987  0.663974  0.108258  1
  Fe  Fe3  1  0.831987  0.663974  0.391742  1
  Fe  Fe4  1  0.666667  0.333333  0.971914  1
  Fe  Fe5  1  0.168013  0.831987  0.608258  1
  Fe  Fe6  1  0.666667  0.333333  0.809715  1
  Fe  Fe7  1  0.336026  0.168013  0.391742  1
  Fe  Fe8  1  0.168013  0.336026  0.608258  1
  Fe  Fe9  1  0.333333  0.666667  0.309715  1
  Fe  Fe10  1  0.333333  0.666667  0.028086  1
  Fe  Fe11  1  0.663974  0.831987  0.891742  1
  Fe  Fe12  1  0.336026  0.168013  0.108258  1
  Fe  Fe13  1  0.831987  0.168013  0.108258  1
  Fe  Fe14  1  0.333333  0.666667  0.190285  1
  Fe  Fe15  1  0.663974  0.831987  0.608258  1
  Fe  Fe16  1  0.000000  0.000000  0.500000  1
  Fe  Fe17  1  0.333333  0.666667  0.471914  1
  Fe  Fe18  1  0.168013  0.336026  0.891742  1
  Fe  Fe19  1  0.666667  0.333333  0.690285  1
  Fe  Fe20  1  0.168013  0.831987  0.891742  1
  Fe  Fe21  1  0.666667  0.333333  0.528086  1
  Fe  Fe22  1  0.831987  0.168013  0.391742  1
  Fe  Fe23  1  0.000000  0.000000  0.750000  1
  Fe  Fe24  1  0.000000  0.000000  0.000000  1
  Fe  Fe25  1  0.000000  0.000000  0.250000  1
  O  O26  1  0.007230  0.503615  0.850956  1
  O  O27  1  0.634437  0.817219  0.250000  1
  O  O28  1  0.155059  0.310119  0.052430  1
  O  O29  1  0.503615  0.496385  0.149044  1
  O  O30  1  0.496385  0.503615  0.850956  1
  O  O31  1  0.000000  0.000000  0.151245  1
  O  O32  1  0.000000  0.000000  0.348755  1
  O  O33  1  0.844941  0.689881  0.552430  1
  O  O34  1  0.496385  0.992770  0.649044  1
  O  O35  1  0.365563  0.182781  0.750000  1
  O  O36  1  0.310119  0.155059  0.947570  1
  O  O37  1  0.000000  0.000000  0.848755  1
  O  O38  1  0.155059  0.844941  0.052430  1
  O  O39  1  0.844941  0.155059  0.552430  1
  O  O40  1  0.333333  0.666667  0.554680  1
  O  O41  1  0.182781  0.817219  0.250000  1
  O  O42  1  0.333333  0.666667  0.945320  1
  O  O43  1  0.503615  0.007230  0.350956  1
  O  O44  1  0.666667  0.333333  0.054680  1
  O  O45  1  0.000000  0.000000  0.651245  1
  O  O46  1  0.992770  0.496385  0.350956  1
  O  O47  1  0.844941  0.155059  0.947570  1
  O  O48  1  0.817219  0.634437  0.750000  1
  O  O49  1  0.310119  0.155059  0.552430  1
  O  O50  1  0.503615  0.496385  0.350956  1
  O  O51  1  0.844941  0.689881  0.947570  1
  O  O52  1  0.496385  0.503615  0.649044  1
  O  O53  1  0.992770  0.496385  0.149044  1
  O  O54  1  0.689881  0.844941  0.447570  1
  O  O55  1  0.007230  0.503615  0.649044  1
  O  O56  1  0.666667  0.333333  0.445320  1
  O  O57  1  0.155059  0.310119  0.447570  1
  O  O58  1  0.496385  0.992770  0.850956  1
  O  O59  1  0.155059  0.844941  0.447570  1
  O  O60  1  0.182781  0.365563  0.250000  1
  O  O61  1  0.689881  0.844941  0.052430  1
  O  O62  1  0.817219  0.182781  0.750000  1
  O  O63  1  0.503615  0.007230  0.149044  1
