# generated using pymatgen
data_P4N6O
_symmetry_space_group_name_H-M   'P 1'
_cell_length_a   9.75466975
_cell_length_b   6.13371322
_cell_length_c   15.36019398
_cell_angle_alpha   90.00000000
_cell_angle_beta   107.83620816
_cell_angle_gamma   90.00000000
_symmetry_Int_Tables_number   1
_chemical_formula_structural   P4N6O
_chemical_formula_sum   'P24 N36 O6'
_cell_volume   874.86390133
_cell_formula_units_Z   6
loop_
 _symmetry_equiv_pos_site_id
 _symmetry_equiv_pos_as_xyz
  1  'x, y, z'
loop_
 _atom_site_type_symbol
 _atom_site_label
 _atom_site_symmetry_multiplicity
 _atom_site_fract_x
 _atom_site_fract_y
 _atom_site_fract_z
 _atom_site_occupancy
  P  P0  1  0.603042  0.258542  0.896310  1
  P  P1  1  0.937515  0.247427  0.562075  1
  P  P2  1  0.062411  0.249705  0.437602  1
  P  P3  1  0.274398  0.251132  0.228468  1
  P  P4  1  0.398006  0.255040  0.106143  1
  P  P5  1  0.907763  0.052727  0.953591  1
  P  P6  1  0.239533  0.047968  0.620454  1
  P  P7  1  0.575765  0.042827  0.285784  1
  P  P8  1  0.407763  0.947273  0.953591  1
  P  P9  1  0.739533  0.952032  0.620454  1
  P  P10  1  0.075765  0.957173  0.285784  1
  P  P11  1  0.103042  0.741458  0.896310  1
  P  P12  1  0.226479  0.755836  0.771779  1
  P  P13  1  0.437515  0.752573  0.562075  1
  P  P14  1  0.562411  0.750295  0.437602  1
  P  P15  1  0.774398  0.748868  0.228468  1
  P  P16  1  0.898006  0.744960  0.106143  1
  P  P17  1  0.925710  0.539512  0.714566  1
  P  P18  1  0.261658  0.543906  0.379168  1
  P  P19  1  0.592857  0.553498  0.043460  1
  P  P20  1  0.425710  0.460488  0.714566  1
  P  P21  1  0.761658  0.456094  0.379168  1
  P  P22  1  0.092857  0.446502  0.043460  1
  P  P23  1  0.726479  0.244164  0.771779  1
  N  N24  1  0.996184  0.240274  0.010162  1
  N  N25  1  0.750695  0.135004  0.878730  1
  N  N26  1  0.091805  0.149836  0.545303  1
  N  N27  1  0.425319  0.139676  0.210045  1
  N  N28  1  0.475453  0.102874  0.896942  1
  N  N29  1  0.681605  0.074050  0.691953  1
  N  N30  1  0.823000  0.066848  0.560384  1
  N  N31  1  0.022104  0.070877  0.360832  1
  N  N32  1  0.154447  0.079912  0.225288  1
  N  N33  1  0.975453  0.897126  0.896942  1
  N  N34  1  0.181605  0.925950  0.691953  1
  N  N35  1  0.323000  0.933152  0.560384  1
  N  N36  1  0.522104  0.929123  0.360832  1
  N  N37  1  0.654447  0.920088  0.225288  1
  N  N38  1  0.250695  0.864996  0.878730  1
  N  N39  1  0.591805  0.850164  0.545303  1
  N  N40  1  0.925319  0.860324  0.210045  1
  N  N41  1  0.496184  0.759726  0.010162  1
  N  N42  1  0.074108  0.647325  0.787347  1
  N  N43  1  0.407502  0.651834  0.453542  1
  N  N44  1  0.748138  0.640622  0.122052  1
  N  N45  1  0.155772  0.561439  0.971201  1
  N  N46  1  0.349235  0.586000  0.776238  1
  N  N47  1  0.478022  0.574474  0.638729  1
  N  N48  1  0.678572  0.572664  0.438856  1
  N  N49  1  0.821113  0.577439  0.307798  1
  N  N50  1  0.026933  0.605674  0.103272  1
  N  N51  1  0.655772  0.438561  0.971201  1
  N  N52  1  0.849235  0.414000  0.776238  1
  N  N53  1  0.978022  0.425526  0.638729  1
  N  N54  1  0.178572  0.427336  0.438856  1
  N  N55  1  0.321113  0.422561  0.307798  1
  N  N56  1  0.526933  0.394326  0.103272  1
  N  N57  1  0.574108  0.352675  0.787347  1
  N  N58  1  0.907502  0.348166  0.453542  1
  N  N59  1  0.248138  0.359378  0.122052  1
  O  O60  1  0.328407  0.255708  0.669640  1
  O  O61  1  0.666565  0.254487  0.327992  1
  O  O62  1  0.339882  0.085359  0.024294  1
  O  O63  1  0.839882  0.914641  0.024294  1
  O  O64  1  0.828407  0.744292  0.669640  1
  O  O65  1  0.166565  0.745513  0.327992  1
