# generated using pymatgen
data_Y2SiCO7
_symmetry_space_group_name_H-M   'P 1'
_cell_length_a   6.53234860
_cell_length_b   6.65166722
_cell_length_c   6.72714977
_cell_angle_alpha   95.53684635
_cell_angle_beta   116.43451894
_cell_angle_gamma   92.66940455
_symmetry_Int_Tables_number   1
_chemical_formula_structural   Y2SiCO7
_chemical_formula_sum   'Y4 Si2 C2 O14'
_cell_volume   259.20068196
_cell_formula_units_Z   2
loop_
 _symmetry_equiv_pos_site_id
 _symmetry_equiv_pos_as_xyz
  1  'x, y, z'
loop_
 _atom_site_type_symbol
 _atom_site_label
 _atom_site_symmetry_multiplicity
 _atom_site_fract_x
 _atom_site_fract_y
 _atom_site_fract_z
 _atom_site_occupancy
  Y  Y0  1  0.256847  0.667219  0.188873  1
  Y  Y1  1  0.250844  0.913212  0.701425  1
  Y  Y2  1  0.743153  0.332781  0.811127  1
  Y  Y3  1  0.749156  0.086788  0.298575  1
  Si  Si4  1  0.263499  0.157611  0.241777  1
  Si  Si5  1  0.736501  0.842389  0.758223  1
  C  C6  1  0.805701  0.589901  0.265852  1
  C  C7  1  0.194299  0.410099  0.734148  1
  O  O8  1  0.113654  0.034340  0.342017  1
  O  O9  1  0.342753  0.283620  0.750365  1
  O  O10  1  0.265157  0.596050  0.835065  1
  O  O11  1  0.023038  0.646870  0.377042  1
  O  O12  1  0.479175  0.751356  0.562530  1
  O  O13  1  0.667773  0.016705  0.910289  1
  O  O14  1  0.976962  0.353130  0.622958  1
  O  O15  1  0.332227  0.983295  0.089711  1
  O  O16  1  0.127414  0.331735  0.093263  1
  O  O17  1  0.886346  0.965660  0.657983  1
  O  O18  1  0.734843  0.403950  0.164935  1
  O  O19  1  0.872586  0.668265  0.906737  1
  O  O20  1  0.657247  0.716380  0.249635  1
  O  O21  1  0.520825  0.248644  0.437470  1
