# generated using pymatgen
data_Ba3Al2Cu2F16
_symmetry_space_group_name_H-M   'P 1'
_cell_length_a   7.49518134
_cell_length_b   5.39476346
_cell_length_c   16.24353722
_cell_angle_alpha   90.00000000
_cell_angle_beta   96.68675614
_cell_angle_gamma   90.00000000
_symmetry_Int_Tables_number   1
_chemical_formula_structural   Ba3Al2Cu2F16
_chemical_formula_sum   'Ba6 Al4 Cu4 F32'
_cell_volume   652.33520560
_cell_formula_units_Z   2
loop_
 _symmetry_equiv_pos_site_id
 _symmetry_equiv_pos_as_xyz
  1  'x, y, z'
loop_
 _atom_site_type_symbol
 _atom_site_label
 _atom_site_symmetry_multiplicity
 _atom_site_fract_x
 _atom_site_fract_y
 _atom_site_fract_z
 _atom_site_occupancy
  Ba  Ba0  1  0.308454  0.740988  0.815319  1
  Ba  Ba1  1  0.837950  0.258945  0.885487  1
  Ba  Ba2  1  0.162050  0.758945  0.114513  1
  Ba  Ba3  1  0.691546  0.240988  0.184681  1
  Ba  Ba4  1  0.253120  0.688497  0.530284  1
  Ba  Ba5  1  0.746880  0.188497  0.469716  1
  Al  Al6  1  0.079460  0.179429  0.659569  1
  Al  Al7  1  0.330715  0.234266  0.975368  1
  Al  Al8  1  0.669285  0.734266  0.024632  1
  Al  Al9  1  0.920540  0.679429  0.340431  1
  Cu  Cu10  1  0.215836  0.211591  0.304367  1
  Cu  Cu11  1  0.436502  0.688767  0.329546  1
  Cu  Cu12  1  0.784164  0.711591  0.695633  1
  Cu  Cu13  1  0.563498  0.188767  0.670454  1
  F  F14  1  0.367022  0.511086  0.230483  1
  F  F15  1  0.099548  0.198533  0.546813  1
  F  F16  1  0.863091  0.331173  0.637349  1
  F  F17  1  0.793214  0.961030  0.322582  1
  F  F18  1  0.594094  0.499972  0.735868  1
  F  F19  1  0.301499  0.220436  0.083179  1
  F  F20  1  0.206786  0.461030  0.677418  1
  F  F21  1  0.599912  0.746860  0.126741  1
  F  F22  1  0.815759  0.998048  0.044403  1
  F  F23  1  0.400088  0.246860  0.873259  1
  F  F24  1  0.900452  0.698533  0.453187  1
  F  F25  1  0.472793  0.942808  0.992047  1
  F  F26  1  0.053439  0.128609  0.209030  1
  F  F27  1  0.698501  0.720436  0.916821  1
  F  F28  1  0.965105  0.874320  0.635014  1
  F  F29  1  0.184241  0.498048  0.955597  1
  F  F30  1  0.289507  0.996167  0.670544  1
  F  F31  1  0.500237  0.340400  0.566513  1
  F  F32  1  0.527207  0.442808  0.007953  1
  F  F33  1  0.632978  0.011086  0.769517  1
  F  F34  1  0.136909  0.831173  0.362651  1
  F  F35  1  0.405906  0.999972  0.264132  1
  F  F36  1  0.058536  0.129656  0.767586  1
  F  F37  1  0.389695  0.367610  0.388614  1
  F  F38  1  0.146201  0.023207  0.946630  1
  F  F39  1  0.853799  0.523207  0.053370  1
  F  F40  1  0.710493  0.496167  0.329456  1
  F  F41  1  0.499763  0.840400  0.433487  1
  F  F42  1  0.941464  0.629656  0.232414  1
  F  F43  1  0.610305  0.867610  0.611386  1
  F  F44  1  0.034895  0.374320  0.364986  1
  F  F45  1  0.946561  0.628609  0.790970  1
