# generated using pymatgen
data_K2SeO4
_symmetry_space_group_name_H-M   'P 1'
_cell_length_a   6.14654966
_cell_length_b   10.65273403
_cell_length_c   23.36993672
_cell_angle_alpha   90.00000000
_cell_angle_beta   90.00000000
_cell_angle_gamma   90.00000000
_symmetry_Int_Tables_number   1
_chemical_formula_structural   K2SeO4
_chemical_formula_sum   'K24 Se12 O48'
_cell_volume   1530.20640410
_cell_formula_units_Z   12
loop_
 _symmetry_equiv_pos_site_id
 _symmetry_equiv_pos_as_xyz
  1  'x, y, z'
loop_
 _atom_site_type_symbol
 _atom_site_label
 _atom_site_symmetry_multiplicity
 _atom_site_fract_x
 _atom_site_fract_y
 _atom_site_fract_z
 _atom_site_occupancy
  K  K0  1  0.767624  0.294214  0.333454  1
  K  K1  1  0.267624  0.705786  0.666546  1
  K  K2  1  0.251089  0.421777  0.109868  1
  K  K3  1  0.232378  0.705867  0.000229  1
  K  K4  1  0.732378  0.205867  0.499771  1
  K  K5  1  0.267624  0.794214  0.166546  1
  K  K6  1  0.232378  0.794133  0.500229  1
  K  K7  1  0.751089  0.578223  0.890132  1
  K  K8  1  0.756535  0.206537  0.166895  1
  K  K9  1  0.756535  0.293463  0.666895  1
  K  K10  1  0.734272  0.923273  0.056609  1
  K  K11  1  0.734272  0.576727  0.556609  1
  K  K12  1  0.234272  0.076727  0.943391  1
  K  K13  1  0.265622  0.079977  0.276726  1
  K  K14  1  0.265622  0.420023  0.776726  1
  K  K15  1  0.765622  0.579977  0.223274  1
  K  K16  1  0.251089  0.078223  0.609868  1
  K  K17  1  0.767624  0.205786  0.833454  1
  K  K18  1  0.256535  0.793463  0.833105  1
  K  K19  1  0.234272  0.423273  0.443391  1
  K  K20  1  0.765622  0.920023  0.723274  1
  K  K21  1  0.256535  0.706537  0.333105  1
  K  K22  1  0.732378  0.294133  0.999771  1
  K  K23  1  0.751089  0.921777  0.390132  1
  Se  Se24  1  0.254456  0.418040  0.259252  1
  Se  Se25  1  0.235880  0.082130  0.092850  1
  Se  Se26  1  0.253485  0.081354  0.425919  1
  Se  Se27  1  0.735880  0.582130  0.407150  1
  Se  Se28  1  0.253485  0.418646  0.925919  1
  Se  Se29  1  0.754456  0.918040  0.240748  1
  Se  Se30  1  0.235880  0.417870  0.592850  1
  Se  Se31  1  0.753485  0.581354  0.074081  1
  Se  Se32  1  0.754456  0.581960  0.740748  1
  Se  Se33  1  0.735880  0.917870  0.907150  1
  Se  Se34  1  0.254456  0.081960  0.759252  1
  Se  Se35  1  0.753485  0.918646  0.574081  1
  O  O36  1  0.529135  0.644058  0.770065  1
  O  O37  1  0.018413  0.339721  0.567908  1
  O  O38  1  0.974020  0.847954  0.601875  1
  O  O39  1  0.463755  0.339209  0.576003  1
  O  O40  1  0.244214  0.559321  0.560535  1
  O  O41  1  0.529906  0.835853  0.590662  1
  O  O42  1  0.963755  0.839209  0.923997  1
  O  O43  1  0.282676  0.429675  0.996653  1
  O  O44  1  0.029135  0.355942  0.229935  1
  O  O45  1  0.018413  0.160279  0.067908  1
  O  O46  1  0.782676  0.570325  0.003347  1
  O  O47  1  0.744214  0.059321  0.939465  1
  O  O48  1  0.232346  0.937716  0.396351  1
  O  O49  1  0.974020  0.652046  0.101875  1
  O  O50  1  0.463755  0.160791  0.076003  1
  O  O51  1  0.713892  0.934980  0.836514  1
  O  O52  1  0.795578  0.440318  0.770899  1
  O  O53  1  0.713892  0.565020  0.336514  1
  O  O54  1  0.474020  0.152046  0.398125  1
  O  O55  1  0.963755  0.660791  0.423997  1
  O  O56  1  0.295578  0.940318  0.729101  1
  O  O57  1  0.744214  0.440679  0.439465  1
  O  O58  1  0.244214  0.940679  0.060535  1
  O  O59  1  0.029135  0.144058  0.729935  1
  O  O60  1  0.282676  0.070325  0.496653  1
  O  O61  1  0.029906  0.335853  0.909338  1
  O  O62  1  0.213892  0.434980  0.663486  1
  O  O63  1  0.716189  0.932183  0.170404  1
  O  O64  1  0.468168  0.174885  0.744903  1
  O  O65  1  0.795578  0.059682  0.270899  1
  O  O66  1  0.518413  0.839721  0.932092  1
  O  O67  1  0.529906  0.664147  0.090662  1
  O  O68  1  0.216189  0.067817  0.829596  1
  O  O69  1  0.732345  0.062284  0.603649  1
  O  O70  1  0.732345  0.437716  0.103649  1
  O  O71  1  0.468168  0.325115  0.244903  1
  O  O72  1  0.213892  0.065020  0.163486  1
  O  O73  1  0.529135  0.855942  0.270065  1
  O  O74  1  0.716189  0.567817  0.670404  1
  O  O75  1  0.295578  0.559682  0.229101  1
  O  O76  1  0.029906  0.164147  0.409338  1
  O  O77  1  0.782676  0.929675  0.503347  1
  O  O78  1  0.518413  0.660279  0.432092  1
  O  O79  1  0.216189  0.432183  0.329596  1
  O  O80  1  0.474020  0.347954  0.898125  1
  O  O81  1  0.232346  0.562284  0.896351  1
  O  O82  1  0.968168  0.674885  0.755097  1
  O  O83  1  0.968168  0.825115  0.255097  1
