# generated using pymatgen
data_Na6MnS4
_symmetry_space_group_name_H-M   'P 1'
_cell_length_a   9.00945714
_cell_length_b   9.00945714
_cell_length_c   6.98406863
_cell_angle_alpha   90.00000000
_cell_angle_beta   90.00000000
_cell_angle_gamma   120.00000000
_symmetry_Int_Tables_number   1
_chemical_formula_structural   Na6MnS4
_chemical_formula_sum   'Na12 Mn2 S8'
_cell_volume   490.94899727
_cell_formula_units_Z   2
loop_
 _symmetry_equiv_pos_site_id
 _symmetry_equiv_pos_as_xyz
  1  'x, y, z'
loop_
 _atom_site_type_symbol
 _atom_site_label
 _atom_site_symmetry_multiplicity
 _atom_site_fract_x
 _atom_site_fract_y
 _atom_site_fract_z
 _atom_site_occupancy
  Na  Na0  1  0.532650  0.065299  0.367894  1
  Na  Na1  1  0.467350  0.532650  0.867894  1
  Na  Na2  1  0.146607  0.853393  0.536360  1
  Na  Na3  1  0.293214  0.146607  0.036360  1
  Na  Na4  1  0.853393  0.706786  0.036360  1
  Na  Na5  1  0.146607  0.293214  0.536360  1
  Na  Na6  1  0.706786  0.853393  0.536360  1
  Na  Na7  1  0.853393  0.146607  0.036360  1
  Na  Na8  1  0.532650  0.467350  0.367894  1
  Na  Na9  1  0.934701  0.467350  0.367894  1
  Na  Na10  1  0.467350  0.934701  0.867894  1
  Na  Na11  1  0.065299  0.532650  0.867894  1
  Mn  Mn12  1  0.666667  0.333333  0.750883  1
  Mn  Mn13  1  0.333333  0.666667  0.250883  1
  S  S14  1  0.186883  0.373766  0.142693  1
  S  S15  1  0.626234  0.813117  0.142693  1
  S  S16  1  0.333333  0.666667  0.595775  1
  S  S17  1  0.666667  0.333333  0.095775  1
  S  S18  1  0.186883  0.813117  0.142693  1
  S  S19  1  0.813117  0.186883  0.642693  1
  S  S20  1  0.813117  0.626234  0.642693  1
  S  S21  1  0.373766  0.186883  0.642693  1
