# generated using pymatgen
data_Yb4Cl6O
_symmetry_space_group_name_H-M   'P 1'
_cell_length_a   8.98508440
_cell_length_b   8.98508440
_cell_length_c   6.78149390
_cell_angle_alpha   90.00000000
_cell_angle_beta   90.00000000
_cell_angle_gamma   120.00000000
_symmetry_Int_Tables_number   1
_chemical_formula_structural   Yb4Cl6O
_chemical_formula_sum   'Yb8 Cl12 O2'
_cell_volume   474.13315862
_cell_formula_units_Z   2
loop_
 _symmetry_equiv_pos_site_id
 _symmetry_equiv_pos_as_xyz
  1  'x, y, z'
loop_
 _atom_site_type_symbol
 _atom_site_label
 _atom_site_symmetry_multiplicity
 _atom_site_fract_x
 _atom_site_fract_y
 _atom_site_fract_z
 _atom_site_occupancy
  Yb  Yb0  1  0.333333  0.666667  0.429984  1
  Yb  Yb1  1  0.801156  0.602312  0.501890  1
  Yb  Yb2  1  0.198844  0.397688  0.001890  1
  Yb  Yb3  1  0.198844  0.801156  0.001890  1
  Yb  Yb4  1  0.602312  0.801156  0.001890  1
  Yb  Yb5  1  0.397688  0.198844  0.501890  1
  Yb  Yb6  1  0.801156  0.198844  0.501890  1
  Yb  Yb7  1  0.666667  0.333333  0.929984  1
  Cl  Cl8  1  0.464612  0.535388  0.712208  1
  Cl  Cl9  1  0.277048  0.138524  0.887521  1
  Cl  Cl10  1  0.535388  0.464612  0.212208  1
  Cl  Cl11  1  0.070776  0.535388  0.712208  1
  Cl  Cl12  1  0.861476  0.138524  0.887521  1
  Cl  Cl13  1  0.929224  0.464612  0.212208  1
  Cl  Cl14  1  0.535388  0.070776  0.212208  1
  Cl  Cl15  1  0.464612  0.929224  0.712208  1
  Cl  Cl16  1  0.861476  0.722952  0.887521  1
  Cl  Cl17  1  0.138524  0.861476  0.387521  1
  Cl  Cl18  1  0.722952  0.861476  0.387521  1
  Cl  Cl19  1  0.138524  0.277048  0.387521  1
  O  O20  1  0.333333  0.666667  0.106658  1
  O  O21  1  0.666667  0.333333  0.606658  1
