# generated using pymatgen
data_TaBr5
_symmetry_space_group_name_H-M   'P 1'
_cell_length_a   6.71989075
_cell_length_b   14.07664471
_cell_length_c   19.58196257
_cell_angle_alpha   90.00000000
_cell_angle_beta   90.00000000
_cell_angle_gamma   90.00000000
_symmetry_Int_Tables_number   1
_chemical_formula_structural   TaBr5
_chemical_formula_sum   'Ta8 Br40'
_cell_volume   1852.32666183
_cell_formula_units_Z   8
loop_
 _symmetry_equiv_pos_site_id
 _symmetry_equiv_pos_as_xyz
  1  'x, y, z'
loop_
 _atom_site_type_symbol
 _atom_site_label
 _atom_site_symmetry_multiplicity
 _atom_site_fract_x
 _atom_site_fract_y
 _atom_site_fract_z
 _atom_site_occupancy
  Ta  Ta0  1  0.992520  0.125028  0.142012  1
  Ta  Ta1  1  0.992520  0.125028  0.357988  1
  Ta  Ta2  1  0.507480  0.625028  0.142012  1
  Ta  Ta3  1  0.492520  0.374972  0.857988  1
  Ta  Ta4  1  0.492520  0.374972  0.642012  1
  Ta  Ta5  1  0.507480  0.625028  0.357988  1
  Ta  Ta6  1  0.007480  0.874972  0.642012  1
  Ta  Ta7  1  0.007480  0.874972  0.857988  1
  Br  Br8  1  0.221677  0.731465  0.847416  1
  Br  Br9  1  0.222525  0.203526  0.436103  1
  Br  Br10  1  0.739111  0.546518  0.435457  1
  Br  Br11  1  0.702293  0.303905  0.750000  1
  Br  Br12  1  0.792369  0.018295  0.847758  1
  Br  Br13  1  0.721677  0.768535  0.347416  1
  Br  Br14  1  0.215833  0.946533  0.750000  1
  Br  Br15  1  0.202293  0.196095  0.250000  1
  Br  Br16  1  0.278323  0.231465  0.847416  1
  Br  Br17  1  0.222525  0.203526  0.063897  1
  Br  Br18  1  0.207631  0.981705  0.152242  1
  Br  Br19  1  0.239111  0.953482  0.564543  1
  Br  Br20  1  0.722525  0.296474  0.936103  1
  Br  Br21  1  0.260889  0.453482  0.564543  1
  Br  Br22  1  0.277475  0.703526  0.063897  1
  Br  Br23  1  0.722525  0.296474  0.563897  1
  Br  Br24  1  0.707631  0.518295  0.847758  1
  Br  Br25  1  0.777475  0.796474  0.936103  1
  Br  Br26  1  0.707631  0.518295  0.652242  1
  Br  Br27  1  0.739111  0.546518  0.064543  1
  Br  Br28  1  0.297707  0.696095  0.250000  1
  Br  Br29  1  0.777475  0.796474  0.563897  1
  Br  Br30  1  0.760889  0.046518  0.435457  1
  Br  Br31  1  0.797707  0.803905  0.750000  1
  Br  Br32  1  0.260889  0.453482  0.935457  1
  Br  Br33  1  0.721677  0.768535  0.152584  1
  Br  Br34  1  0.760889  0.046518  0.064543  1
  Br  Br35  1  0.292369  0.481705  0.152242  1
  Br  Br36  1  0.778323  0.268535  0.347416  1
  Br  Br37  1  0.239111  0.953482  0.935457  1
  Br  Br38  1  0.284167  0.446533  0.750000  1
  Br  Br39  1  0.715833  0.553467  0.250000  1
  Br  Br40  1  0.278323  0.231465  0.652584  1
  Br  Br41  1  0.207631  0.981705  0.347758  1
  Br  Br42  1  0.792369  0.018295  0.652242  1
  Br  Br43  1  0.292369  0.481705  0.347758  1
  Br  Br44  1  0.784167  0.053467  0.250000  1
  Br  Br45  1  0.778323  0.268535  0.152584  1
  Br  Br46  1  0.277475  0.703526  0.436103  1
  Br  Br47  1  0.221677  0.731465  0.652584  1
