# generated using pymatgen
data_Li2MnF5
_symmetry_space_group_name_H-M   'P 1'
_cell_length_a   5.69933457
_cell_length_b   5.69933457
_cell_length_c   7.51524108
_cell_angle_alpha   70.23865939
_cell_angle_beta   109.76134061
_cell_angle_gamma   127.35033976
_symmetry_Int_Tables_number   1
_chemical_formula_structural   Li2MnF5
_chemical_formula_sum   'Li4 Mn2 F10'
_cell_volume   179.71915425
_cell_formula_units_Z   2
loop_
 _symmetry_equiv_pos_site_id
 _symmetry_equiv_pos_as_xyz
  1  'x, y, z'
loop_
 _atom_site_type_symbol
 _atom_site_label
 _atom_site_symmetry_multiplicity
 _atom_site_fract_x
 _atom_site_fract_y
 _atom_site_fract_z
 _atom_site_occupancy
  Li  Li0  1  0.628876  0.357038  0.245491  1
  Li  Li1  1  0.642962  0.371124  0.745491  1
  Li  Li2  1  0.371124  0.642962  0.754509  1
  Li  Li3  1  0.357038  0.628876  0.254509  1
  Mn  Mn4  1  0.000000  0.000000  0.500000  1
  Mn  Mn5  1  0.000000  0.000000  0.000000  1
  F  F6  1  0.215501  0.215501  0.750000  1
  F  F7  1  0.784499  0.784499  0.250000  1
  F  F8  1  0.776691  0.604079  0.955267  1
  F  F9  1  0.604079  0.776691  0.544733  1
  F  F10  1  0.223309  0.395921  0.044733  1
  F  F11  1  0.395921  0.223309  0.455267  1
  F  F12  1  0.328498  0.973003  0.147646  1
  F  F13  1  0.973003  0.328498  0.352354  1
  F  F14  1  0.671502  0.026997  0.852354  1
  F  F15  1  0.026997  0.671502  0.647646  1
