# generated using pymatgen
data_TbCuS2
_symmetry_space_group_name_H-M   'P 1'
_cell_length_a   6.37915896
_cell_length_b   7.02754840
_cell_length_c   6.76287486
_cell_angle_alpha   90.00000000
_cell_angle_beta   97.25196964
_cell_angle_gamma   90.00000000
_symmetry_Int_Tables_number   1
_chemical_formula_structural   TbCuS2
_chemical_formula_sum   'Tb4 Cu4 S8'
_cell_volume   300.75341019
_cell_formula_units_Z   4
loop_
 _symmetry_equiv_pos_site_id
 _symmetry_equiv_pos_as_xyz
  1  'x, y, z'
loop_
 _atom_site_type_symbol
 _atom_site_label
 _atom_site_symmetry_multiplicity
 _atom_site_fract_x
 _atom_site_fract_y
 _atom_site_fract_z
 _atom_site_occupancy
  Tb  Tb0  1  0.306774  0.048049  0.699298  1
  Tb  Tb1  1  0.693226  0.548049  0.800702  1
  Tb  Tb2  1  0.693226  0.951951  0.300702  1
  Tb  Tb3  1  0.306774  0.451951  0.199298  1
  Cu  Cu4  1  0.080372  0.838595  0.050237  1
  Cu  Cu5  1  0.919628  0.161405  0.949763  1
  Cu  Cu6  1  0.919628  0.338595  0.449763  1
  Cu  Cu7  1  0.080372  0.661405  0.550237  1
  S  S8  1  0.425076  0.726563  0.502287  1
  S  S9  1  0.574924  0.226563  0.997713  1
  S  S10  1  0.574924  0.273437  0.497713  1
  S  S11  1  0.425076  0.773437  0.002287  1
  S  S12  1  0.091834  0.386590  0.780870  1
  S  S13  1  0.091834  0.113410  0.280870  1
  S  S14  1  0.908166  0.613410  0.219130  1
  S  S15  1  0.908166  0.886590  0.719130  1
