# generated using pymatgen
data_Li2NiPO4F
_symmetry_space_group_name_H-M   'P 1'
_cell_length_a   6.36022395
_cell_length_b   10.54541926
_cell_length_c   10.94110635
_cell_angle_alpha   90.00000000
_cell_angle_beta   90.00000000
_cell_angle_gamma   90.00000000
_symmetry_Int_Tables_number   1
_chemical_formula_structural   Li2NiPO4F
_chemical_formula_sum   'Li16 Ni8 P8 O32 F8'
_cell_volume   733.83344011
_cell_formula_units_Z   8
loop_
 _symmetry_equiv_pos_site_id
 _symmetry_equiv_pos_as_xyz
  1  'x, y, z'
loop_
 _atom_site_type_symbol
 _atom_site_label
 _atom_site_symmetry_multiplicity
 _atom_site_fract_x
 _atom_site_fract_y
 _atom_site_fract_z
 _atom_site_occupancy
  Li  Li0  1  0.505589  0.739153  0.666087  1
  Li  Li1  1  0.494411  0.760847  0.166087  1
  Li  Li2  1  0.250000  0.227452  0.583091  1
  Li  Li3  1  0.494411  0.260847  0.333913  1
  Li  Li4  1  0.750000  0.026011  0.773266  1
  Li  Li5  1  0.005589  0.760847  0.166087  1
  Li  Li6  1  0.250000  0.727452  0.916909  1
  Li  Li7  1  0.250000  0.973989  0.226734  1
  Li  Li8  1  0.005589  0.260847  0.333913  1
  Li  Li9  1  0.750000  0.772548  0.416909  1
  Li  Li10  1  0.994411  0.739153  0.666087  1
  Li  Li11  1  0.994411  0.239153  0.833913  1
  Li  Li12  1  0.750000  0.272548  0.083091  1
  Li  Li13  1  0.505589  0.239153  0.833913  1
  Li  Li14  1  0.250000  0.473989  0.273266  1
  Li  Li15  1  0.750000  0.526011  0.726734  1
  Ni  Ni16  1  0.000000  0.000000  0.500000  1
  Ni  Ni17  1  0.500000  0.000000  0.500000  1
  Ni  Ni18  1  0.000000  0.500000  0.000000  1
  Ni  Ni19  1  0.500000  0.500000  0.000000  1
  Ni  Ni20  1  0.000000  0.000000  0.000000  1
  Ni  Ni21  1  0.500000  0.000000  0.000000  1
  Ni  Ni22  1  0.000000  0.500000  0.500000  1
  Ni  Ni23  1  0.500000  0.500000  0.500000  1
  P  P24  1  0.250000  0.477282  0.743867  1
  P  P25  1  0.750000  0.522718  0.256133  1
  P  P26  1  0.750000  0.743433  0.921599  1
  P  P27  1  0.750000  0.243433  0.578401  1
  P  P28  1  0.250000  0.256567  0.078401  1
  P  P29  1  0.750000  0.022718  0.243867  1
  P  P30  1  0.250000  0.756567  0.421599  1
  P  P31  1  0.250000  0.977282  0.756133  1
  O  O32  1  0.750000  0.669726  0.256305  1
  O  O33  1  0.750000  0.889351  0.945302  1
  O  O34  1  0.250000  0.110649  0.054698  1
  O  O35  1  0.950193  0.189878  0.514468  1
  O  O36  1  0.750000  0.389351  0.554698  1
  O  O37  1  0.549807  0.189878  0.514468  1
  O  O38  1  0.947011  0.465849  0.319860  1
  O  O39  1  0.052989  0.034151  0.819860  1
  O  O40  1  0.450193  0.310122  0.014468  1
  O  O41  1  0.552989  0.465849  0.319860  1
  O  O42  1  0.250000  0.027607  0.621521  1
  O  O43  1  0.250000  0.783279  0.283264  1
  O  O44  1  0.250000  0.330274  0.743695  1
  O  O45  1  0.947011  0.965849  0.180140  1
  O  O46  1  0.250000  0.610649  0.445302  1
  O  O47  1  0.250000  0.283279  0.216736  1
  O  O48  1  0.552989  0.965849  0.180140  1
  O  O49  1  0.750000  0.169726  0.243695  1
  O  O50  1  0.549807  0.689878  0.985532  1
  O  O51  1  0.950193  0.689878  0.985532  1
  O  O52  1  0.750000  0.472393  0.121521  1
  O  O53  1  0.447011  0.034151  0.819860  1
  O  O54  1  0.049807  0.810122  0.485532  1
  O  O55  1  0.049807  0.310122  0.014468  1
  O  O56  1  0.750000  0.972393  0.378479  1
  O  O57  1  0.750000  0.716721  0.783264  1
  O  O58  1  0.450193  0.810122  0.485532  1
  O  O59  1  0.250000  0.527607  0.878479  1
  O  O60  1  0.447011  0.534151  0.680140  1
  O  O61  1  0.052989  0.534151  0.680140  1
  O  O62  1  0.750000  0.216721  0.716736  1
  O  O63  1  0.250000  0.830274  0.756305  1
  F  F64  1  0.750000  0.950269  0.616167  1
  F  F65  1  0.750000  0.628316  0.527632  1
  F  F66  1  0.250000  0.049731  0.383833  1
  F  F67  1  0.250000  0.549731  0.116167  1
  F  F68  1  0.750000  0.128316  0.972368  1
  F  F69  1  0.750000  0.450269  0.883833  1
  F  F70  1  0.250000  0.371684  0.472368  1
  F  F71  1  0.250000  0.871684  0.027632  1
