# generated using pymatgen
data_Bi5IO7
_symmetry_space_group_name_H-M   'P 1'
_cell_length_a   14.73707739
_cell_length_b   14.73707739
_cell_length_c   14.73707739
_cell_angle_alpha   158.52669014
_cell_angle_beta   111.24777531
_cell_angle_gamma   72.96294930
_symmetry_Int_Tables_number   1
_chemical_formula_structural   Bi5IO7
_chemical_formula_sum   'Bi20 I4 O28'
_cell_volume   1082.77164691
_cell_formula_units_Z   4
loop_
 _symmetry_equiv_pos_site_id
 _symmetry_equiv_pos_as_xyz
  1  'x, y, z'
loop_
 _atom_site_type_symbol
 _atom_site_label
 _atom_site_symmetry_multiplicity
 _atom_site_fract_x
 _atom_site_fract_y
 _atom_site_fract_z
 _atom_site_occupancy
  Bi  Bi0  1  0.117205  0.649941  0.886898  1
  Bi  Bi1  1  0.017335  0.897931  0.536423  1
  Bi  Bi2  1  0.617205  0.230307  0.967264  1
  Bi  Bi3  1  0.763043  0.730307  0.613102  1
  Bi  Bi4  1  0.736957  0.850059  0.467264  1
  Bi  Bi5  1  0.638492  0.019088  0.036423  1
  Bi  Bi6  1  0.382795  0.769693  0.032736  1
  Bi  Bi7  1  0.861508  0.397931  0.880596  1
  Bi  Bi8  1  0.952546  0.202546  0.250000  1
  Bi  Bi9  1  0.236957  0.269693  0.386898  1
  Bi  Bi10  1  0.882795  0.350059  0.113102  1
  Bi  Bi11  1  0.547454  0.297454  0.750000  1
  Bi  Bi12  1  0.517335  0.480912  0.619404  1
  Bi  Bi13  1  0.482665  0.519088  0.380596  1
  Bi  Bi14  1  0.982665  0.102069  0.463577  1
  Bi  Bi15  1  0.263043  0.149941  0.532736  1
  Bi  Bi16  1  0.452546  0.702546  0.250000  1
  Bi  Bi17  1  0.138492  0.602069  0.119404  1
  Bi  Bi18  1  0.361508  0.980912  0.963577  1
  Bi  Bi19  1  0.047454  0.797454  0.750000  1
  I  I20  1  0.656784  0.906784  0.250000  1
  I  I21  1  0.843216  0.593216  0.750000  1
  I  I22  1  0.156784  0.406784  0.250000  1
  I  I23  1  0.343216  0.093216  0.750000  1
  O  O24  1  0.076574  0.516001  0.600378  1
  O  O25  1  0.415623  0.016001  0.439428  1
  O  O26  1  0.709507  0.075218  0.984546  1
  O  O27  1  0.593910  0.632640  0.627064  1
  O  O28  1  0.790493  0.275038  0.865711  1
  O  O29  1  0.290493  0.924782  0.015454  1
  O  O30  1  0.576574  0.476195  0.060572  1
  O  O31  1  0.505576  0.132640  0.038730  1
  O  O32  1  0.409328  0.424782  0.634289  1
  O  O33  1  0.994424  0.533154  0.127064  1
  O  O34  1  0.250000  0.498648  0.748648  1
  O  O35  1  0.923426  0.483999  0.399622  1
  O  O36  1  0.209507  0.724962  0.134289  1
  O  O37  1  0.005576  0.466846  0.872936  1
  O  O38  1  0.906090  0.033154  0.538730  1
  O  O39  1  0.090672  0.224962  0.515454  1
  O  O40  1  0.250000  0.998648  0.248648  1
  O  O41  1  0.909328  0.775038  0.484546  1
  O  O42  1  0.423426  0.523805  0.939428  1
  O  O43  1  0.915623  0.976195  0.899622  1
  O  O44  1  0.406090  0.367360  0.372936  1
  O  O45  1  0.494424  0.867360  0.961270  1
  O  O46  1  0.750000  0.001352  0.751352  1
  O  O47  1  0.093910  0.966846  0.461270  1
  O  O48  1  0.750000  0.501352  0.251352  1
  O  O49  1  0.084377  0.023805  0.100378  1
  O  O50  1  0.590672  0.575218  0.365711  1
  O  O51  1  0.584377  0.983999  0.560572  1
