# generated using pymatgen
data_H3CS
_symmetry_space_group_name_H-M   'P 1'
_cell_length_a   5.36854078
_cell_length_b   15.29296660
_cell_length_c   7.00677340
_cell_angle_alpha   90.00000000
_cell_angle_beta   107.22783417
_cell_angle_gamma   90.00000000
_symmetry_Int_Tables_number   1
_chemical_formula_structural   H3CS
_chemical_formula_sum   'H24 C8 S8'
_cell_volume   549.45312051
_cell_formula_units_Z   8
loop_
 _symmetry_equiv_pos_site_id
 _symmetry_equiv_pos_as_xyz
  1  'x, y, z'
loop_
 _atom_site_type_symbol
 _atom_site_label
 _atom_site_symmetry_multiplicity
 _atom_site_fract_x
 _atom_site_fract_y
 _atom_site_fract_z
 _atom_site_occupancy
  H  H0  1  0.463982  0.281875  0.547076  1
  H  H1  1  0.327034  0.382506  0.431167  1
  H  H2  1  0.715716  0.647447  0.334088  1
  H  H3  1  0.463982  0.218125  0.047076  1
  H  H4  1  0.524034  0.108877  0.576938  1
  H  H5  1  0.207008  0.966585  0.347526  1
  H  H6  1  0.536018  0.781875  0.952924  1
  H  H7  1  0.524034  0.391123  0.076938  1
  H  H8  1  0.327034  0.117494  0.931167  1
  H  H9  1  0.792992  0.033415  0.652474  1
  H  H10  1  0.672966  0.882506  0.068833  1
  H  H11  1  0.792992  0.466585  0.152474  1
  H  H12  1  0.672966  0.617494  0.568833  1
  H  H13  1  0.207008  0.533415  0.847526  1
  H  H14  1  0.475966  0.891123  0.423062  1
  H  H15  1  0.536018  0.718125  0.452924  1
  H  H16  1  0.186337  0.638674  0.730901  1
  H  H17  1  0.186337  0.861326  0.230901  1
  H  H18  1  0.813663  0.361326  0.269099  1
  H  H19  1  0.284284  0.352553  0.665912  1
  H  H20  1  0.475966  0.608877  0.923062  1
  H  H21  1  0.284284  0.147447  0.165912  1
  H  H22  1  0.813663  0.138674  0.769099  1
  H  H23  1  0.715716  0.852553  0.834088  1
  C  C24  1  0.581497  0.650312  0.425420  1
  C  C25  1  0.262808  0.897627  0.371785  1
  C  C26  1  0.581497  0.849688  0.925420  1
  C  C27  1  0.737192  0.102373  0.628215  1
  C  C28  1  0.418503  0.349688  0.574580  1
  C  C29  1  0.262808  0.602373  0.871785  1
  C  C30  1  0.737192  0.397627  0.128215  1
  C  C31  1  0.418503  0.150312  0.074580  1
  S  S32  1  0.284567  0.910883  0.811352  1
  S  S33  1  0.116642  0.652394  0.048313  1
  S  S34  1  0.715433  0.410883  0.688648  1
  S  S35  1  0.883358  0.347606  0.951687  1
  S  S36  1  0.883358  0.152394  0.451687  1
  S  S37  1  0.116642  0.847606  0.548313  1
  S  S38  1  0.284567  0.589117  0.311352  1
  S  S39  1  0.715433  0.089117  0.188648  1
