# generated using pymatgen
data_Al2P3H9(CO3)3
_symmetry_space_group_name_H-M   'P 1'
_cell_length_a   14.28306683
_cell_length_b   14.28306683
_cell_length_c   8.70717338
_cell_angle_alpha   90.00000000
_cell_angle_beta   90.00000000
_cell_angle_gamma   120.00000000
_symmetry_Int_Tables_number   1
_chemical_formula_structural   Al2P3H9(CO3)3
_chemical_formula_sum   'Al8 P12 H36 C12 O36'
_cell_volume   1538.33443181
_cell_formula_units_Z   4
loop_
 _symmetry_equiv_pos_site_id
 _symmetry_equiv_pos_as_xyz
  1  'x, y, z'
loop_
 _atom_site_type_symbol
 _atom_site_label
 _atom_site_symmetry_multiplicity
 _atom_site_fract_x
 _atom_site_fract_y
 _atom_site_fract_z
 _atom_site_occupancy
  Al  Al0  1  0.333333  0.666667  0.990889  1
  Al  Al1  1  0.902959  0.396759  0.058546  1
  Al  Al2  1  0.097041  0.493799  0.558546  1
  Al  Al3  1  0.666667  0.333333  0.490889  1
  Al  Al4  1  0.603241  0.506201  0.058546  1
  Al  Al5  1  0.396759  0.902959  0.558546  1
  Al  Al6  1  0.506201  0.603241  0.558546  1
  Al  Al7  1  0.493799  0.097041  0.058546  1
  P  P8  1  0.348631  0.865333  0.200333  1
  P  P9  1  0.865333  0.348631  0.700333  1
  P  P10  1  0.810686  0.529205  0.232081  1
  P  P11  1  0.718518  0.189314  0.232081  1
  P  P12  1  0.189314  0.718518  0.732081  1
  P  P13  1  0.134667  0.483298  0.200333  1
  P  P14  1  0.470795  0.281482  0.232081  1
  P  P15  1  0.529205  0.810686  0.732081  1
  P  P16  1  0.483298  0.134667  0.700333  1
  P  P17  1  0.516702  0.651369  0.200333  1
  P  P18  1  0.281482  0.470795  0.732081  1
  P  P19  1  0.651369  0.516702  0.700333  1
  H  H20  1  0.960763  0.665271  0.373526  1
  H  H21  1  0.937820  0.718908  0.201285  1
  H  H22  1  0.619764  0.835596  0.119584  1
  H  H23  1  0.281092  0.218911  0.201285  1
  H  H24  1  0.164404  0.784168  0.119584  1
  H  H25  1  0.176438  0.733017  0.300401  1
  H  H26  1  0.841583  0.148533  0.363785  1
  H  H27  1  0.218911  0.281092  0.701285  1
  H  H28  1  0.188893  0.864395  0.289479  1
  H  H29  1  0.733017  0.176438  0.800401  1
  H  H30  1  0.334729  0.295492  0.373526  1
  H  H31  1  0.158417  0.306950  0.863785  1
  H  H32  1  0.718908  0.937820  0.701285  1
  H  H33  1  0.556578  0.823562  0.300401  1
  H  H34  1  0.135605  0.324498  0.289479  1
  H  H35  1  0.693050  0.851467  0.863785  1
  H  H36  1  0.324498  0.135605  0.789479  1
  H  H37  1  0.835596  0.619764  0.619584  1
  H  H38  1  0.864395  0.188893  0.789479  1
  H  H39  1  0.704508  0.039237  0.373526  1
  H  H40  1  0.781089  0.062180  0.201285  1
  H  H41  1  0.675502  0.811107  0.289479  1
  H  H42  1  0.215832  0.380236  0.119584  1
  H  H43  1  0.823562  0.556578  0.800401  1
  H  H44  1  0.148533  0.841583  0.863785  1
  H  H45  1  0.811107  0.675502  0.789479  1
  H  H46  1  0.784168  0.164404  0.619584  1
  H  H47  1  0.295492  0.334729  0.873526  1
  H  H48  1  0.039237  0.704508  0.873526  1
  H  H49  1  0.851467  0.693050  0.363785  1
  H  H50  1  0.266983  0.443422  0.300401  1
  H  H51  1  0.306950  0.158417  0.363785  1
  H  H52  1  0.443422  0.266983  0.800401  1
  H  H53  1  0.062180  0.781089  0.701285  1
  H  H54  1  0.665271  0.960763  0.873526  1
  H  H55  1  0.380236  0.215832  0.619584  1
  C  C56  1  0.600631  0.794249  0.230844  1
  C  C57  1  0.399369  0.193618  0.730844  1
  C  C58  1  0.233752  0.335221  0.799040  1
  C  C59  1  0.898531  0.664779  0.299040  1
  C  C60  1  0.101469  0.766248  0.799040  1
  C  C61  1  0.664779  0.898531  0.799040  1
  C  C62  1  0.806382  0.205751  0.730844  1
  C  C63  1  0.205751  0.806382  0.230844  1
  C  C64  1  0.766248  0.101469  0.299040  1
  C  C65  1  0.335221  0.233752  0.299040  1
  C  C66  1  0.794249  0.600631  0.730844  1
  C  C67  1  0.193618  0.399369  0.230844  1
  O  O68  1  0.586247  0.210323  0.616562  1
  O  O69  1  0.587526  0.616302  0.108868  1
  O  O70  1  0.704869  0.247539  0.366622  1
  O  O71  1  0.542670  0.295131  0.366622  1
  O  O72  1  0.247539  0.704869  0.866622  1
  O  O73  1  0.413753  0.624076  0.116562  1
  O  O74  1  0.535164  0.733168  0.612976  1
  O  O75  1  0.896102  0.405974  0.858955  1
  O  O76  1  0.387579  0.502141  0.644350  1
  O  O77  1  0.210323  0.586247  0.116562  1
  O  O78  1  0.405974  0.896102  0.358955  1
  O  O79  1  0.971224  0.383698  0.608868  1
  O  O80  1  0.624076  0.413753  0.616562  1
  O  O81  1  0.295131  0.542670  0.866622  1
  O  O82  1  0.594026  0.490128  0.858955  1
  O  O83  1  0.375924  0.789677  0.116562  1
  O  O84  1  0.490128  0.594026  0.358955  1
  O  O85  1  0.198004  0.464836  0.612976  1
  O  O86  1  0.612421  0.114561  0.144350  1
  O  O87  1  0.028776  0.412474  0.108868  1
  O  O88  1  0.502141  0.387579  0.144350  1
  O  O89  1  0.464836  0.198004  0.112976  1
  O  O90  1  0.114561  0.612421  0.644350  1
  O  O91  1  0.789677  0.375924  0.616562  1
  O  O92  1  0.616302  0.587526  0.608868  1
  O  O93  1  0.752461  0.457330  0.366622  1
  O  O94  1  0.383698  0.971224  0.108868  1
  O  O95  1  0.801996  0.266832  0.112976  1
  O  O96  1  0.103898  0.509872  0.358955  1
  O  O97  1  0.412474  0.028776  0.608868  1
  O  O98  1  0.509872  0.103898  0.858955  1
  O  O99  1  0.497859  0.885439  0.644350  1
  O  O100  1  0.733168  0.535164  0.112976  1
  O  O101  1  0.457330  0.752461  0.866622  1
  O  O102  1  0.266832  0.801996  0.612976  1
  O  O103  1  0.885439  0.497859  0.144350  1
