# generated using pymatgen
data_CsAuSe3
_symmetry_space_group_name_H-M   'P 1'
_cell_length_a   7.79002206
_cell_length_b   7.79002206
_cell_length_c   7.79786296
_cell_angle_alpha   80.84174362
_cell_angle_beta   99.15825638
_cell_angle_gamma   50.99070178
_symmetry_Int_Tables_number   1
_chemical_formula_structural   CsAuSe3
_chemical_formula_sum   'Cs2 Au2 Se6'
_cell_volume   341.64282351
_cell_formula_units_Z   2
loop_
 _symmetry_equiv_pos_site_id
 _symmetry_equiv_pos_as_xyz
  1  'x, y, z'
loop_
 _atom_site_type_symbol
 _atom_site_label
 _atom_site_symmetry_multiplicity
 _atom_site_fract_x
 _atom_site_fract_y
 _atom_site_fract_z
 _atom_site_occupancy
  Cs  Cs0  1  0.146992  0.146992  0.750000  1
  Cs  Cs1  1  0.853008  0.853008  0.250000  1
  Au  Au2  1  0.576701  0.576701  0.250000  1
  Au  Au3  1  0.423299  0.423299  0.750000  1
  Se  Se4  1  0.194400  0.627586  0.942289  1
  Se  Se5  1  0.372414  0.805600  0.442289  1
  Se  Se6  1  0.805600  0.372414  0.057711  1
  Se  Se7  1  0.627586  0.194400  0.557711  1
  Se  Se8  1  0.807123  0.807123  0.750000  1
  Se  Se9  1  0.192877  0.192877  0.250000  1
