# generated using pymatgen
data_RbB5O8
_symmetry_space_group_name_H-M   'P 1'
_cell_length_a   7.82908170
_cell_length_b   12.07429108
_cell_length_c   14.99579392
_cell_angle_alpha   90.00000000
_cell_angle_beta   90.00000000
_cell_angle_gamma   90.00000000
_symmetry_Int_Tables_number   1
_chemical_formula_structural   RbB5O8
_chemical_formula_sum   'Rb8 B40 O64'
_cell_volume   1417.56156671
_cell_formula_units_Z   8
loop_
 _symmetry_equiv_pos_site_id
 _symmetry_equiv_pos_as_xyz
  1  'x, y, z'
loop_
 _atom_site_type_symbol
 _atom_site_label
 _atom_site_symmetry_multiplicity
 _atom_site_fract_x
 _atom_site_fract_y
 _atom_site_fract_z
 _atom_site_occupancy
  Rb  Rb0  1  0.432564  0.708038  0.121117  1
  Rb  Rb1  1  0.067436  0.291962  0.621117  1
  Rb  Rb2  1  0.432564  0.791962  0.621117  1
  Rb  Rb3  1  0.067436  0.208038  0.121117  1
  Rb  Rb4  1  0.932564  0.791962  0.878883  1
  Rb  Rb5  1  0.567436  0.208038  0.378883  1
  Rb  Rb6  1  0.932564  0.708038  0.378883  1
  Rb  Rb7  1  0.567436  0.291962  0.878883  1
  B  B8  1  0.692940  0.427027  0.545115  1
  B  B9  1  0.014949  0.971344  0.656506  1
  B  B10  1  0.514949  0.528656  0.343494  1
  B  B11  1  0.807060  0.572973  0.045115  1
  B  B12  1  0.014949  0.528656  0.156506  1
  B  B13  1  0.902222  0.403698  0.419668  1
  B  B14  1  0.452132  0.727422  0.373941  1
  B  B15  1  0.985051  0.471344  0.843494  1
  B  B16  1  0.597778  0.903698  0.419668  1
  B  B17  1  0.485051  0.471344  0.656506  1
  B  B18  1  0.597778  0.596302  0.919668  1
  B  B19  1  0.047868  0.227422  0.373941  1
  B  B20  1  0.952132  0.727422  0.126059  1
  B  B21  1  0.069743  0.098888  0.787046  1
  B  B22  1  0.192940  0.072973  0.454885  1
  B  B23  1  0.569743  0.098888  0.712954  1
  B  B24  1  0.807060  0.927027  0.545115  1
  B  B25  1  0.569743  0.401112  0.212954  1
  B  B26  1  0.985051  0.028656  0.343494  1
  B  B27  1  0.402222  0.403698  0.080332  1
  B  B28  1  0.930257  0.901112  0.212954  1
  B  B29  1  0.485051  0.028656  0.156506  1
  B  B30  1  0.547868  0.227422  0.126059  1
  B  B31  1  0.692940  0.072973  0.045115  1
  B  B32  1  0.192940  0.427027  0.954885  1
  B  B33  1  0.547868  0.272578  0.626059  1
  B  B34  1  0.930257  0.598888  0.712954  1
  B  B35  1  0.430257  0.598888  0.787046  1
  B  B36  1  0.069743  0.401112  0.287046  1
  B  B37  1  0.952132  0.772578  0.626059  1
  B  B38  1  0.047868  0.272578  0.873941  1
  B  B39  1  0.307060  0.572973  0.454885  1
  B  B40  1  0.902222  0.096302  0.919668  1
  B  B41  1  0.097778  0.596302  0.580332  1
  B  B42  1  0.430257  0.901112  0.287046  1
  B  B43  1  0.307060  0.927027  0.954885  1
  B  B44  1  0.097778  0.903698  0.080332  1
  B  B45  1  0.514949  0.971344  0.843494  1
  B  B46  1  0.402222  0.096302  0.580332  1
  B  B47  1  0.452132  0.772578  0.873941  1
  O  O48  1  0.680047  0.318000  0.566058  1
  O  O49  1  0.319953  0.682000  0.433942  1
  O  O50  1  0.022813  0.962688  0.150234  1
  O  O51  1  0.903048  0.944918  0.296377  1
  O  O52  1  0.600717  0.507096  0.591571  1
  O  O53  1  0.977187  0.462688  0.349766  1
  O  O54  1  0.374089  0.796803  0.303991  1
  O  O55  1  0.573045  0.793220  0.428978  1
  O  O56  1  0.403048  0.944918  0.203623  1
  O  O57  1  0.874089  0.703197  0.696009  1
  O  O58  1  0.522813  0.962688  0.349766  1
  O  O59  1  0.426955  0.293220  0.071022  1
  O  O60  1  0.680047  0.182000  0.066058  1
  O  O61  1  0.625911  0.203197  0.696009  1
  O  O62  1  0.399283  0.007096  0.908429  1
  O  O63  1  0.096952  0.055082  0.703623  1
  O  O64  1  0.477187  0.037312  0.650234  1
  O  O65  1  0.800602  0.035011  0.977674  1
  O  O66  1  0.073045  0.706780  0.571022  1
  O  O67  1  0.951487  0.363012  0.828627  1
  O  O68  1  0.625911  0.296803  0.196009  1
  O  O69  1  0.180047  0.318000  0.933942  1
  O  O70  1  0.300603  0.035011  0.522326  1
  O  O71  1  0.596952  0.055082  0.796377  1
  O  O72  1  0.800602  0.464989  0.477674  1
  O  O73  1  0.125911  0.203197  0.803991  1
  O  O74  1  0.022813  0.537312  0.650234  1
  O  O75  1  0.522813  0.537312  0.849766  1
  O  O76  1  0.874089  0.796803  0.196009  1
  O  O77  1  0.073045  0.793220  0.071022  1
  O  O78  1  0.926955  0.293220  0.428978  1
  O  O79  1  0.048513  0.863012  0.671373  1
  O  O80  1  0.374089  0.703197  0.803991  1
  O  O81  1  0.548513  0.863012  0.828627  1
  O  O82  1  0.699398  0.964989  0.477674  1
  O  O83  1  0.399283  0.492904  0.408429  1
  O  O84  1  0.926955  0.206780  0.928978  1
  O  O85  1  0.548513  0.636988  0.328627  1
  O  O86  1  0.600717  0.992904  0.091571  1
  O  O87  1  0.573045  0.706780  0.928978  1
  O  O88  1  0.319953  0.818000  0.933942  1
  O  O89  1  0.100717  0.992904  0.408429  1
  O  O90  1  0.125911  0.296803  0.303991  1
  O  O91  1  0.199398  0.964989  0.022326  1
  O  O92  1  0.819953  0.818000  0.566058  1
  O  O93  1  0.477187  0.462688  0.150234  1
  O  O94  1  0.300603  0.464989  0.022326  1
  O  O95  1  0.048513  0.636988  0.171373  1
  O  O96  1  0.977187  0.037312  0.849766  1
  O  O97  1  0.903048  0.555082  0.796377  1
  O  O98  1  0.819953  0.682000  0.066058  1
  O  O99  1  0.951487  0.136988  0.328627  1
  O  O100  1  0.699398  0.535011  0.977674  1
  O  O101  1  0.403048  0.555082  0.703623  1
  O  O102  1  0.100717  0.507096  0.908429  1
  O  O103  1  0.596952  0.444918  0.296377  1
  O  O104  1  0.180047  0.182000  0.433942  1
  O  O105  1  0.426955  0.206780  0.571022  1
  O  O106  1  0.451487  0.136988  0.171373  1
  O  O107  1  0.899283  0.492904  0.091571  1
  O  O108  1  0.899283  0.007096  0.591571  1
  O  O109  1  0.096952  0.444918  0.203623  1
  O  O110  1  0.451487  0.363012  0.671373  1
  O  O111  1  0.199398  0.535011  0.522326  1
