# generated using pymatgen
data_BaLi2Ti6O14
_symmetry_space_group_name_H-M   'P 1'
_cell_length_a   10.13311281
_cell_length_b   10.13311281
_cell_length_c   11.67974277
_cell_angle_alpha   90.00000000
_cell_angle_beta   90.00000000
_cell_angle_gamma   111.47901199
_symmetry_Int_Tables_number   1
_chemical_formula_structural   BaLi2Ti6O14
_chemical_formula_sum   'Ba4 Li8 Ti24 O56'
_cell_volume   1115.98811098
_cell_formula_units_Z   4
loop_
 _symmetry_equiv_pos_site_id
 _symmetry_equiv_pos_as_xyz
  1  'x, y, z'
loop_
 _atom_site_type_symbol
 _atom_site_label
 _atom_site_symmetry_multiplicity
 _atom_site_fract_x
 _atom_site_fract_y
 _atom_site_fract_z
 _atom_site_occupancy
  Ba  Ba0  1  0.854948  0.854948  0.379323  1
  Ba  Ba1  1  0.354948  0.354948  0.120677  1
  Ba  Ba2  1  0.645052  0.645052  0.879323  1
  Ba  Ba3  1  0.145052  0.145052  0.620677  1
  Li  Li4  1  0.055647  0.434454  0.121080  1
  Li  Li5  1  0.555647  0.934454  0.378920  1
  Li  Li6  1  0.065546  0.444353  0.621080  1
  Li  Li7  1  0.934454  0.555647  0.378920  1
  Li  Li8  1  0.565546  0.944353  0.878920  1
  Li  Li9  1  0.944353  0.565546  0.878920  1
  Li  Li10  1  0.444353  0.065546  0.621080  1
  Li  Li11  1  0.434454  0.055647  0.121080  1
  Ti  Ti12  1  0.737479  0.262521  0.000000  1
  Ti  Ti13  1  0.240524  0.019345  0.356965  1
  Ti  Ti14  1  0.743490  0.243490  0.250000  1
  Ti  Ti15  1  0.759476  0.980655  0.643035  1
  Ti  Ti16  1  0.506329  0.724502  0.613614  1
  Ti  Ti17  1  0.256510  0.756510  0.750000  1
  Ti  Ti18  1  0.480655  0.259476  0.856965  1
  Ti  Ti19  1  0.756510  0.256510  0.750000  1
  Ti  Ti20  1  0.519345  0.740524  0.143035  1
  Ti  Ti21  1  0.775498  0.993671  0.113614  1
  Ti  Ti22  1  0.762521  0.237479  0.500000  1
  Ti  Ti23  1  0.259476  0.480655  0.856965  1
  Ti  Ti24  1  0.993671  0.775498  0.113614  1
  Ti  Ti25  1  0.275498  0.493671  0.386386  1
  Ti  Ti26  1  0.493671  0.275498  0.386386  1
  Ti  Ti27  1  0.980655  0.759476  0.643035  1
  Ti  Ti28  1  0.224502  0.006329  0.886386  1
  Ti  Ti29  1  0.237479  0.762521  0.500000  1
  Ti  Ti30  1  0.019345  0.240524  0.356965  1
  Ti  Ti31  1  0.724502  0.506329  0.613614  1
  Ti  Ti32  1  0.006329  0.224502  0.886386  1
  Ti  Ti33  1  0.243490  0.743490  0.250000  1
  Ti  Ti34  1  0.740524  0.519345  0.143035  1
  Ti  Ti35  1  0.262521  0.737479  0.000000  1
  O  O36  1  0.878833  0.347182  0.372190  1
  O  O37  1  0.596145  0.596145  0.126566  1
  O  O38  1  0.367173  0.632827  0.500000  1
  O  O39  1  0.621167  0.152818  0.872190  1
  O  O40  1  0.858762  0.631613  0.740162  1
  O  O41  1  0.137018  0.363797  0.979994  1
  O  O42  1  0.369609  0.633925  0.748719  1
  O  O43  1  0.124366  0.647618  0.121973  1
  O  O44  1  0.595787  0.595787  0.630025  1
  O  O45  1  0.852382  0.375634  0.621973  1
  O  O46  1  0.904213  0.904213  0.130025  1
  O  O47  1  0.362982  0.136203  0.479994  1
  O  O48  1  0.869609  0.133925  0.751281  1
  O  O49  1  0.130391  0.866075  0.248719  1
  O  O50  1  0.366075  0.630391  0.251281  1
  O  O51  1  0.632827  0.367173  0.500000  1
  O  O52  1  0.368387  0.141238  0.259838  1
  O  O53  1  0.868387  0.641238  0.240162  1
  O  O54  1  0.636203  0.862982  0.020006  1
  O  O55  1  0.127801  0.872199  0.500000  1
  O  O56  1  0.647618  0.124366  0.121973  1
  O  O57  1  0.372199  0.627801  0.000000  1
  O  O58  1  0.121167  0.652818  0.627810  1
  O  O59  1  0.152818  0.621167  0.872190  1
  O  O60  1  0.131613  0.358762  0.759838  1
  O  O61  1  0.637018  0.863797  0.520006  1
  O  O62  1  0.378833  0.847182  0.127810  1
  O  O63  1  0.862982  0.636203  0.020006  1
  O  O64  1  0.847182  0.378833  0.127810  1
  O  O65  1  0.133925  0.869609  0.751281  1
  O  O66  1  0.132827  0.867173  0.000000  1
  O  O67  1  0.404213  0.404213  0.369975  1
  O  O68  1  0.095787  0.095787  0.869975  1
  O  O69  1  0.363797  0.137018  0.979994  1
  O  O70  1  0.352382  0.875634  0.878027  1
  O  O71  1  0.624366  0.147618  0.378027  1
  O  O72  1  0.631613  0.858762  0.740162  1
  O  O73  1  0.633925  0.369609  0.748719  1
  O  O74  1  0.652818  0.121167  0.627810  1
  O  O75  1  0.875634  0.352382  0.878027  1
  O  O76  1  0.872199  0.127801  0.500000  1
  O  O77  1  0.627801  0.372199  0.000000  1
  O  O78  1  0.136203  0.362982  0.479994  1
  O  O79  1  0.375634  0.852382  0.621973  1
  O  O80  1  0.641238  0.868387  0.240162  1
  O  O81  1  0.403855  0.403855  0.873434  1
  O  O82  1  0.096145  0.096145  0.373434  1
  O  O83  1  0.867173  0.132827  0.000000  1
  O  O84  1  0.630391  0.366075  0.251281  1
  O  O85  1  0.903855  0.903855  0.626566  1
  O  O86  1  0.141238  0.368387  0.259838  1
  O  O87  1  0.866075  0.130391  0.248719  1
  O  O88  1  0.347182  0.878833  0.372190  1
  O  O89  1  0.863797  0.637018  0.520006  1
  O  O90  1  0.358762  0.131613  0.759838  1
  O  O91  1  0.147618  0.624366  0.378027  1
