# generated using pymatgen
data_GeBr2
_symmetry_space_group_name_H-M   'P 1'
_cell_length_a   7.10120242
_cell_length_b   9.20751912
_cell_length_c   13.23040152
_cell_angle_alpha   90.00000000
_cell_angle_beta   101.44219662
_cell_angle_gamma   90.00000000
_symmetry_Int_Tables_number   1
_chemical_formula_structural   GeBr2
_chemical_formula_sum   'Ge8 Br16'
_cell_volume   847.86979448
_cell_formula_units_Z   8
loop_
 _symmetry_equiv_pos_site_id
 _symmetry_equiv_pos_as_xyz
  1  'x, y, z'
loop_
 _atom_site_type_symbol
 _atom_site_label
 _atom_site_symmetry_multiplicity
 _atom_site_fract_x
 _atom_site_fract_y
 _atom_site_fract_z
 _atom_site_occupancy
  Ge  Ge0  1  0.278501  0.872188  0.004209  1
  Ge  Ge1  1  0.221499  0.372188  0.995791  1
  Ge  Ge2  1  0.721499  0.127812  0.995791  1
  Ge  Ge3  1  0.778501  0.627812  0.004209  1
  Ge  Ge4  1  0.213294  0.659820  0.455339  1
  Ge  Ge5  1  0.286706  0.159820  0.544661  1
  Ge  Ge6  1  0.786706  0.340180  0.544661  1
  Ge  Ge7  1  0.713294  0.840180  0.455339  1
  Br  Br8  1  0.285998  0.869836  0.348134  1
  Br  Br9  1  0.214002  0.369836  0.651866  1
  Br  Br10  1  0.714002  0.130164  0.651866  1
  Br  Br11  1  0.785998  0.630164  0.348134  1
  Br  Br12  1  0.402977  0.664224  0.897486  1
  Br  Br13  1  0.097023  0.164224  0.102514  1
  Br  Br14  1  0.597023  0.335776  0.102514  1
  Br  Br15  1  0.902977  0.835776  0.897486  1
  Br  Br16  1  0.165915  0.562107  0.126132  1
  Br  Br17  1  0.334085  0.062107  0.873868  1
  Br  Br18  1  0.834085  0.437893  0.873868  1
  Br  Br19  1  0.665915  0.937893  0.126132  1
  Br  Br20  1  0.060582  0.806476  0.584910  1
  Br  Br21  1  0.439418  0.306476  0.415090  1
  Br  Br22  1  0.939418  0.193524  0.415090  1
  Br  Br23  1  0.560582  0.693524  0.584910  1
