# generated using pymatgen
data_KDy(PO3)4
_symmetry_space_group_name_H-M   'P 1'
_cell_length_a   10.42920157
_cell_length_b   8.98774963
_cell_length_c   12.81675576
_cell_angle_alpha   90.00000000
_cell_angle_beta   124.87552366
_cell_angle_gamma   90.00000000
_symmetry_Int_Tables_number   1
_chemical_formula_structural   KDy(PO3)4
_chemical_formula_sum   'K4 Dy4 P16 O48'
_cell_volume   985.60701264
_cell_formula_units_Z   4
loop_
 _symmetry_equiv_pos_site_id
 _symmetry_equiv_pos_as_xyz
  1  'x, y, z'
loop_
 _atom_site_type_symbol
 _atom_site_label
 _atom_site_symmetry_multiplicity
 _atom_site_fract_x
 _atom_site_fract_y
 _atom_site_fract_z
 _atom_site_occupancy
  K  K0  1  0.744184  0.567917  0.039805  1
  K  K1  1  0.255816  0.067917  0.460195  1
  K  K2  1  0.255816  0.432083  0.960195  1
  K  K3  1  0.744184  0.932083  0.539805  1
  Dy  Dy4  1  0.814576  0.226124  0.815157  1
  Dy  Dy5  1  0.185424  0.726124  0.684843  1
  Dy  Dy6  1  0.185424  0.773876  0.184843  1
  Dy  Dy7  1  0.814576  0.273876  0.315157  1
  P  P8  1  0.522894  0.974548  0.774371  1
  P  P9  1  0.477106  0.474548  0.725629  1
  P  P10  1  0.477106  0.025452  0.225629  1
  P  P11  1  0.522894  0.525452  0.274371  1
  P  P12  1  0.699055  0.109669  0.021845  1
  P  P13  1  0.300945  0.609669  0.478155  1
  P  P14  1  0.300945  0.890331  0.978155  1
  P  P15  1  0.699055  0.390331  0.521845  1
  P  P16  1  0.890812  0.908967  0.242753  1
  P  P17  1  0.109188  0.408967  0.257247  1
  P  P18  1  0.109188  0.091033  0.757247  1
  P  P19  1  0.890812  0.591033  0.742753  1
  P  P20  1  0.823179  0.671154  0.363435  1
  P  P21  1  0.176821  0.171154  0.136565  1
  P  P22  1  0.176821  0.328846  0.636565  1
  P  P23  1  0.823179  0.828846  0.863435  1
  O  O24  1  0.636675  0.406596  0.806494  1
  O  O25  1  0.363325  0.906596  0.693506  1
  O  O26  1  0.363325  0.593404  0.193506  1
  O  O27  1  0.636675  0.093404  0.306494  1
  O  O28  1  0.567325  0.085056  0.711797  1
  O  O29  1  0.432675  0.585056  0.788203  1
  O  O30  1  0.432675  0.914944  0.288203  1
  O  O31  1  0.567325  0.414944  0.211797  1
  O  O32  1  0.537971  0.047027  0.897272  1
  O  O33  1  0.462029  0.547027  0.602728  1
  O  O34  1  0.462029  0.952973  0.102728  1
  O  O35  1  0.537971  0.452973  0.397272  1
  O  O36  1  0.652038  0.841771  0.837829  1
  O  O37  1  0.347962  0.341771  0.662171  1
  O  O38  1  0.347962  0.158229  0.162171  1
  O  O39  1  0.652038  0.658229  0.337829  1
  O  O40  1  0.798923  0.165456  0.980808  1
  O  O41  1  0.201077  0.665456  0.519192  1
  O  O42  1  0.201077  0.834544  0.019192  1
  O  O43  1  0.798923  0.334544  0.480808  1
  O  O44  1  0.663704  0.211980  0.094948  1
  O  O45  1  0.336296  0.711980  0.405052  1
  O  O46  1  0.336296  0.788020  0.905052  1
  O  O47  1  0.663704  0.288020  0.594948  1
  O  O48  1  0.768011  0.952692  0.096088  1
  O  O49  1  0.231989  0.452692  0.403912  1
  O  O50  1  0.231989  0.047308  0.903912  1
  O  O51  1  0.768011  0.547308  0.596088  1
  O  O52  1  0.975515  0.324935  0.241805  1
  O  O53  1  0.024485  0.824935  0.258195  1
  O  O54  1  0.024485  0.675065  0.758195  1
  O  O55  1  0.975515  0.175065  0.741805  1
  O  O56  1  0.927126  0.041757  0.326543  1
  O  O57  1  0.072874  0.541757  0.173457  1
  O  O58  1  0.072874  0.958243  0.673457  1
  O  O59  1  0.927126  0.458243  0.826543  1
  O  O60  1  0.780234  0.792292  0.253931  1
  O  O61  1  0.219766  0.292292  0.246069  1
  O  O62  1  0.219766  0.207708  0.746069  1
  O  O63  1  0.780234  0.707708  0.753931  1
  O  O64  1  0.927785  0.739542  0.492562  1
  O  O65  1  0.072215  0.239542  0.007438  1
  O  O66  1  0.072215  0.260458  0.507438  1
  O  O67  1  0.927785  0.760458  0.992562  1
  O  O68  1  0.865201  0.529138  0.328370  1
  O  O69  1  0.134799  0.029138  0.171630  1
  O  O70  1  0.134799  0.470862  0.671630  1
  O  O71  1  0.865201  0.970862  0.828370  1
