# generated using pymatgen
data_Ca3TeO6
_symmetry_space_group_name_H-M   'P 1'
_cell_length_a   5.62992189
_cell_length_b   5.86955343
_cell_length_c   9.86803550
_cell_angle_alpha   90.00000000
_cell_angle_beta   124.54097846
_cell_angle_gamma   90.00000000
_symmetry_Int_Tables_number   1
_chemical_formula_structural   Ca3TeO6
_chemical_formula_sum   'Ca6 Te2 O12'
_cell_volume   268.60754500
_cell_formula_units_Z   2
loop_
 _symmetry_equiv_pos_site_id
 _symmetry_equiv_pos_as_xyz
  1  'x, y, z'
loop_
 _atom_site_type_symbol
 _atom_site_label
 _atom_site_symmetry_multiplicity
 _atom_site_fract_x
 _atom_site_fract_y
 _atom_site_fract_z
 _atom_site_occupancy
  Ca  Ca0  1  0.728219  0.553223  0.744205  1
  Ca  Ca1  1  0.271781  0.053223  0.755795  1
  Ca  Ca2  1  0.271781  0.446777  0.255795  1
  Ca  Ca3  1  0.728219  0.946777  0.244205  1
  Ca  Ca4  1  0.500000  0.500000  0.000000  1
  Ca  Ca5  1  0.500000  0.000000  0.500000  1
  Te  Te6  1  0.000000  0.500000  0.500000  1
  Te  Te7  1  0.000000  0.000000  0.000000  1
  O  O8  1  0.757136  0.225931  0.428135  1
  O  O9  1  0.242864  0.725931  0.071865  1
  O  O10  1  0.242864  0.774069  0.571865  1
  O  O11  1  0.757136  0.274069  0.928135  1
  O  O12  1  0.331567  0.320668  0.549666  1
  O  O13  1  0.668433  0.820668  0.950334  1
  O  O14  1  0.668433  0.679332  0.450334  1
  O  O15  1  0.331567  0.179332  0.049666  1
  O  O16  1  0.109896  0.056796  0.224542  1
  O  O17  1  0.890104  0.556796  0.275458  1
  O  O18  1  0.890104  0.943204  0.775458  1
  O  O19  1  0.109896  0.443204  0.724542  1
