# generated using pymatgen
data_PrS2
_symmetry_space_group_name_H-M   'P 1'
_cell_length_a   8.12174766
_cell_length_b   4.08582361
_cell_length_c   8.19180662
_cell_angle_alpha   90.00000000
_cell_angle_beta   90.09765201
_cell_angle_gamma   90.00000000
_symmetry_Int_Tables_number   1
_chemical_formula_structural   PrS2
_chemical_formula_sum   'Pr4 S8'
_cell_volume   271.83674823
_cell_formula_units_Z   4
loop_
 _symmetry_equiv_pos_site_id
 _symmetry_equiv_pos_as_xyz
  1  'x, y, z'
loop_
 _atom_site_type_symbol
 _atom_site_label
 _atom_site_symmetry_multiplicity
 _atom_site_fract_x
 _atom_site_fract_y
 _atom_site_fract_z
 _atom_site_occupancy
  Pr  Pr0  1  0.370401  0.788272  0.723882  1
  Pr  Pr1  1  0.870401  0.711728  0.723882  1
  Pr  Pr2  1  0.629599  0.211728  0.276118  1
  Pr  Pr3  1  0.129599  0.288272  0.276118  1
  S  S4  1  0.125499  0.261692  0.633845  1
  S  S5  1  0.893017  0.155127  0.997535  1
  S  S6  1  0.374501  0.761692  0.366155  1
  S  S7  1  0.874501  0.738308  0.366155  1
  S  S8  1  0.625499  0.238308  0.633845  1
  S  S9  1  0.606983  0.655127  0.002465  1
  S  S10  1  0.393017  0.344873  0.997535  1
  S  S11  1  0.106983  0.844873  0.002465  1
