# generated using pymatgen
data_CaSeO3
_symmetry_space_group_name_H-M   'P 1'
_cell_length_a   6.53335865
_cell_length_b   6.85965805
_cell_length_c   8.27824459
_cell_angle_alpha   90.00000000
_cell_angle_beta   126.95862183
_cell_angle_gamma   90.00000000
_symmetry_Int_Tables_number   1
_chemical_formula_structural   CaSeO3
_chemical_formula_sum   'Ca4 Se4 O12'
_cell_volume   296.45720135
_cell_formula_units_Z   4
loop_
 _symmetry_equiv_pos_site_id
 _symmetry_equiv_pos_as_xyz
  1  'x, y, z'
loop_
 _atom_site_type_symbol
 _atom_site_label
 _atom_site_symmetry_multiplicity
 _atom_site_fract_x
 _atom_site_fract_y
 _atom_site_fract_z
 _atom_site_occupancy
  Ca  Ca0  1  0.149480  0.125862  0.876487  1
  Ca  Ca1  1  0.149480  0.374138  0.376487  1
  Ca  Ca2  1  0.850520  0.625862  0.623513  1
  Ca  Ca3  1  0.850520  0.874138  0.123513  1
  Se  Se4  1  0.352231  0.661474  0.095298  1
  Se  Se5  1  0.352231  0.838526  0.595298  1
  Se  Se6  1  0.647769  0.161474  0.404702  1
  Se  Se7  1  0.647769  0.338526  0.904702  1
  O  O8  1  0.399918  0.581144  0.313574  1
  O  O9  1  0.600082  0.081144  0.186426  1
  O  O10  1  0.915229  0.314067  0.519169  1
  O  O11  1  0.399918  0.918856  0.813574  1
  O  O12  1  0.791305  0.970539  0.573139  1
  O  O13  1  0.600082  0.418856  0.686426  1
  O  O14  1  0.208695  0.029461  0.426861  1
  O  O15  1  0.915229  0.185933  0.019169  1
  O  O16  1  0.791305  0.529461  0.073139  1
  O  O17  1  0.084771  0.685933  0.480831  1
  O  O18  1  0.084771  0.814067  0.980831  1
  O  O19  1  0.208695  0.470539  0.926861  1
