# generated using pymatgen
data_Ag4PIO4
_symmetry_space_group_name_H-M   'P 1'
_cell_length_a   9.31627111
_cell_length_b   6.92830755
_cell_length_c   11.31477632
_cell_angle_alpha   90.00000000
_cell_angle_beta   108.52057866
_cell_angle_gamma   90.00000000
_symmetry_Int_Tables_number   1
_chemical_formula_structural   Ag4PIO4
_chemical_formula_sum   'Ag16 P4 I4 O16'
_cell_volume   692.49973384
_cell_formula_units_Z   4
loop_
 _symmetry_equiv_pos_site_id
 _symmetry_equiv_pos_as_xyz
  1  'x, y, z'
loop_
 _atom_site_type_symbol
 _atom_site_label
 _atom_site_symmetry_multiplicity
 _atom_site_fract_x
 _atom_site_fract_y
 _atom_site_fract_z
 _atom_site_occupancy
  Ag  Ag0  1  0.356426  0.035867  0.075747  1
  Ag  Ag1  1  0.994392  0.537856  0.218459  1
  Ag  Ag2  1  0.620833  0.750000  0.692336  1
  Ag  Ag3  1  0.005608  0.037856  0.781541  1
  Ag  Ag4  1  0.643574  0.535867  0.924253  1
  Ag  Ag5  1  0.005608  0.462144  0.781541  1
  Ag  Ag6  1  0.379167  0.250000  0.307664  1
  Ag  Ag7  1  0.290001  0.018216  0.539760  1
  Ag  Ag8  1  0.356426  0.464133  0.075747  1
  Ag  Ag9  1  0.290001  0.481784  0.539760  1
  Ag  Ag10  1  0.643574  0.964133  0.924253  1
  Ag  Ag11  1  0.994392  0.962144  0.218459  1
  Ag  Ag12  1  0.314171  0.250000  0.780449  1
  Ag  Ag13  1  0.709999  0.981784  0.460240  1
  Ag  Ag14  1  0.685829  0.750000  0.219551  1
  Ag  Ag15  1  0.709999  0.518216  0.460240  1
  P  P16  1  0.636571  0.250000  0.676479  1
  P  P17  1  0.363429  0.750000  0.323521  1
  P  P18  1  0.692991  0.250000  0.201269  1
  P  P19  1  0.307009  0.750000  0.798731  1
  I  I20  1  0.947903  0.750000  0.429573  1
  I  I21  1  0.095602  0.250000  0.023999  1
  I  I22  1  0.904398  0.750000  0.976001  1
  I  I23  1  0.052097  0.250000  0.570427  1
  O  O24  1  0.623249  0.435028  0.124749  1
  O  O25  1  0.493984  0.250000  0.558394  1
  O  O26  1  0.350853  0.750000  0.675234  1
  O  O27  1  0.867603  0.250000  0.229918  1
  O  O28  1  0.649147  0.250000  0.324766  1
  O  O29  1  0.266706  0.936129  0.325655  1
  O  O30  1  0.132397  0.750000  0.770082  1
  O  O31  1  0.376751  0.564972  0.875251  1
  O  O32  1  0.623249  0.064972  0.124749  1
  O  O33  1  0.408259  0.750000  0.201178  1
  O  O34  1  0.591741  0.250000  0.798822  1
  O  O35  1  0.376751  0.935028  0.875251  1
  O  O36  1  0.733294  0.436129  0.674345  1
  O  O37  1  0.506016  0.750000  0.441606  1
  O  O38  1  0.266706  0.563871  0.325655  1
  O  O39  1  0.733294  0.063871  0.674345  1
