# generated using pymatgen
data_K4WO5
_symmetry_space_group_name_H-M   'P 1'
_cell_length_a   6.39104584
_cell_length_b   10.39343576
_cell_length_c   17.22942597
_cell_angle_alpha   94.21112985
_cell_angle_beta   92.58120168
_cell_angle_gamma   96.27504515
_symmetry_Int_Tables_number   1
_chemical_formula_structural   K4WO5
_chemical_formula_sum   'K24 W6 O30'
_cell_volume   1132.90877726
_cell_formula_units_Z   6
loop_
 _symmetry_equiv_pos_site_id
 _symmetry_equiv_pos_as_xyz
  1  'x, y, z'
loop_
 _atom_site_type_symbol
 _atom_site_label
 _atom_site_symmetry_multiplicity
 _atom_site_fract_x
 _atom_site_fract_y
 _atom_site_fract_z
 _atom_site_occupancy
  K  K0  1  0.440511  0.420358  0.084750  1
  K  K1  1  0.559489  0.579642  0.915250  1
  K  K2  1  0.732059  0.540136  0.557971  1
  K  K3  1  0.267941  0.459864  0.442029  1
  K  K4  1  0.957832  0.296380  0.993733  1
  K  K5  1  0.042168  0.703620  0.006267  1
  K  K6  1  0.510918  0.011652  0.679748  1
  K  K7  1  0.489082  0.988348  0.320252  1
  K  K8  1  0.424549  0.805396  0.494347  1
  K  K9  1  0.575451  0.194604  0.505653  1
  K  K10  1  0.948736  0.499418  0.180149  1
  K  K11  1  0.051264  0.500582  0.819851  1
  K  K12  1  0.068459  0.087424  0.405103  1
  K  K13  1  0.931541  0.912576  0.594897  1
  K  K14  1  0.234723  0.595723  0.648755  1
  K  K15  1  0.765277  0.404277  0.351245  1
  K  K16  1  0.949594  0.161041  0.788859  1
  K  K17  1  0.050406  0.838959  0.211141  1
  K  K18  1  0.744283  0.952986  0.930177  1
  K  K19  1  0.255717  0.047014  0.069823  1
  K  K20  1  0.780758  0.114643  0.154552  1
  K  K21  1  0.219242  0.885357  0.845448  1
  K  K22  1  0.426909  0.648101  0.281231  1
  K  K23  1  0.573091  0.351899  0.718769  1
  W  W24  1  0.718161  0.733854  0.748904  1
  W  W25  1  0.281839  0.266146  0.251096  1
  W  W26  1  0.100292  0.256865  0.596964  1
  W  W27  1  0.899708  0.743135  0.403036  1
  W  W28  1  0.563249  0.773984  0.092648  1
  W  W29  1  0.436751  0.226016  0.907352  1
  O  O30  1  0.158733  0.841457  0.375546  1
  O  O31  1  0.841267  0.158543  0.624454  1
  O  O32  1  0.316592  0.662235  0.120468  1
  O  O33  1  0.683408  0.337765  0.879532  1
  O  O34  1  0.641352  0.634003  0.424163  1
  O  O35  1  0.358648  0.365997  0.575837  1
  O  O36  1  0.427541  0.817262  0.001297  1
  O  O37  1  0.572459  0.182738  0.998703  1
  O  O38  1  0.712573  0.626533  0.081366  1
  O  O39  1  0.287427  0.373467  0.918634  1
  O  O40  1  0.588189  0.761592  0.646761  1
  O  O41  1  0.411811  0.238408  0.353239  1
  O  O42  1  0.859128  0.717999  0.850557  1
  O  O43  1  0.140872  0.282001  0.149443  1
  O  O44  1  0.823786  0.882205  0.073277  1
  O  O45  1  0.176214  0.117795  0.926723  1
  O  O46  1  0.127855  0.339733  0.698490  1
  O  O47  1  0.872145  0.660267  0.301510  1
  O  O48  1  0.842681  0.592967  0.705278  1
  O  O49  1  0.157319  0.407033  0.294722  1
  O  O50  1  0.042194  0.680872  0.488655  1
  O  O51  1  0.957806  0.319128  0.511345  1
  O  O52  1  0.771671  0.895584  0.426067  1
  O  O53  1  0.228329  0.104416  0.573933  1
  O  O54  1  0.854915  0.905354  0.752508  1
  O  O55  1  0.145085  0.094646  0.247492  1
  O  O56  1  0.460559  0.118344  0.815895  1
  O  O57  1  0.539441  0.881656  0.184105  1
  O  O58  1  0.450740  0.692158  0.787521  1
  O  O59  1  0.549260  0.307842  0.212479  1
