# generated using pymatgen
data_Ba3Nb2O8
_symmetry_space_group_name_H-M   'P 1'
_cell_length_a   8.02686001
_cell_length_b   8.02686001
_cell_length_c   8.02686001
_cell_angle_alpha   45.21092819
_cell_angle_beta   45.21092819
_cell_angle_gamma   45.21092819
_symmetry_Int_Tables_number   1
_chemical_formula_structural   Ba3Nb2O8
_chemical_formula_sum   'Ba3 Nb2 O8'
_cell_volume   237.19985750
_cell_formula_units_Z   1
loop_
 _symmetry_equiv_pos_site_id
 _symmetry_equiv_pos_as_xyz
  1  'x, y, z'
loop_
 _atom_site_type_symbol
 _atom_site_label
 _atom_site_symmetry_multiplicity
 _atom_site_fract_x
 _atom_site_fract_y
 _atom_site_fract_z
 _atom_site_occupancy
  Ba  Ba0  1  0.000000  0.000000  0.000000  1
  Ba  Ba1  1  0.199185  0.199185  0.199185  1
  Ba  Ba2  1  0.800815  0.800815  0.800815  1
  Nb  Nb3  1  0.594199  0.594199  0.594199  1
  Nb  Nb4  1  0.405801  0.405801  0.405801  1
  O  O5  1  0.731961  0.232723  0.731961  1
  O  O6  1  0.731961  0.731961  0.232723  1
  O  O7  1  0.232723  0.731961  0.731961  1
  O  O8  1  0.268039  0.767277  0.268039  1
  O  O9  1  0.268039  0.268039  0.767277  1
  O  O10  1  0.767277  0.268039  0.268039  1
  O  O11  1  0.680511  0.680511  0.680511  1
  O  O12  1  0.319489  0.319489  0.319489  1
