# generated using pymatgen
data_Bi2B8O15
_symmetry_space_group_name_H-M   'P 1'
_cell_length_a   4.37567873
_cell_length_b   22.65578588
_cell_length_c   6.54707094
_cell_angle_alpha   90.00000000
_cell_angle_beta   104.39436720
_cell_angle_gamma   90.00000000
_symmetry_Int_Tables_number   1
_chemical_formula_structural   Bi2B8O15
_chemical_formula_sum   'Bi4 B16 O30'
_cell_volume   628.66528714
_cell_formula_units_Z   2
loop_
 _symmetry_equiv_pos_site_id
 _symmetry_equiv_pos_as_xyz
  1  'x, y, z'
loop_
 _atom_site_type_symbol
 _atom_site_label
 _atom_site_symmetry_multiplicity
 _atom_site_fract_x
 _atom_site_fract_y
 _atom_site_fract_z
 _atom_site_occupancy
  Bi  Bi0  1  0.817392  0.352605  0.662514  1
  Bi  Bi1  1  0.182608  0.852605  0.337486  1
  Bi  Bi2  1  0.613390  0.217832  0.900435  1
  Bi  Bi3  1  0.386610  0.717832  0.099565  1
  B  B4  1  0.444329  0.011732  0.570609  1
  B  B5  1  0.555671  0.511732  0.429391  1
  B  B6  1  0.471208  0.036632  0.220819  1
  B  B7  1  0.528792  0.536632  0.779181  1
  B  B8  1  0.687181  0.103194  0.508501  1
  B  B9  1  0.312819  0.603194  0.491499  1
  B  B10  1  0.856389  0.212216  0.482165  1
  B  B11  1  0.143611  0.712216  0.517835  1
  B  B12  1  0.280091  0.214031  0.266166  1
  B  B13  1  0.719909  0.714031  0.733834  1
  B  B14  1  0.428211  0.855989  0.914219  1
  B  B15  1  0.571789  0.355989  0.085781  1
  B  B16  1  0.851320  0.852762  0.699236  1
  B  B17  1  0.148680  0.352762  0.300764  1
  B  B18  1  0.397056  0.968012  0.912616  1
  B  B19  1  0.602944  0.468012  0.087384  1
  O  O20  1  0.355616  0.000485  0.355392  1
  O  O21  1  0.644384  0.500485  0.644608  1
  O  O22  1  0.613362  0.061671  0.646643  1
  O  O23  1  0.386638  0.561671  0.353357  1
  O  O24  1  0.626583  0.088628  0.294514  1
  O  O25  1  0.373417  0.588628  0.705486  1
  O  O26  1  0.812970  0.154916  0.589279  1
  O  O27  1  0.187030  0.654916  0.410721  1
  O  O28  1  0.170342  0.213582  0.443801  1
  O  O29  1  0.829658  0.713582  0.556199  1
  O  O30  1  0.834710  0.256633  0.643936  1
  O  O31  1  0.165290  0.756633  0.356064  1
  O  O32  1  0.110282  0.209630  0.060651  1
  O  O33  1  0.889718  0.709630  0.939349  1
  O  O34  1  0.605615  0.218967  0.284249  1
  O  O35  1  0.394385  0.718967  0.715751  1
  O  O36  1  0.176318  0.848165  0.716629  1
  O  O37  1  0.823682  0.348165  0.283371  1
  O  O38  1  0.682438  0.858290  0.493620  1
  O  O39  1  0.317562  0.358290  0.506380  1
  O  O40  1  0.399095  0.813700  0.079312  1
  O  O41  1  0.600905  0.313700  0.920688  1
  O  O42  1  0.741220  0.851240  0.875893  1
  O  O43  1  0.258780  0.351240  0.124107  1
  O  O44  1  0.398045  0.915574  0.011286  1
  O  O45  1  0.601955  0.415574  0.988714  1
  O  O46  1  0.359587  0.969833  0.695164  1
  O  O47  1  0.640413  0.469833  0.304836  1
  O  O48  1  0.434362  0.021861  0.015296  1
  O  O49  1  0.565638  0.521861  0.984704  1
