# generated using pymatgen
data_Er2WO6
_symmetry_space_group_name_H-M   'P 1'
_cell_length_a   5.55381661
_cell_length_b   10.55265647
_cell_length_c   16.10191997
_cell_angle_alpha   90.00000000
_cell_angle_beta   90.00000000
_cell_angle_gamma   90.00000000
_symmetry_Int_Tables_number   1
_chemical_formula_structural   Er2WO6
_chemical_formula_sum   'Er16 W8 O48'
_cell_volume   943.69357708
_cell_formula_units_Z   8
loop_
 _symmetry_equiv_pos_site_id
 _symmetry_equiv_pos_as_xyz
  1  'x, y, z'
loop_
 _atom_site_type_symbol
 _atom_site_label
 _atom_site_symmetry_multiplicity
 _atom_site_fract_x
 _atom_site_fract_y
 _atom_site_fract_z
 _atom_site_occupancy
  Er  Er0  1  0.454255  0.145571  0.272762  1
  Er  Er1  1  0.100680  0.857729  0.560953  1
  Er  Er2  1  0.454255  0.645571  0.227238  1
  Er  Er3  1  0.899320  0.142271  0.439047  1
  Er  Er4  1  0.954255  0.354429  0.272762  1
  Er  Er5  1  0.899320  0.642271  0.060953  1
  Er  Er6  1  0.954255  0.854429  0.227238  1
  Er  Er7  1  0.600680  0.642271  0.560953  1
  Er  Er8  1  0.545745  0.854429  0.727238  1
  Er  Er9  1  0.045745  0.145571  0.772762  1
  Er  Er10  1  0.399320  0.357729  0.439047  1
  Er  Er11  1  0.545745  0.354429  0.772762  1
  Er  Er12  1  0.600680  0.142271  0.939047  1
  Er  Er13  1  0.399320  0.857729  0.060953  1
  Er  Er14  1  0.100680  0.357729  0.939047  1
  Er  Er15  1  0.045745  0.645571  0.727238  1
  W  W16  1  0.113149  0.379158  0.620884  1
  W  W17  1  0.386851  0.379158  0.120884  1
  W  W18  1  0.386851  0.879158  0.379116  1
  W  W19  1  0.886851  0.120842  0.120884  1
  W  W20  1  0.613149  0.120842  0.620884  1
  W  W21  1  0.886851  0.620842  0.379116  1
  W  W22  1  0.613149  0.620842  0.879116  1
  W  W23  1  0.113149  0.879158  0.879116  1
  O  O24  1  0.678744  0.270907  0.355142  1
  O  O25  1  0.095632  0.986701  0.107666  1
  O  O26  1  0.187858  0.445084  0.731446  1
  O  O27  1  0.312142  0.945084  0.268554  1
  O  O28  1  0.382613  0.458692  0.571658  1
  O  O29  1  0.420565  0.785081  0.478077  1
  O  O30  1  0.812142  0.554916  0.268554  1
  O  O31  1  0.595632  0.513299  0.107666  1
  O  O32  1  0.904368  0.013299  0.892334  1
  O  O33  1  0.678744  0.770907  0.144858  1
  O  O34  1  0.339742  0.731327  0.826518  1
  O  O35  1  0.079435  0.785081  0.978077  1
  O  O36  1  0.839742  0.268673  0.673482  1
  O  O37  1  0.382613  0.958692  0.928342  1
  O  O38  1  0.821256  0.770907  0.644858  1
  O  O39  1  0.617387  0.041308  0.071658  1
  O  O40  1  0.420565  0.285081  0.021923  1
  O  O41  1  0.117387  0.958692  0.428342  1
  O  O42  1  0.339742  0.231327  0.673482  1
  O  O43  1  0.187858  0.945084  0.768554  1
  O  O44  1  0.321256  0.729093  0.644858  1
  O  O45  1  0.882613  0.041308  0.571658  1
  O  O46  1  0.404368  0.486701  0.892334  1
  O  O47  1  0.579435  0.214919  0.521923  1
  O  O48  1  0.660258  0.768673  0.326518  1
  O  O49  1  0.904368  0.513299  0.607666  1
  O  O50  1  0.660258  0.268673  0.173482  1
  O  O51  1  0.178744  0.229093  0.355142  1
  O  O52  1  0.882613  0.541308  0.928342  1
  O  O53  1  0.160258  0.731327  0.326518  1
  O  O54  1  0.178744  0.729093  0.144858  1
  O  O55  1  0.321256  0.229093  0.855142  1
  O  O56  1  0.617387  0.541308  0.428342  1
  O  O57  1  0.839742  0.768673  0.826518  1
  O  O58  1  0.117387  0.458692  0.071658  1
  O  O59  1  0.920565  0.214919  0.021923  1
  O  O60  1  0.687858  0.054916  0.731446  1
  O  O61  1  0.821256  0.270907  0.855142  1
  O  O62  1  0.812142  0.054916  0.231446  1
  O  O63  1  0.095632  0.486701  0.392334  1
  O  O64  1  0.579435  0.714919  0.978077  1
  O  O65  1  0.312142  0.445084  0.231446  1
  O  O66  1  0.595632  0.013299  0.392334  1
  O  O67  1  0.160258  0.231327  0.173482  1
  O  O68  1  0.920565  0.714919  0.478077  1
  O  O69  1  0.079435  0.285081  0.521923  1
  O  O70  1  0.687858  0.554916  0.768554  1
  O  O71  1  0.404368  0.986701  0.607666  1
