# generated using pymatgen
data_CsTa(CuTe2)2
_symmetry_space_group_name_H-M   'P 1'
_cell_length_a   6.05544098
_cell_length_b   8.36367438
_cell_length_c   21.13015497
_cell_angle_alpha   90.00000000
_cell_angle_beta   90.00000000
_cell_angle_gamma   90.00000000
_symmetry_Int_Tables_number   1
_chemical_formula_structural   CsTa(CuTe2)2
_chemical_formula_sum   'Cs4 Ta4 Cu8 Te16'
_cell_volume   1070.15226259
_cell_formula_units_Z   4
loop_
 _symmetry_equiv_pos_site_id
 _symmetry_equiv_pos_as_xyz
  1  'x, y, z'
loop_
 _atom_site_type_symbol
 _atom_site_label
 _atom_site_symmetry_multiplicity
 _atom_site_fract_x
 _atom_site_fract_y
 _atom_site_fract_z
 _atom_site_occupancy
  Cs  Cs0  1  0.015643  0.205818  0.438369  1
  Cs  Cs1  1  0.515643  0.794182  0.561631  1
  Cs  Cs2  1  0.515643  0.294182  0.938369  1
  Cs  Cs3  1  0.015643  0.705818  0.061631  1
  Ta  Ta4  1  0.259181  0.205228  0.148190  1
  Ta  Ta5  1  0.759181  0.794772  0.851810  1
  Ta  Ta6  1  0.759181  0.294772  0.648190  1
  Ta  Ta7  1  0.259181  0.705228  0.351810  1
  Cu  Cu8  1  0.266671  0.462680  0.247119  1
  Cu  Cu9  1  0.766671  0.537320  0.752881  1
  Cu  Cu10  1  0.766671  0.037320  0.747119  1
  Cu  Cu11  1  0.266671  0.962680  0.252881  1
  Cu  Cu12  1  0.259318  0.293810  0.647572  1
  Cu  Cu13  1  0.759318  0.706190  0.352428  1
  Cu  Cu14  1  0.759318  0.206190  0.147572  1
  Cu  Cu15  1  0.259318  0.793810  0.852428  1
  Te  Te16  1  0.510605  0.464009  0.143991  1
  Te  Te17  1  0.010605  0.535991  0.856009  1
  Te  Te18  1  0.010605  0.035991  0.643991  1
  Te  Te19  1  0.510605  0.964009  0.356009  1
  Te  Te20  1  0.512169  0.448586  0.349123  1
  Te  Te21  1  0.012169  0.551414  0.650877  1
  Te  Te22  1  0.012169  0.051414  0.849123  1
  Te  Te23  1  0.512169  0.948586  0.150877  1
  Te  Te24  1  0.002254  0.212493  0.250715  1
  Te  Te25  1  0.502254  0.787507  0.749285  1
  Te  Te26  1  0.502254  0.287507  0.750715  1
  Te  Te27  1  0.002254  0.712493  0.249285  1
  Te  Te28  1  0.009560  0.193089  0.046382  1
  Te  Te29  1  0.509560  0.806911  0.953618  1
  Te  Te30  1  0.509560  0.306911  0.546382  1
  Te  Te31  1  0.009560  0.693089  0.453618  1
