# generated using pymatgen
data_Nd2W2O9
_symmetry_space_group_name_H-M   'P 1'
_cell_length_a   7.79134392
_cell_length_b   10.00434952
_cell_length_c   9.36813610
_cell_angle_alpha   90.00000000
_cell_angle_beta   107.70675484
_cell_angle_gamma   90.00000000
_symmetry_Int_Tables_number   1
_chemical_formula_structural   Nd2W2O9
_chemical_formula_sum   'Nd8 W8 O36'
_cell_volume   695.62740797
_cell_formula_units_Z   4
loop_
 _symmetry_equiv_pos_site_id
 _symmetry_equiv_pos_as_xyz
  1  'x, y, z'
loop_
 _atom_site_type_symbol
 _atom_site_label
 _atom_site_symmetry_multiplicity
 _atom_site_fract_x
 _atom_site_fract_y
 _atom_site_fract_z
 _atom_site_occupancy
  Nd  Nd0  1  0.287486  0.449253  0.574780  1
  Nd  Nd1  1  0.287486  0.050747  0.074780  1
  Nd  Nd2  1  0.773399  0.554520  0.847714  1
  Nd  Nd3  1  0.226601  0.054520  0.652286  1
  Nd  Nd4  1  0.773399  0.945480  0.347714  1
  Nd  Nd5  1  0.226601  0.445480  0.152286  1
  Nd  Nd6  1  0.712514  0.949253  0.925220  1
  Nd  Nd7  1  0.712514  0.550747  0.425220  1
  W  W8  1  0.928378  0.251123  0.261724  1
  W  W9  1  0.421331  0.730539  0.033515  1
  W  W10  1  0.071622  0.748877  0.738276  1
  W  W11  1  0.421331  0.769461  0.533515  1
  W  W12  1  0.928378  0.248877  0.761724  1
  W  W13  1  0.071622  0.751123  0.238276  1
  W  W14  1  0.578669  0.269461  0.966485  1
  W  W15  1  0.578669  0.230539  0.466485  1
  O  O16  1  0.943560  0.592257  0.653521  1
  O  O17  1  0.265201  0.634433  0.361899  1
  O  O18  1  0.734799  0.134433  0.138101  1
  O  O19  1  0.590360  0.708206  0.930150  1
  O  O20  1  0.445722  0.395932  0.391188  1
  O  O21  1  0.409640  0.291794  0.069850  1
  O  O22  1  0.994212  0.618405  0.096267  1
  O  O23  1  0.225365  0.622243  0.917456  1
  O  O24  1  0.101686  0.217523  0.162991  1
  O  O25  1  0.101686  0.282477  0.662991  1
  O  O26  1  0.554278  0.604068  0.608812  1
  O  O27  1  0.445722  0.104068  0.891188  1
  O  O28  1  0.225365  0.877757  0.417456  1
  O  O29  1  0.056440  0.092257  0.846479  1
  O  O30  1  0.056440  0.407743  0.346479  1
  O  O31  1  0.774635  0.122243  0.582544  1
  O  O32  1  0.501217  0.402337  0.824535  1
  O  O33  1  0.774635  0.377757  0.082544  1
  O  O34  1  0.501217  0.097663  0.324535  1
  O  O35  1  0.498783  0.597663  0.175465  1
  O  O36  1  0.005788  0.118405  0.403733  1
  O  O37  1  0.943560  0.907743  0.153521  1
  O  O38  1  0.256061  0.685147  0.639090  1
  O  O39  1  0.409640  0.208206  0.569850  1
  O  O40  1  0.265201  0.865567  0.861899  1
  O  O41  1  0.734799  0.365567  0.638101  1
  O  O42  1  0.743939  0.314853  0.360910  1
  O  O43  1  0.498783  0.902337  0.675465  1
  O  O44  1  0.256061  0.814853  0.139090  1
  O  O45  1  0.554278  0.895932  0.108812  1
  O  O46  1  0.590360  0.791794  0.430150  1
  O  O47  1  0.994212  0.881595  0.596267  1
  O  O48  1  0.898314  0.717523  0.337009  1
  O  O49  1  0.005788  0.381595  0.903733  1
  O  O50  1  0.898314  0.782477  0.837009  1
  O  O51  1  0.743939  0.185147  0.860910  1
