# generated using pymatgen
data_KAlSiO4
_symmetry_space_group_name_H-M   'P 1'
_cell_length_a   8.68563776
_cell_length_b   9.17573822
_cell_length_c   15.90816626
_cell_angle_alpha   90.00000000
_cell_angle_beta   90.21102652
_cell_angle_gamma   90.00000000
_symmetry_Int_Tables_number   1
_chemical_formula_structural   KAlSiO4
_chemical_formula_sum   'K12 Al12 Si12 O48'
_cell_volume   1267.82672796
_cell_formula_units_Z   12
loop_
 _symmetry_equiv_pos_site_id
 _symmetry_equiv_pos_as_xyz
  1  'x, y, z'
loop_
 _atom_site_type_symbol
 _atom_site_label
 _atom_site_symmetry_multiplicity
 _atom_site_fract_x
 _atom_site_fract_y
 _atom_site_fract_z
 _atom_site_occupancy
  K  K0  1  0.245556  0.999955  0.061464  1
  K  K1  1  0.747778  0.003551  0.451613  1
  K  K2  1  0.746271  0.983201  0.108114  1
  K  K3  1  0.751994  0.969506  0.706319  1
  K  K4  1  0.248006  0.469506  0.293681  1
  K  K5  1  0.247693  0.012987  0.395486  1
  K  K6  1  0.252222  0.503551  0.548387  1
  K  K7  1  0.746856  0.530502  0.207961  1
  K  K8  1  0.752307  0.512987  0.604514  1
  K  K9  1  0.754444  0.499955  0.938536  1
  K  K10  1  0.253144  0.030502  0.792039  1
  K  K11  1  0.253729  0.483201  0.891886  1
  Al  Al12  1  0.562712  0.342499  0.436675  1
  Al  Al13  1  0.435079  0.334348  0.112691  1
  Al  Al14  1  0.938584  0.164889  0.944790  1
  Al  Al15  1  0.564921  0.834348  0.887309  1
  Al  Al16  1  0.065358  0.657151  0.725413  1
  Al  Al17  1  0.061416  0.664889  0.055210  1
  Al  Al18  1  0.437288  0.842499  0.563325  1
  Al  Al19  1  0.433221  0.823430  0.231305  1
  Al  Al20  1  0.932920  0.674363  0.399610  1
  Al  Al21  1  0.067080  0.174363  0.600390  1
  Al  Al22  1  0.934642  0.157151  0.274587  1
  Al  Al23  1  0.566779  0.323430  0.768695  1
  Si  Si24  1  0.056531  0.822882  0.230575  1
  Si  Si25  1  0.443624  0.175006  0.599628  1
  Si  Si26  1  0.053366  0.333500  0.112914  1
  Si  Si27  1  0.552472  0.167193  0.944527  1
  Si  Si28  1  0.056218  0.842385  0.563928  1
  Si  Si29  1  0.946634  0.833500  0.887086  1
  Si  Si30  1  0.943782  0.342385  0.436072  1
  Si  Si31  1  0.943469  0.322882  0.769425  1
  Si  Si32  1  0.554835  0.155751  0.274500  1
  Si  Si33  1  0.445165  0.655751  0.725500  1
  Si  Si34  1  0.447528  0.667193  0.055473  1
  Si  Si35  1  0.556376  0.675006  0.400372  1
  O  O36  1  0.237812  0.779094  0.243670  1
  O  O37  1  0.033764  0.996602  0.248908  1
  O  O38  1  0.976583  0.706982  0.957683  1
  O  O39  1  0.476616  0.514550  0.418803  1
  O  O40  1  0.738546  0.168064  0.960560  1
  O  O41  1  0.533644  0.705466  0.966896  1
  O  O42  1  0.262149  0.175595  0.572699  1
  O  O43  1  0.022143  0.502112  0.415523  1
  O  O44  1  0.529192  0.300311  0.543089  1
  O  O45  1  0.261454  0.668064  0.039440  1
  O  O46  1  0.504440  0.288889  0.873046  1
  O  O47  1  0.531223  0.288199  0.206615  1
  O  O48  1  0.237394  0.343442  0.134001  1
  O  O49  1  0.019127  0.805818  0.465141  1
  O  O50  1  0.003264  0.792397  0.132251  1
  O  O51  1  0.262365  0.610758  0.719996  1
  O  O52  1  0.470808  0.800311  0.456911  1
  O  O53  1  0.996736  0.292397  0.867749  1
  O  O54  1  0.495560  0.788889  0.126954  1
  O  O55  1  0.012631  0.216300  0.372709  1
  O  O56  1  0.240291  0.849891  0.578396  1
  O  O57  1  0.466356  0.205466  0.033104  1
  O  O58  1  0.489653  0.208822  0.367131  1
  O  O59  1  0.038971  0.796116  0.800040  1
  O  O60  1  0.737851  0.675595  0.427301  1
  O  O61  1  0.966236  0.496602  0.751092  1
  O  O62  1  0.759709  0.349891  0.421604  1
  O  O63  1  0.468777  0.788199  0.793385  1
  O  O64  1  0.977857  0.002112  0.584477  1
  O  O65  1  0.509969  0.505783  0.083760  1
  O  O66  1  0.523384  0.014550  0.581197  1
  O  O67  1  0.046187  0.219994  0.707131  1
  O  O68  1  0.543357  0.511230  0.752850  1
  O  O69  1  0.762606  0.843442  0.865999  1
  O  O70  1  0.023417  0.206982  0.042317  1
  O  O71  1  0.987669  0.491022  0.079072  1
  O  O72  1  0.462981  0.210264  0.699975  1
  O  O73  1  0.537019  0.710264  0.300025  1
  O  O74  1  0.762188  0.279094  0.756330  1
  O  O75  1  0.953813  0.719994  0.292869  1
  O  O76  1  0.510347  0.708822  0.632869  1
  O  O77  1  0.987369  0.716300  0.627291  1
  O  O78  1  0.737635  0.110758  0.280004  1
  O  O79  1  0.012331  0.991022  0.920928  1
  O  O80  1  0.456643  0.011230  0.247150  1
  O  O81  1  0.961029  0.296116  0.199960  1
  O  O82  1  0.980873  0.305818  0.534859  1
  O  O83  1  0.490031  0.005783  0.916240  1
