# generated using pymatgen
data_NaFeBP2H3O10
_symmetry_space_group_name_H-M   'P 1'
_cell_length_a   6.70833221
_cell_length_b   6.70833221
_cell_length_c   9.27992572
_cell_angle_alpha   69.79569023
_cell_angle_beta   110.20430977
_cell_angle_gamma   103.30270498
_symmetry_Int_Tables_number   1
_chemical_formula_structural   NaFeBP2H3O10
_chemical_formula_sum   'Na2 Fe2 B2 P4 H6 O20'
_cell_volume   364.87688280
_cell_formula_units_Z   2
loop_
 _symmetry_equiv_pos_site_id
 _symmetry_equiv_pos_as_xyz
  1  'x, y, z'
loop_
 _atom_site_type_symbol
 _atom_site_label
 _atom_site_symmetry_multiplicity
 _atom_site_fract_x
 _atom_site_fract_y
 _atom_site_fract_z
 _atom_site_occupancy
  Na  Na0  1  0.868347  0.868347  0.750000  1
  Na  Na1  1  0.131653  0.131653  0.250000  1
  Fe  Fe2  1  0.500000  0.000000  0.000000  1
  Fe  Fe3  1  0.000000  0.500000  0.500000  1
  B  B4  1  0.472825  0.472825  0.750000  1
  B  B5  1  0.527175  0.527175  0.250000  1
  P  P6  1  0.291808  0.845551  0.676274  1
  P  P7  1  0.845551  0.291808  0.823726  1
  P  P8  1  0.708192  0.154449  0.323726  1
  P  P9  1  0.154449  0.708192  0.176274  1
  H  H10  1  0.309882  0.339592  0.922505  1
  H  H11  1  0.339592  0.309882  0.577495  1
  H  H12  1  0.690118  0.660408  0.077495  1
  H  H13  1  0.660408  0.690118  0.422505  1
  H  H14  1  0.500000  0.000000  0.500000  1
  H  H15  1  0.000000  0.500000  0.000000  1
  O  O16  1  0.469794  0.691926  0.749122  1
  O  O17  1  0.691926  0.469794  0.750878  1
  O  O18  1  0.530206  0.308074  0.250878  1
  O  O19  1  0.308074  0.530206  0.249122  1
  O  O20  1  0.637494  0.964189  0.457837  1
  O  O21  1  0.964189  0.637494  0.042163  1
  O  O22  1  0.362506  0.035811  0.542163  1
  O  O23  1  0.035811  0.362506  0.957837  1
  O  O24  1  0.725703  0.071480  0.890564  1
  O  O25  1  0.071480  0.725703  0.609436  1
  O  O26  1  0.274297  0.928520  0.109436  1
  O  O27  1  0.928520  0.274297  0.390564  1
  O  O28  1  0.275189  0.925232  0.807221  1
  O  O29  1  0.925232  0.275189  0.692779  1
  O  O30  1  0.724811  0.074768  0.192779  1
  O  O31  1  0.074768  0.724811  0.307221  1
  O  O32  1  0.432903  0.315124  0.898532  1
  O  O33  1  0.315124  0.432903  0.601468  1
  O  O34  1  0.567097  0.684876  0.101468  1
  O  O35  1  0.684876  0.567097  0.398532  1
