# generated using pymatgen
data_KGa(PO3)4
_symmetry_space_group_name_H-M   'P 1'
_cell_length_a   10.52658057
_cell_length_b   10.52658057
_cell_length_c   5.22101792
_cell_angle_alpha   81.25249264
_cell_angle_beta   98.74750736
_cell_angle_gamma   107.64379106
_symmetry_Int_Tables_number   1
_chemical_formula_structural   KGa(PO3)4
_chemical_formula_sum   'K2 Ga2 P8 O24'
_cell_volume   541.44683673
_cell_formula_units_Z   2
loop_
 _symmetry_equiv_pos_site_id
 _symmetry_equiv_pos_as_xyz
  1  'x, y, z'
loop_
 _atom_site_type_symbol
 _atom_site_label
 _atom_site_symmetry_multiplicity
 _atom_site_fract_x
 _atom_site_fract_y
 _atom_site_fract_z
 _atom_site_occupancy
  K  K0  1  0.592948  0.407052  0.739738  1
  K  K1  1  0.407052  0.592948  0.260262  1
  Ga  Ga2  1  0.000000  0.500000  0.000000  1
  Ga  Ga3  1  0.500000  0.000000  0.000000  1
  P  P4  1  0.645008  0.799345  0.836150  1
  P  P5  1  0.691158  0.068600  0.533534  1
  P  P6  1  0.931400  0.308842  0.533534  1
  P  P7  1  0.799345  0.645008  0.163850  1
  P  P8  1  0.200655  0.354992  0.836150  1
  P  P9  1  0.068600  0.691158  0.466466  1
  P  P10  1  0.308842  0.931400  0.466466  1
  P  P11  1  0.354992  0.200655  0.163850  1
  O  O12  1  0.150599  0.426797  0.014198  1
  O  O13  1  0.899610  0.399297  0.698601  1
  O  O14  1  0.322707  0.430327  0.711069  1
  O  O15  1  0.426797  0.150599  0.985802  1
  O  O16  1  0.849401  0.573203  0.985802  1
  O  O17  1  0.343276  0.912394  0.757143  1
  O  O18  1  0.215430  0.215430  0.000000  1
  O  O19  1  0.677293  0.569673  0.288931  1
  O  O20  1  0.100390  0.600703  0.301399  1
  O  O21  1  0.922642  0.708422  0.378060  1
  O  O22  1  0.430327  0.322707  0.288931  1
  O  O23  1  0.399297  0.899610  0.301399  1
  O  O24  1  0.573203  0.849401  0.014198  1
  O  O25  1  0.291578  0.077358  0.378060  1
  O  O26  1  0.842812  0.157188  0.602456  1
  O  O27  1  0.600703  0.100390  0.698601  1
  O  O28  1  0.569673  0.677293  0.711069  1
  O  O29  1  0.077358  0.291578  0.621940  1
  O  O30  1  0.784570  0.784570  0.000000  1
  O  O31  1  0.912394  0.343276  0.242857  1
  O  O32  1  0.087606  0.656724  0.757143  1
  O  O33  1  0.157188  0.842812  0.397544  1
  O  O34  1  0.708422  0.922642  0.621940  1
  O  O35  1  0.656724  0.087606  0.242857  1
