# generated using pymatgen
data_K4V2O7
_symmetry_space_group_name_H-M   'P 1'
_cell_length_a   6.13618839
_cell_length_b   6.13618839
_cell_length_c   7.37666687
_cell_angle_alpha   80.25469492
_cell_angle_beta   99.74530508
_cell_angle_gamma   117.74982621
_symmetry_Int_Tables_number   1
_chemical_formula_structural   K4V2O7
_chemical_formula_sum   'K4 V2 O7'
_cell_volume   240.95435615
_cell_formula_units_Z   1
loop_
 _symmetry_equiv_pos_site_id
 _symmetry_equiv_pos_as_xyz
  1  'x, y, z'
loop_
 _atom_site_type_symbol
 _atom_site_label
 _atom_site_symmetry_multiplicity
 _atom_site_fract_x
 _atom_site_fract_y
 _atom_site_fract_z
 _atom_site_occupancy
  K  K0  1  0.320691  0.679309  0.298292  1
  K  K1  1  0.679309  0.320691  0.701708  1
  K  K2  1  0.000000  0.000000  0.500000  1
  K  K3  1  0.000000  0.000000  0.000000  1
  V  V4  1  0.364496  0.635504  0.798571  1
  V  V5  1  0.635504  0.364496  0.201429  1
  O  O6  1  0.215135  0.784865  0.859312  1
  O  O7  1  0.161352  0.394976  0.672898  1
  O  O8  1  0.784865  0.215135  0.140688  1
  O  O9  1  0.394976  0.161352  0.327102  1
  O  O10  1  0.605024  0.838648  0.672898  1
  O  O11  1  0.500000  0.500000  0.000000  1
  O  O12  1  0.838648  0.605024  0.327102  1
