# generated using pymatgen
data_WF6
_symmetry_space_group_name_H-M   'P 1'
_cell_length_a   5.25629445
_cell_length_b   9.04138785
_cell_length_c   9.94958003
_cell_angle_alpha   90.00000000
_cell_angle_beta   90.00000000
_cell_angle_gamma   90.00000000
_symmetry_Int_Tables_number   1
_chemical_formula_structural   WF6
_chemical_formula_sum   'W4 F24'
_cell_volume   472.84579919
_cell_formula_units_Z   4
loop_
 _symmetry_equiv_pos_site_id
 _symmetry_equiv_pos_as_xyz
  1  'x, y, z'
loop_
 _atom_site_type_symbol
 _atom_site_label
 _atom_site_symmetry_multiplicity
 _atom_site_fract_x
 _atom_site_fract_y
 _atom_site_fract_z
 _atom_site_occupancy
  W  W0  1  0.585427  0.750000  0.371983  1
  W  W1  1  0.085427  0.250000  0.128017  1
  W  W2  1  0.414573  0.250000  0.628017  1
  W  W3  1  0.914573  0.750000  0.871983  1
  F  F4  1  0.563750  0.397051  0.735741  1
  F  F5  1  0.063750  0.602949  0.764259  1
  F  F6  1  0.436250  0.897051  0.264259  1
  F  F7  1  0.936250  0.102949  0.235741  1
  F  F8  1  0.202678  0.750000  0.983941  1
  F  F9  1  0.702678  0.250000  0.516059  1
  F  F10  1  0.797322  0.250000  0.016059  1
  F  F11  1  0.297322  0.750000  0.483941  1
  F  F12  1  0.625629  0.750000  0.760147  1
  F  F13  1  0.125629  0.250000  0.739853  1
  F  F14  1  0.374371  0.250000  0.239853  1
  F  F15  1  0.874371  0.750000  0.260147  1
  F  F16  1  0.764250  0.896825  0.979823  1
  F  F17  1  0.264250  0.103175  0.520177  1
  F  F18  1  0.235750  0.396825  0.020177  1
  F  F19  1  0.735750  0.603175  0.479823  1
  F  F20  1  0.235750  0.103175  0.020177  1
  F  F21  1  0.735750  0.896825  0.479823  1
  F  F22  1  0.764250  0.603175  0.979823  1
  F  F23  1  0.264250  0.396825  0.520177  1
  F  F24  1  0.063750  0.897051  0.764259  1
  F  F25  1  0.563750  0.102949  0.735741  1
  F  F26  1  0.936250  0.397051  0.235741  1
  F  F27  1  0.436250  0.602949  0.264259  1
