# generated using pymatgen
data_KLi2BO3
_symmetry_space_group_name_H-M   'P 1'
_cell_length_a   6.50745664
_cell_length_b   6.52197163
_cell_length_c   8.08736546
_cell_angle_alpha   90.00000000
_cell_angle_beta   90.00000000
_cell_angle_gamma   90.00000000
_symmetry_Int_Tables_number   1
_chemical_formula_structural   KLi2BO3
_chemical_formula_sum   'K4 Li8 B4 O12'
_cell_volume   343.23949731
_cell_formula_units_Z   4
loop_
 _symmetry_equiv_pos_site_id
 _symmetry_equiv_pos_as_xyz
  1  'x, y, z'
loop_
 _atom_site_type_symbol
 _atom_site_label
 _atom_site_symmetry_multiplicity
 _atom_site_fract_x
 _atom_site_fract_y
 _atom_site_fract_z
 _atom_site_occupancy
  K  K0  1  0.750000  0.393848  0.989841  1
  K  K1  1  0.750000  0.106152  0.489841  1
  K  K2  1  0.250000  0.893848  0.510159  1
  K  K3  1  0.250000  0.606152  0.010159  1
  Li  Li4  1  0.540542  0.961951  0.860352  1
  Li  Li5  1  0.459458  0.038049  0.139648  1
  Li  Li6  1  0.040542  0.461951  0.639648  1
  Li  Li7  1  0.959458  0.961951  0.860352  1
  Li  Li8  1  0.959458  0.538049  0.360352  1
  Li  Li9  1  0.459458  0.461951  0.639648  1
  Li  Li10  1  0.040542  0.038049  0.139648  1
  Li  Li11  1  0.540542  0.538049  0.360352  1
  B  B12  1  0.250000  0.167757  0.844853  1
  B  B13  1  0.750000  0.832243  0.155147  1
  B  B14  1  0.250000  0.332243  0.344853  1
  B  B15  1  0.750000  0.667757  0.655147  1
  O  O16  1  0.438233  0.238420  0.788315  1
  O  O17  1  0.438233  0.261580  0.288315  1
  O  O18  1  0.938233  0.738420  0.711685  1
  O  O19  1  0.750000  0.506995  0.538001  1
  O  O20  1  0.250000  0.493005  0.461999  1
  O  O21  1  0.061767  0.238420  0.788315  1
  O  O22  1  0.938233  0.761580  0.211685  1
  O  O23  1  0.561767  0.761580  0.211685  1
  O  O24  1  0.750000  0.993005  0.038001  1
  O  O25  1  0.061767  0.261580  0.288315  1
  O  O26  1  0.250000  0.006995  0.961999  1
  O  O27  1  0.561767  0.738420  0.711685  1
