# generated using pymatgen
data_Bi4RuBr2
_symmetry_space_group_name_H-M   'P 1'
_cell_length_a   8.89371125
_cell_length_b   8.89371125
_cell_length_c   11.06048954
_cell_angle_alpha   53.03683474
_cell_angle_beta   126.96316526
_cell_angle_gamma   134.49401395
_symmetry_Int_Tables_number   1
_chemical_formula_structural   Bi4RuBr2
_chemical_formula_sum   'Bi8 Ru2 Br4'
_cell_volume   473.15183208
_cell_formula_units_Z   2
loop_
 _symmetry_equiv_pos_site_id
 _symmetry_equiv_pos_as_xyz
  1  'x, y, z'
loop_
 _atom_site_type_symbol
 _atom_site_label
 _atom_site_symmetry_multiplicity
 _atom_site_fract_x
 _atom_site_fract_y
 _atom_site_fract_z
 _atom_site_occupancy
  Bi  Bi0  1  0.445434  0.554566  0.632096  1
  Bi  Bi1  1  0.554566  0.445434  0.367904  1
  Bi  Bi2  1  0.336400  0.663600  0.280329  1
  Bi  Bi3  1  0.663600  0.336400  0.719671  1
  Bi  Bi4  1  0.828187  0.171813  0.431163  1
  Bi  Bi5  1  0.171813  0.828187  0.568837  1
  Bi  Bi6  1  0.086132  0.913868  0.777175  1
  Bi  Bi7  1  0.913868  0.086132  0.222825  1
  Ru  Ru8  1  0.209026  0.209026  0.500000  1
  Ru  Ru9  1  0.790974  0.790974  0.500000  1
  Br  Br10  1  0.894270  0.105730  0.757298  1
  Br  Br11  1  0.105730  0.894270  0.242702  1
  Br  Br12  1  0.678318  0.321682  0.069931  1
  Br  Br13  1  0.321682  0.678318  0.930069  1
