# generated using pymatgen
data_K2Cr2O7
_symmetry_space_group_name_H-M   'P 1'
_cell_length_a   7.59042522
_cell_length_b   7.64621301
_cell_length_c   13.66442979
_cell_angle_alpha   95.21704412
_cell_angle_beta   97.49818572
_cell_angle_gamma   90.92919511
_symmetry_Int_Tables_number   1
_chemical_formula_structural   K2Cr2O7
_chemical_formula_sum   'K8 Cr8 O28'
_cell_volume   782.70084371
_cell_formula_units_Z   4
loop_
 _symmetry_equiv_pos_site_id
 _symmetry_equiv_pos_as_xyz
  1  'x, y, z'
loop_
 _atom_site_type_symbol
 _atom_site_label
 _atom_site_symmetry_multiplicity
 _atom_site_fract_x
 _atom_site_fract_y
 _atom_site_fract_z
 _atom_site_occupancy
  K  K0  1  0.105673  0.664534  0.638746  1
  K  K1  1  0.894327  0.335466  0.361254  1
  K  K2  1  0.254446  0.758602  0.348942  1
  K  K3  1  0.745554  0.241398  0.651058  1
  K  K4  1  0.660887  0.914303  0.159459  1
  K  K5  1  0.339113  0.085697  0.840541  1
  K  K6  1  0.689280  0.652133  0.863566  1
  K  K7  1  0.310720  0.347867  0.136434  1
  Cr  Cr8  1  0.594554  0.772049  0.607142  1
  Cr  Cr9  1  0.405446  0.227951  0.392858  1
  Cr  Cr10  1  0.793600  0.809677  0.413452  1
  Cr  Cr11  1  0.206400  0.190323  0.586548  1
  Cr  Cr12  1  0.817365  0.421679  0.113307  1
  Cr  Cr13  1  0.182635  0.578321  0.886693  1
  Cr  Cr14  1  0.811832  0.153178  0.916916  1
  Cr  Cr15  1  0.188168  0.846822  0.083084  1
  O  O16  1  0.717685  0.614217  0.649679  1
  O  O17  1  0.282315  0.385783  0.350321  1
  O  O18  1  0.560891  0.912549  0.699945  1
  O  O19  1  0.439109  0.087451  0.300055  1
  O  O20  1  0.406042  0.692715  0.547725  1
  O  O21  1  0.593958  0.307285  0.452275  1
  O  O22  1  0.710195  0.890102  0.525685  1
  O  O23  1  0.289805  0.109898  0.474315  1
  O  O24  1  0.958485  0.678451  0.441082  1
  O  O25  1  0.041515  0.321549  0.558918  1
  O  O26  1  0.865827  0.974812  0.360439  1
  O  O27  1  0.134173  0.025188  0.639561  1
  O  O28  1  0.637395  0.701426  0.337951  1
  O  O29  1  0.362605  0.298574  0.662049  1
  O  O30  1  0.686550  0.295710  0.165525  1
  O  O31  1  0.313450  0.704290  0.834475  1
  O  O32  1  0.977851  0.504665  0.196949  1
  O  O33  1  0.022149  0.495335  0.803051  1
  O  O34  1  0.702960  0.576551  0.062524  1
  O  O35  1  0.297040  0.423449  0.937476  1
  O  O36  1  0.919434  0.291265  0.022176  1
  O  O37  1  0.080566  0.708735  0.977824  1
  O  O38  1  0.692796  0.997620  0.954387  1
  O  O39  1  0.307204  0.002380  0.045613  1
  O  O40  1  0.961897  0.068434  0.853712  1
  O  O41  1  0.038103  0.931566  0.146288  1
  O  O42  1  0.678607  0.273782  0.848267  1
  O  O43  1  0.321393  0.726218  0.151733  1
