# generated using pymatgen
data_SrMn2(PO4)2
_symmetry_space_group_name_H-M   'P 1'
_cell_length_a   8.97917397
_cell_length_b   9.20950792
_cell_length_c   9.22195521
_cell_angle_alpha   69.06094180
_cell_angle_beta   89.35392521
_cell_angle_gamma   89.68009371
_symmetry_Int_Tables_number   1
_chemical_formula_structural   SrMn2(PO4)2
_chemical_formula_sum   'Sr4 Mn8 P8 O32'
_cell_volume   712.19083885
_cell_formula_units_Z   4
loop_
 _symmetry_equiv_pos_site_id
 _symmetry_equiv_pos_as_xyz
  1  'x, y, z'
loop_
 _atom_site_type_symbol
 _atom_site_label
 _atom_site_symmetry_multiplicity
 _atom_site_fract_x
 _atom_site_fract_y
 _atom_site_fract_z
 _atom_site_occupancy
  Sr  Sr0  1  0.256763  0.797808  0.191511  1
  Sr  Sr1  1  0.743237  0.202192  0.808489  1
  Sr  Sr2  1  0.249618  0.388208  0.609134  1
  Sr  Sr3  1  0.750382  0.611792  0.390866  1
  Mn  Mn4  1  0.071463  0.992591  0.752155  1
  Mn  Mn5  1  0.928537  0.007409  0.247845  1
  Mn  Mn6  1  0.238344  0.626671  0.876538  1
  Mn  Mn7  1  0.761656  0.373329  0.123462  1
  Mn  Mn8  1  0.610120  0.745159  0.982692  1
  Mn  Mn9  1  0.389880  0.254841  0.017308  1
  Mn  Mn10  1  0.716057  0.894017  0.610855  1
  Mn  Mn11  1  0.283943  0.105983  0.389145  1
  P  P12  1  0.070718  0.780849  0.530294  1
  P  P13  1  0.929282  0.219151  0.469706  1
  P  P14  1  0.061637  0.255037  0.946072  1
  P  P15  1  0.938363  0.744963  0.053928  1
  P  P16  1  0.426563  0.468806  0.224856  1
  P  P17  1  0.573437  0.531194  0.775144  1
  P  P18  1  0.419490  0.044488  0.766014  1
  P  P19  1  0.580510  0.955512  0.233986  1
  O  O20  1  0.108519  0.623956  0.521121  1
  O  O21  1  0.891481  0.376044  0.478879  1
  O  O22  1  0.901198  0.820403  0.496527  1
  O  O23  1  0.098802  0.179597  0.503473  1
  O  O24  1  0.112204  0.791895  0.689540  1
  O  O25  1  0.887796  0.208105  0.310460  1
  O  O26  1  0.844439  0.088551  0.604224  1
  O  O27  1  0.155561  0.911449  0.395776  1
  O  O28  1  0.092048  0.679890  0.032321  1
  O  O29  1  0.907952  0.320110  0.967679  1
  O  O30  1  0.109826  0.115249  0.090631  1
  O  O31  1  0.890174  0.884751  0.909369  1
  O  O32  1  0.048852  0.204101  0.802351  1
  O  O33  1  0.951148  0.795899  0.197649  1
  O  O34  1  0.186738  0.381236  0.907716  1
  O  O35  1  0.813262  0.618764  0.092284  1
  O  O36  1  0.352899  0.524697  0.346870  1
  O  O37  1  0.647101  0.475303  0.653130  1
  O  O38  1  0.406419  0.566608  0.740141  1
  O  O39  1  0.593581  0.433392  0.259859  1
  O  O40  1  0.654959  0.676872  0.784325  1
  O  O41  1  0.345041  0.323128  0.215675  1
  O  O42  1  0.409426  0.604620  0.061088  1
  O  O43  1  0.590574  0.395380  0.938912  1
  O  O44  1  0.387997  0.109516  0.590487  1
  O  O45  1  0.612003  0.890484  0.409513  1
  O  O46  1  0.576379  0.963599  0.794141  1
  O  O47  1  0.423621  0.036401  0.205859  1
  O  O48  1  0.296808  0.930592  0.860781  1
  O  O49  1  0.703192  0.069408  0.139219  1
  O  O50  1  0.568732  0.813488  0.179632  1
  O  O51  1  0.431268  0.186512  0.820368  1
