# generated using pymatgen
data_DyZnPO
_symmetry_space_group_name_H-M   'P 1'
_cell_length_a   10.37485432
_cell_length_b   10.37485432
_cell_length_c   10.37485432
_cell_angle_alpha   21.66652226
_cell_angle_beta   21.66652226
_cell_angle_gamma   21.66652226
_symmetry_Int_Tables_number   1
_chemical_formula_structural   DyZnPO
_chemical_formula_sum   'Dy2 Zn2 P2 O2'
_cell_volume   133.39874443
_cell_formula_units_Z   2
loop_
 _symmetry_equiv_pos_site_id
 _symmetry_equiv_pos_as_xyz
  1  'x, y, z'
loop_
 _atom_site_type_symbol
 _atom_site_label
 _atom_site_symmetry_multiplicity
 _atom_site_fract_x
 _atom_site_fract_y
 _atom_site_fract_z
 _atom_site_occupancy
  Dy  Dy0  1  0.620306  0.620306  0.620306  1
  Dy  Dy1  1  0.379694  0.379694  0.379694  1
  Zn  Zn2  1  0.803706  0.803706  0.803706  1
  Zn  Zn3  1  0.196294  0.196294  0.196294  1
  P  P4  1  0.888298  0.888298  0.888298  1
  P  P5  1  0.111702  0.111702  0.111702  1
  O  O6  1  0.694595  0.694595  0.694595  1
  O  O7  1  0.305405  0.305405  0.305405  1
