# generated using pymatgen
data_Na2Cu2Si4O11
_symmetry_space_group_name_H-M   'P 1'
_cell_length_a   5.24620918
_cell_length_b   6.36432561
_cell_length_c   8.36124003
_cell_angle_alpha   96.68654597
_cell_angle_beta   96.76526421
_cell_angle_gamma   100.80263061
_symmetry_Int_Tables_number   1
_chemical_formula_structural   Na2Cu2Si4O11
_chemical_formula_sum   'Na2 Cu2 Si4 O11'
_cell_volume   269.55368941
_cell_formula_units_Z   1
loop_
 _symmetry_equiv_pos_site_id
 _symmetry_equiv_pos_as_xyz
  1  'x, y, z'
loop_
 _atom_site_type_symbol
 _atom_site_label
 _atom_site_symmetry_multiplicity
 _atom_site_fract_x
 _atom_site_fract_y
 _atom_site_fract_z
 _atom_site_occupancy
  Na  Na0  1  0.868493  0.352229  0.195224  1
  Na  Na1  1  0.131507  0.647771  0.804776  1
  Cu  Cu2  1  0.296622  0.111444  0.071261  1
  Cu  Cu3  1  0.703378  0.888556  0.928739  1
  Si  Si4  1  0.405956  0.656076  0.189601  1
  Si  Si5  1  0.015449  0.134720  0.679064  1
  Si  Si6  1  0.594044  0.343924  0.810399  1
  Si  Si7  1  0.984551  0.865280  0.320936  1
  O  O8  1  0.291539  0.321616  0.715075  1
  O  O9  1  0.708461  0.678384  0.284925  1
  O  O10  1  0.595242  0.173719  0.945937  1
  O  O11  1  0.404758  0.826281  0.054063  1
  O  O12  1  0.002836  0.976954  0.816551  1
  O  O13  1  0.997164  0.023046  0.183449  1
  O  O14  1  0.221381  0.727779  0.327260  1
  O  O15  1  0.722848  0.587717  0.890093  1
  O  O16  1  0.778619  0.272221  0.672740  1
  O  O17  1  0.000000  0.000000  0.500000  1
  O  O18  1  0.277152  0.412283  0.109907  1
