# generated using pymatgen
data_NiP2(H4O5)2
_symmetry_space_group_name_H-M   'P 1'
_cell_length_a   5.33958488
_cell_length_b   9.91968039
_cell_length_c   8.66735436
_cell_angle_alpha   90.00000000
_cell_angle_beta   124.00800862
_cell_angle_gamma   90.00000000
_symmetry_Int_Tables_number   1
_chemical_formula_structural   NiP2(H4O5)2
_chemical_formula_sum   'Ni2 P4 H16 O20'
_cell_volume   380.56162189
_cell_formula_units_Z   2
loop_
 _symmetry_equiv_pos_site_id
 _symmetry_equiv_pos_as_xyz
  1  'x, y, z'
loop_
 _atom_site_type_symbol
 _atom_site_label
 _atom_site_symmetry_multiplicity
 _atom_site_fract_x
 _atom_site_fract_y
 _atom_site_fract_z
 _atom_site_occupancy
  Ni  Ni0  1  0.000000  0.500000  0.500000  1
  Ni  Ni1  1  0.000000  0.000000  0.000000  1
  P  P2  1  0.096214  0.716408  0.835469  1
  P  P3  1  0.903786  0.216408  0.664531  1
  P  P4  1  0.903786  0.283592  0.164531  1
  P  P5  1  0.096214  0.783592  0.335469  1
  H  H6  1  0.417812  0.576882  0.339171  1
  H  H7  1  0.582188  0.076882  0.160829  1
  H  H8  1  0.582188  0.423118  0.660829  1
  H  H9  1  0.417812  0.923118  0.839171  1
  H  H10  1  0.426510  0.450368  0.235275  1
  H  H11  1  0.573490  0.950368  0.264725  1
  H  H12  1  0.573490  0.549632  0.764725  1
  H  H13  1  0.426510  0.049632  0.735275  1
  H  H14  1  0.453906  0.609498  0.096316  1
  H  H15  1  0.546094  0.109498  0.403684  1
  H  H16  1  0.546094  0.390502  0.903684  1
  H  H17  1  0.453906  0.890502  0.596316  1
  H  H18  1  0.882017  0.721912  0.986868  1
  H  H19  1  0.117983  0.221912  0.513132  1
  H  H20  1  0.117983  0.278088  0.013132  1
  H  H21  1  0.882017  0.778088  0.486868  1
  O  O22  1  0.988330  0.670796  0.639145  1
  O  O23  1  0.011670  0.170796  0.860855  1
  O  O24  1  0.011670  0.329204  0.360855  1
  O  O25  1  0.988330  0.829204  0.139145  1
  O  O26  1  0.137992  0.868999  0.864101  1
  O  O27  1  0.862008  0.368999  0.635899  1
  O  O28  1  0.862008  0.131001  0.135899  1
  O  O29  1  0.137992  0.631001  0.364101  1
  O  O30  1  0.402819  0.640218  0.971066  1
  O  O31  1  0.597181  0.140218  0.528934  1
  O  O32  1  0.597181  0.359782  0.028934  1
  O  O33  1  0.402819  0.859782  0.471066  1
  O  O34  1  0.856494  0.667542  0.877662  1
  O  O35  1  0.143506  0.167542  0.622338  1
  O  O36  1  0.143506  0.332458  0.122338  1
  O  O37  1  0.856494  0.832458  0.377662  1
  O  O38  1  0.538998  0.535654  0.294522  1
  O  O39  1  0.461002  0.035654  0.205478  1
  O  O40  1  0.461002  0.464346  0.705478  1
  O  O41  1  0.538998  0.964346  0.794522  1
