# generated using pymatgen
data_InHSeO4
_symmetry_space_group_name_H-M   'P 1'
_cell_length_a   5.78155617
_cell_length_b   8.18983913
_cell_length_c   8.30235425
_cell_angle_alpha   87.63456669
_cell_angle_beta   79.51510383
_cell_angle_gamma   83.03948215
_symmetry_Int_Tables_number   1
_chemical_formula_structural   InHSeO4
_chemical_formula_sum   'In4 H4 Se4 O16'
_cell_volume   383.62936327
_cell_formula_units_Z   4
loop_
 _symmetry_equiv_pos_site_id
 _symmetry_equiv_pos_as_xyz
  1  'x, y, z'
loop_
 _atom_site_type_symbol
 _atom_site_label
 _atom_site_symmetry_multiplicity
 _atom_site_fract_x
 _atom_site_fract_y
 _atom_site_fract_z
 _atom_site_occupancy
  In  In0  1  0.810304  0.686519  0.485112  1
  In  In1  1  0.396574  0.976755  0.813409  1
  In  In2  1  0.603426  0.023245  0.186591  1
  In  In3  1  0.189696  0.313481  0.514888  1
  H  H4  1  0.651154  0.239411  0.393007  1
  H  H5  1  0.993542  0.074887  0.697750  1
  H  H6  1  0.006458  0.925113  0.302250  1
  H  H7  1  0.348846  0.760589  0.606993  1
  Se  Se8  1  0.396988  0.644497  0.236263  1
  Se  Se9  1  0.929035  0.730642  0.880350  1
  Se  Se10  1  0.603012  0.355503  0.763737  1
  Se  Se11  1  0.070965  0.269358  0.119650  1
  O  O12  1  0.024566  0.213375  0.323585  1
  O  O13  1  0.651771  0.569416  0.304254  1
  O  O14  1  0.495510  0.783575  0.640581  1
  O  O15  1  0.142328  0.817007  0.951743  1
  O  O16  1  0.850721  0.885134  0.314437  1
  O  O17  1  0.149279  0.114866  0.685563  1
  O  O18  1  0.171688  0.563722  0.385702  1
  O  O19  1  0.828312  0.436278  0.614298  1
  O  O20  1  0.666117  0.865115  0.960585  1
  O  O21  1  0.348229  0.430584  0.695746  1
  O  O22  1  0.649366  0.152766  0.705905  1
  O  O23  1  0.350634  0.847234  0.294095  1
  O  O24  1  0.975434  0.786625  0.676415  1
  O  O25  1  0.504490  0.216425  0.359419  1
  O  O26  1  0.333883  0.134885  0.039415  1
  O  O27  1  0.857672  0.182993  0.048257  1
