# generated using pymatgen
data_Nb2P4O15
_symmetry_space_group_name_H-M   'P 1'
_cell_length_a   6.79034665
_cell_length_b   8.53782905
_cell_length_c   11.18089519
_cell_angle_alpha   74.33982562
_cell_angle_beta   89.82732300
_cell_angle_gamma   89.93563190
_symmetry_Int_Tables_number   1
_chemical_formula_structural   Nb2P4O15
_chemical_formula_sum   'Nb4 P8 O30'
_cell_volume   624.14568171
_cell_formula_units_Z   2
loop_
 _symmetry_equiv_pos_site_id
 _symmetry_equiv_pos_as_xyz
  1  'x, y, z'
loop_
 _atom_site_type_symbol
 _atom_site_label
 _atom_site_symmetry_multiplicity
 _atom_site_fract_x
 _atom_site_fract_y
 _atom_site_fract_z
 _atom_site_occupancy
  Nb  Nb0  1  0.784398  0.689537  0.115103  1
  Nb  Nb1  1  0.807618  0.685499  0.607813  1
  Nb  Nb2  1  0.280603  0.271996  0.905257  1
  Nb  Nb3  1  0.305981  0.279682  0.409314  1
  P  P4  1  0.605678  0.295101  0.662904  1
  P  P5  1  0.927086  0.067779  0.629631  1
  P  P6  1  0.156482  0.895970  0.874618  1
  P  P7  1  0.482298  0.661211  0.864889  1
  P  P8  1  0.103868  0.667548  0.354892  1
  P  P9  1  0.425123  0.896511  0.389292  1
  P  P10  1  0.656469  0.066024  0.143024  1
  P  P11  1  0.979788  0.300128  0.157065  1
  O  O12  1  0.614313  0.646421  0.235044  1
  O  O13  1  0.019561  0.646971  0.696410  1
  O  O14  1  0.101628  0.316342  0.791274  1
  O  O15  1  0.507513  0.320100  0.310453  1
  O  O16  1  0.718657  0.452801  0.613563  1
  O  O17  1  0.515544  0.279544  0.790401  1
  O  O18  1  0.455664  0.265096  0.570136  1
  O  O19  1  0.755404  0.144523  0.693048  1
  O  O20  1  0.038693  0.193215  0.536593  1
  O  O21  1  0.830897  0.933900  0.583230  1
  O  O22  1  0.059367  0.987840  0.746102  1
  O  O23  1  0.249933  0.023588  0.929770  1
  O  O24  1  0.020203  0.778486  0.956677  1
  O  O25  1  0.333843  0.811667  0.821088  1
  O  O26  1  0.611993  0.672815  0.751858  1
  O  O27  1  0.596191  0.691600  0.973995  1
  O  O28  1  0.363220  0.505142  0.903992  1
  O  O29  1  0.217463  0.511098  0.408613  1
  O  O30  1  0.026477  0.680982  0.224497  1
  O  O31  1  0.943171  0.698243  0.441753  1
  O  O32  1  0.251298  0.819084  0.329288  1
  O  O33  1  0.539015  0.773076  0.482264  1
  O  O34  1  0.330633  0.031527  0.435403  1
  O  O35  1  0.551615  0.975570  0.269303  1
  O  O36  1  0.753924  0.937926  0.089749  1
  O  O37  1  0.524790  0.183590  0.057709  1
  O  O38  1  0.830313  0.150275  0.198915  1
  O  O39  1  0.099034  0.290660  0.273424  1
  O  O40  1  0.104395  0.266470  0.052926  1
  O  O41  1  0.862855  0.456563  0.112716  1
