# generated using pymatgen
data_V7O13
_symmetry_space_group_name_H-M   'P 1'
_cell_length_a   5.54866304
_cell_length_b   7.11967022
_cell_length_c   11.43493510
_cell_angle_alpha   96.97772151
_cell_angle_beta   89.84790119
_cell_angle_gamma   107.99971161
_symmetry_Int_Tables_number   1
_chemical_formula_structural   V7O13
_chemical_formula_sum   'V14 O26'
_cell_volume   426.15112453
_cell_formula_units_Z   2
loop_
 _symmetry_equiv_pos_site_id
 _symmetry_equiv_pos_as_xyz
  1  'x, y, z'
loop_
 _atom_site_type_symbol
 _atom_site_label
 _atom_site_symmetry_multiplicity
 _atom_site_fract_x
 _atom_site_fract_y
 _atom_site_fract_z
 _atom_site_occupancy
  V  V0  1  0.000000  0.500000  0.500000  1
  V  V1  1  0.000000  0.000000  0.500000  1
  V  V2  1  0.615251  0.262969  0.647760  1
  V  V3  1  0.384749  0.737031  0.352240  1
  V  V4  1  0.590016  0.750941  0.641178  1
  V  V5  1  0.409984  0.249059  0.358822  1
  V  V6  1  0.207389  0.018037  0.785758  1
  V  V7  1  0.792611  0.981963  0.214242  1
  V  V8  1  0.207123  0.512210  0.798405  1
  V  V9  1  0.792877  0.487790  0.201595  1
  V  V10  1  0.798208  0.785631  0.941314  1
  V  V11  1  0.201792  0.214369  0.058686  1
  V  V12  1  0.789303  0.283671  0.945215  1
  V  V13  1  0.210697  0.716329  0.054785  1
  O  O14  1  0.362687  0.173517  0.511496  1
  O  O15  1  0.637313  0.826483  0.488504  1
  O  O16  1  0.875019  0.226124  0.557044  1
  O  O17  1  0.124981  0.773876  0.442956  1
  O  O18  1  0.711428  0.536059  0.607027  1
  O  O19  1  0.288572  0.463941  0.392973  1
  O  O20  1  0.243411  0.597936  0.638306  1
  O  O21  1  0.756589  0.402064  0.361694  1
  O  O22  1  0.974581  0.926233  0.670792  1
  O  O23  1  0.025419  0.073767  0.329208  1
  O  O24  1  0.500769  0.991041  0.702782  1
  O  O25  1  0.499231  0.008959  0.297218  1
  O  O26  1  0.335296  0.287496  0.746286  1
  O  O27  1  0.664704  0.712504  0.253714  1
  O  O28  1  0.808556  0.556321  0.023864  1
  O  O29  1  0.191444  0.443679  0.976136  1
  O  O30  1  0.543886  0.834599  0.056798  1
  O  O31  1  0.456114  0.165401  0.943202  1
  O  O32  1  0.047597  0.929223  0.092180  1
  O  O33  1  0.952403  0.070777  0.907820  1
  O  O34  1  0.870415  0.230774  0.121399  1
  O  O35  1  0.129585  0.769226  0.878601  1
  O  O36  1  0.418475  0.305887  0.177788  1
  O  O37  1  0.581525  0.694113  0.822212  1
  O  O38  1  0.155649  0.637901  0.207051  1
  O  O39  1  0.844351  0.362099  0.792949  1
