# generated using pymatgen
data_Tl2SnS3
_symmetry_space_group_name_H-M   'P 1'
_cell_length_a   11.97321782
_cell_length_b   11.97321782
_cell_length_c   7.52817019
_cell_angle_alpha   86.62264912
_cell_angle_beta   93.37735088
_cell_angle_gamma   161.17947785
_symmetry_Int_Tables_number   1
_chemical_formula_structural   Tl2SnS3
_chemical_formula_sum   'Tl4 Sn2 S6'
_cell_volume   347.54114754
_cell_formula_units_Z   2
loop_
 _symmetry_equiv_pos_site_id
 _symmetry_equiv_pos_as_xyz
  1  'x, y, z'
loop_
 _atom_site_type_symbol
 _atom_site_label
 _atom_site_symmetry_multiplicity
 _atom_site_fract_x
 _atom_site_fract_y
 _atom_site_fract_z
 _atom_site_occupancy
  Tl  Tl0  1  0.338692  0.661308  0.713980  1
  Tl  Tl1  1  0.661308  0.338692  0.286020  1
  Tl  Tl2  1  0.507897  0.492103  0.752606  1
  Tl  Tl3  1  0.492103  0.507897  0.247394  1
  Sn  Sn4  1  0.148248  0.851752  0.779399  1
  Sn  Sn5  1  0.851752  0.148248  0.220601  1
  S  S6  1  0.087214  0.912786  0.514035  1
  S  S7  1  0.912786  0.087214  0.485965  1
  S  S8  1  0.089651  0.910349  0.027229  1
  S  S9  1  0.910349  0.089651  0.972771  1
  S  S10  1  0.713674  0.286326  0.785600  1
  S  S11  1  0.286326  0.713674  0.214400  1
