# generated using pymatgen
data_Ti4P6PbO24
_symmetry_space_group_name_H-M   'P 1'
_cell_length_a   9.07382888
_cell_length_b   9.07382888
_cell_length_c   9.07382888
_cell_angle_alpha   55.47130344
_cell_angle_beta   55.47130344
_cell_angle_gamma   55.47130344
_symmetry_Int_Tables_number   1
_chemical_formula_structural   Ti4P6PbO24
_chemical_formula_sum   'Ti4 P6 Pb1 O24'
_cell_volume   472.71739062
_cell_formula_units_Z   1
loop_
 _symmetry_equiv_pos_site_id
 _symmetry_equiv_pos_as_xyz
  1  'x, y, z'
loop_
 _atom_site_type_symbol
 _atom_site_label
 _atom_site_symmetry_multiplicity
 _atom_site_fract_x
 _atom_site_fract_y
 _atom_site_fract_z
 _atom_site_occupancy
  Ti  Ti0  1  0.849911  0.849911  0.849911  1
  Ti  Ti1  1  0.150089  0.150089  0.150089  1
  Ti  Ti2  1  0.354520  0.354520  0.354520  1
  Ti  Ti3  1  0.645480  0.645480  0.645480  1
  P  P4  1  0.030248  0.750500  0.463829  1
  P  P5  1  0.536171  0.969752  0.249500  1
  P  P6  1  0.969752  0.249500  0.536171  1
  P  P7  1  0.463829  0.030248  0.750500  1
  P  P8  1  0.249500  0.536171  0.969752  1
  P  P9  1  0.750500  0.463829  0.030248  1
  Pb  Pb10  1  0.000000  0.000000  0.000000  1
  O  O11  1  0.729260  0.901695  0.093460  1
  O  O12  1  0.517784  0.159200  0.229495  1
  O  O13  1  0.901695  0.093460  0.729260  1
  O  O14  1  0.550308  0.465055  0.184646  1
  O  O15  1  0.214978  0.371987  0.997281  1
  O  O16  1  0.002719  0.785022  0.628013  1
  O  O17  1  0.093460  0.729260  0.901695  1
  O  O18  1  0.997281  0.214978  0.371987  1
  O  O19  1  0.098305  0.906540  0.270740  1
  O  O20  1  0.840800  0.770505  0.482216  1
  O  O21  1  0.371987  0.997281  0.214978  1
  O  O22  1  0.628013  0.002719  0.785022  1
  O  O23  1  0.815354  0.449692  0.534945  1
  O  O24  1  0.270740  0.098305  0.906540  1
  O  O25  1  0.184646  0.550308  0.465055  1
  O  O26  1  0.785022  0.628013  0.002719  1
  O  O27  1  0.770505  0.482216  0.840800  1
  O  O28  1  0.465055  0.184646  0.550308  1
  O  O29  1  0.534945  0.815354  0.449692  1
  O  O30  1  0.159200  0.229495  0.517784  1
  O  O31  1  0.482216  0.840800  0.770505  1
  O  O32  1  0.906540  0.270740  0.098305  1
  O  O33  1  0.229495  0.517784  0.159200  1
  O  O34  1  0.449692  0.534945  0.815354  1
