# generated using pymatgen
data_LiSn2(PO4)3
_symmetry_space_group_name_H-M   'P 1'
_cell_length_a   8.85335048
_cell_length_b   8.85335048
_cell_length_c   8.85335048
_cell_angle_alpha   59.31655941
_cell_angle_beta   59.31655941
_cell_angle_gamma   59.31655941
_symmetry_Int_Tables_number   1
_chemical_formula_structural   LiSn2(PO4)3
_chemical_formula_sum   'Li2 Sn4 P6 O24'
_cell_volume   483.05548965
_cell_formula_units_Z   2
loop_
 _symmetry_equiv_pos_site_id
 _symmetry_equiv_pos_as_xyz
  1  'x, y, z'
loop_
 _atom_site_type_symbol
 _atom_site_label
 _atom_site_symmetry_multiplicity
 _atom_site_fract_x
 _atom_site_fract_y
 _atom_site_fract_z
 _atom_site_occupancy
  Li  Li0  1  0.000000  0.000000  0.000000  1
  Li  Li1  1  0.500000  0.500000  0.500000  1
  Sn  Sn2  1  0.857081  0.857081  0.857081  1
  Sn  Sn3  1  0.357081  0.357081  0.357081  1
  Sn  Sn4  1  0.142919  0.142919  0.142919  1
  Sn  Sn5  1  0.642919  0.642919  0.642919  1
  P  P6  1  0.750000  0.455700  0.044300  1
  P  P7  1  0.544300  0.955700  0.250000  1
  P  P8  1  0.250000  0.544300  0.955700  1
  P  P9  1  0.044300  0.750000  0.455700  1
  P  P10  1  0.955700  0.250000  0.544300  1
  P  P11  1  0.455700  0.044300  0.750000  1
  O  O12  1  0.695928  0.490411  0.887110  1
  O  O13  1  0.233445  0.586302  0.439985  1
  O  O14  1  0.913698  0.266555  0.060015  1
  O  O15  1  0.586302  0.439985  0.233445  1
  O  O16  1  0.766555  0.413698  0.560015  1
  O  O17  1  0.387110  0.990411  0.195928  1
  O  O18  1  0.304072  0.509589  0.112890  1
  O  O19  1  0.112890  0.304072  0.509589  1
  O  O20  1  0.195928  0.387110  0.990411  1
  O  O21  1  0.560015  0.766555  0.413698  1
  O  O22  1  0.490411  0.887110  0.695928  1
  O  O23  1  0.612890  0.009589  0.804072  1
  O  O24  1  0.439985  0.233445  0.586302  1
  O  O25  1  0.887110  0.695928  0.490411  1
  O  O26  1  0.939985  0.086302  0.733445  1
  O  O27  1  0.266555  0.060015  0.913698  1
  O  O28  1  0.009589  0.804072  0.612890  1
  O  O29  1  0.413698  0.560015  0.766555  1
  O  O30  1  0.509589  0.112890  0.304072  1
  O  O31  1  0.804072  0.612890  0.009589  1
  O  O32  1  0.086302  0.733445  0.939985  1
  O  O33  1  0.060015  0.913698  0.266555  1
  O  O34  1  0.733445  0.939985  0.086302  1
  O  O35  1  0.990411  0.195928  0.387110  1
