# generated using pymatgen
data_VCdCuO4
_symmetry_space_group_name_H-M   'P 1'
_cell_length_a   5.51790963
_cell_length_b   5.51790963
_cell_length_c   6.56436727
_cell_angle_alpha   90.00000000
_cell_angle_beta   90.00000000
_cell_angle_gamma   113.02560338
_symmetry_Int_Tables_number   1
_chemical_formula_structural   VCdCuO4
_chemical_formula_sum   'V2 Cd2 Cu2 O8'
_cell_volume   183.94402814
_cell_formula_units_Z   2
loop_
 _symmetry_equiv_pos_site_id
 _symmetry_equiv_pos_as_xyz
  1  'x, y, z'
loop_
 _atom_site_type_symbol
 _atom_site_label
 _atom_site_symmetry_multiplicity
 _atom_site_fract_x
 _atom_site_fract_y
 _atom_site_fract_z
 _atom_site_occupancy
  V  V0  1  0.634119  0.365881  0.750000  1
  V  V1  1  0.365881  0.634119  0.250000  1
  Cd  Cd2  1  0.000000  0.000000  0.000000  1
  Cd  Cd3  1  0.000000  0.000000  0.500000  1
  Cu  Cu4  1  0.306056  0.693944  0.750000  1
  Cu  Cu5  1  0.693944  0.306056  0.250000  1
  O  O6  1  0.741334  0.258666  0.969211  1
  O  O7  1  0.258666  0.741334  0.469211  1
  O  O8  1  0.258666  0.741334  0.030789  1
  O  O9  1  0.741334  0.258666  0.530789  1
  O  O10  1  0.283514  0.247725  0.750000  1
  O  O11  1  0.716486  0.752275  0.250000  1
  O  O12  1  0.752275  0.716486  0.750000  1
  O  O13  1  0.247725  0.283514  0.250000  1
