# generated using pymatgen
data_Sr5As3ClO12
_symmetry_space_group_name_H-M   'P 1'
_cell_length_a   10.45512216
_cell_length_b   10.45512216
_cell_length_c   7.30065464
_cell_angle_alpha   90.00000000
_cell_angle_beta   90.00000000
_cell_angle_gamma   120.00000000
_symmetry_Int_Tables_number   1
_chemical_formula_structural   Sr5As3ClO12
_chemical_formula_sum   'Sr10 As6 Cl2 O24'
_cell_volume   691.11554130
_cell_formula_units_Z   2
loop_
 _symmetry_equiv_pos_site_id
 _symmetry_equiv_pos_as_xyz
  1  'x, y, z'
loop_
 _atom_site_type_symbol
 _atom_site_label
 _atom_site_symmetry_multiplicity
 _atom_site_fract_x
 _atom_site_fract_y
 _atom_site_fract_z
 _atom_site_occupancy
  Sr  Sr0  1  0.333333  0.666667  0.002416  1
  Sr  Sr1  1  0.246908  0.256577  0.750000  1
  Sr  Sr2  1  0.333333  0.666667  0.497584  1
  Sr  Sr3  1  0.743423  0.990330  0.750000  1
  Sr  Sr4  1  0.009670  0.753092  0.750000  1
  Sr  Sr5  1  0.666667  0.333333  0.997584  1
  Sr  Sr6  1  0.666667  0.333333  0.502416  1
  Sr  Sr7  1  0.990330  0.246908  0.250000  1
  Sr  Sr8  1  0.753092  0.743423  0.250000  1
  Sr  Sr9  1  0.256577  0.009670  0.250000  1
  As  As10  1  0.030890  0.408016  0.750000  1
  As  As11  1  0.969110  0.591984  0.250000  1
  As  As12  1  0.591984  0.622873  0.750000  1
  As  As13  1  0.622873  0.030890  0.250000  1
  As  As14  1  0.408016  0.377127  0.250000  1
  As  As15  1  0.377127  0.969110  0.750000  1
  Cl  Cl16  1  0.000000  0.000000  0.000000  1
  Cl  Cl17  1  0.000000  0.000000  0.500000  1
  O  O18  1  0.156421  0.661226  0.250000  1
  O  O19  1  0.470000  0.870549  0.750000  1
  O  O20  1  0.091324  0.353308  0.937868  1
  O  O21  1  0.599451  0.470000  0.250000  1
  O  O22  1  0.504805  0.843579  0.250000  1
  O  O23  1  0.738016  0.091324  0.062132  1
  O  O24  1  0.129451  0.599451  0.750000  1
  O  O25  1  0.353308  0.261984  0.062132  1
  O  O26  1  0.843579  0.338774  0.750000  1
  O  O27  1  0.400549  0.530000  0.750000  1
  O  O28  1  0.261984  0.908676  0.937868  1
  O  O29  1  0.738016  0.091324  0.437868  1
  O  O30  1  0.908676  0.646692  0.437868  1
  O  O31  1  0.261984  0.908676  0.562132  1
  O  O32  1  0.353308  0.261984  0.437868  1
  O  O33  1  0.530000  0.129451  0.250000  1
  O  O34  1  0.646692  0.738016  0.562132  1
  O  O35  1  0.338774  0.495195  0.250000  1
  O  O36  1  0.646692  0.738016  0.937868  1
  O  O37  1  0.495195  0.156421  0.750000  1
  O  O38  1  0.091324  0.353308  0.562132  1
  O  O39  1  0.661226  0.504805  0.750000  1
  O  O40  1  0.908676  0.646692  0.062132  1
  O  O41  1  0.870549  0.400549  0.250000  1
