# generated using pymatgen
data_TaP2S2Cl5
_symmetry_space_group_name_H-M   'P 1'
_cell_length_a   6.83919223
_cell_length_b   13.80074572
_cell_length_c   27.75506901
_cell_angle_alpha   90.00000000
_cell_angle_beta   100.30747953
_cell_angle_gamma   90.00000000
_symmetry_Int_Tables_number   1
_chemical_formula_structural   TaP2S2Cl5
_chemical_formula_sum   'Ta8 P16 S16 Cl40'
_cell_volume   2577.41128565
_cell_formula_units_Z   8
loop_
 _symmetry_equiv_pos_site_id
 _symmetry_equiv_pos_as_xyz
  1  'x, y, z'
loop_
 _atom_site_type_symbol
 _atom_site_label
 _atom_site_symmetry_multiplicity
 _atom_site_fract_x
 _atom_site_fract_y
 _atom_site_fract_z
 _atom_site_occupancy
  Ta  Ta0  1  0.252268  0.786869  0.972509  1
  Ta  Ta1  1  0.252268  0.713131  0.472509  1
  Ta  Ta2  1  0.747732  0.286869  0.527491  1
  Ta  Ta3  1  0.026744  0.613151  0.702562  1
  Ta  Ta4  1  0.973256  0.113151  0.797438  1
  Ta  Ta5  1  0.973256  0.386849  0.297438  1
  Ta  Ta6  1  0.747732  0.213131  0.027491  1
  Ta  Ta7  1  0.026744  0.886849  0.202562  1
  P  P8  1  0.460980  0.070729  0.380089  1
  P  P9  1  0.931340  0.431754  0.141036  1
  P  P10  1  0.324825  0.656728  0.900425  1
  P  P11  1  0.539020  0.929271  0.619911  1
  P  P12  1  0.758993  0.089459  0.702986  1
  P  P13  1  0.675175  0.156728  0.599575  1
  P  P14  1  0.241007  0.910541  0.297014  1
  P  P15  1  0.675175  0.343272  0.099575  1
  P  P16  1  0.460980  0.429271  0.880089  1
  P  P17  1  0.539020  0.570729  0.119911  1
  P  P18  1  0.241007  0.589459  0.797014  1
  P  P19  1  0.068660  0.568246  0.858964  1
  P  P20  1  0.758993  0.410541  0.202986  1
  P  P21  1  0.324825  0.843272  0.400425  1
  P  P22  1  0.931340  0.068246  0.641036  1
  P  P23  1  0.068660  0.931754  0.358964  1
  S  S24  1  0.449141  0.024432  0.306080  1
  S  S25  1  0.630662  0.217415  0.667422  1
  S  S26  1  0.852402  0.571216  0.118168  1
  S  S27  1  0.369338  0.717415  0.832578  1
  S  S28  1  0.546208  0.552915  0.925346  1
  S  S29  1  0.449141  0.475568  0.806080  1
  S  S30  1  0.852402  0.928784  0.618168  1
  S  S31  1  0.147598  0.071216  0.381832  1
  S  S32  1  0.550859  0.975568  0.693920  1
  S  S33  1  0.453792  0.447085  0.074654  1
  S  S34  1  0.453792  0.052915  0.574654  1
  S  S35  1  0.550859  0.524432  0.193920  1
  S  S36  1  0.369338  0.782585  0.332578  1
  S  S37  1  0.630662  0.282585  0.167422  1
  S  S38  1  0.147598  0.428784  0.881832  1
  S  S39  1  0.546208  0.947085  0.425346  1
  Cl  Cl40  1  0.244558  0.744405  0.702730  1
  Cl  Cl41  1  0.566257  0.736039  0.012801  1
  Cl  Cl42  1  0.268350  0.985646  0.178513  1
  Cl  Cl43  1  0.755442  0.255595  0.297270  1
  Cl  Cl44  1  0.589913  0.104638  0.072197  1
  Cl  Cl45  1  0.410087  0.604638  0.427803  1
  Cl  Cl46  1  0.880036  0.025499  0.229166  1
  Cl  Cl47  1  0.119964  0.974501  0.770834  1
  Cl  Cl48  1  0.121074  0.859483  0.496865  1
  Cl  Cl49  1  0.823609  0.113115  0.968294  1
  Cl  Cl50  1  0.589913  0.395362  0.572197  1
  Cl  Cl51  1  0.176391  0.613115  0.531706  1
  Cl  Cl52  1  0.244558  0.755595  0.202730  1
  Cl  Cl53  1  0.878926  0.359483  0.003135  1
  Cl  Cl54  1  0.176391  0.886885  0.031706  1
  Cl  Cl55  1  0.731650  0.014354  0.821487  1
  Cl  Cl56  1  0.174207  0.135272  0.871521  1
  Cl  Cl57  1  0.880036  0.474501  0.729166  1
  Cl  Cl58  1  0.268350  0.514354  0.678513  1
  Cl  Cl59  1  0.433743  0.236039  0.487199  1
  Cl  Cl60  1  0.039651  0.306484  0.584961  1
  Cl  Cl61  1  0.842160  0.792018  0.248604  1
  Cl  Cl62  1  0.755442  0.244405  0.797270  1
  Cl  Cl63  1  0.878926  0.140517  0.503135  1
  Cl  Cl64  1  0.433743  0.263961  0.987199  1
  Cl  Cl65  1  0.960349  0.806484  0.915039  1
  Cl  Cl66  1  0.121074  0.640517  0.996865  1
  Cl  Cl67  1  0.825793  0.864728  0.128479  1
  Cl  Cl68  1  0.823609  0.386885  0.468294  1
  Cl  Cl69  1  0.960349  0.693516  0.415039  1
  Cl  Cl70  1  0.566257  0.763961  0.512801  1
  Cl  Cl71  1  0.825793  0.635272  0.628479  1
  Cl  Cl72  1  0.119964  0.525499  0.270834  1
  Cl  Cl73  1  0.842160  0.707982  0.748604  1
  Cl  Cl74  1  0.157840  0.292018  0.251396  1
  Cl  Cl75  1  0.157840  0.207982  0.751396  1
  Cl  Cl76  1  0.731650  0.485646  0.321487  1
  Cl  Cl77  1  0.039651  0.193516  0.084961  1
  Cl  Cl78  1  0.174207  0.364728  0.371521  1
  Cl  Cl79  1  0.410087  0.895362  0.927803  1
