# generated using pymatgen
data_KAg3As2S5
_symmetry_space_group_name_H-M   'P 1'
_cell_length_a   6.44178731
_cell_length_b   17.04206366
_cell_length_c   19.72046782
_cell_angle_alpha   90.00000000
_cell_angle_beta   90.00000000
_cell_angle_gamma   90.00000000
_symmetry_Int_Tables_number   1
_chemical_formula_structural   KAg3As2S5
_chemical_formula_sum   'K8 Ag24 As16 S40'
_cell_volume   2164.93956850
_cell_formula_units_Z   8
loop_
 _symmetry_equiv_pos_site_id
 _symmetry_equiv_pos_as_xyz
  1  'x, y, z'
loop_
 _atom_site_type_symbol
 _atom_site_label
 _atom_site_symmetry_multiplicity
 _atom_site_fract_x
 _atom_site_fract_y
 _atom_site_fract_z
 _atom_site_occupancy
  K  K0  1  0.909731  0.623975  0.478889  1
  K  K1  1  0.409731  0.123975  0.021111  1
  K  K2  1  0.090269  0.376025  0.521111  1
  K  K3  1  0.090269  0.123975  0.521111  1
  K  K4  1  0.590269  0.623975  0.978889  1
  K  K5  1  0.409731  0.376025  0.021111  1
  K  K6  1  0.590269  0.876025  0.978889  1
  K  K7  1  0.909731  0.876025  0.478889  1
  Ag  Ag8  1  0.096291  0.126004  0.314650  1
  Ag  Ag9  1  0.909317  0.976151  0.265378  1
  Ag  Ag10  1  0.090683  0.476151  0.734622  1
  Ag  Ag11  1  0.909317  0.523849  0.265378  1
  Ag  Ag12  1  0.409317  0.023849  0.234622  1
  Ag  Ag13  1  0.903709  0.626004  0.685350  1
  Ag  Ag14  1  0.590683  0.976151  0.765378  1
  Ag  Ag15  1  0.096291  0.373996  0.314650  1
  Ag  Ag16  1  0.839785  0.368159  0.140635  1
  Ag  Ag17  1  0.903709  0.873996  0.685350  1
  Ag  Ag18  1  0.090683  0.023849  0.734622  1
  Ag  Ag19  1  0.160215  0.868159  0.859365  1
  Ag  Ag20  1  0.590683  0.523849  0.765378  1
  Ag  Ag21  1  0.596291  0.626004  0.185350  1
  Ag  Ag22  1  0.596291  0.873996  0.185350  1
  Ag  Ag23  1  0.160215  0.631841  0.859365  1
  Ag  Ag24  1  0.339785  0.631841  0.359365  1
  Ag  Ag25  1  0.403709  0.126004  0.814650  1
  Ag  Ag26  1  0.339785  0.868159  0.359365  1
  Ag  Ag27  1  0.660215  0.131841  0.640635  1
  Ag  Ag28  1  0.839785  0.131841  0.140635  1
  Ag  Ag29  1  0.403709  0.373996  0.814650  1
  Ag  Ag30  1  0.409317  0.476151  0.234622  1
  Ag  Ag31  1  0.660215  0.368159  0.640635  1
  As  As32  1  0.595654  0.750000  0.787341  1
  As  As33  1  0.406931  0.539147  0.589005  1
  As  As34  1  0.904346  0.750000  0.287341  1
  As  As35  1  0.593069  0.460853  0.410995  1
  As  As36  1  0.593069  0.039147  0.410995  1
  As  As37  1  0.490975  0.750000  0.609033  1
  As  As38  1  0.406931  0.960853  0.589005  1
  As  As39  1  0.906931  0.460853  0.910995  1
  As  As40  1  0.990975  0.250000  0.890967  1
  As  As41  1  0.906931  0.039147  0.910995  1
  As  As42  1  0.095654  0.250000  0.712659  1
  As  As43  1  0.093069  0.960853  0.089005  1
  As  As44  1  0.509025  0.250000  0.390967  1
  As  As45  1  0.404346  0.250000  0.212659  1
  As  As46  1  0.093069  0.539147  0.089005  1
  As  As47  1  0.009025  0.750000  0.109033  1
  S  S48  1  0.746348  0.991634  0.606232  1
  S  S49  1  0.188440  0.909827  0.191297  1
  S  S50  1  0.311560  0.909827  0.691297  1
  S  S51  1  0.380768  0.750000  0.879386  1
  S  S52  1  0.746348  0.508366  0.606232  1
  S  S53  1  0.658519  0.750000  0.111117  1
  S  S54  1  0.619232  0.250000  0.120614  1
  S  S55  1  0.811560  0.090173  0.808703  1
  S  S56  1  0.075812  0.845541  0.025962  1
  S  S57  1  0.811560  0.409827  0.808703  1
  S  S58  1  0.924188  0.345541  0.974038  1
  S  S59  1  0.424188  0.845541  0.525962  1
  S  S60  1  0.688440  0.090173  0.308703  1
  S  S61  1  0.119232  0.750000  0.379386  1
  S  S62  1  0.795122  0.643256  0.813959  1
  S  S63  1  0.311560  0.590173  0.691297  1
  S  S64  1  0.204878  0.143256  0.186041  1
  S  S65  1  0.880768  0.250000  0.620614  1
  S  S66  1  0.253652  0.008366  0.393768  1
  S  S67  1  0.704878  0.643256  0.313959  1
  S  S68  1  0.341481  0.250000  0.888883  1
  S  S69  1  0.575812  0.154459  0.474038  1
  S  S70  1  0.841481  0.750000  0.611117  1
  S  S71  1  0.688440  0.409827  0.308703  1
  S  S72  1  0.075812  0.654459  0.025962  1
  S  S73  1  0.253652  0.491634  0.393768  1
  S  S74  1  0.246348  0.008366  0.893768  1
  S  S75  1  0.246348  0.491634  0.893768  1
  S  S76  1  0.188440  0.590173  0.191297  1
  S  S77  1  0.158519  0.250000  0.388883  1
  S  S78  1  0.295122  0.356744  0.686041  1
  S  S79  1  0.575812  0.345541  0.474038  1
  S  S80  1  0.704878  0.856744  0.313959  1
  S  S81  1  0.753652  0.508366  0.106232  1
  S  S82  1  0.295122  0.143256  0.686041  1
  S  S83  1  0.424188  0.654459  0.525962  1
  S  S84  1  0.924188  0.154459  0.974038  1
  S  S85  1  0.795122  0.856744  0.813959  1
  S  S86  1  0.204878  0.356744  0.186041  1
  S  S87  1  0.753652  0.991634  0.106232  1
