# generated using pymatgen
data_Rb3MnF7
_symmetry_space_group_name_H-M   'P 1'
_cell_length_a   8.22180925
_cell_length_b   8.22180925
_cell_length_c   5.99770517
_cell_angle_alpha   90.00000000
_cell_angle_beta   90.00000000
_cell_angle_gamma   90.00000000
_symmetry_Int_Tables_number   1
_chemical_formula_structural   Rb3MnF7
_chemical_formula_sum   'Rb6 Mn2 F14'
_cell_volume   405.43375780
_cell_formula_units_Z   2
loop_
 _symmetry_equiv_pos_site_id
 _symmetry_equiv_pos_as_xyz
  1  'x, y, z'
loop_
 _atom_site_type_symbol
 _atom_site_label
 _atom_site_symmetry_multiplicity
 _atom_site_fract_x
 _atom_site_fract_y
 _atom_site_fract_z
 _atom_site_occupancy
  Rb  Rb0  1  0.191674  0.691674  0.500000  1
  Rb  Rb1  1  0.691674  0.808326  0.500000  1
  Rb  Rb2  1  0.308326  0.191674  0.500000  1
  Rb  Rb3  1  0.808326  0.308326  0.500000  1
  Rb  Rb4  1  0.500000  0.500000  0.000000  1
  Rb  Rb5  1  0.000000  0.000000  0.000000  1
  Mn  Mn6  1  0.000000  0.500000  0.000000  1
  Mn  Mn7  1  0.500000  0.000000  0.000000  1
  F  F8  1  0.389223  0.889223  0.779130  1
  F  F9  1  0.610777  0.110777  0.779130  1
  F  F10  1  0.110777  0.389223  0.779130  1
  F  F11  1  0.889223  0.610777  0.779130  1
  F  F12  1  0.389223  0.889223  0.220870  1
  F  F13  1  0.889223  0.610777  0.220870  1
  F  F14  1  0.110777  0.389223  0.220870  1
  F  F15  1  0.610777  0.110777  0.220870  1
  F  F16  1  0.000000  0.000000  0.500000  1
  F  F17  1  0.500000  0.500000  0.500000  1
  F  F18  1  0.841177  0.341177  0.000000  1
  F  F19  1  0.341177  0.158823  0.000000  1
  F  F20  1  0.658823  0.841177  0.000000  1
  F  F21  1  0.158823  0.658823  0.000000  1
