# generated using pymatgen
data_Nb3Se5Cl7
_symmetry_space_group_name_H-M   'P 1'
_cell_length_a   8.23083754
_cell_length_b   12.79333033
_cell_length_c   8.59084256
_cell_angle_alpha   90.00000000
_cell_angle_beta   109.29527554
_cell_angle_gamma   90.00000000
_symmetry_Int_Tables_number   1
_chemical_formula_structural   Nb3Se5Cl7
_chemical_formula_sum   'Nb6 Se10 Cl14'
_cell_volume   853.80039918
_cell_formula_units_Z   2
loop_
 _symmetry_equiv_pos_site_id
 _symmetry_equiv_pos_as_xyz
  1  'x, y, z'
loop_
 _atom_site_type_symbol
 _atom_site_label
 _atom_site_symmetry_multiplicity
 _atom_site_fract_x
 _atom_site_fract_y
 _atom_site_fract_z
 _atom_site_occupancy
  Nb  Nb0  1  0.025976  0.610225  0.059068  1
  Nb  Nb1  1  0.974024  0.110225  0.940932  1
  Nb  Nb2  1  0.974024  0.389775  0.940932  1
  Nb  Nb3  1  0.025976  0.889775  0.059068  1
  Nb  Nb4  1  0.398139  0.750000  0.474053  1
  Nb  Nb5  1  0.601861  0.250000  0.525947  1
  Se  Se6  1  0.169246  0.525840  0.853128  1
  Se  Se7  1  0.830754  0.025840  0.146872  1
  Se  Se8  1  0.830754  0.474160  0.146872  1
  Se  Se9  1  0.169246  0.974160  0.853128  1
  Se  Se10  1  0.273951  0.468222  0.123698  1
  Se  Se11  1  0.726049  0.968222  0.876302  1
  Se  Se12  1  0.726049  0.531778  0.876302  1
  Se  Se13  1  0.273951  0.031778  0.123698  1
  Se  Se14  1  0.419750  0.750000  0.747440  1
  Se  Se15  1  0.580250  0.250000  0.252560  1
  Cl  Cl16  1  0.944369  0.750000  0.825558  1
  Cl  Cl17  1  0.055631  0.250000  0.174442  1
  Cl  Cl18  1  0.843048  0.750000  0.141006  1
  Cl  Cl19  1  0.156952  0.250000  0.858994  1
  Cl  Cl20  1  0.278416  0.750000  0.125236  1
  Cl  Cl21  1  0.721584  0.250000  0.874764  1
  Cl  Cl22  1  0.155080  0.616935  0.385990  1
  Cl  Cl23  1  0.844920  0.116935  0.614010  1
  Cl  Cl24  1  0.844920  0.383065  0.614010  1
  Cl  Cl25  1  0.155080  0.883065  0.385990  1
  Cl  Cl26  1  0.589552  0.618692  0.458855  1
  Cl  Cl27  1  0.410448  0.118692  0.541145  1
  Cl  Cl28  1  0.410448  0.381308  0.541145  1
  Cl  Cl29  1  0.589552  0.881308  0.458855  1
