# generated using pymatgen
data_KNaCu(Si2O5)2
_symmetry_space_group_name_H-M   'P 1'
_cell_length_a   7.03998896
_cell_length_b   8.16052429
_cell_length_c   9.91563168
_cell_angle_alpha   105.85245017
_cell_angle_beta   99.58063458
_cell_angle_gamma   113.68587922
_symmetry_Int_Tables_number   1
_chemical_formula_structural   KNaCu(Si2O5)2
_chemical_formula_sum   'K2 Na2 Cu2 Si8 O20'
_cell_volume   476.52904019
_cell_formula_units_Z   2
loop_
 _symmetry_equiv_pos_site_id
 _symmetry_equiv_pos_as_xyz
  1  'x, y, z'
loop_
 _atom_site_type_symbol
 _atom_site_label
 _atom_site_symmetry_multiplicity
 _atom_site_fract_x
 _atom_site_fract_y
 _atom_site_fract_z
 _atom_site_occupancy
  K  K0  1  0.166815  0.798194  0.496188  1
  K  K1  1  0.833185  0.201806  0.503812  1
  Na  Na2  1  0.163788  0.123801  0.908934  1
  Na  Na3  1  0.836212  0.876199  0.091066  1
  Cu  Cu4  1  0.332254  0.863110  0.087037  1
  Cu  Cu5  1  0.667746  0.136890  0.912963  1
  Si  Si6  1  0.312474  0.172977  0.356951  1
  Si  Si7  1  0.687526  0.827023  0.643049  1
  Si  Si8  1  0.343826  0.616633  0.776140  1
  Si  Si9  1  0.656174  0.383367  0.223860  1
  Si  Si10  1  0.460960  0.289790  0.710252  1
  Si  Si11  1  0.539040  0.710210  0.289748  1
  Si  Si12  1  0.065966  0.353407  0.221592  1
  Si  Si13  1  0.934034  0.646593  0.778408  1
  O  O14  1  0.466196  0.786139  0.935822  1
  O  O15  1  0.533804  0.213861  0.064178  1
  O  O16  1  0.359071  0.184443  0.528298  1
  O  O17  1  0.640929  0.815557  0.471702  1
  O  O18  1  0.456024  0.671488  0.650404  1
  O  O19  1  0.543976  0.328512  0.349596  1
  O  O20  1  0.053108  0.801860  0.944400  1
  O  O21  1  0.946892  0.198140  0.055600  1
  O  O22  1  0.216049  0.954488  0.245597  1
  O  O23  1  0.783951  0.045512  0.754403  1
  O  O24  1  0.089003  0.567329  0.705037  1
  O  O25  1  0.910997  0.432671  0.294963  1
  O  O26  1  0.580046  0.881338  0.229944  1
  O  O27  1  0.419954  0.118662  0.770056  1
  O  O28  1  0.673213  0.594081  0.230790  1
  O  O29  1  0.326787  0.405919  0.769210  1
  O  O30  1  0.282122  0.551010  0.243820  1
  O  O31  1  0.717878  0.448990  0.756180  1
  O  O32  1  0.866771  0.746230  0.666547  1
  O  O33  1  0.133229  0.253770  0.333453  1
