# generated using pymatgen
data_KEr(WO4)2
_symmetry_space_group_name_H-M   'P 1'
_cell_length_a   7.60231024
_cell_length_b   7.60231024
_cell_length_c   7.45118124
_cell_angle_alpha   62.09072448
_cell_angle_beta   117.90927552
_cell_angle_gamma   92.09472176
_symmetry_Int_Tables_number   1
_chemical_formula_structural   KEr(WO4)2
_chemical_formula_sum   'K2 Er2 W4 O16'
_cell_volume   326.97490017
_cell_formula_units_Z   2
loop_
 _symmetry_equiv_pos_site_id
 _symmetry_equiv_pos_as_xyz
  1  'x, y, z'
loop_
 _atom_site_type_symbol
 _atom_site_label
 _atom_site_symmetry_multiplicity
 _atom_site_fract_x
 _atom_site_fract_y
 _atom_site_fract_z
 _atom_site_occupancy
  K  K0  1  0.207743  0.207743  0.250000  1
  K  K1  1  0.792257  0.792257  0.750000  1
  Er  Er2  1  0.224263  0.224263  0.750000  1
  Er  Er3  1  0.775737  0.775737  0.250000  1
  W  W4  1  0.692621  0.298875  0.717284  1
  W  W5  1  0.701125  0.307379  0.217284  1
  W  W6  1  0.307379  0.701125  0.282716  1
  W  W7  1  0.298875  0.692621  0.782716  1
  O  O8  1  0.243714  0.622576  0.055776  1
  O  O9  1  0.364576  0.944761  0.119445  1
  O  O10  1  0.038599  0.775228  0.189052  1
  O  O11  1  0.224772  0.961401  0.689052  1
  O  O12  1  0.635425  0.055239  0.880555  1
  O  O13  1  0.594214  0.628551  0.035938  1
  O  O14  1  0.756286  0.377424  0.944224  1
  O  O15  1  0.622576  0.243714  0.444224  1
  O  O16  1  0.377424  0.756286  0.555776  1
  O  O17  1  0.628551  0.594214  0.464062  1
  O  O18  1  0.775228  0.038599  0.310948  1
  O  O19  1  0.055239  0.635424  0.619445  1
  O  O20  1  0.961401  0.224772  0.810948  1
  O  O21  1  0.405786  0.371449  0.964062  1
  O  O22  1  0.944761  0.364575  0.380555  1
  O  O23  1  0.371449  0.405786  0.535938  1
