# generated using pymatgen
data_BaFe2P2O7F2
_symmetry_space_group_name_H-M   'P 1'
_cell_length_a   4.66892638
_cell_length_b   6.93007987
_cell_length_c   12.04696225
_cell_angle_alpha   90.00000000
_cell_angle_beta   90.00000000
_cell_angle_gamma   90.00000000
_symmetry_Int_Tables_number   1
_chemical_formula_structural   BaFe2P2O7F2
_chemical_formula_sum   'Ba2 Fe4 P4 O14 F4'
_cell_volume   389.79190474
_cell_formula_units_Z   2
loop_
 _symmetry_equiv_pos_site_id
 _symmetry_equiv_pos_as_xyz
  1  'x, y, z'
loop_
 _atom_site_type_symbol
 _atom_site_label
 _atom_site_symmetry_multiplicity
 _atom_site_fract_x
 _atom_site_fract_y
 _atom_site_fract_z
 _atom_site_occupancy
  Ba  Ba0  1  0.392033  0.000000  0.500000  1
  Ba  Ba1  1  0.607967  0.500000  0.000000  1
  Fe  Fe2  1  0.000000  0.750000  0.250000  1
  Fe  Fe3  1  0.000000  0.250000  0.250000  1
  Fe  Fe4  1  0.000000  0.250000  0.750000  1
  Fe  Fe5  1  0.000000  0.750000  0.750000  1
  P  P6  1  0.513235  0.000000  0.123936  1
  P  P7  1  0.486765  0.500000  0.623936  1
  P  P8  1  0.486765  0.500000  0.376064  1
  P  P9  1  0.513235  0.000000  0.876064  1
  O  O10  1  0.749483  0.500000  0.699871  1
  O  O11  1  0.309816  0.684833  0.633877  1
  O  O12  1  0.690184  0.815167  0.133877  1
  O  O13  1  0.309816  0.315167  0.366123  1
  O  O14  1  0.690184  0.815167  0.866123  1
  O  O15  1  0.250517  0.000000  0.800129  1
  O  O16  1  0.690184  0.184833  0.133877  1
  O  O17  1  0.690184  0.184833  0.866123  1
  O  O18  1  0.250517  0.000000  0.199871  1
  O  O19  1  0.309816  0.315167  0.633877  1
  O  O20  1  0.309816  0.684833  0.366123  1
  O  O21  1  0.625908  0.500000  0.500000  1
  O  O22  1  0.374092  0.000000  0.000000  1
  O  O23  1  0.749483  0.500000  0.300129  1
  F  F24  1  0.128368  0.500000  0.136053  1
  F  F25  1  0.128368  0.500000  0.863947  1
  F  F26  1  0.871632  0.000000  0.363947  1
  F  F27  1  0.871632  0.000000  0.636053  1
