# generated using pymatgen
data_Dy3CuSnSe7
_symmetry_space_group_name_H-M   'P 1'
_cell_length_a   10.22536408
_cell_length_b   10.22536408
_cell_length_c   6.51928873
_cell_angle_alpha   90.00000000
_cell_angle_beta   90.00000000
_cell_angle_gamma   120.00000000
_symmetry_Int_Tables_number   1
_chemical_formula_structural   Dy3CuSnSe7
_chemical_formula_sum   'Dy6 Cu2 Sn2 Se14'
_cell_volume   590.32123726
_cell_formula_units_Z   2
loop_
 _symmetry_equiv_pos_site_id
 _symmetry_equiv_pos_as_xyz
  1  'x, y, z'
loop_
 _atom_site_type_symbol
 _atom_site_label
 _atom_site_symmetry_multiplicity
 _atom_site_fract_x
 _atom_site_fract_y
 _atom_site_fract_z
 _atom_site_occupancy
  Dy  Dy0  1  0.357548  0.154422  0.393210  1
  Dy  Dy1  1  0.203126  0.357548  0.893210  1
  Dy  Dy2  1  0.154422  0.796874  0.893210  1
  Dy  Dy3  1  0.845578  0.203126  0.393210  1
  Dy  Dy4  1  0.796874  0.642452  0.393210  1
  Dy  Dy5  1  0.642452  0.845578  0.893210  1
  Cu  Cu6  1  0.000000  0.000000  0.999256  1
  Cu  Cu7  1  0.000000  0.000000  0.499256  1
  Sn  Sn8  1  0.333333  0.666667  0.321852  1
  Sn  Sn9  1  0.666667  0.333333  0.821852  1
  Se  Se10  1  0.265209  0.118792  0.968578  1
  Se  Se11  1  0.146417  0.265209  0.468578  1
  Se  Se12  1  0.118792  0.853583  0.468578  1
  Se  Se13  1  0.881208  0.146417  0.968578  1
  Se  Se14  1  0.853583  0.734791  0.968578  1
  Se  Se15  1  0.734791  0.881208  0.468578  1
  Se  Se16  1  0.520089  0.442049  0.638576  1
  Se  Se17  1  0.078040  0.520089  0.138576  1
  Se  Se18  1  0.442049  0.921960  0.138576  1
  Se  Se19  1  0.557951  0.078040  0.638576  1
  Se  Se20  1  0.921960  0.479911  0.638576  1
  Se  Se21  1  0.479911  0.557951  0.138576  1
  Se  Se22  1  0.333333  0.666667  0.714201  1
  Se  Se23  1  0.666667  0.333333  0.214201  1
