# generated using pymatgen
data_RbGeBiS4
_symmetry_space_group_name_H-M   'P 1'
_cell_length_a   6.71937032
_cell_length_b   6.95945650
_cell_length_c   18.29053492
_cell_angle_alpha   90.00000000
_cell_angle_beta   108.20595843
_cell_angle_gamma   90.00000000
_symmetry_Int_Tables_number   1
_chemical_formula_structural   RbGeBiS4
_chemical_formula_sum   'Rb4 Ge4 Bi4 S16'
_cell_volume   812.50545347
_cell_formula_units_Z   4
loop_
 _symmetry_equiv_pos_site_id
 _symmetry_equiv_pos_as_xyz
  1  'x, y, z'
loop_
 _atom_site_type_symbol
 _atom_site_label
 _atom_site_symmetry_multiplicity
 _atom_site_fract_x
 _atom_site_fract_y
 _atom_site_fract_z
 _atom_site_occupancy
  Rb  Rb0  1  0.286967  0.756946  0.534903  1
  Rb  Rb1  1  0.713033  0.256946  0.965097  1
  Rb  Rb2  1  0.713033  0.243054  0.465097  1
  Rb  Rb3  1  0.286967  0.743054  0.034903  1
  Ge  Ge4  1  0.205065  0.229652  0.658979  1
  Ge  Ge5  1  0.794935  0.729652  0.841021  1
  Ge  Ge6  1  0.794935  0.770348  0.341021  1
  Ge  Ge7  1  0.205065  0.270348  0.158979  1
  Bi  Bi8  1  0.238545  0.811180  0.778179  1
  Bi  Bi9  1  0.238545  0.688820  0.278179  1
  Bi  Bi10  1  0.761455  0.311180  0.721821  1
  Bi  Bi11  1  0.761455  0.188820  0.221821  1
  S  S12  1  0.986371  0.516601  0.134372  1
  S  S13  1  0.583467  0.761022  0.912545  1
  S  S14  1  0.001122  0.010322  0.146470  1
  S  S15  1  0.001122  0.489678  0.646470  1
  S  S16  1  0.998878  0.989678  0.853530  1
  S  S17  1  0.409784  0.330656  0.280875  1
  S  S18  1  0.416533  0.238978  0.087455  1
  S  S19  1  0.986371  0.983399  0.634372  1
  S  S20  1  0.416533  0.261022  0.587455  1
  S  S21  1  0.013629  0.016601  0.365628  1
  S  S22  1  0.583467  0.738978  0.412545  1
  S  S23  1  0.590216  0.669344  0.719125  1
  S  S24  1  0.998878  0.510322  0.353530  1
  S  S25  1  0.590216  0.830656  0.219125  1
  S  S26  1  0.409784  0.169344  0.780875  1
  S  S27  1  0.013629  0.483399  0.865628  1
