# generated using pymatgen
data_Y4Al2O9
_symmetry_space_group_name_H-M   'P 1'
_cell_length_a   7.41962271
_cell_length_b   10.52775835
_cell_length_c   11.24528998
_cell_angle_alpha   90.00000000
_cell_angle_beta   108.34465821
_cell_angle_gamma   90.00000000
_symmetry_Int_Tables_number   1
_chemical_formula_structural   Y4Al2O9
_chemical_formula_sum   'Y16 Al8 O36'
_cell_volume   833.75254877
_cell_formula_units_Z   4
loop_
 _symmetry_equiv_pos_site_id
 _symmetry_equiv_pos_as_xyz
  1  'x, y, z'
loop_
 _atom_site_type_symbol
 _atom_site_label
 _atom_site_symmetry_multiplicity
 _atom_site_fract_x
 _atom_site_fract_y
 _atom_site_fract_z
 _atom_site_occupancy
  Y  Y0  1  0.775577  0.405383  0.304280  1
  Y  Y1  1  0.415050  0.618243  0.087802  1
  Y  Y2  1  0.908392  0.631371  0.059326  1
  Y  Y3  1  0.415050  0.881757  0.587802  1
  Y  Y4  1  0.775577  0.094617  0.804280  1
  Y  Y5  1  0.224423  0.905383  0.195720  1
  Y  Y6  1  0.267529  0.390203  0.286811  1
  Y  Y7  1  0.267529  0.109797  0.786811  1
  Y  Y8  1  0.732471  0.890203  0.213189  1
  Y  Y9  1  0.908392  0.868629  0.559326  1
  Y  Y10  1  0.732471  0.609797  0.713189  1
  Y  Y11  1  0.091608  0.131371  0.440674  1
  Y  Y12  1  0.584950  0.118243  0.412198  1
  Y  Y13  1  0.584950  0.381757  0.912198  1
  Y  Y14  1  0.224423  0.594617  0.695720  1
  Y  Y15  1  0.091608  0.368629  0.940674  1
  Al  Al16  1  0.589961  0.680868  0.384266  1
  Al  Al17  1  0.410039  0.180868  0.115734  1
  Al  Al18  1  0.410039  0.319132  0.615734  1
  Al  Al19  1  0.044029  0.824298  0.875271  1
  Al  Al20  1  0.955971  0.324298  0.624729  1
  Al  Al21  1  0.955971  0.175702  0.124729  1
  Al  Al22  1  0.044029  0.675702  0.375271  1
  Al  Al23  1  0.589961  0.819132  0.884266  1
  O  O24  1  0.467618  0.728029  0.752611  1
  O  O25  1  0.023549  0.741342  0.733576  1
  O  O26  1  0.023549  0.758658  0.233576  1
  O  O27  1  0.527433  0.974546  0.829352  1
  O  O28  1  0.532382  0.228029  0.747389  1
  O  O29  1  0.819655  0.234970  0.978271  1
  O  O30  1  0.472567  0.474546  0.670648  1
  O  O31  1  0.180578  0.273528  0.616982  1
  O  O32  1  0.936346  0.011602  0.143954  1
  O  O33  1  0.976451  0.258658  0.266424  1
  O  O34  1  0.527433  0.525454  0.329352  1
  O  O35  1  0.936346  0.488398  0.643954  1
  O  O36  1  0.819655  0.265030  0.478271  1
  O  O37  1  0.819422  0.726472  0.383018  1
  O  O38  1  0.063654  0.511602  0.356046  1
  O  O39  1  0.167263  0.501667  0.108591  1
  O  O40  1  0.167263  0.998333  0.608591  1
  O  O41  1  0.614293  0.735204  0.537139  1
  O  O42  1  0.063654  0.988398  0.856046  1
  O  O43  1  0.467618  0.771971  0.252611  1
  O  O44  1  0.472567  0.025454  0.170648  1
  O  O45  1  0.532382  0.271971  0.247389  1
  O  O46  1  0.976451  0.241342  0.766424  1
  O  O47  1  0.688294  0.003118  0.605930  1
  O  O48  1  0.832737  0.001667  0.391409  1
  O  O49  1  0.311706  0.996882  0.394070  1
  O  O50  1  0.614293  0.764796  0.037139  1
  O  O51  1  0.832737  0.498333  0.891409  1
  O  O52  1  0.819422  0.773528  0.883018  1
  O  O53  1  0.180345  0.734970  0.521729  1
  O  O54  1  0.180578  0.226472  0.116982  1
  O  O55  1  0.688294  0.496882  0.105930  1
  O  O56  1  0.385707  0.264796  0.462861  1
  O  O57  1  0.180345  0.765030  0.021729  1
  O  O58  1  0.311706  0.503118  0.894070  1
  O  O59  1  0.385707  0.235204  0.962861  1
