# generated using pymatgen
data_RbNb(GeO3)3
_symmetry_space_group_name_H-M   'P 1'
_cell_length_a   7.16918624
_cell_length_b   7.16918624
_cell_length_c   10.32929841
_cell_angle_alpha   90.00000000
_cell_angle_beta   90.00000000
_cell_angle_gamma   120.00000000
_symmetry_Int_Tables_number   1
_chemical_formula_structural   RbNb(GeO3)3
_chemical_formula_sum   'Rb2 Nb2 Ge6 O18'
_cell_volume   459.77058309
_cell_formula_units_Z   2
loop_
 _symmetry_equiv_pos_site_id
 _symmetry_equiv_pos_as_xyz
  1  'x, y, z'
loop_
 _atom_site_type_symbol
 _atom_site_label
 _atom_site_symmetry_multiplicity
 _atom_site_fract_x
 _atom_site_fract_y
 _atom_site_fract_z
 _atom_site_occupancy
  Rb  Rb0  1  0.666667  0.333333  0.000000  1
  Rb  Rb1  1  0.666667  0.333333  0.500000  1
  Nb  Nb2  1  0.333333  0.666667  0.000000  1
  Nb  Nb3  1  0.333333  0.666667  0.500000  1
  Ge  Ge4  1  0.076038  0.288095  0.250000  1
  Ge  Ge5  1  0.212057  0.923962  0.250000  1
  Ge  Ge6  1  0.711905  0.787943  0.250000  1
  Ge  Ge7  1  0.711905  0.923962  0.750000  1
  Ge  Ge8  1  0.212057  0.288095  0.750000  1
  Ge  Ge9  1  0.076038  0.787943  0.750000  1
  O  O10  1  0.264129  0.194822  0.250000  1
  O  O11  1  0.930693  0.735871  0.250000  1
  O  O12  1  0.805178  0.069307  0.250000  1
  O  O13  1  0.805178  0.735871  0.750000  1
  O  O14  1  0.930693  0.194822  0.750000  1
  O  O15  1  0.264129  0.069307  0.750000  1
  O  O16  1  0.101878  0.438234  0.110674  1
  O  O17  1  0.336355  0.898122  0.389326  1
  O  O18  1  0.561766  0.663645  0.389326  1
  O  O19  1  0.561766  0.663645  0.110674  1
  O  O20  1  0.336355  0.898122  0.110674  1
  O  O21  1  0.561766  0.898122  0.889326  1
  O  O22  1  0.336355  0.438234  0.889326  1
  O  O23  1  0.101878  0.663645  0.889326  1
  O  O24  1  0.336355  0.438234  0.610674  1
  O  O25  1  0.101878  0.663645  0.610674  1
  O  O26  1  0.101878  0.438234  0.389326  1
  O  O27  1  0.561766  0.898122  0.610674  1
