# generated using pymatgen
data_Er2CdS4
_symmetry_space_group_name_H-M   'P 1'
_cell_length_a   32.68307362
_cell_length_b   32.68307362
_cell_length_c   32.68307362
_cell_angle_alpha   13.99091074
_cell_angle_beta   13.99091074
_cell_angle_gamma   13.99091074
_symmetry_Int_Tables_number   1
_chemical_formula_structural   Er2CdS4
_chemical_formula_sum   'Er20 Cd10 S40'
_cell_volume   1776.02605908
_cell_formula_units_Z   10
loop_
 _symmetry_equiv_pos_site_id
 _symmetry_equiv_pos_as_xyz
  1  'x, y, z'
loop_
 _atom_site_type_symbol
 _atom_site_label
 _atom_site_symmetry_multiplicity
 _atom_site_fract_x
 _atom_site_fract_y
 _atom_site_fract_z
 _atom_site_occupancy
  Er  Er0  1  0.000200  0.000200  0.000200  1
  Er  Er1  1  0.600397  0.600397  0.600397  1
  Er  Er2  1  0.619763  0.127811  0.127811  1
  Er  Er3  1  0.127811  0.619763  0.127811  1
  Er  Er4  1  0.221037  0.727085  0.727085  1
  Er  Er5  1  0.127811  0.127811  0.619763  1
  Er  Er6  1  0.727085  0.221037  0.727085  1
  Er  Er7  1  0.825034  0.325025  0.325025  1
  Er  Er8  1  0.727085  0.727085  0.221037  1
  Er  Er9  1  0.525108  0.525108  0.525108  1
  Er  Er10  1  0.325025  0.825034  0.325025  1
  Er  Er11  1  0.325025  0.325025  0.825034  1
  Er  Er12  1  0.425013  0.925058  0.925058  1
  Er  Er13  1  0.125033  0.125033  0.125033  1
  Er  Er14  1  0.925058  0.425013  0.925058  1
  Er  Er15  1  0.024115  0.525526  0.525526  1
  Er  Er16  1  0.925058  0.925058  0.425013  1
  Er  Er17  1  0.525526  0.024115  0.525526  1
  Er  Er18  1  0.725107  0.725107  0.725107  1
  Er  Er19  1  0.525526  0.525526  0.024115  1
  Cd  Cd20  1  0.649609  0.649609  0.649609  1
  Cd  Cd21  1  0.324307  0.324307  0.324307  1
  Cd  Cd22  1  0.249467  0.249467  0.249467  1
  Cd  Cd23  1  0.200156  0.200156  0.200156  1
  Cd  Cd24  1  0.924424  0.924424  0.924424  1
  Cd  Cd25  1  0.849875  0.849875  0.849875  1
  Cd  Cd26  1  0.800089  0.800089  0.800089  1
  Cd  Cd27  1  0.450029  0.450029  0.450029  1
  Cd  Cd28  1  0.400084  0.400084  0.400084  1
  Cd  Cd29  1  0.050140  0.050140  0.050140  1
  S  S30  1  0.465106  0.465106  0.992748  1
  S  S31  1  0.465106  0.992748  0.465106  1
  S  S32  1  0.276484  0.276484  0.276484  1
  S  S33  1  0.992748  0.465106  0.465106  1
  S  S34  1  0.064932  0.064932  0.593017  1
  S  S35  1  0.254952  0.786191  0.786191  1
  S  S36  1  0.973407  0.973407  0.973407  1
  S  S37  1  0.786191  0.254952  0.786191  1
  S  S38  1  0.876509  0.876509  0.876509  1
  S  S39  1  0.064932  0.593017  0.064932  1
  S  S40  1  0.786191  0.786191  0.254952  1
  S  S41  1  0.593017  0.064932  0.064932  1
  S  S42  1  0.853397  0.386672  0.386672  1
  S  S43  1  0.663758  0.663758  0.195808  1
  S  S44  1  0.663758  0.195808  0.663758  1
  S  S45  1  0.573502  0.573502  0.573502  1
  S  S46  1  0.386672  0.853397  0.386672  1
  S  S47  1  0.476607  0.476607  0.476607  1
  S  S48  1  0.386672  0.386672  0.853397  1
  S  S49  1  0.195808  0.663758  0.663758  1
  S  S50  1  0.263750  0.263750  0.795778  1
  S  S51  1  0.453996  0.986259  0.986259  1
  S  S52  1  0.986259  0.453996  0.986259  1
  S  S53  1  0.173405  0.173405  0.173405  1
  S  S54  1  0.076608  0.076608  0.076608  1
  S  S55  1  0.263750  0.795778  0.263750  1
  S  S56  1  0.986259  0.986259  0.453996  1
  S  S57  1  0.795778  0.263750  0.263750  1
  S  S58  1  0.863826  0.863826  0.395756  1
  S  S59  1  0.054019  0.586233  0.586233  1
  S  S60  1  0.773367  0.773367  0.773367  1
  S  S61  1  0.586233  0.054019  0.586233  1
  S  S62  1  0.676587  0.676587  0.676587  1
  S  S63  1  0.863826  0.395756  0.863826  1
  S  S64  1  0.586233  0.586233  0.054019  1
  S  S65  1  0.395756  0.863826  0.863826  1
  S  S66  1  0.656333  0.185462  0.185462  1
  S  S67  1  0.185462  0.656333  0.185462  1
  S  S68  1  0.373342  0.373342  0.373342  1
  S  S69  1  0.185462  0.185462  0.656333  1
