# generated using pymatgen
data_Al6SnTe10
_symmetry_space_group_name_H-M   'P 1'
_cell_length_a   14.85223059
_cell_length_b   14.85223059
_cell_length_c   18.12301236
_cell_angle_alpha   90.00000000
_cell_angle_beta   90.00000000
_cell_angle_gamma   120.00000000
_symmetry_Int_Tables_number   1
_chemical_formula_structural   Al6SnTe10
_chemical_formula_sum   'Al36 Sn6 Te60'
_cell_volume   3462.13807943
_cell_formula_units_Z   6
loop_
 _symmetry_equiv_pos_site_id
 _symmetry_equiv_pos_as_xyz
  1  'x, y, z'
loop_
 _atom_site_type_symbol
 _atom_site_label
 _atom_site_symmetry_multiplicity
 _atom_site_fract_x
 _atom_site_fract_y
 _atom_site_fract_z
 _atom_site_occupancy
  Al  Al0  1  0.991355  0.918948  0.919012  1
  Al  Al1  1  0.072408  0.081052  0.747654  1
  Al  Al2  1  0.008645  0.927592  0.414321  1
  Al  Al3  1  0.081052  0.072408  0.252346  1
  Al  Al4  1  0.140726  0.922762  0.596501  1
  Al  Al5  1  0.257800  0.810347  0.074298  1
  Al  Al6  1  0.116593  0.523449  0.933631  1
  Al  Al7  1  0.256676  0.676723  0.250258  1
  Al  Al8  1  0.254896  0.658715  0.748553  1
  Al  Al9  1  0.406856  0.883407  0.600298  1
  Al  Al10  1  0.189653  0.447453  0.407631  1
  Al  Al11  1  0.077238  0.217964  0.929835  1
  Al  Al12  1  0.403819  0.745104  0.415219  1
  Al  Al13  1  0.323277  0.579953  0.583591  1
  Al  Al14  1  0.341285  0.596181  0.081886  1
  Al  Al15  1  0.420047  0.743324  0.916924  1
  Al  Al16  1  0.217964  0.077238  0.070165  1
  Al  Al17  1  0.476551  0.593144  0.266964  1
  Al  Al18  1  0.552547  0.742200  0.740964  1
  Al  Al19  1  0.447453  0.189653  0.592369  1
  Al  Al20  1  0.782036  0.859274  0.263168  1
  Al  Al21  1  0.593144  0.476551  0.733036  1
  Al  Al22  1  0.579953  0.323277  0.416409  1
  Al  Al23  1  0.596181  0.341285  0.918114  1
  Al  Al24  1  0.523449  0.116593  0.066369  1
  Al  Al25  1  0.742200  0.552547  0.259036  1
  Al  Al26  1  0.859274  0.782036  0.736832  1
  Al  Al27  1  0.658715  0.254896  0.251447  1
  Al  Al28  1  0.743324  0.420047  0.083076  1
  Al  Al29  1  0.745104  0.403819  0.584781  1
  Al  Al30  1  0.676723  0.256676  0.749742  1
  Al  Al31  1  0.883407  0.406856  0.399702  1
  Al  Al32  1  0.810347  0.257800  0.925702  1
  Al  Al33  1  0.922762  0.140726  0.403499  1
  Al  Al34  1  0.927592  0.008645  0.585679  1
  Al  Al35  1  0.918948  0.991355  0.080988  1
  Sn  Sn36  1  0.088276  0.740807  0.843559  1
  Sn  Sn37  1  0.259193  0.347469  0.176892  1
  Sn  Sn38  1  0.652531  0.911724  0.510225  1
  Sn  Sn39  1  0.347469  0.259193  0.823108  1
  Sn  Sn40  1  0.911724  0.652531  0.489775  1
  Sn  Sn41  1  0.740807  0.088276  0.156441  1
  Te  Te42  1  0.156145  0.000000  0.833333  1
  Te  Te43  1  0.034432  0.900415  0.061017  1
  Te  Te44  1  0.247127  0.247127  0.000000  1
  Te  Te45  1  0.000000  0.752873  0.666667  1
  Te  Te46  1  0.139552  0.867846  0.457511  1
  Te  Te47  1  0.087190  0.663094  0.004963  1
  Te  Te48  1  0.063581  0.527161  0.794076  1
  Te  Te49  1  0.216177  0.820330  0.211883  1
  Te  Te50  1  0.330724  0.999042  0.007493  1
  Te  Te51  1  0.000958  0.331683  0.340826  1
  Te  Te52  1  0.198209  0.631406  0.392897  1
  Te  Te53  1  0.234345  0.699147  0.606517  1
  Te  Te54  1  0.173143  0.512715  0.163026  1
  Te  Te55  1  0.000000  0.156145  0.166667  1
  Te  Te56  1  0.339572  0.826857  0.829692  1
  Te  Te57  1  0.179670  0.395846  0.545217  1
  Te  Te58  1  0.463580  0.936419  0.460743  1
  Te  Te59  1  0.132154  0.271706  0.790844  1
  Te  Te60  1  0.433197  0.801791  0.059563  1
  Te  Te61  1  0.099585  0.134018  0.394350  1
  Te  Te62  1  0.300853  0.535198  0.939851  1
  Te  Te63  1  0.464802  0.765655  0.273184  1
  Te  Te64  1  0.134018  0.099585  0.605650  1
  Te  Te65  1  0.368594  0.566803  0.726230  1
  Te  Te66  1  0.575904  0.912810  0.671630  1
  Te  Te67  1  0.336906  0.424096  0.338297  1
  Te  Te68  1  0.487285  0.660428  0.496359  1
  Te  Te69  1  0.472839  0.536420  0.127409  1
  Te  Te70  1  0.271706  0.132154  0.209156  1
  Te  Te71  1  0.604154  0.783823  0.878550  1
  Te  Te72  1  0.424096  0.336906  0.661703  1
  Te  Te73  1  0.728294  0.860448  0.124178  1
  Te  Te74  1  0.536420  0.472839  0.872591  1
  Te  Te75  1  0.395846  0.179670  0.454783  1
  Te  Te76  1  0.331683  0.000958  0.659174  1
  Te  Te77  1  0.668317  0.669276  0.674160  1
  Te  Te78  1  0.669276  0.668317  0.325840  1
  Te  Te79  1  0.566803  0.368594  0.273770  1
  Te  Te80  1  0.865982  0.965568  0.727684  1
  Te  Te81  1  0.535198  0.300853  0.060149  1
  Te  Te82  1  0.660428  0.487285  0.503641  1
  Te  Te83  1  0.512715  0.173143  0.836974  1
  Te  Te84  1  0.783823  0.604154  0.121450  1
  Te  Te85  1  0.527161  0.063581  0.205924  1
  Te  Te86  1  0.860448  0.728294  0.875822  1
  Te  Te87  1  0.631406  0.198209  0.607103  1
  Te  Te88  1  0.965568  0.865982  0.272316  1
  Te  Te89  1  0.765655  0.464802  0.726816  1
  Te  Te90  1  0.699147  0.234345  0.393483  1
  Te  Te91  1  0.801791  0.433197  0.940437  1
  Te  Te92  1  0.663094  0.087190  0.995037  1
  Te  Te93  1  0.912810  0.575904  0.328370  1
  Te  Te94  1  0.826857  0.339572  0.170308  1
  Te  Te95  1  0.936419  0.463580  0.539257  1
  Te  Te96  1  0.820330  0.216177  0.788117  1
  Te  Te97  1  0.752873  0.000000  0.333333  1
  Te  Te98  1  0.867846  0.139552  0.542489  1
  Te  Te99  1  0.999042  0.330724  0.992507  1
  Te  Te100  1  0.900415  0.034432  0.938983  1
  Te  Te101  1  0.843855  0.843855  0.500000  1
