# generated using pymatgen
data_V2Zn4O9
_symmetry_space_group_name_H-M   'P 1'
_cell_length_a   9.82809158
_cell_length_b   8.30461917
_cell_length_c   10.51578525
_cell_angle_alpha   90.00000000
_cell_angle_beta   117.16984789
_cell_angle_gamma   90.00000000
_symmetry_Int_Tables_number   1
_chemical_formula_structural   V2Zn4O9
_chemical_formula_sum   'V8 Zn16 O36'
_cell_volume   763.57750830
_cell_formula_units_Z   4
loop_
 _symmetry_equiv_pos_site_id
 _symmetry_equiv_pos_as_xyz
  1  'x, y, z'
loop_
 _atom_site_type_symbol
 _atom_site_label
 _atom_site_symmetry_multiplicity
 _atom_site_fract_x
 _atom_site_fract_y
 _atom_site_fract_z
 _atom_site_occupancy
  V  V0  1  0.146696  0.377710  0.003831  1
  V  V1  1  0.853304  0.877710  0.996169  1
  V  V2  1  0.958326  0.353669  0.443413  1
  V  V3  1  0.041674  0.853669  0.556587  1
  V  V4  1  0.533454  0.380813  0.029939  1
  V  V5  1  0.466546  0.880813  0.970061  1
  V  V6  1  0.358952  0.370076  0.521369  1
  V  V7  1  0.641048  0.870076  0.478631  1
  Zn  Zn8  1  0.192312  0.812098  0.085358  1
  Zn  Zn9  1  0.807688  0.312098  0.914642  1
  Zn  Zn10  1  0.560269  0.028817  0.718537  1
  Zn  Zn11  1  0.439731  0.528817  0.281463  1
  Zn  Zn12  1  0.714131  0.352878  0.610287  1
  Zn  Zn13  1  0.285869  0.852878  0.389713  1
  Zn  Zn14  1  0.934685  0.667307  0.773246  1
  Zn  Zn15  1  0.065315  0.167307  0.226754  1
  Zn  Zn16  1  0.259846  0.176032  0.738217  1
  Zn  Zn17  1  0.740154  0.676032  0.261783  1
  Zn  Zn18  1  0.397918  0.104099  0.209700  1
  Zn  Zn19  1  0.602082  0.604099  0.790300  1
  Zn  Zn20  1  0.251894  0.550126  0.741179  1
  Zn  Zn21  1  0.748106  0.050126  0.258821  1
  Zn  Zn22  1  0.936522  0.053941  0.765468  1
  Zn  Zn23  1  0.063478  0.553941  0.234532  1
  O  O24  1  0.865468  0.074055  0.056714  1
  O  O25  1  0.134532  0.574055  0.943286  1
  O  O26  1  0.411823  0.702846  0.879977  1
  O  O27  1  0.588177  0.202846  0.120023  1
  O  O28  1  0.924543  0.734572  0.126082  1
  O  O29  1  0.075457  0.234572  0.873918  1
  O  O30  1  0.346260  0.929933  0.047973  1
  O  O31  1  0.653740  0.429933  0.952027  1
  O  O32  1  0.498418  0.385090  0.460916  1
  O  O33  1  0.501582  0.885090  0.539084  1
  O  O34  1  0.614239  0.689014  0.389645  1
  O  O35  1  0.385761  0.189014  0.610355  1
  O  O36  1  0.675757  0.829324  0.848778  1
  O  O37  1  0.324243  0.329324  0.151222  1
  O  O38  1  0.222111  0.015385  0.236080  1
  O  O39  1  0.815588  0.340664  0.490820  1
  O  O40  1  0.257431  0.667263  0.254185  1
  O  O41  1  0.742569  0.167263  0.745815  1
  O  O42  1  0.987504  0.869375  0.920352  1
  O  O43  1  0.012496  0.369375  0.079648  1
  O  O44  1  0.132530  0.360359  0.601837  1
  O  O45  1  0.867470  0.860359  0.398163  1
  O  O46  1  0.603921  0.034923  0.358811  1
  O  O47  1  0.396079  0.534923  0.641189  1
  O  O48  1  0.814416  0.867333  0.634272  1
  O  O49  1  0.185584  0.367333  0.365728  1
  O  O50  1  0.554672  0.530693  0.156122  1
  O  O51  1  0.445328  0.030693  0.843878  1
  O  O52  1  0.078737  0.026457  0.668093  1
  O  O53  1  0.921263  0.526457  0.331907  1
  O  O54  1  0.059053  0.679271  0.662166  1
  O  O55  1  0.940947  0.179271  0.337834  1
  O  O56  1  0.345281  0.362778  0.885549  1
  O  O57  1  0.654719  0.862778  0.114451  1
  O  O58  1  0.777889  0.515385  0.763920  1
  O  O59  1  0.184412  0.840664  0.509180  1
