# generated using pymatgen
data_Fe2P2O7
_symmetry_space_group_name_H-M   'P 1'
_cell_length_a   4.56663195
_cell_length_b   10.10889493
_cell_length_c   5.53036844
_cell_angle_alpha   90.00000000
_cell_angle_beta   97.33670568
_cell_angle_gamma   90.00000000
_symmetry_Int_Tables_number   1
_chemical_formula_structural   Fe2P2O7
_chemical_formula_sum   'Fe4 P4 O14'
_cell_volume   253.21153351
_cell_formula_units_Z   2
loop_
 _symmetry_equiv_pos_site_id
 _symmetry_equiv_pos_as_xyz
  1  'x, y, z'
loop_
 _atom_site_type_symbol
 _atom_site_label
 _atom_site_symmetry_multiplicity
 _atom_site_fract_x
 _atom_site_fract_y
 _atom_site_fract_z
 _atom_site_occupancy
  Fe  Fe0  1  0.887048  0.658235  0.600626  1
  Fe  Fe1  1  0.112952  0.158235  0.899374  1
  Fe  Fe2  1  0.112952  0.341765  0.399374  1
  Fe  Fe3  1  0.887048  0.841765  0.100626  1
  P  P4  1  0.357162  0.609317  0.155186  1
  P  P5  1  0.642838  0.109317  0.344814  1
  P  P6  1  0.642838  0.390683  0.844814  1
  P  P7  1  0.357162  0.890683  0.655186  1
  O  O8  1  0.124550  0.818633  0.476719  1
  O  O9  1  0.875450  0.318633  0.023281  1
  O  O10  1  0.875450  0.181367  0.523281  1
  O  O11  1  0.124550  0.681367  0.976719  1
  O  O12  1  0.500000  0.500000  0.000000  1
  O  O13  1  0.500000  0.000000  0.500000  1
  O  O14  1  0.786934  0.463242  0.645961  1
  O  O15  1  0.213066  0.963242  0.854039  1
  O  O16  1  0.613314  0.801576  0.761794  1
  O  O17  1  0.386686  0.301576  0.738206  1
  O  O18  1  0.386686  0.198424  0.238206  1
  O  O19  1  0.613314  0.698424  0.261794  1
  O  O20  1  0.786934  0.036758  0.145961  1
  O  O21  1  0.213066  0.536758  0.354039  1
