# generated using pymatgen
data_SmMnSe2ClO6
_symmetry_space_group_name_H-M   'P 1'
_cell_length_a   7.09591903
_cell_length_b   7.36641151
_cell_length_c   8.16734376
_cell_angle_alpha   86.66209001
_cell_angle_beta   108.30400816
_cell_angle_gamma   115.64565756
_symmetry_Int_Tables_number   1
_chemical_formula_structural   SmMnSe2ClO6
_chemical_formula_sum   'Sm2 Mn2 Se4 Cl2 O12'
_cell_volume   363.88072133
_cell_formula_units_Z   2
loop_
 _symmetry_equiv_pos_site_id
 _symmetry_equiv_pos_as_xyz
  1  'x, y, z'
loop_
 _atom_site_type_symbol
 _atom_site_label
 _atom_site_symmetry_multiplicity
 _atom_site_fract_x
 _atom_site_fract_y
 _atom_site_fract_z
 _atom_site_occupancy
  Sm  Sm0  1  0.820393  0.169911  0.467422  1
  Sm  Sm1  1  0.179607  0.830089  0.532578  1
  Mn  Mn2  1  0.198554  0.903775  0.022523  1
  Mn  Mn3  1  0.801446  0.096225  0.977477  1
  Se  Se4  1  0.823877  0.525012  0.182414  1
  Se  Se5  1  0.176123  0.474988  0.817586  1
  Se  Se6  1  0.702323  0.740787  0.682078  1
  Se  Se7  1  0.297677  0.259213  0.317922  1
  Cl  Cl8  1  0.433834  0.145048  0.832977  1
  Cl  Cl9  1  0.566166  0.854952  0.167023  1
  O  O10  1  0.123487  0.685485  0.813804  1
  O  O11  1  0.182827  0.477609  0.607525  1
  O  O12  1  0.449310  0.121712  0.387642  1
  O  O13  1  0.876513  0.314515  0.186196  1
  O  O14  1  0.093392  0.105539  0.403012  1
  O  O15  1  0.173392  0.169978  0.101002  1
  O  O16  1  0.086929  0.724544  0.225523  1
  O  O17  1  0.817173  0.522391  0.392475  1
  O  O18  1  0.913071  0.275456  0.774477  1
  O  O19  1  0.550690  0.878288  0.612358  1
  O  O20  1  0.826608  0.830022  0.898998  1
  O  O21  1  0.906608  0.894461  0.596988  1
