# generated using pymatgen
data_CdI2
_symmetry_space_group_name_H-M   'P 1'
_cell_length_a   4.33217946
_cell_length_b   4.33217946
_cell_length_c   44.38878253
_cell_angle_alpha   90.00000000
_cell_angle_beta   90.00000000
_cell_angle_gamma   120.00000000
_symmetry_Int_Tables_number   1
_chemical_formula_structural   CdI2
_chemical_formula_sum   'Cd6 I12'
_cell_volume   721.46745310
_cell_formula_units_Z   6
loop_
 _symmetry_equiv_pos_site_id
 _symmetry_equiv_pos_as_xyz
  1  'x, y, z'
loop_
 _atom_site_type_symbol
 _atom_site_label
 _atom_site_symmetry_multiplicity
 _atom_site_fract_x
 _atom_site_fract_y
 _atom_site_fract_z
 _atom_site_occupancy
  Cd  Cd0  1  0.333333  0.666667  0.833330  1
  Cd  Cd1  1  0.000000  0.000000  0.000000  1
  Cd  Cd2  1  0.000000  0.000000  0.333358  1
  Cd  Cd3  1  0.000000  0.000000  0.500000  1
  Cd  Cd4  1  0.666667  0.333333  0.166670  1
  Cd  Cd5  1  0.000000  0.000000  0.666642  1
  I  I6  1  0.666667  0.333333  0.961157  1
  I  I7  1  0.000000  0.000000  0.872255  1
  I  I8  1  0.000000  0.000000  0.127745  1
  I  I9  1  0.666667  0.333333  0.627752  1
  I  I10  1  0.333333  0.666667  0.372248  1
  I  I11  1  0.333333  0.666667  0.205604  1
  I  I12  1  0.666667  0.333333  0.794396  1
  I  I13  1  0.333333  0.666667  0.705600  1
  I  I14  1  0.333333  0.666667  0.038843  1
  I  I15  1  0.666667  0.333333  0.461159  1
  I  I16  1  0.666667  0.333333  0.294400  1
  I  I17  1  0.333333  0.666667  0.538841  1
