# generated using pymatgen
data_SmSI
_symmetry_space_group_name_H-M   'P 1'
_cell_length_a   11.45171138
_cell_length_b   11.45171138
_cell_length_c   11.45171138
_cell_angle_alpha   23.20324345
_cell_angle_beta   23.20324345
_cell_angle_gamma   23.20324345
_symmetry_Int_Tables_number   1
_chemical_formula_structural   SmSI
_chemical_formula_sum   'Sm2 S2 I2'
_cell_volume   204.65068525
_cell_formula_units_Z   2
loop_
 _symmetry_equiv_pos_site_id
 _symmetry_equiv_pos_as_xyz
  1  'x, y, z'
loop_
 _atom_site_type_symbol
 _atom_site_label
 _atom_site_symmetry_multiplicity
 _atom_site_fract_x
 _atom_site_fract_y
 _atom_site_fract_z
 _atom_site_occupancy
  Sm  Sm0  1  0.613409  0.613409  0.613409  1
  Sm  Sm1  1  0.386591  0.386591  0.386591  1
  S  S2  1  0.698060  0.698060  0.698060  1
  S  S3  1  0.301940  0.301940  0.301940  1
  I  I4  1  0.886782  0.886782  0.886782  1
  I  I5  1  0.113218  0.113218  0.113218  1
