# generated using pymatgen
data_Ba5As3ClO12
_symmetry_space_group_name_H-M   'P 1'
_cell_length_a   10.79341801
_cell_length_b   10.79341801
_cell_length_c   7.83249422
_cell_angle_alpha   90.00000000
_cell_angle_beta   90.00000000
_cell_angle_gamma   120.00000000
_symmetry_Int_Tables_number   1
_chemical_formula_structural   Ba5As3ClO12
_chemical_formula_sum   'Ba10 As6 Cl2 O24'
_cell_volume   790.22125706
_cell_formula_units_Z   2
loop_
 _symmetry_equiv_pos_site_id
 _symmetry_equiv_pos_as_xyz
  1  'x, y, z'
loop_
 _atom_site_type_symbol
 _atom_site_label
 _atom_site_symmetry_multiplicity
 _atom_site_fract_x
 _atom_site_fract_y
 _atom_site_fract_z
 _atom_site_occupancy
  Ba  Ba0  1  0.666667  0.333333  0.501486  1
  Ba  Ba1  1  0.333333  0.666667  0.498514  1
  Ba  Ba2  1  0.005479  0.254235  0.250000  1
  Ba  Ba3  1  0.333333  0.666667  0.001486  1
  Ba  Ba4  1  0.745765  0.751244  0.250000  1
  Ba  Ba5  1  0.248756  0.994521  0.250000  1
  Ba  Ba6  1  0.751244  0.005479  0.750000  1
  Ba  Ba7  1  0.994521  0.745765  0.750000  1
  Ba  Ba8  1  0.666667  0.333333  0.998514  1
  Ba  Ba9  1  0.254235  0.248756  0.750000  1
  As  As10  1  0.966018  0.593823  0.250000  1
  As  As11  1  0.593823  0.627805  0.750000  1
  As  As12  1  0.372195  0.966018  0.750000  1
  As  As13  1  0.406177  0.372195  0.250000  1
  As  As14  1  0.033982  0.406177  0.750000  1
  As  As15  1  0.627805  0.033982  0.250000  1
  Cl  Cl16  1  0.000000  0.000000  0.000000  1
  Cl  Cl17  1  0.000000  0.000000  0.500000  1
  O  O18  1  0.644396  0.737410  0.927106  1
  O  O19  1  0.333006  0.482326  0.250000  1
  O  O20  1  0.355604  0.262590  0.427106  1
  O  O21  1  0.408420  0.531016  0.750000  1
  O  O22  1  0.093015  0.355604  0.572894  1
  O  O23  1  0.666994  0.517674  0.750000  1
  O  O24  1  0.850679  0.333006  0.750000  1
  O  O25  1  0.122596  0.591580  0.750000  1
  O  O26  1  0.591580  0.468984  0.250000  1
  O  O27  1  0.737410  0.093015  0.072894  1
  O  O28  1  0.093015  0.355604  0.927106  1
  O  O29  1  0.877404  0.408420  0.250000  1
  O  O30  1  0.468984  0.877404  0.750000  1
  O  O31  1  0.906985  0.644396  0.072894  1
  O  O32  1  0.906985  0.644396  0.427106  1
  O  O33  1  0.482326  0.149321  0.750000  1
  O  O34  1  0.355604  0.262590  0.072894  1
  O  O35  1  0.737410  0.093015  0.427106  1
  O  O36  1  0.149321  0.666994  0.250000  1
  O  O37  1  0.262590  0.906985  0.927106  1
  O  O38  1  0.517674  0.850679  0.250000  1
  O  O39  1  0.262590  0.906985  0.572894  1
  O  O40  1  0.644396  0.737410  0.572894  1
  O  O41  1  0.531016  0.122596  0.250000  1
