# generated using pymatgen
data_Rb3Cu2(BiS2)5
_symmetry_space_group_name_H-M   'P 1'
_cell_length_a   4.08038676
_cell_length_b   14.79201016
_cell_length_c   18.02877844
_cell_angle_alpha   90.00000000
_cell_angle_beta   90.00000000
_cell_angle_gamma   90.00000000
_symmetry_Int_Tables_number   1
_chemical_formula_structural   Rb3Cu2(BiS2)5
_chemical_formula_sum   'Rb6 Cu4 Bi10 S20'
_cell_volume   1088.16518722
_cell_formula_units_Z   2
loop_
 _symmetry_equiv_pos_site_id
 _symmetry_equiv_pos_as_xyz
  1  'x, y, z'
loop_
 _atom_site_type_symbol
 _atom_site_label
 _atom_site_symmetry_multiplicity
 _atom_site_fract_x
 _atom_site_fract_y
 _atom_site_fract_z
 _atom_site_occupancy
  Rb  Rb0  1  0.500000  0.023991  0.751476  1
  Rb  Rb1  1  0.000000  0.523991  0.748524  1
  Rb  Rb2  1  0.500000  0.500000  0.000000  1
  Rb  Rb3  1  0.500000  0.976009  0.248524  1
  Rb  Rb4  1  0.000000  0.476009  0.251476  1
  Rb  Rb5  1  0.000000  0.000000  0.500000  1
  Cu  Cu6  1  0.000000  0.779952  0.755046  1
  Cu  Cu7  1  0.000000  0.220048  0.244954  1
  Cu  Cu8  1  0.500000  0.720048  0.255046  1
  Cu  Cu9  1  0.500000  0.279952  0.744954  1
  Bi  Bi10  1  0.000000  0.737585  0.105166  1
  Bi  Bi11  1  0.500000  0.784462  0.906497  1
  Bi  Bi12  1  0.500000  0.237585  0.394834  1
  Bi  Bi13  1  0.500000  0.215538  0.093503  1
  Bi  Bi14  1  0.000000  0.715538  0.406497  1
  Bi  Bi15  1  0.000000  0.284462  0.593503  1
  Bi  Bi16  1  0.500000  0.762415  0.605166  1
  Bi  Bi17  1  0.500000  0.500000  0.500000  1
  Bi  Bi18  1  0.000000  0.262415  0.894834  1
  Bi  Bi19  1  0.000000  0.000000  0.000000  1
  S  S20  1  0.500000  0.404411  0.636730  1
  S  S21  1  0.000000  0.127829  0.350304  1
  S  S22  1  0.000000  0.329616  0.032642  1
  S  S23  1  0.000000  0.670384  0.967358  1
  S  S24  1  0.500000  0.880735  0.055030  1
  S  S25  1  0.500000  0.170384  0.532642  1
  S  S26  1  0.000000  0.872171  0.649696  1
  S  S27  1  0.000000  0.380735  0.444970  1
  S  S28  1  0.500000  0.829616  0.467358  1
  S  S29  1  0.500000  0.296154  0.228120  1
  S  S30  1  0.500000  0.372171  0.850304  1
  S  S31  1  0.000000  0.796154  0.271880  1
  S  S32  1  0.500000  0.627829  0.149696  1
  S  S33  1  0.500000  0.703846  0.771880  1
  S  S34  1  0.000000  0.203846  0.728120  1
  S  S35  1  0.000000  0.095589  0.136730  1
  S  S36  1  0.000000  0.619265  0.555030  1
  S  S37  1  0.500000  0.595589  0.363270  1
  S  S38  1  0.000000  0.904411  0.863270  1
  S  S39  1  0.500000  0.119265  0.944970  1
