# generated using pymatgen
data_Sm3Si2S8Br
_symmetry_space_group_name_H-M   'P 1'
_cell_length_a   8.75913982
_cell_length_b   8.75913982
_cell_length_c   10.88117185
_cell_angle_alpha   82.36608330
_cell_angle_beta   97.63391670
_cell_angle_gamma   128.16836100
_symmetry_Int_Tables_number   1
_chemical_formula_structural   Sm3Si2S8Br
_chemical_formula_sum   'Sm6 Si4 S16 Br2'
_cell_volume   649.14448867
_cell_formula_units_Z   2
loop_
 _symmetry_equiv_pos_site_id
 _symmetry_equiv_pos_as_xyz
  1  'x, y, z'
loop_
 _atom_site_type_symbol
 _atom_site_label
 _atom_site_symmetry_multiplicity
 _atom_site_fract_x
 _atom_site_fract_y
 _atom_site_fract_z
 _atom_site_occupancy
  Sm  Sm0  1  0.676956  0.074625  0.316867  1
  Sm  Sm1  1  0.381412  0.381412  0.250000  1
  Sm  Sm2  1  0.618588  0.618588  0.750000  1
  Sm  Sm3  1  0.323044  0.925375  0.683133  1
  Sm  Sm4  1  0.925375  0.323044  0.816867  1
  Sm  Sm5  1  0.074625  0.676956  0.183133  1
  Si  Si6  1  0.694046  0.376402  0.527429  1
  Si  Si7  1  0.376402  0.694046  0.972571  1
  Si  Si8  1  0.623598  0.305954  0.027429  1
  Si  Si9  1  0.305954  0.623598  0.472571  1
  S  S10  1  0.595347  0.728464  0.457685  1
  S  S11  1  0.259116  0.552774  0.665310  1
  S  S12  1  0.285992  0.853372  0.413422  1
  S  S13  1  0.146628  0.714008  0.913422  1
  S  S14  1  0.391917  0.103606  0.143933  1
  S  S15  1  0.853372  0.285992  0.086578  1
  S  S16  1  0.447226  0.740884  0.165310  1
  S  S17  1  0.896394  0.608083  0.643933  1
  S  S18  1  0.552774  0.259116  0.834690  1
  S  S19  1  0.728464  0.595347  0.042315  1
  S  S20  1  0.740884  0.447226  0.334690  1
  S  S21  1  0.714008  0.146628  0.586578  1
  S  S22  1  0.103606  0.391917  0.356067  1
  S  S23  1  0.404653  0.271536  0.542315  1
  S  S24  1  0.271536  0.404653  0.957685  1
  S  S25  1  0.608083  0.896394  0.856067  1
  Br  Br26  1  0.993710  0.993710  0.250000  1
  Br  Br27  1  0.006290  0.006290  0.750000  1
