# generated using pymatgen
data_RbTm(PO3)4
_symmetry_space_group_name_H-M   'P 1'
_cell_length_a   10.35428962
_cell_length_b   8.89392962
_cell_length_c   12.81651283
_cell_angle_alpha   90.00000000
_cell_angle_beta   124.14342639
_cell_angle_gamma   90.00000000
_symmetry_Int_Tables_number   1
_chemical_formula_structural   RbTm(PO3)4
_chemical_formula_sum   'Rb4 Tm4 P16 O48'
_cell_volume   976.83859696
_cell_formula_units_Z   4
loop_
 _symmetry_equiv_pos_site_id
 _symmetry_equiv_pos_as_xyz
  1  'x, y, z'
loop_
 _atom_site_type_symbol
 _atom_site_label
 _atom_site_symmetry_multiplicity
 _atom_site_fract_x
 _atom_site_fract_y
 _atom_site_fract_z
 _atom_site_occupancy
  Rb  Rb0  1  0.768043  0.064525  0.958541  1
  Rb  Rb1  1  0.231957  0.564525  0.541459  1
  Rb  Rb2  1  0.231957  0.935475  0.041459  1
  Rb  Rb3  1  0.768043  0.435475  0.458541  1
  Tm  Tm4  1  0.315128  0.272886  0.817088  1
  Tm  Tm5  1  0.684872  0.772886  0.682912  1
  Tm  Tm6  1  0.684872  0.727114  0.182912  1
  Tm  Tm7  1  0.315128  0.227114  0.317088  1
  P  P8  1  0.974070  0.025323  0.720122  1
  P  P9  1  0.025930  0.525323  0.779878  1
  P  P10  1  0.025930  0.974677  0.279878  1
  P  P11  1  0.974070  0.474677  0.220122  1
  P  P12  1  0.673330  0.170721  0.632515  1
  P  P13  1  0.326670  0.670721  0.867485  1
  P  P14  1  0.326670  0.829279  0.367485  1
  P  P15  1  0.673330  0.329279  0.132515  1
  P  P16  1  0.609362  0.409292  0.757794  1
  P  P17  1  0.390638  0.909292  0.742206  1
  P  P18  1  0.390638  0.590708  0.242206  1
  P  P19  1  0.609362  0.090708  0.257794  1
  P  P20  1  0.199284  0.112611  0.523981  1
  P  P21  1  0.800716  0.612611  0.976019  1
  P  P22  1  0.800716  0.887389  0.476019  1
  P  P23  1  0.199284  0.387389  0.023981  1
  O  O24  1  0.038190  0.450706  0.901206  1
  O  O25  1  0.961810  0.950706  0.598794  1
  O  O26  1  0.961810  0.549294  0.098794  1
  O  O27  1  0.038190  0.049294  0.401206  1
  O  O28  1  0.424163  0.043455  0.824766  1
  O  O29  1  0.575837  0.543455  0.675234  1
  O  O30  1  0.575837  0.956545  0.175234  1
  O  O31  1  0.424163  0.456545  0.324766  1
  O  O32  1  0.132853  0.094434  0.800613  1
  O  O33  1  0.867147  0.594434  0.699387  1
  O  O34  1  0.867147  0.905566  0.199387  1
  O  O35  1  0.132853  0.405566  0.300613  1
  O  O36  1  0.475483  0.324848  0.743763  1
  O  O37  1  0.524517  0.824848  0.756237  1
  O  O38  1  0.524517  0.675152  0.256237  1
  O  O39  1  0.475483  0.175152  0.243763  1
  O  O40  1  0.073182  0.414600  0.718150  1
  O  O41  1  0.926818  0.914600  0.781850  1
  O  O42  1  0.926818  0.585400  0.281850  1
  O  O43  1  0.073182  0.085400  0.218150  1
  O  O44  1  0.631077  0.025675  0.665816  1
  O  O45  1  0.368923  0.525675  0.834184  1
  O  O46  1  0.368923  0.974325  0.334184  1
  O  O47  1  0.631077  0.474325  0.165816  1
  O  O48  1  0.844235  0.158688  0.655700  1
  O  O49  1  0.155765  0.658688  0.844300  1
  O  O50  1  0.155765  0.841312  0.344300  1
  O  O51  1  0.844235  0.341312  0.155700  1
  O  O52  1  0.718240  0.290232  0.744215  1
  O  O53  1  0.281760  0.790232  0.755785  1
  O  O54  1  0.281760  0.709768  0.255785  1
  O  O55  1  0.718240  0.209768  0.244215  1
  O  O56  1  0.296985  0.328902  0.980416  1
  O  O57  1  0.703015  0.828902  0.519584  1
  O  O58  1  0.703015  0.671098  0.019584  1
  O  O59  1  0.296985  0.171098  0.480416  1
  O  O60  1  0.165221  0.215201  0.598802  1
  O  O61  1  0.834779  0.715201  0.901198  1
  O  O62  1  0.834779  0.784799  0.401198  1
  O  O63  1  0.165221  0.284799  0.098802  1
  O  O64  1  0.731276  0.453457  0.903233  1
  O  O65  1  0.268724  0.953457  0.596767  1
  O  O66  1  0.268724  0.546543  0.096767  1
  O  O67  1  0.731276  0.046543  0.403233  1
  O  O68  1  0.568060  0.241834  0.505873  1
  O  O69  1  0.431940  0.741834  0.994127  1
  O  O70  1  0.431940  0.758166  0.494127  1
  O  O71  1  0.568060  0.258166  0.005873  1
