# generated using pymatgen
data_KMnO2
_symmetry_space_group_name_H-M   'P 1'
_cell_length_a   6.31050308
_cell_length_b   11.55317878
_cell_length_c   10.37286346
_cell_angle_alpha   90.00000000
_cell_angle_beta   94.81334058
_cell_angle_gamma   90.00000000
_symmetry_Int_Tables_number   1
_chemical_formula_structural   KMnO2
_chemical_formula_sum   'K12 Mn12 O24'
_cell_volume   753.58080158
_cell_formula_units_Z   12
loop_
 _symmetry_equiv_pos_site_id
 _symmetry_equiv_pos_as_xyz
  1  'x, y, z'
loop_
 _atom_site_type_symbol
 _atom_site_label
 _atom_site_symmetry_multiplicity
 _atom_site_fract_x
 _atom_site_fract_y
 _atom_site_fract_z
 _atom_site_occupancy
  K  K0  1  0.830048  0.750000  0.575308  1
  K  K1  1  0.810203  0.459018  0.584805  1
  K  K2  1  0.189797  0.540982  0.415195  1
  K  K3  1  0.075450  0.750000  0.176106  1
  K  K4  1  0.066407  0.103631  0.118471  1
  K  K5  1  0.933593  0.603631  0.881529  1
  K  K6  1  0.924550  0.250000  0.823894  1
  K  K7  1  0.189797  0.959018  0.415195  1
  K  K8  1  0.066407  0.396369  0.118471  1
  K  K9  1  0.933593  0.896369  0.881529  1
  K  K10  1  0.810203  0.040982  0.584805  1
  K  K11  1  0.169952  0.250000  0.424692  1
  Mn  Mn12  1  0.362664  0.500937  0.730409  1
  Mn  Mn13  1  0.356974  0.750000  0.719812  1
  Mn  Mn14  1  0.378746  0.250000  0.728123  1
  Mn  Mn15  1  0.483842  0.874952  0.012326  1
  Mn  Mn16  1  0.643026  0.250000  0.280188  1
  Mn  Mn17  1  0.621254  0.750000  0.271877  1
  Mn  Mn18  1  0.637336  0.000937  0.269591  1
  Mn  Mn19  1  0.516158  0.374952  0.987674  1
  Mn  Mn20  1  0.637336  0.499063  0.269591  1
  Mn  Mn21  1  0.483842  0.625048  0.012326  1
  Mn  Mn22  1  0.362664  0.999063  0.730409  1
  Mn  Mn23  1  0.516158  0.125048  0.987674  1
  O  O24  1  0.314696  0.250000  0.943535  1
  O  O25  1  0.422660  0.622188  0.229079  1
  O  O26  1  0.577340  0.122188  0.770921  1
  O  O27  1  0.191818  0.372236  0.657620  1
  O  O28  1  0.161706  0.621307  0.669486  1
  O  O29  1  0.838294  0.378693  0.330514  1
  O  O30  1  0.685304  0.750000  0.056465  1
  O  O31  1  0.567645  0.873702  0.731005  1
  O  O32  1  0.706214  0.250000  0.054147  1
  O  O33  1  0.432355  0.126298  0.268995  1
  O  O34  1  0.838294  0.121307  0.330514  1
  O  O35  1  0.293786  0.750000  0.945853  1
  O  O36  1  0.308003  0.001869  0.941019  1
  O  O37  1  0.422660  0.877812  0.229079  1
  O  O38  1  0.308003  0.498131  0.941019  1
  O  O39  1  0.691997  0.998131  0.058981  1
  O  O40  1  0.191818  0.127764  0.657620  1
  O  O41  1  0.808182  0.627764  0.342380  1
  O  O42  1  0.567645  0.626298  0.731005  1
  O  O43  1  0.161706  0.878693  0.669486  1
  O  O44  1  0.577340  0.377812  0.770921  1
  O  O45  1  0.691997  0.501869  0.058981  1
  O  O46  1  0.808182  0.872236  0.342380  1
  O  O47  1  0.432355  0.373702  0.268995  1
