# generated using pymatgen
data_Sn2P2O7
_symmetry_space_group_name_H-M   'P 1'
_cell_length_a   5.39058367
_cell_length_b   11.76963613
_cell_length_c   11.88075924
_cell_angle_alpha   102.18048311
_cell_angle_beta   99.13600030
_cell_angle_gamma   98.73572792
_symmetry_Int_Tables_number   1
_chemical_formula_structural   Sn2P2O7
_chemical_formula_sum   'Sn8 P8 O28'
_cell_volume   713.91464245
_cell_formula_units_Z   4
loop_
 _symmetry_equiv_pos_site_id
 _symmetry_equiv_pos_as_xyz
  1  'x, y, z'
loop_
 _atom_site_type_symbol
 _atom_site_label
 _atom_site_symmetry_multiplicity
 _atom_site_fract_x
 _atom_site_fract_y
 _atom_site_fract_z
 _atom_site_occupancy
  Sn  Sn0  1  0.268793  0.499406  0.142754  1
  Sn  Sn1  1  0.831029  0.151026  0.023504  1
  Sn  Sn2  1  0.731207  0.500594  0.857246  1
  Sn  Sn3  1  0.168971  0.848974  0.976496  1
  Sn  Sn4  1  0.228296  0.363844  0.467962  1
  Sn  Sn5  1  0.685291  0.944415  0.368476  1
  Sn  Sn6  1  0.314709  0.055585  0.631524  1
  Sn  Sn7  1  0.771704  0.636156  0.532038  1
  P  P8  1  0.824541  0.279529  0.649254  1
  P  P9  1  0.795387  0.730602  0.145236  1
  P  P10  1  0.312817  0.673210  0.743994  1
  P  P11  1  0.687183  0.326790  0.256006  1
  P  P12  1  0.712972  0.883862  0.745707  1
  P  P13  1  0.287028  0.116138  0.254293  1
  P  P14  1  0.175459  0.720471  0.350746  1
  P  P15  1  0.204613  0.269398  0.854764  1
  O  O16  1  0.587775  0.184102  0.586611  1
  O  O17  1  0.439063  0.811515  0.757404  1
  O  O18  1  0.339216  0.171348  0.801814  1
  O  O19  1  0.887235  0.916675  0.868635  1
  O  O20  1  0.412225  0.815898  0.413389  1
  O  O21  1  0.826322  0.808694  0.653706  1
  O  O22  1  0.173678  0.191306  0.346294  1
  O  O23  1  0.353035  0.004057  0.287052  1
  O  O24  1  0.147826  0.256333  0.975181  1
  O  O25  1  0.045271  0.270265  0.583171  1
  O  O26  1  0.954729  0.729735  0.416829  1
  O  O27  1  0.343842  0.394333  0.861300  1
  O  O28  1  0.758415  0.403388  0.678521  1
  O  O29  1  0.843449  0.374753  0.381273  1
  O  O30  1  0.660784  0.828652  0.198186  1
  O  O31  1  0.646965  0.995943  0.712948  1
  O  O32  1  0.533992  0.607260  0.761721  1
  O  O33  1  0.656158  0.605667  0.138700  1
  O  O34  1  0.148879  0.680760  0.839335  1
  O  O35  1  0.851121  0.319240  0.160665  1
  O  O36  1  0.241585  0.596612  0.321479  1
  O  O37  1  0.919064  0.249349  0.775067  1
  O  O38  1  0.560937  0.188485  0.242596  1
  O  O39  1  0.080936  0.750651  0.224933  1
  O  O40  1  0.112765  0.083325  0.131365  1
  O  O41  1  0.156551  0.625247  0.618726  1
  O  O42  1  0.466008  0.392740  0.238279  1
  O  O43  1  0.852174  0.743667  0.024819  1
