# generated using pymatgen
data_K3Cu2(BiS2)5
_symmetry_space_group_name_H-M   'P 1'
_cell_length_a   4.05785128
_cell_length_b   14.40469181
_cell_length_c   17.88724591
_cell_angle_alpha   90.00000000
_cell_angle_beta   90.00000000
_cell_angle_gamma   90.00000000
_symmetry_Int_Tables_number   1
_chemical_formula_structural   K3Cu2(BiS2)5
_chemical_formula_sum   'K6 Cu4 Bi10 S20'
_cell_volume   1045.54703477
_cell_formula_units_Z   2
loop_
 _symmetry_equiv_pos_site_id
 _symmetry_equiv_pos_as_xyz
  1  'x, y, z'
loop_
 _atom_site_type_symbol
 _atom_site_label
 _atom_site_symmetry_multiplicity
 _atom_site_fract_x
 _atom_site_fract_y
 _atom_site_fract_z
 _atom_site_occupancy
  K  K0  1  0.500000  0.975135  0.246623  1
  K  K1  1  0.500000  0.024865  0.753377  1
  K  K2  1  0.000000  0.475135  0.253377  1
  K  K3  1  0.000000  0.524865  0.746623  1
  K  K4  1  0.500000  0.500000  0.000000  1
  K  K5  1  0.000000  0.000000  0.500000  1
  Cu  Cu6  1  0.000000  0.218360  0.248059  1
  Cu  Cu7  1  0.500000  0.718360  0.251941  1
  Cu  Cu8  1  0.500000  0.281640  0.748059  1
  Cu  Cu9  1  0.000000  0.781640  0.751941  1
  Bi  Bi10  1  0.000000  0.719528  0.403225  1
  Bi  Bi11  1  0.500000  0.231475  0.396442  1
  Bi  Bi12  1  0.000000  0.280472  0.596775  1
  Bi  Bi13  1  0.000000  0.268525  0.896442  1
  Bi  Bi14  1  0.500000  0.768525  0.603558  1
  Bi  Bi15  1  0.500000  0.500000  0.500000  1
  Bi  Bi16  1  0.000000  0.731475  0.103558  1
  Bi  Bi17  1  0.500000  0.219528  0.096775  1
  Bi  Bi18  1  0.500000  0.780472  0.903225  1
  Bi  Bi19  1  0.000000  0.000000  0.000000  1
  S  S20  1  0.000000  0.799638  0.265916  1
  S  S21  1  0.500000  0.123393  0.946693  1
  S  S22  1  0.500000  0.299638  0.234084  1
  S  S23  1  0.500000  0.876607  0.053307  1
  S  S24  1  0.000000  0.662552  0.963202  1
  S  S25  1  0.500000  0.405715  0.639676  1
  S  S26  1  0.000000  0.200362  0.734084  1
  S  S27  1  0.000000  0.337448  0.036798  1
  S  S28  1  0.000000  0.905715  0.860324  1
  S  S29  1  0.500000  0.162552  0.536798  1
  S  S30  1  0.000000  0.118052  0.351327  1
  S  S31  1  0.000000  0.881948  0.648673  1
  S  S32  1  0.000000  0.376607  0.446693  1
  S  S33  1  0.500000  0.837448  0.463202  1
  S  S34  1  0.000000  0.094285  0.139676  1
  S  S35  1  0.500000  0.618052  0.148673  1
  S  S36  1  0.000000  0.623393  0.553307  1
  S  S37  1  0.500000  0.700362  0.765916  1
  S  S38  1  0.500000  0.381948  0.851327  1
  S  S39  1  0.500000  0.594285  0.360324  1
