# generated using pymatgen
data_Fe2Ag(MoO4)3
_symmetry_space_group_name_H-M   'P 1'
_cell_length_a   7.02389506
_cell_length_b   7.06296569
_cell_length_c   11.30333725
_cell_angle_alpha   83.55168551
_cell_angle_beta   80.84748889
_cell_angle_gamma   81.75893445
_symmetry_Int_Tables_number   1
_chemical_formula_structural   Fe2Ag(MoO4)3
_chemical_formula_sum   'Fe4 Ag2 Mo6 O24'
_cell_volume   545.59343592
_cell_formula_units_Z   2
loop_
 _symmetry_equiv_pos_site_id
 _symmetry_equiv_pos_as_xyz
  1  'x, y, z'
loop_
 _atom_site_type_symbol
 _atom_site_label
 _atom_site_symmetry_multiplicity
 _atom_site_fract_x
 _atom_site_fract_y
 _atom_site_fract_z
 _atom_site_occupancy
  Fe  Fe0  1  0.173981  0.817277  0.506868  1
  Fe  Fe1  1  0.775720  0.769479  0.110927  1
  Fe  Fe2  1  0.224280  0.230521  0.889073  1
  Fe  Fe3  1  0.826019  0.182723  0.493132  1
  Ag  Ag4  1  0.405429  0.152579  0.204980  1
  Ag  Ag5  1  0.594571  0.847421  0.795020  1
  Mo  Mo6  1  0.707908  0.719742  0.451005  1
  Mo  Mo7  1  0.292092  0.280258  0.548995  1
  Mo  Mo8  1  0.897380  0.238833  0.146987  1
  Mo  Mo9  1  0.716727  0.287217  0.812357  1
  Mo  Mo10  1  0.283273  0.712783  0.187643  1
  Mo  Mo11  1  0.102620  0.761167  0.853013  1
  O  O12  1  0.496958  0.783621  0.087676  1
  O  O13  1  0.789312  0.479787  0.498449  1
  O  O14  1  0.468008  0.789769  0.524981  1
  O  O15  1  0.753171  0.145314  0.686513  1
  O  O16  1  0.503042  0.216379  0.912324  1
  O  O17  1  0.531992  0.210231  0.475019  1
  O  O18  1  0.935384  0.247158  0.885572  1
  O  O19  1  0.852243  0.815270  0.927183  1
  O  O20  1  0.260954  0.936925  0.873367  1
  O  O21  1  0.290398  0.261053  0.710181  1
  O  O22  1  0.873476  0.872773  0.489826  1
  O  O23  1  0.327090  0.467847  0.237855  1
  O  O24  1  0.672910  0.532153  0.762145  1
  O  O25  1  0.201091  0.519356  0.897089  1
  O  O26  1  0.798909  0.480644  0.102911  1
  O  O27  1  0.210688  0.520213  0.501551  1
  O  O28  1  0.739046  0.063075  0.126633  1
  O  O29  1  0.709602  0.738947  0.289819  1
  O  O30  1  0.908703  0.222547  0.301856  1
  O  O31  1  0.147757  0.184730  0.072817  1
  O  O32  1  0.091297  0.777453  0.698144  1
  O  O33  1  0.064616  0.752842  0.114428  1
  O  O34  1  0.126524  0.127227  0.510174  1
  O  O35  1  0.246829  0.854686  0.313487  1
