# generated using pymatgen
data_Na6P4Pb3S16
_symmetry_space_group_name_H-M   'P 1'
_cell_length_a   11.53424714
_cell_length_b   11.53424714
_cell_length_c   11.53424714
_cell_angle_alpha   116.81847844
_cell_angle_beta   116.81847844
_cell_angle_gamma   116.81847844
_symmetry_Int_Tables_number   1
_chemical_formula_structural   Na6P4Pb3S16
_chemical_formula_sum   'Na6 P4 Pb3 S16'
_cell_volume   695.92678464
_cell_formula_units_Z   1
loop_
 _symmetry_equiv_pos_site_id
 _symmetry_equiv_pos_as_xyz
  1  'x, y, z'
loop_
 _atom_site_type_symbol
 _atom_site_label
 _atom_site_symmetry_multiplicity
 _atom_site_fract_x
 _atom_site_fract_y
 _atom_site_fract_z
 _atom_site_occupancy
  Na  Na0  1  0.849506  0.655134  0.398119  1
  Na  Na1  1  0.398119  0.655135  0.849506  1
  Na  Na2  1  0.849506  0.398119  0.655134  1
  Na  Na3  1  0.655134  0.849506  0.398119  1
  Na  Na4  1  0.398119  0.849506  0.655134  1
  Na  Na5  1  0.655134  0.398119  0.849506  1
  P  P6  1  0.234673  0.760852  0.234673  1
  P  P7  1  0.760852  0.234673  0.234673  1
  P  P8  1  0.234673  0.234673  0.760852  1
  P  P9  1  0.419135  0.419135  0.419135  1
  Pb  Pb10  1  0.011780  0.277665  0.011780  1
  Pb  Pb11  1  0.011780  0.011780  0.277665  1
  Pb  Pb12  1  0.277665  0.011780  0.011780  1
  S  S13  1  0.204597  0.571248  0.033675  1
  S  S14  1  0.467461  0.467461  0.640483  1
  S  S15  1  0.033675  0.204597  0.571248  1
  S  S16  1  0.089736  0.089736  0.089736  1
  S  S17  1  0.467461  0.640483  0.467461  1
  S  S18  1  0.061631  0.569676  0.569676  1
  S  S19  1  0.103871  0.806865  0.103871  1
  S  S20  1  0.569676  0.061631  0.569676  1
  S  S21  1  0.569676  0.569676  0.061631  1
  S  S22  1  0.033675  0.571248  0.204597  1
  S  S23  1  0.640483  0.467461  0.467461  1
  S  S24  1  0.204597  0.033675  0.571248  1
  S  S25  1  0.571248  0.204597  0.033675  1
  S  S26  1  0.571248  0.033675  0.204597  1
  S  S27  1  0.806865  0.103871  0.103871  1
  S  S28  1  0.103871  0.103871  0.806865  1
