# generated using pymatgen
data_KMn(SeO4)2
_symmetry_space_group_name_H-M   'P 1'
_cell_length_a   4.94103386
_cell_length_b   5.11666410
_cell_length_c   8.14971777
_cell_angle_alpha   83.25279479
_cell_angle_beta   85.65250251
_cell_angle_gamma   67.68083795
_symmetry_Int_Tables_number   1
_chemical_formula_structural   KMn(SeO4)2
_chemical_formula_sum   'K1 Mn1 Se2 O8'
_cell_volume   189.17301747
_cell_formula_units_Z   1
loop_
 _symmetry_equiv_pos_site_id
 _symmetry_equiv_pos_as_xyz
  1  'x, y, z'
loop_
 _atom_site_type_symbol
 _atom_site_label
 _atom_site_symmetry_multiplicity
 _atom_site_fract_x
 _atom_site_fract_y
 _atom_site_fract_z
 _atom_site_occupancy
  K  K0  1  0.000000  0.000000  0.500000  1
  Mn  Mn1  1  0.000000  0.000000  0.000000  1
  Se  Se2  1  0.617953  0.629849  0.203309  1
  Se  Se3  1  0.382047  0.370151  0.796691  1
  O  O4  1  0.245232  0.777666  0.186493  1
  O  O5  1  0.237061  0.233733  0.964046  1
  O  O6  1  0.686027  0.693828  0.385199  1
  O  O7  1  0.724006  0.282829  0.188489  1
  O  O8  1  0.762939  0.766267  0.035954  1
  O  O9  1  0.313973  0.306172  0.614801  1
  O  O10  1  0.275994  0.717171  0.811511  1
  O  O11  1  0.754768  0.222334  0.813507  1
