# generated using pymatgen
data_SrCuH6O5
_symmetry_space_group_name_H-M   'P 1'
_cell_length_a   5.46737822
_cell_length_b   6.29672524
_cell_length_c   7.97729554
_cell_angle_alpha   90.00000000
_cell_angle_beta   107.79437910
_cell_angle_gamma   90.00000000
_symmetry_Int_Tables_number   1
_chemical_formula_structural   SrCuH6O5
_chemical_formula_sum   'Sr2 Cu2 H12 O10'
_cell_volume   261.49247301
_cell_formula_units_Z   2
loop_
 _symmetry_equiv_pos_site_id
 _symmetry_equiv_pos_as_xyz
  1  'x, y, z'
loop_
 _atom_site_type_symbol
 _atom_site_label
 _atom_site_symmetry_multiplicity
 _atom_site_fract_x
 _atom_site_fract_y
 _atom_site_fract_z
 _atom_site_occupancy
  Sr  Sr0  1  0.000000  0.449404  0.250000  1
  Sr  Sr1  1  0.000000  0.550596  0.750000  1
  Cu  Cu2  1  0.000000  0.000000  0.500000  1
  Cu  Cu3  1  0.000000  0.000000  0.000000  1
  H  H4  1  0.367103  0.053345  0.394118  1
  H  H5  1  0.567522  0.705852  0.354294  1
  H  H6  1  0.432478  0.705852  0.145706  1
  H  H7  1  0.662979  0.736374  0.975734  1
  H  H8  1  0.567522  0.294148  0.854294  1
  H  H9  1  0.337021  0.263626  0.024266  1
  H  H10  1  0.432478  0.294148  0.645706  1
  H  H11  1  0.337021  0.736374  0.524266  1
  H  H12  1  0.367103  0.946655  0.894118  1
  H  H13  1  0.662979  0.263626  0.475734  1
  H  H14  1  0.632897  0.946655  0.605882  1
  H  H15  1  0.632897  0.053345  0.105882  1
  O  O16  1  0.717129  0.842432  0.551801  1
  O  O17  1  0.500000  0.389082  0.750000  1
  O  O18  1  0.848600  0.278226  0.499792  1
  O  O19  1  0.848600  0.721774  0.999792  1
  O  O20  1  0.151400  0.721774  0.500208  1
  O  O21  1  0.282871  0.842432  0.948199  1
  O  O22  1  0.500000  0.610918  0.250000  1
  O  O23  1  0.282871  0.157568  0.448199  1
  O  O24  1  0.151400  0.278226  0.000208  1
  O  O25  1  0.717129  0.157568  0.051801  1
