# generated using pymatgen
data_SrCaSiO4
_symmetry_space_group_name_H-M   'P 1'
_cell_length_a   5.65959477
_cell_length_b   9.47045555
_cell_length_c   21.07963843
_cell_angle_alpha   90.00000000
_cell_angle_beta   90.00000000
_cell_angle_gamma   90.00000000
_symmetry_Int_Tables_number   1
_chemical_formula_structural   SrCaSiO4
_chemical_formula_sum   'Sr12 Ca12 Si12 O48'
_cell_volume   1129.84629019
_cell_formula_units_Z   12
loop_
 _symmetry_equiv_pos_site_id
 _symmetry_equiv_pos_as_xyz
  1  'x, y, z'
loop_
 _atom_site_type_symbol
 _atom_site_label
 _atom_site_symmetry_multiplicity
 _atom_site_fract_x
 _atom_site_fract_y
 _atom_site_fract_z
 _atom_site_occupancy
  Sr  Sr0  1  0.737569  0.421419  0.389850  1
  Sr  Sr1  1  0.213159  0.575089  0.943644  1
  Sr  Sr2  1  0.737569  0.078581  0.889850  1
  Sr  Sr3  1  0.237569  0.578581  0.610150  1
  Sr  Sr4  1  0.253172  0.924651  0.777904  1
  Sr  Sr5  1  0.253172  0.575349  0.277904  1
  Sr  Sr6  1  0.713159  0.075089  0.556356  1
  Sr  Sr7  1  0.713159  0.424911  0.056356  1
  Sr  Sr8  1  0.753172  0.424651  0.722096  1
  Sr  Sr9  1  0.753172  0.075349  0.222096  1
  Sr  Sr10  1  0.213159  0.924911  0.443644  1
  Sr  Sr11  1  0.237569  0.921419  0.110150  1
  Ca  Ca12  1  0.753174  0.795505  0.335153  1
  Ca  Ca13  1  0.253174  0.295505  0.164847  1
  Ca  Ca14  1  0.747272  0.702448  0.168429  1
  Ca  Ca15  1  0.710382  0.799256  0.002782  1
  Ca  Ca16  1  0.247272  0.202448  0.331571  1
  Ca  Ca17  1  0.747272  0.797552  0.668429  1
  Ca  Ca18  1  0.253174  0.204495  0.664847  1
  Ca  Ca19  1  0.753174  0.704495  0.835153  1
  Ca  Ca20  1  0.247272  0.297552  0.831571  1
  Ca  Ca21  1  0.710382  0.700744  0.502782  1
  Ca  Ca22  1  0.210382  0.299256  0.497218  1
  Ca  Ca23  1  0.210382  0.200744  0.997218  1
  Si  Si24  1  0.742077  0.413816  0.573535  1
  Si  Si25  1  0.244795  0.915850  0.258462  1
  Si  Si26  1  0.213292  0.584166  0.093690  1
  Si  Si27  1  0.242077  0.586184  0.426465  1
  Si  Si28  1  0.242077  0.913816  0.926465  1
  Si  Si29  1  0.744795  0.084150  0.741538  1
  Si  Si30  1  0.213292  0.915834  0.593690  1
  Si  Si31  1  0.713292  0.415834  0.906310  1
  Si  Si32  1  0.713292  0.084166  0.406310  1
  Si  Si33  1  0.244795  0.584150  0.758462  1
  Si  Si34  1  0.744795  0.415850  0.241538  1
  Si  Si35  1  0.742077  0.086184  0.073535  1
  O  O36  1  0.974660  0.167865  0.104334  1
  O  O37  1  0.210819  0.436761  0.050814  1
  O  O38  1  0.794083  0.934276  0.780466  1
  O  O39  1  0.971591  0.308672  0.252583  1
  O  O40  1  0.677655  0.050883  0.667936  1
  O  O41  1  0.177655  0.949117  0.332064  1
  O  O42  1  0.506367  0.342816  0.273246  1
  O  O43  1  0.474660  0.667865  0.395666  1
  O  O44  1  0.210819  0.063239  0.550814  1
  O  O45  1  0.006367  0.657184  0.726754  1
  O  O46  1  0.813291  0.449001  0.500284  1
  O  O47  1  0.313291  0.949001  0.999716  1
  O  O48  1  0.177655  0.550883  0.832064  1
  O  O49  1  0.710819  0.936761  0.449186  1
  O  O50  1  0.506179  0.186563  0.082713  1
  O  O51  1  0.489264  0.184736  0.428844  1
  O  O52  1  0.006179  0.813437  0.917287  1
  O  O53  1  0.700921  0.563271  0.612888  1
  O  O54  1  0.176863  0.956261  0.667901  1
  O  O55  1  0.313291  0.550999  0.499716  1
  O  O56  1  0.006179  0.686563  0.417287  1
  O  O57  1  0.489264  0.315264  0.928844  1
  O  O58  1  0.461415  0.669659  0.078783  1
  O  O59  1  0.471591  0.691328  0.747417  1
  O  O60  1  0.294083  0.065724  0.219534  1
  O  O61  1  0.200921  0.436729  0.387112  1
  O  O62  1  0.961415  0.330341  0.921217  1
  O  O63  1  0.974660  0.332135  0.604334  1
  O  O64  1  0.710819  0.563239  0.949186  1
  O  O65  1  0.813291  0.050999  0.000284  1
  O  O66  1  0.971591  0.191328  0.752583  1
  O  O67  1  0.474660  0.832135  0.895666  1
  O  O68  1  0.989264  0.815264  0.571156  1
  O  O69  1  0.989264  0.684736  0.071156  1
  O  O70  1  0.461415  0.830341  0.578783  1
  O  O71  1  0.700921  0.936729  0.112888  1
  O  O72  1  0.471591  0.808672  0.247417  1
  O  O73  1  0.677655  0.449117  0.167936  1
  O  O74  1  0.794083  0.565724  0.280466  1
  O  O75  1  0.506179  0.313437  0.582713  1
  O  O76  1  0.676863  0.456261  0.832099  1
  O  O77  1  0.676863  0.043739  0.332099  1
  O  O78  1  0.006367  0.842816  0.226754  1
  O  O79  1  0.176863  0.543739  0.167901  1
  O  O80  1  0.961415  0.169659  0.421217  1
  O  O81  1  0.294083  0.434276  0.719534  1
  O  O82  1  0.506367  0.157184  0.773246  1
  O  O83  1  0.200921  0.063271  0.887112  1
