# generated using pymatgen
data_K2SmP2S7
_symmetry_space_group_name_H-M   'P 1'
_cell_length_a   11.95999628
_cell_length_b   11.95999628
_cell_length_c   9.05142592
_cell_angle_alpha   83.24088895
_cell_angle_beta   96.75911105
_cell_angle_gamma   147.05716744
_symmetry_Int_Tables_number   1
_chemical_formula_structural   K2SmP2S7
_chemical_formula_sum   'K4 Sm2 P4 S14'
_cell_volume   698.75360057
_cell_formula_units_Z   2
loop_
 _symmetry_equiv_pos_site_id
 _symmetry_equiv_pos_as_xyz
  1  'x, y, z'
loop_
 _atom_site_type_symbol
 _atom_site_label
 _atom_site_symmetry_multiplicity
 _atom_site_fract_x
 _atom_site_fract_y
 _atom_site_fract_z
 _atom_site_occupancy
  K  K0  1  0.571602  0.686568  0.302283  1
  K  K1  1  0.817673  0.445955  0.120673  1
  K  K2  1  0.686568  0.571602  0.697717  1
  K  K3  1  0.445955  0.817673  0.879327  1
  Sm  Sm4  1  0.950206  0.270890  0.466609  1
  Sm  Sm5  1  0.270890  0.950206  0.533391  1
  P  P6  1  0.422397  0.877812  0.292747  1
  P  P7  1  0.877812  0.422397  0.707253  1
  P  P8  1  0.114546  0.144764  0.613006  1
  P  P9  1  0.144764  0.114546  0.386994  1
  S  S10  1  0.190628  0.072415  0.756698  1
  S  S11  1  0.494270  0.922900  0.518967  1
  S  S12  1  0.922900  0.494270  0.481033  1
  S  S13  1  0.074688  0.693810  0.804810  1
  S  S14  1  0.072415  0.190628  0.243302  1
  S  S15  1  0.587710  0.216970  0.769329  1
  S  S16  1  0.947307  0.815826  0.383636  1
  S  S17  1  0.216970  0.587710  0.230671  1
  S  S18  1  0.317632  0.949585  0.230597  1
  S  S19  1  0.815826  0.947307  0.616364  1
  S  S20  1  0.301455  0.438660  0.611739  1
  S  S21  1  0.949585  0.317632  0.769403  1
  S  S22  1  0.438660  0.301455  0.388261  1
  S  S23  1  0.693810  0.074688  0.195190  1
