# generated using pymatgen
data_BaMo3O10
_symmetry_space_group_name_H-M   'P 1'
_cell_length_a   7.32193435
_cell_length_b   7.69798933
_cell_length_c   15.40767646
_cell_angle_alpha   90.00000000
_cell_angle_beta   106.71901384
_cell_angle_gamma   90.00000000
_symmetry_Int_Tables_number   1
_chemical_formula_structural   BaMo3O10
_chemical_formula_sum   'Ba4 Mo12 O40'
_cell_volume   831.72939966
_cell_formula_units_Z   4
loop_
 _symmetry_equiv_pos_site_id
 _symmetry_equiv_pos_as_xyz
  1  'x, y, z'
loop_
 _atom_site_type_symbol
 _atom_site_label
 _atom_site_symmetry_multiplicity
 _atom_site_fract_x
 _atom_site_fract_y
 _atom_site_fract_z
 _atom_site_occupancy
  Ba  Ba0  1  0.169226  0.368801  0.818154  1
  Ba  Ba1  1  0.830774  0.868801  0.681846  1
  Ba  Ba2  1  0.169226  0.131199  0.318154  1
  Ba  Ba3  1  0.830774  0.631199  0.181846  1
  Mo  Mo4  1  0.351729  0.872059  0.915173  1
  Mo  Mo5  1  0.648271  0.372059  0.584827  1
  Mo  Mo6  1  0.351729  0.627941  0.415173  1
  Mo  Mo7  1  0.648271  0.127941  0.084827  1
  Mo  Mo8  1  0.665817  0.356695  0.365367  1
  Mo  Mo9  1  0.334183  0.856695  0.134633  1
  Mo  Mo10  1  0.291020  0.366117  0.103584  1
  Mo  Mo11  1  0.708980  0.866117  0.396416  1
  Mo  Mo12  1  0.334183  0.643305  0.634633  1
  Mo  Mo13  1  0.665817  0.143305  0.865367  1
  Mo  Mo14  1  0.708980  0.633883  0.896416  1
  Mo  Mo15  1  0.291020  0.133883  0.603584  1
  O  O16  1  0.814858  0.385981  0.691153  1
  O  O17  1  0.185142  0.885981  0.808847  1
  O  O18  1  0.185142  0.614019  0.308847  1
  O  O19  1  0.814858  0.114019  0.191153  1
  O  O20  1  0.204794  0.860401  0.992360  1
  O  O21  1  0.795206  0.360401  0.507640  1
  O  O22  1  0.570207  0.885189  0.070926  1
  O  O23  1  0.429793  0.385189  0.429074  1
  O  O24  1  0.121744  0.890463  0.164029  1
  O  O25  1  0.878256  0.390463  0.335971  1
  O  O26  1  0.430212  0.861616  0.411383  1
  O  O27  1  0.569788  0.361616  0.088617  1
  O  O28  1  0.842783  0.870399  0.509663  1
  O  O29  1  0.157217  0.370399  0.990337  1
  O  O30  1  0.883566  0.847229  0.337999  1
  O  O31  1  0.116434  0.347229  0.162001  1
  O  O32  1  0.656972  0.385233  0.878750  1
  O  O33  1  0.343028  0.885233  0.621250  1
  O  O34  1  0.373569  0.380372  0.614608  1
  O  O35  1  0.626431  0.880372  0.885392  1
  O  O36  1  0.492832  0.135697  0.757530  1
  O  O37  1  0.507168  0.635697  0.742470  1
  O  O38  1  0.883566  0.652771  0.837999  1
  O  O39  1  0.116434  0.152771  0.662001  1
  O  O40  1  0.842783  0.629601  0.009663  1
  O  O41  1  0.157217  0.129601  0.490337  1
  O  O42  1  0.430212  0.638384  0.911383  1
  O  O43  1  0.569788  0.138384  0.588617  1
  O  O44  1  0.878256  0.109537  0.835971  1
  O  O45  1  0.121744  0.609537  0.664029  1
  O  O46  1  0.429793  0.114811  0.929074  1
  O  O47  1  0.570207  0.614811  0.570926  1
  O  O48  1  0.795206  0.139599  0.007640  1
  O  O49  1  0.204794  0.639599  0.492360  1
  O  O50  1  0.343028  0.614767  0.121250  1
  O  O51  1  0.656972  0.114767  0.378750  1
  O  O52  1  0.373569  0.119628  0.114608  1
  O  O53  1  0.626431  0.619628  0.385392  1
  O  O54  1  0.507168  0.864303  0.242470  1
  O  O55  1  0.492832  0.364303  0.257530  1
