# generated using pymatgen
data_Mn4Si7
_symmetry_space_group_name_H-M   'P 1'
_cell_length_a   5.50224847
_cell_length_b   5.50246188
_cell_length_c   17.36608446
_cell_angle_alpha   90.00000000
_cell_angle_beta   90.00000000
_cell_angle_gamma   90.00000000
_symmetry_Int_Tables_number   1
_chemical_formula_structural   Mn4Si7
_chemical_formula_sum   'Mn16 Si28'
_cell_volume   525.77405332
_cell_formula_units_Z   4
loop_
 _symmetry_equiv_pos_site_id
 _symmetry_equiv_pos_as_xyz
  1  'x, y, z'
loop_
 _atom_site_type_symbol
 _atom_site_label
 _atom_site_symmetry_multiplicity
 _atom_site_fract_x
 _atom_site_fract_y
 _atom_site_fract_z
 _atom_site_occupancy
  Mn  Mn0  1  0.000000  0.250000  0.471148  1
  Mn  Mn1  1  0.500000  0.250000  0.911321  1
  Mn  Mn2  1  0.500000  0.750000  0.588679  1
  Mn  Mn3  1  0.500000  0.250000  0.152122  1
  Mn  Mn4  1  0.500000  0.250000  0.652122  1
  Mn  Mn5  1  0.500000  0.250000  0.411321  1
  Mn  Mn6  1  0.000000  0.750000  0.282324  1
  Mn  Mn7  1  0.500000  0.750000  0.847878  1
  Mn  Mn8  1  0.000000  0.750000  0.528852  1
  Mn  Mn9  1  0.500000  0.750000  0.347878  1
  Mn  Mn10  1  0.000000  0.250000  0.217676  1
  Mn  Mn11  1  0.000000  0.750000  0.782324  1
  Mn  Mn12  1  0.500000  0.750000  0.088679  1
  Mn  Mn13  1  0.000000  0.250000  0.717676  1
  Mn  Mn14  1  0.000000  0.250000  0.971148  1
  Mn  Mn15  1  0.000000  0.750000  0.028852  1
  Si  Si16  1  0.785044  0.596416  0.674018  1
  Si  Si17  1  0.328362  0.411851  0.033644  1
  Si  Si18  1  0.214956  0.096416  0.825982  1
  Si  Si19  1  0.214956  0.903584  0.674018  1
  Si  Si20  1  0.156870  0.062246  0.101916  1
  Si  Si21  1  0.214956  0.596416  0.174018  1
  Si  Si22  1  0.156870  0.562246  0.898084  1
  Si  Si23  1  0.671638  0.911851  0.466356  1
  Si  Si24  1  0.843130  0.437754  0.101916  1
  Si  Si25  1  0.156870  0.937754  0.398084  1
  Si  Si26  1  0.671638  0.411851  0.533644  1
  Si  Si27  1  0.156870  0.437754  0.601916  1
  Si  Si28  1  0.785044  0.403584  0.825982  1
  Si  Si29  1  0.328362  0.588149  0.466356  1
  Si  Si30  1  0.785044  0.903584  0.174018  1
  Si  Si31  1  0.345857  0.500000  0.750000  1
  Si  Si32  1  0.328362  0.911851  0.966356  1
  Si  Si33  1  0.328362  0.088149  0.533644  1
  Si  Si34  1  0.671638  0.588149  0.966356  1
  Si  Si35  1  0.654143  0.000000  0.750000  1
  Si  Si36  1  0.214956  0.403584  0.325982  1
  Si  Si37  1  0.785044  0.096416  0.325982  1
  Si  Si38  1  0.843130  0.562246  0.398084  1
  Si  Si39  1  0.654143  0.500000  0.250000  1
  Si  Si40  1  0.345857  0.000000  0.250000  1
  Si  Si41  1  0.671638  0.088149  0.033644  1
  Si  Si42  1  0.843130  0.062246  0.601916  1
  Si  Si43  1  0.843130  0.937754  0.898084  1
