# generated using pymatgen
data_AsSe(ClF2)3
_symmetry_space_group_name_H-M   'P 1'
_cell_length_a   7.89346168
_cell_length_b   9.61156696
_cell_length_c   12.20221930
_cell_angle_alpha   90.00000000
_cell_angle_beta   98.37545745
_cell_angle_gamma   90.00000000
_symmetry_Int_Tables_number   1
_chemical_formula_structural   AsSe(ClF2)3
_chemical_formula_sum   'As4 Se4 Cl12 F24'
_cell_volume   915.89105891
_cell_formula_units_Z   4
loop_
 _symmetry_equiv_pos_site_id
 _symmetry_equiv_pos_as_xyz
  1  'x, y, z'
loop_
 _atom_site_type_symbol
 _atom_site_label
 _atom_site_symmetry_multiplicity
 _atom_site_fract_x
 _atom_site_fract_y
 _atom_site_fract_z
 _atom_site_occupancy
  As  As0  1  0.811851  0.263307  0.928142  1
  As  As1  1  0.188149  0.736693  0.071858  1
  As  As2  1  0.811851  0.236693  0.428142  1
  As  As3  1  0.188149  0.763307  0.571858  1
  Se  Se4  1  0.186808  0.178756  0.695172  1
  Se  Se5  1  0.813192  0.821244  0.304828  1
  Se  Se6  1  0.186808  0.321244  0.195172  1
  Se  Se7  1  0.813192  0.678756  0.804828  1
  Cl  Cl8  1  0.716105  0.561774  0.659817  1
  Cl  Cl9  1  0.215274  0.113082  0.257741  1
  Cl  Cl10  1  0.784726  0.613082  0.242259  1
  Cl  Cl11  1  0.784726  0.886918  0.742259  1
  Cl  Cl12  1  0.283895  0.438226  0.340183  1
  Cl  Cl13  1  0.402223  0.172587  0.606462  1
  Cl  Cl14  1  0.283895  0.061774  0.840183  1
  Cl  Cl15  1  0.215274  0.386918  0.757741  1
  Cl  Cl16  1  0.716105  0.938226  0.159817  1
  Cl  Cl17  1  0.597777  0.827413  0.393538  1
  Cl  Cl18  1  0.597777  0.672587  0.893538  1
  Cl  Cl19  1  0.402223  0.327413  0.106462  1
  F  F20  1  0.016826  0.284582  0.502091  1
  F  F21  1  0.983174  0.784582  0.997909  1
  F  F22  1  0.899973  0.070664  0.399188  1
  F  F23  1  0.755818  0.331512  0.052778  1
  F  F24  1  0.271895  0.900982  0.044165  1
  F  F25  1  0.016826  0.215418  0.002091  1
  F  F26  1  0.612808  0.185689  0.354493  1
  F  F27  1  0.244182  0.668488  0.947222  1
  F  F28  1  0.387192  0.685689  0.145507  1
  F  F29  1  0.728105  0.099018  0.955835  1
  F  F30  1  0.100027  0.570664  0.100812  1
  F  F31  1  0.271895  0.599018  0.544165  1
  F  F32  1  0.755818  0.168488  0.552778  1
  F  F33  1  0.100027  0.929336  0.600812  1
  F  F34  1  0.387192  0.814311  0.645507  1
  F  F35  1  0.983174  0.715418  0.497909  1
  F  F36  1  0.878004  0.302817  0.304517  1
  F  F37  1  0.121996  0.697183  0.695483  1
  F  F38  1  0.728105  0.400982  0.455835  1
  F  F39  1  0.244182  0.831512  0.447222  1
  F  F40  1  0.899973  0.429336  0.899188  1
  F  F41  1  0.878004  0.197183  0.804517  1
  F  F42  1  0.612808  0.314311  0.854493  1
  F  F43  1  0.121996  0.802817  0.195483  1
