# generated using pymatgen
data_NaNbO3
_symmetry_space_group_name_H-M   'P 1'
_cell_length_a   4.04094881
_cell_length_b   4.04094881
_cell_length_c   15.95675738
_cell_angle_alpha   90.00000000
_cell_angle_beta   90.00000000
_cell_angle_gamma   90.47144320
_symmetry_Int_Tables_number   1
_chemical_formula_structural   NaNbO3
_chemical_formula_sum   'Na4 Nb4 O12'
_cell_volume   260.55333595
_cell_formula_units_Z   4
loop_
 _symmetry_equiv_pos_site_id
 _symmetry_equiv_pos_as_xyz
  1  'x, y, z'
loop_
 _atom_site_type_symbol
 _atom_site_label
 _atom_site_symmetry_multiplicity
 _atom_site_fract_x
 _atom_site_fract_y
 _atom_site_fract_z
 _atom_site_occupancy
  Na  Na0  1  0.546268  0.453732  0.250000  1
  Na  Na1  1  0.453732  0.546268  0.750000  1
  Na  Na2  1  0.500000  0.500000  0.500000  1
  Na  Na3  1  0.500000  0.500000  0.000000  1
  Nb  Nb4  1  0.974707  0.025293  0.874843  1
  Nb  Nb5  1  0.974707  0.025293  0.625157  1
  Nb  Nb6  1  0.025293  0.974707  0.125157  1
  Nb  Nb7  1  0.025293  0.974707  0.374843  1
  O  O8  1  0.014115  0.985885  0.750000  1
  O  O9  1  0.985885  0.014115  0.250000  1
  O  O10  1  0.504134  0.988665  0.625032  1
  O  O11  1  0.000000  0.000000  0.500000  1
  O  O12  1  0.011335  0.495866  0.625032  1
  O  O13  1  0.495866  0.011335  0.125032  1
  O  O14  1  0.495866  0.011335  0.374968  1
  O  O15  1  0.011335  0.495866  0.874968  1
  O  O16  1  0.988665  0.504134  0.374968  1
  O  O17  1  0.988665  0.504134  0.125032  1
  O  O18  1  0.000000  0.000000  0.000000  1
  O  O19  1  0.504134  0.988665  0.874968  1
