# generated using pymatgen
data_In6S7
_symmetry_space_group_name_H-M   'P 1'
_cell_length_a   9.24381451
_cell_length_b   3.94589103
_cell_length_c   17.51002537
_cell_angle_alpha   90.00000000
_cell_angle_beta   102.01151500
_cell_angle_gamma   90.00000000
_symmetry_Int_Tables_number   1
_chemical_formula_structural   In6S7
_chemical_formula_sum   'In12 S14'
_cell_volume   624.69627683
_cell_formula_units_Z   2
loop_
 _symmetry_equiv_pos_site_id
 _symmetry_equiv_pos_as_xyz
  1  'x, y, z'
loop_
 _atom_site_type_symbol
 _atom_site_label
 _atom_site_symmetry_multiplicity
 _atom_site_fract_x
 _atom_site_fract_y
 _atom_site_fract_z
 _atom_site_occupancy
  In  In0  1  0.183096  0.250000  0.811344  1
  In  In1  1  0.067784  0.750000  0.121215  1
  In  In2  1  0.977877  0.250000  0.396428  1
  In  In3  1  0.672861  0.250000  0.531566  1
  In  In4  1  0.022123  0.750000  0.603572  1
  In  In5  1  0.645079  0.750000  0.953816  1
  In  In6  1  0.816904  0.750000  0.188656  1
  In  In7  1  0.932216  0.250000  0.878785  1
  In  In8  1  0.327139  0.750000  0.468434  1
  In  In9  1  0.530629  0.250000  0.724970  1
  In  In10  1  0.354921  0.250000  0.046184  1
  In  In11  1  0.469371  0.750000  0.275030  1
  S  S12  1  0.754400  0.750000  0.825814  1
  S  S13  1  0.536468  0.750000  0.589613  1
  S  S14  1  0.556561  0.750000  0.089920  1
  S  S15  1  0.443439  0.250000  0.910080  1
  S  S16  1  0.240456  0.750000  0.727724  1
  S  S17  1  0.759544  0.250000  0.272276  1
  S  S18  1  0.165969  0.750000  0.995047  1
  S  S19  1  0.115820  0.750000  0.347340  1
  S  S20  1  0.245600  0.250000  0.174186  1
  S  S21  1  0.167954  0.250000  0.531597  1
  S  S22  1  0.884180  0.250000  0.652660  1
  S  S23  1  0.463532  0.250000  0.410387  1
  S  S24  1  0.832046  0.750000  0.468403  1
  S  S25  1  0.834031  0.250000  0.004953  1
