# generated using pymatgen
data_SbSe9Cl7
_symmetry_space_group_name_H-M   'P 1'
_cell_length_a   12.54356623
_cell_length_b   13.07007677
_cell_length_c   15.18245824
_cell_angle_alpha   90.00000000
_cell_angle_beta   114.75766257
_cell_angle_gamma   90.00000000
_symmetry_Int_Tables_number   1
_chemical_formula_structural   SbSe9Cl7
_chemical_formula_sum   'Sb4 Se36 Cl28'
_cell_volume   2260.31414774
_cell_formula_units_Z   4
loop_
 _symmetry_equiv_pos_site_id
 _symmetry_equiv_pos_as_xyz
  1  'x, y, z'
loop_
 _atom_site_type_symbol
 _atom_site_label
 _atom_site_symmetry_multiplicity
 _atom_site_fract_x
 _atom_site_fract_y
 _atom_site_fract_z
 _atom_site_occupancy
  Sb  Sb0  1  0.696319  0.832812  0.412687  1
  Sb  Sb1  1  0.696319  0.667188  0.912687  1
  Sb  Sb2  1  0.303681  0.167188  0.587313  1
  Sb  Sb3  1  0.303681  0.332812  0.087313  1
  Se  Se4  1  0.612552  0.252413  0.425152  1
  Se  Se5  1  0.231146  0.763775  0.642933  1
  Se  Se6  1  0.956058  0.326894  0.754610  1
  Se  Se7  1  0.690130  0.030798  0.113272  1
  Se  Se8  1  0.231146  0.736225  0.142933  1
  Se  Se9  1  0.387448  0.752413  0.074848  1
  Se  Se10  1  0.956058  0.173106  0.254610  1
  Se  Se11  1  0.870641  0.382605  0.404566  1
  Se  Se12  1  0.911556  0.300144  0.131273  1
  Se  Se13  1  0.043942  0.673106  0.245390  1
  Se  Se14  1  0.378416  0.940635  0.050540  1
  Se  Se15  1  0.768854  0.236225  0.357067  1
  Se  Se16  1  0.102021  0.518298  0.330799  1
  Se  Se17  1  0.897979  0.481702  0.669201  1
  Se  Se18  1  0.289265  0.826570  0.418638  1
  Se  Se19  1  0.088444  0.800144  0.368727  1
  Se  Se20  1  0.309870  0.530798  0.386728  1
  Se  Se21  1  0.690130  0.469202  0.613272  1
  Se  Se22  1  0.088444  0.699856  0.868727  1
  Se  Se23  1  0.289265  0.673430  0.918638  1
  Se  Se24  1  0.911556  0.199856  0.631273  1
  Se  Se25  1  0.710735  0.173430  0.581362  1
  Se  Se26  1  0.710735  0.326570  0.081362  1
  Se  Se27  1  0.129359  0.617395  0.595434  1
  Se  Se28  1  0.897979  0.018298  0.169201  1
  Se  Se29  1  0.387448  0.747587  0.574848  1
  Se  Se30  1  0.309870  0.969202  0.886728  1
  Se  Se31  1  0.621584  0.059365  0.949460  1
  Se  Se32  1  0.621584  0.440635  0.449460  1
  Se  Se33  1  0.612552  0.247587  0.925152  1
  Se  Se34  1  0.768854  0.263775  0.857067  1
  Se  Se35  1  0.102021  0.981702  0.830799  1
  Se  Se36  1  0.129359  0.882605  0.095434  1
  Se  Se37  1  0.870641  0.117395  0.904566  1
  Se  Se38  1  0.378416  0.559365  0.550540  1
  Se  Se39  1  0.043942  0.826894  0.745390  1
  Cl  Cl40  1  0.538336  0.791507  0.852961  1
  Cl  Cl41  1  0.461664  0.291507  0.647039  1
  Cl  Cl42  1  0.829686  0.799955  0.009136  1
  Cl  Cl43  1  0.144163  0.045783  0.526616  1
  Cl  Cl44  1  0.356325  0.128523  0.455627  1
  Cl  Cl45  1  0.255584  0.207275  0.721147  1
  Cl  Cl46  1  0.144163  0.454217  0.026616  1
  Cl  Cl47  1  0.787302  0.495230  0.285569  1
  Cl  Cl48  1  0.787302  0.004770  0.785569  1
  Cl  Cl49  1  0.255584  0.292725  0.221147  1
  Cl  Cl50  1  0.538336  0.708493  0.352961  1
  Cl  Cl51  1  0.356325  0.371477  0.955627  1
  Cl  Cl52  1  0.170314  0.299955  0.490864  1
  Cl  Cl53  1  0.435908  0.465550  0.184433  1
  Cl  Cl54  1  0.564092  0.534450  0.815567  1
  Cl  Cl55  1  0.855837  0.545783  0.973384  1
  Cl  Cl56  1  0.212698  0.995230  0.214431  1
  Cl  Cl57  1  0.643675  0.628523  0.044373  1
  Cl  Cl58  1  0.829686  0.700045  0.509136  1
  Cl  Cl59  1  0.461664  0.208493  0.147039  1
  Cl  Cl60  1  0.744416  0.792725  0.278853  1
  Cl  Cl61  1  0.643675  0.871477  0.544373  1
  Cl  Cl62  1  0.855837  0.954217  0.473384  1
  Cl  Cl63  1  0.212698  0.504770  0.714431  1
  Cl  Cl64  1  0.744416  0.707275  0.778853  1
  Cl  Cl65  1  0.564092  0.965550  0.315567  1
  Cl  Cl66  1  0.435908  0.034450  0.684433  1
  Cl  Cl67  1  0.170314  0.200045  0.990864  1
