# generated using pymatgen
data_CaMnB2O5
_symmetry_space_group_name_H-M   'P 1'
_cell_length_a   5.73648589
_cell_length_b   11.55231091
_cell_length_c   12.53654537
_cell_angle_alpha   90.00000000
_cell_angle_beta   102.56631644
_cell_angle_gamma   90.00000000
_symmetry_Int_Tables_number   1
_chemical_formula_structural   CaMnB2O5
_chemical_formula_sum   'Ca8 Mn8 B16 O40'
_cell_volume   810.89093188
_cell_formula_units_Z   8
loop_
 _symmetry_equiv_pos_site_id
 _symmetry_equiv_pos_as_xyz
  1  'x, y, z'
loop_
 _atom_site_type_symbol
 _atom_site_label
 _atom_site_symmetry_multiplicity
 _atom_site_fract_x
 _atom_site_fract_y
 _atom_site_fract_z
 _atom_site_occupancy
  Ca  Ca0  1  0.873704  0.880812  0.908446  1
  Ca  Ca1  1  0.373704  0.619188  0.908446  1
  Ca  Ca2  1  0.626296  0.380812  0.091554  1
  Ca  Ca3  1  0.126296  0.119188  0.091554  1
  Ca  Ca4  1  0.853536  0.872034  0.413126  1
  Ca  Ca5  1  0.353536  0.627966  0.413126  1
  Ca  Ca6  1  0.146464  0.127966  0.586874  1
  Ca  Ca7  1  0.646464  0.372034  0.586874  1
  Mn  Mn8  1  0.755027  0.128163  0.764014  1
  Mn  Mn9  1  0.749563  0.627786  0.737796  1
  Mn  Mn10  1  0.255027  0.371837  0.764014  1
  Mn  Mn11  1  0.244973  0.871837  0.235986  1
  Mn  Mn12  1  0.250437  0.372214  0.262204  1
  Mn  Mn13  1  0.744973  0.628163  0.235986  1
  Mn  Mn14  1  0.249563  0.872214  0.737796  1
  Mn  Mn15  1  0.750437  0.127786  0.262204  1
  B  B16  1  0.370176  0.875019  0.009161  1
  B  B17  1  0.352218  0.880816  0.511329  1
  B  B18  1  0.647782  0.119184  0.488671  1
  B  B19  1  0.699996  0.875689  0.672677  1
  B  B20  1  0.147782  0.380816  0.488671  1
  B  B21  1  0.870176  0.624981  0.009161  1
  B  B22  1  0.293352  0.115582  0.827948  1
  B  B23  1  0.199996  0.624311  0.672677  1
  B  B24  1  0.793352  0.384418  0.827948  1
  B  B25  1  0.206648  0.615582  0.172052  1
  B  B26  1  0.852218  0.619184  0.511329  1
  B  B27  1  0.629824  0.124981  0.990839  1
  B  B28  1  0.800004  0.375689  0.327323  1
  B  B29  1  0.706648  0.884418  0.172052  1
  B  B30  1  0.129824  0.375019  0.990839  1
  B  B31  1  0.300004  0.124311  0.327323  1
  O  O32  1  0.800468  0.086663  0.937806  1
  O  O33  1  0.605407  0.946271  0.740723  1
  O  O34  1  0.777004  0.665776  0.409180  1
  O  O35  1  0.394593  0.053729  0.259277  1
  O  O36  1  0.808408  0.676817  0.908995  1
  O  O37  1  0.896021  0.309601  0.766193  1
  O  O38  1  0.380767  0.112309  0.942814  1
  O  O39  1  0.722996  0.165776  0.590820  1
  O  O40  1  0.894593  0.446271  0.259277  1
  O  O41  1  0.111137  0.194972  0.285239  1
  O  O42  1  0.691592  0.176817  0.091005  1
  O  O43  1  0.603979  0.809601  0.233807  1
  O  O44  1  0.808149  0.074161  0.433819  1
  O  O45  1  0.308149  0.425839  0.433819  1
  O  O46  1  0.308408  0.823183  0.908995  1
  O  O47  1  0.611137  0.305028  0.285239  1
  O  O48  1  0.277004  0.834224  0.409180  1
  O  O49  1  0.619233  0.887691  0.057186  1
  O  O50  1  0.107193  0.045773  0.778297  1
  O  O51  1  0.388863  0.694972  0.714761  1
  O  O52  1  0.103979  0.690399  0.233807  1
  O  O53  1  0.396021  0.190399  0.766193  1
  O  O54  1  0.691851  0.574161  0.566181  1
  O  O55  1  0.392807  0.545773  0.221703  1
  O  O56  1  0.888863  0.805028  0.714761  1
  O  O57  1  0.102325  0.627454  0.557729  1
  O  O58  1  0.880767  0.387691  0.942814  1
  O  O59  1  0.892807  0.954227  0.221703  1
  O  O60  1  0.897675  0.372546  0.442271  1
  O  O61  1  0.607193  0.454227  0.778297  1
  O  O62  1  0.199532  0.913337  0.062194  1
  O  O63  1  0.105407  0.553729  0.740723  1
  O  O64  1  0.222996  0.334224  0.590820  1
  O  O65  1  0.602325  0.872546  0.557729  1
  O  O66  1  0.119233  0.612309  0.057186  1
  O  O67  1  0.699532  0.586663  0.062194  1
  O  O68  1  0.300468  0.413337  0.937806  1
  O  O69  1  0.397675  0.127454  0.442271  1
  O  O70  1  0.191592  0.323183  0.091005  1
  O  O71  1  0.191851  0.925839  0.566181  1
