# generated using pymatgen
data_AlP3(HO2)6
_symmetry_space_group_name_H-M   'P 1'
_cell_length_a   8.10532319
_cell_length_b   4.96970521
_cell_length_c   11.83902562
_cell_angle_alpha   90.00000000
_cell_angle_beta   95.42867521
_cell_angle_gamma   90.00000000
_symmetry_Int_Tables_number   1
_chemical_formula_structural   AlP3(HO2)6
_chemical_formula_sum   'Al2 P6 H12 O24'
_cell_volume   474.74961382
_cell_formula_units_Z   2
loop_
 _symmetry_equiv_pos_site_id
 _symmetry_equiv_pos_as_xyz
  1  'x, y, z'
loop_
 _atom_site_type_symbol
 _atom_site_label
 _atom_site_symmetry_multiplicity
 _atom_site_fract_x
 _atom_site_fract_y
 _atom_site_fract_z
 _atom_site_occupancy
  Al  Al0  1  0.500000  0.000000  0.500000  1
  Al  Al1  1  0.500000  0.000000  0.000000  1
  P  P2  1  0.500000  0.766595  0.750000  1
  P  P3  1  0.716276  0.499327  0.096252  1
  P  P4  1  0.500000  0.233405  0.250000  1
  P  P5  1  0.283724  0.499327  0.403748  1
  P  P6  1  0.716276  0.500673  0.596252  1
  P  P7  1  0.283724  0.500673  0.903748  1
  H  H8  1  0.973482  0.350486  0.629424  1
  H  H9  1  0.173576  0.081726  0.603914  1
  H  H10  1  0.173576  0.918274  0.103914  1
  H  H11  1  0.973482  0.649514  0.129424  1
  H  H12  1  0.984809  0.920284  0.866498  1
  H  H13  1  0.826424  0.081726  0.896086  1
  H  H14  1  0.015191  0.920284  0.633502  1
  H  H15  1  0.026518  0.350486  0.870576  1
  H  H16  1  0.015191  0.079716  0.133502  1
  H  H17  1  0.826424  0.918274  0.396086  1
  H  H18  1  0.026518  0.649514  0.370576  1
  H  H19  1  0.984809  0.079716  0.366498  1
  O  O20  1  0.907618  0.467018  0.122645  1
  O  O21  1  0.643784  0.430698  0.217040  1
  O  O22  1  0.092382  0.467018  0.377355  1
  O  O23  1  0.092382  0.532982  0.877355  1
  O  O24  1  0.324565  0.788525  0.432045  1
  O  O25  1  0.929580  0.095803  0.859851  1
  O  O26  1  0.070420  0.095803  0.640149  1
  O  O27  1  0.431812  0.921108  0.646609  1
  O  O28  1  0.349679  0.707890  0.990336  1
  O  O29  1  0.650321  0.707890  0.509664  1
  O  O30  1  0.356216  0.569302  0.782960  1
  O  O31  1  0.356216  0.430698  0.282960  1
  O  O32  1  0.675435  0.211475  0.567955  1
  O  O33  1  0.349679  0.292110  0.490336  1
  O  O34  1  0.070420  0.904197  0.140149  1
  O  O35  1  0.929580  0.904197  0.359851  1
  O  O36  1  0.568188  0.078892  0.353391  1
  O  O37  1  0.650321  0.292110  0.009664  1
  O  O38  1  0.675435  0.788525  0.067955  1
  O  O39  1  0.568188  0.921108  0.853391  1
  O  O40  1  0.324565  0.211475  0.932045  1
  O  O41  1  0.907618  0.532982  0.622645  1
  O  O42  1  0.643784  0.569302  0.717040  1
  O  O43  1  0.431812  0.078892  0.146609  1
