# generated using pymatgen
data_CdGaH14O7F5
_symmetry_space_group_name_H-M   'P 1'
_cell_length_a   5.99730765
_cell_length_b   9.47613401
_cell_length_c   10.13053751
_cell_angle_alpha   107.83633987
_cell_angle_beta   102.01092947
_cell_angle_gamma   95.56215147
_symmetry_Int_Tables_number   1
_chemical_formula_structural   CdGaH14O7F5
_chemical_formula_sum   'Cd2 Ga2 H28 O14 F10'
_cell_volume   528.01997924
_cell_formula_units_Z   2
loop_
 _symmetry_equiv_pos_site_id
 _symmetry_equiv_pos_as_xyz
  1  'x, y, z'
loop_
 _atom_site_type_symbol
 _atom_site_label
 _atom_site_symmetry_multiplicity
 _atom_site_fract_x
 _atom_site_fract_y
 _atom_site_fract_z
 _atom_site_occupancy
  Cd  Cd0  1  0.575649  0.320407  0.249199  1
  Cd  Cd1  1  0.424351  0.679593  0.750801  1
  Ga  Ga2  1  0.943558  0.179718  0.751410  1
  Ga  Ga3  1  0.056442  0.820282  0.248590  1
  H  H4  1  0.103467  0.405545  0.588113  1
  H  H5  1  0.208310  0.086982  0.576042  1
  H  H6  1  0.617413  0.828979  0.267874  1
  H  H7  1  0.259955  0.509798  0.924466  1
  H  H8  1  0.197023  0.510733  0.249337  1
  H  H9  1  0.896533  0.594455  0.411887  1
  H  H10  1  0.604444  0.853774  0.579735  1
  H  H11  1  0.740045  0.490202  0.075534  1
  H  H12  1  0.669218  0.316629  0.976086  1
  H  H13  1  0.167673  0.386384  0.095526  1
  H  H14  1  0.674963  0.621679  0.471011  1
  H  H15  1  0.970944  0.709931  0.746918  1
  H  H16  1  0.330782  0.683371  0.023914  1
  H  H17  1  0.669260  0.991519  0.881536  1
  H  H18  1  0.756482  0.913412  0.995285  1
  H  H19  1  0.370977  0.738536  0.485814  1
  H  H20  1  0.923109  0.123673  0.234792  1
  H  H21  1  0.629023  0.261464  0.514186  1
  H  H22  1  0.076891  0.876327  0.765208  1
  H  H23  1  0.243518  0.086588  0.004715  1
  H  H24  1  0.330740  0.008481  0.118464  1
  H  H25  1  0.325037  0.378321  0.528989  1
  H  H26  1  0.791690  0.913018  0.423958  1
  H  H27  1  0.395556  0.146226  0.420265  1
  H  H28  1  0.802977  0.489267  0.750663  1
  H  H29  1  0.382587  0.171021  0.732126  1
  H  H30  1  0.029056  0.290069  0.253082  1
  H  H31  1  0.832327  0.613616  0.904474  1
  O  O32  1  0.240275  0.458056  0.572823  1
  O  O33  1  0.366378  0.097042  0.091303  1
  O  O34  1  0.784566  0.594177  0.799315  1
  O  O35  1  0.225817  0.165157  0.671494  1
  O  O36  1  0.633622  0.902958  0.908697  1
  O  O37  1  0.759725  0.541944  0.427177  1
  O  O38  1  0.774183  0.834843  0.328506  1
  O  O39  1  0.918841  0.230892  0.285394  1
  O  O40  1  0.081159  0.769108  0.714606  1
  O  O41  1  0.345860  0.608833  0.934861  1
  O  O42  1  0.482944  0.248131  0.439917  1
  O  O43  1  0.517056  0.751869  0.560083  1
  O  O44  1  0.654140  0.391167  0.065139  1
  O  O45  1  0.215434  0.405823  0.200685  1
  F  F46  1  0.141558  0.679483  0.347853  1
  F  F47  1  0.858442  0.320517  0.652147  1
  F  F48  1  0.958750  0.951794  0.146330  1
  F  F49  1  0.222987  0.986670  0.416306  1
  F  F50  1  0.041250  0.048206  0.853670  1
  F  F51  1  0.660746  0.180899  0.817966  1
  F  F52  1  0.896033  0.652030  0.084485  1
  F  F53  1  0.777013  0.013330  0.583694  1
  F  F54  1  0.339254  0.819101  0.182034  1
  F  F55  1  0.103967  0.347970  0.915515  1
