# generated using pymatgen
data_SiO2
_symmetry_space_group_name_H-M   'P 1'
_cell_length_a   10.34443344
_cell_length_b   10.34443344
_cell_length_c   10.34443344
_cell_angle_alpha   128.05542533
_cell_angle_beta   128.05542533
_cell_angle_gamma   76.53525849
_symmetry_Int_Tables_number   1
_chemical_formula_structural   SiO2
_chemical_formula_sum   'Si16 O32'
_cell_volume   666.71730994
_cell_formula_units_Z   16
loop_
 _symmetry_equiv_pos_site_id
 _symmetry_equiv_pos_as_xyz
  1  'x, y, z'
loop_
 _atom_site_type_symbol
 _atom_site_label
 _atom_site_symmetry_multiplicity
 _atom_site_fract_x
 _atom_site_fract_y
 _atom_site_fract_z
 _atom_site_occupancy
  Si  Si0  1  0.500968  0.834439  0.773305  1
  Si  Si1  1  0.165561  0.938866  0.666528  1
  Si  Si2  1  0.249032  0.415561  0.726695  1
  Si  Si3  1  0.665561  0.999032  0.226695  1
  Si  Si4  1  0.749032  0.022338  0.833472  1
  Si  Si5  1  0.061134  0.727662  0.226695  1
  Si  Si6  1  0.477662  0.750968  0.166528  1
  Si  Si7  1  0.188866  0.915561  0.166528  1
  Si  Si8  1  0.272338  0.499032  0.333472  1
  Si  Si9  1  0.084439  0.250968  0.273305  1
  Si  Si10  1  0.688866  0.522338  0.273305  1
  Si  Si11  1  0.772338  0.438866  0.773305  1
  Si  Si12  1  0.561134  0.334439  0.333472  1
  Si  Si13  1  0.584439  0.311134  0.833472  1
  Si  Si14  1  0.977662  0.811134  0.726695  1
  Si  Si15  1  0.000968  0.227662  0.666528  1
  O  O16  1  0.691317  0.453209  0.589779  1
  O  O17  1  0.386570  0.296791  0.738108  1
  O  O18  1  0.627579  0.127579  0.755159  1
  O  O19  1  0.622421  0.877579  0.000000  1
  O  O20  1  0.546791  0.136570  0.238108  1
  O  O21  1  0.863430  0.101538  0.410221  1
  O  O22  1  0.058683  0.796791  0.910221  1
  O  O23  1  0.377579  0.377579  0.255159  1
  O  O24  1  0.372421  0.872421  0.244841  1
  O  O25  1  0.625000  0.371282  0.246282  1
  O  O26  1  0.127579  0.372421  0.500000  1
  O  O27  1  0.363430  0.953209  0.761892  1
  O  O28  1  0.121282  0.375000  0.246282  1
  O  O29  1  0.046791  0.808683  0.410221  1
  O  O30  1  0.351538  0.613430  0.910221  1
  O  O31  1  0.128718  0.875000  0.753718  1
  O  O32  1  0.628718  0.875000  0.253718  1
  O  O33  1  0.621282  0.375000  0.746282  1
  O  O34  1  0.191317  0.601538  0.238108  1
  O  O35  1  0.851538  0.941317  0.738108  1
  O  O36  1  0.703209  0.441317  0.089779  1
  O  O37  1  0.398462  0.636570  0.589779  1
  O  O38  1  0.877579  0.622421  0.000000  1
  O  O39  1  0.558683  0.648462  0.261892  1
  O  O40  1  0.886570  0.148462  0.089779  1
  O  O41  1  0.872421  0.627579  0.500000  1
  O  O42  1  0.203209  0.113430  0.261892  1
  O  O43  1  0.898462  0.308683  0.761892  1
  O  O44  1  0.125000  0.878718  0.253718  1
  O  O45  1  0.125000  0.378718  0.753718  1
  O  O46  1  0.625000  0.871282  0.746282  1
  O  O47  1  0.122421  0.122421  0.744841  1
