# generated using pymatgen
data_RbSb2
_symmetry_space_group_name_H-M   'P 1'
_cell_length_a   7.40835468
_cell_length_b   7.40835468
_cell_length_c   8.72431698
_cell_angle_alpha   76.46227872
_cell_angle_beta   103.53772128
_cell_angle_gamma   146.75423038
_symmetry_Int_Tables_number   1
_chemical_formula_structural   RbSb2
_chemical_formula_sum   'Rb2 Sb4'
_cell_volume   254.55215011
_cell_formula_units_Z   2
loop_
 _symmetry_equiv_pos_site_id
 _symmetry_equiv_pos_as_xyz
  1  'x, y, z'
loop_
 _atom_site_type_symbol
 _atom_site_label
 _atom_site_symmetry_multiplicity
 _atom_site_fract_x
 _atom_site_fract_y
 _atom_site_fract_z
 _atom_site_occupancy
  Rb  Rb0  1  0.164709  0.835291  0.697773  1
  Rb  Rb1  1  0.835291  0.164709  0.302227  1
  Sb  Sb2  1  0.434711  0.565289  0.686357  1
  Sb  Sb3  1  0.095233  0.904767  0.107505  1
  Sb  Sb4  1  0.904767  0.095233  0.892495  1
  Sb  Sb5  1  0.565289  0.434711  0.313643  1
