# generated using pymatgen
data_Cs2Ta6PbCl18
_symmetry_space_group_name_H-M   'P 1'
_cell_length_a   10.51480303
_cell_length_b   10.51480303
_cell_length_c   10.51480303
_cell_angle_alpha   54.85236724
_cell_angle_beta   54.85236724
_cell_angle_gamma   54.85236724
_symmetry_Int_Tables_number   1
_chemical_formula_structural   Cs2Ta6PbCl18
_chemical_formula_sum   'Cs2 Ta6 Pb1 Cl18'
_cell_volume   723.51773630
_cell_formula_units_Z   1
loop_
 _symmetry_equiv_pos_site_id
 _symmetry_equiv_pos_as_xyz
  1  'x, y, z'
loop_
 _atom_site_type_symbol
 _atom_site_label
 _atom_site_symmetry_multiplicity
 _atom_site_fract_x
 _atom_site_fract_y
 _atom_site_fract_z
 _atom_site_occupancy
  Cs  Cs0  1  0.276637  0.276637  0.276637  1
  Cs  Cs1  1  0.723363  0.723363  0.723363  1
  Ta  Ta2  1  0.420683  0.302690  0.643939  1
  Ta  Ta3  1  0.356061  0.579317  0.697310  1
  Ta  Ta4  1  0.697310  0.356061  0.579317  1
  Ta  Ta5  1  0.643939  0.420683  0.302690  1
  Ta  Ta6  1  0.579317  0.697310  0.356061  1
  Ta  Ta7  1  0.302690  0.643939  0.420683  1
  Pb  Pb8  1  0.000000  0.000000  0.000000  1
  Cl  Cl9  1  0.639653  0.094873  0.766729  1
  Cl  Cl10  1  0.766729  0.639653  0.094873  1
  Cl  Cl11  1  0.094873  0.766729  0.639653  1
  Cl  Cl12  1  0.824762  0.323224  0.045413  1
  Cl  Cl13  1  0.169920  0.435607  0.577282  1
  Cl  Cl14  1  0.676776  0.954587  0.175238  1
  Cl  Cl15  1  0.905127  0.233271  0.360347  1
  Cl  Cl16  1  0.564393  0.422718  0.830080  1
  Cl  Cl17  1  0.422718  0.830080  0.564393  1
  Cl  Cl18  1  0.954587  0.175238  0.676776  1
  Cl  Cl19  1  0.175238  0.676776  0.954587  1
  Cl  Cl20  1  0.045413  0.824762  0.323224  1
  Cl  Cl21  1  0.323224  0.045413  0.824762  1
  Cl  Cl22  1  0.233271  0.360347  0.905127  1
  Cl  Cl23  1  0.577282  0.169920  0.435607  1
  Cl  Cl24  1  0.435607  0.577282  0.169920  1
  Cl  Cl25  1  0.360347  0.905127  0.233271  1
  Cl  Cl26  1  0.830080  0.564393  0.422718  1
