# generated using pymatgen
data_KZrSnF7
_symmetry_space_group_name_H-M   'P 1'
_cell_length_a   6.05310227
_cell_length_b   8.54287536
_cell_length_c   12.67308350
_cell_angle_alpha   90.00000000
_cell_angle_beta   90.00000000
_cell_angle_gamma   90.00000000
_symmetry_Int_Tables_number   1
_chemical_formula_structural   KZrSnF7
_chemical_formula_sum   'K4 Zr4 Sn4 F28'
_cell_volume   655.33653118
_cell_formula_units_Z   4
loop_
 _symmetry_equiv_pos_site_id
 _symmetry_equiv_pos_as_xyz
  1  'x, y, z'
loop_
 _atom_site_type_symbol
 _atom_site_label
 _atom_site_symmetry_multiplicity
 _atom_site_fract_x
 _atom_site_fract_y
 _atom_site_fract_z
 _atom_site_occupancy
  K  K0  1  0.786282  0.750000  0.750000  1
  K  K1  1  0.786282  0.250000  0.750000  1
  K  K2  1  0.213718  0.250000  0.250000  1
  K  K3  1  0.213718  0.750000  0.250000  1
  Zr  Zr4  1  0.748896  0.000000  0.085188  1
  Zr  Zr5  1  0.251104  0.000000  0.914812  1
  Zr  Zr6  1  0.251104  0.500000  0.585188  1
  Zr  Zr7  1  0.748896  0.500000  0.414812  1
  Sn  Sn8  1  0.764866  0.000000  0.406502  1
  Sn  Sn9  1  0.235134  0.000000  0.593498  1
  Sn  Sn10  1  0.235134  0.500000  0.906502  1
  Sn  Sn11  1  0.764866  0.500000  0.093498  1
  F  F12  1  0.499997  0.000000  0.805585  1
  F  F13  1  0.840403  0.267142  0.390351  1
  F  F14  1  0.840403  0.232858  0.109649  1
  F  F15  1  0.126294  0.000000  0.071497  1
  F  F16  1  0.122506  0.000000  0.416137  1
  F  F17  1  0.905405  0.500000  0.259835  1
  F  F18  1  0.094595  0.000000  0.759835  1
  F  F19  1  0.500000  0.357931  0.500000  1
  F  F20  1  0.159597  0.732858  0.609649  1
  F  F21  1  0.840403  0.767142  0.109649  1
  F  F22  1  0.159597  0.767142  0.890351  1
  F  F23  1  0.500000  0.142069  0.000000  1
  F  F24  1  0.873706  0.000000  0.928503  1
  F  F25  1  0.873706  0.500000  0.571497  1
  F  F26  1  0.500003  0.000000  0.194415  1
  F  F27  1  0.500003  0.500000  0.305585  1
  F  F28  1  0.840403  0.732858  0.390351  1
  F  F29  1  0.877494  0.500000  0.916137  1
  F  F30  1  0.877494  0.000000  0.583863  1
  F  F31  1  0.905405  0.000000  0.240165  1
  F  F32  1  0.122506  0.500000  0.083863  1
  F  F33  1  0.094595  0.500000  0.740165  1
  F  F34  1  0.499997  0.500000  0.694415  1
  F  F35  1  0.126294  0.500000  0.428503  1
  F  F36  1  0.500000  0.857931  0.000000  1
  F  F37  1  0.500000  0.642069  0.500000  1
  F  F38  1  0.159597  0.232858  0.890351  1
  F  F39  1  0.159597  0.267142  0.609649  1
