# generated using pymatgen
data_Ti4Fe(PO4)6
_symmetry_space_group_name_H-M   'P 1'
_cell_length_a   14.97658889
_cell_length_b   14.97658889
_cell_length_c   14.97658889
_cell_angle_alpha   33.54102187
_cell_angle_beta   33.54102187
_cell_angle_gamma   33.54102187
_symmetry_Int_Tables_number   1
_chemical_formula_structural   Ti4Fe(PO4)6
_chemical_formula_sum   'Ti8 Fe2 P12 O48'
_cell_volume   913.45645675
_cell_formula_units_Z   2
loop_
 _symmetry_equiv_pos_site_id
 _symmetry_equiv_pos_as_xyz
  1  'x, y, z'
loop_
 _atom_site_type_symbol
 _atom_site_label
 _atom_site_symmetry_multiplicity
 _atom_site_fract_x
 _atom_site_fract_y
 _atom_site_fract_z
 _atom_site_occupancy
  Ti  Ti0  1  0.696308  0.696308  0.696308  1
  Ti  Ti1  1  0.555942  0.555942  0.555942  1
  Ti  Ti2  1  0.444058  0.444058  0.444058  1
  Ti  Ti3  1  0.052841  0.052841  0.052841  1
  Ti  Ti4  1  0.805351  0.805351  0.805351  1
  Ti  Ti5  1  0.303692  0.303692  0.303692  1
  Ti  Ti6  1  0.194649  0.194649  0.194649  1
  Ti  Ti7  1  0.947159  0.947159  0.947159  1
  Fe  Fe8  1  0.875466  0.875466  0.875466  1
  Fe  Fe9  1  0.124534  0.124534  0.124534  1
  P  P10  1  0.460180  0.759994  0.036617  1
  P  P11  1  0.759994  0.036618  0.460180  1
  P  P12  1  0.539820  0.963383  0.240006  1
  P  P13  1  0.786813  0.500000  0.213187  1
  P  P14  1  0.213187  0.786813  0.500000  1
  P  P15  1  0.963383  0.240006  0.539820  1
  P  P16  1  0.289037  0.000000  0.710963  1
  P  P17  1  0.240006  0.539820  0.963383  1
  P  P18  1  0.500000  0.213187  0.786813  1
  P  P19  1  0.036617  0.460180  0.759994  1
  P  P20  1  1.000000  0.710963  0.289037  1
  P  P21  1  0.710963  0.289037  0.000000  1
  O  O22  1  0.814976  0.672249  0.026308  1
  O  O23  1  0.302933  0.162839  0.524117  1
  O  O24  1  0.771900  0.398581  0.572446  1
  O  O25  1  0.837161  0.697067  0.475883  1
  O  O26  1  0.937656  0.045981  0.276768  1
  O  O27  1  0.799908  0.166691  0.944978  1
  O  O28  1  0.045981  0.276768  0.937656  1
  O  O29  1  0.204870  0.409892  0.037627  1
  O  O30  1  0.277562  0.462719  0.090620  1
  O  O31  1  0.962373  0.590108  0.795130  1
  O  O32  1  0.475883  0.837161  0.697067  1
  O  O33  1  0.166691  0.944978  0.799908  1
  O  O34  1  0.672249  0.026308  0.814976  1
  O  O35  1  0.055022  0.833309  0.200092  1
  O  O36  1  0.349658  0.725143  0.514120  1
  O  O37  1  0.037627  0.204870  0.409892  1
  O  O38  1  0.590108  0.795130  0.962373  1
  O  O39  1  0.833309  0.200092  0.055022  1
  O  O40  1  0.026308  0.814976  0.672249  1
  O  O41  1  0.228100  0.427554  0.601419  1
  O  O42  1  0.398581  0.572446  0.771900  1
  O  O43  1  0.954019  0.062344  0.723232  1
  O  O44  1  0.274857  0.650342  0.485880  1
  O  O45  1  0.200092  0.055022  0.833309  1
  O  O46  1  0.650342  0.485880  0.274857  1
  O  O47  1  0.697067  0.475883  0.837161  1
  O  O48  1  0.725143  0.514120  0.349658  1
  O  O49  1  0.062344  0.723232  0.954019  1
  O  O50  1  0.601419  0.228100  0.427554  1
  O  O51  1  0.944978  0.799908  0.166691  1
  O  O52  1  0.909380  0.537281  0.722438  1
  O  O53  1  0.090620  0.277562  0.462719  1
  O  O54  1  0.514120  0.349658  0.725143  1
  O  O55  1  0.185024  0.973692  0.327751  1
  O  O56  1  0.462719  0.090620  0.277562  1
  O  O57  1  0.409892  0.037627  0.204870  1
  O  O58  1  0.795130  0.962373  0.590108  1
  O  O59  1  0.327751  0.185024  0.973692  1
  O  O60  1  0.485880  0.274857  0.650342  1
  O  O61  1  0.524117  0.302933  0.162839  1
  O  O62  1  0.572446  0.771900  0.398581  1
  O  O63  1  0.973692  0.327751  0.185024  1
  O  O64  1  0.427554  0.601419  0.228100  1
  O  O65  1  0.537281  0.722438  0.909380  1
  O  O66  1  0.723232  0.954019  0.062344  1
  O  O67  1  0.276768  0.937656  0.045981  1
  O  O68  1  0.722438  0.909380  0.537281  1
  O  O69  1  0.162839  0.524117  0.302933  1
