# generated using pymatgen
data_KNa2Y(Si2O5)3
_symmetry_space_group_name_H-M   'P 1'
_cell_length_a   10.24037412
_cell_length_b   10.24037412
_cell_length_c   10.24037412
_cell_angle_alpha   130.01227768
_cell_angle_beta   116.67646858
_cell_angle_gamma   84.72685921
_symmetry_Int_Tables_number   1
_chemical_formula_structural   KNa2Y(Si2O5)3
_chemical_formula_sum   'K2 Na4 Y2 Si12 O30'
_cell_volume   703.90298494
_cell_formula_units_Z   2
loop_
 _symmetry_equiv_pos_site_id
 _symmetry_equiv_pos_as_xyz
  1  'x, y, z'
loop_
 _atom_site_type_symbol
 _atom_site_label
 _atom_site_symmetry_multiplicity
 _atom_site_fract_x
 _atom_site_fract_y
 _atom_site_fract_z
 _atom_site_occupancy
  K  K0  1  0.430013  0.750000  0.680013  1
  K  K1  1  0.569987  0.250000  0.319987  1
  Na  Na2  1  0.243437  0.243437  0.500000  1
  Na  Na3  1  0.756563  0.756563  0.500000  1
  Na  Na4  1  0.243437  0.743437  0.000000  1
  Na  Na5  1  0.756563  0.256563  0.000000  1
  Y  Y6  1  0.000000  0.500000  0.500000  1
  Y  Y7  1  0.500000  0.000000  0.500000  1
  Si  Si8  1  0.175786  0.973871  0.857838  1
  Si  Si9  1  0.865891  0.649988  0.215903  1
  Si  Si10  1  0.383967  0.182052  0.857838  1
  Si  Si11  1  0.934085  0.149988  0.784097  1
  Si  Si12  1  0.065915  0.850012  0.215903  1
  Si  Si13  1  0.824214  0.682052  0.798085  1
  Si  Si14  1  0.824214  0.026129  0.142162  1
  Si  Si15  1  0.134109  0.350012  0.784097  1
  Si  Si16  1  0.616033  0.473871  0.798085  1
  Si  Si17  1  0.616033  0.817948  0.142162  1
  Si  Si18  1  0.175786  0.317948  0.201915  1
  Si  Si19  1  0.383967  0.526129  0.201915  1
  O  O20  1  0.503153  0.277497  0.607856  1
  O  O21  1  0.016198  0.986449  0.724809  1
  O  O22  1  0.496847  0.722503  0.392144  1
  O  O23  1  0.110775  0.427446  0.683329  1
  O  O24  1  0.016198  0.291389  0.029749  1
  O  O25  1  0.830359  0.604703  0.607856  1
  O  O26  1  0.319259  0.044132  0.863391  1
  O  O27  1  0.830359  0.222503  0.225656  1
  O  O28  1  0.244117  0.927446  0.316671  1
  O  O29  1  0.238360  0.513551  0.029749  1
  O  O30  1  0.680741  0.955868  0.136609  1
  O  O31  1  0.889225  0.572554  0.316671  1
  O  O32  1  0.503153  0.895297  0.225656  1
  O  O33  1  0.983802  0.708611  0.970251  1
  O  O34  1  0.169641  0.395297  0.392144  1
  O  O35  1  0.787782  0.878818  0.908964  1
  O  O36  1  0.983802  0.013551  0.275191  1
  O  O37  1  0.469854  0.378818  0.091036  1
  O  O38  1  0.169641  0.777497  0.774344  1
  O  O39  1  0.680741  0.544132  0.724872  1
  O  O40  1  0.024990  0.750000  0.274990  1
  O  O41  1  0.496847  0.104703  0.774344  1
  O  O42  1  0.319259  0.455868  0.275128  1
  O  O43  1  0.975010  0.250000  0.725010  1
  O  O44  1  0.761640  0.791389  0.275191  1
  O  O45  1  0.238360  0.208611  0.724809  1
  O  O46  1  0.761640  0.486449  0.970251  1
  O  O47  1  0.530146  0.621182  0.908964  1
  O  O48  1  0.755883  0.072554  0.683329  1
  O  O49  1  0.212218  0.121182  0.091036  1
