# generated using pymatgen
data_Rb2Pd(NO3)4
_symmetry_space_group_name_H-M   'P 1'
_cell_length_a   8.03707715
_cell_length_b   8.17163887
_cell_length_c   9.97541428
_cell_angle_alpha   90.00000000
_cell_angle_beta   100.31652136
_cell_angle_gamma   90.00000000
_symmetry_Int_Tables_number   1
_chemical_formula_structural   Rb2Pd(NO3)4
_chemical_formula_sum   'Rb4 Pd2 N8 O24'
_cell_volume   644.55476476
_cell_formula_units_Z   2
loop_
 _symmetry_equiv_pos_site_id
 _symmetry_equiv_pos_as_xyz
  1  'x, y, z'
loop_
 _atom_site_type_symbol
 _atom_site_label
 _atom_site_symmetry_multiplicity
 _atom_site_fract_x
 _atom_site_fract_y
 _atom_site_fract_z
 _atom_site_occupancy
  Rb  Rb0  1  0.340761  0.570527  0.178020  1
  Rb  Rb1  1  0.659239  0.429473  0.821980  1
  Rb  Rb2  1  0.659239  0.070527  0.321980  1
  Rb  Rb3  1  0.340761  0.929473  0.678020  1
  Pd  Pd4  1  0.000000  0.000000  0.000000  1
  Pd  Pd5  1  0.000000  0.500000  0.500000  1
  N  N6  1  0.834401  0.453852  0.216480  1
  N  N7  1  0.165599  0.546148  0.783520  1
  N  N8  1  0.323794  0.154937  0.981569  1
  N  N9  1  0.323794  0.345063  0.481569  1
  N  N10  1  0.676206  0.654937  0.518431  1
  N  N11  1  0.676206  0.845063  0.018431  1
  N  N12  1  0.834401  0.046148  0.716480  1
  N  N13  1  0.165599  0.953852  0.283520  1
  O  O14  1  0.447264  0.178171  0.923727  1
  O  O15  1  0.552736  0.678171  0.576273  1
  O  O16  1  0.842034  0.106045  0.841452  1
  O  O17  1  0.691702  0.784176  0.907086  1
  O  O18  1  0.691702  0.715824  0.407086  1
  O  O19  1  0.157966  0.893955  0.158548  1
  O  O20  1  0.552736  0.821829  0.076273  1
  O  O21  1  0.936128  0.940819  0.693372  1
  O  O22  1  0.308298  0.284176  0.592914  1
  O  O23  1  0.281830  0.604620  0.870971  1
  O  O24  1  0.205325  0.442850  0.415911  1
  O  O25  1  0.063872  0.440819  0.806628  1
  O  O26  1  0.794675  0.942850  0.084089  1
  O  O27  1  0.157966  0.606045  0.658548  1
  O  O28  1  0.794675  0.557150  0.584089  1
  O  O29  1  0.205325  0.057150  0.915911  1
  O  O30  1  0.718170  0.104620  0.629029  1
  O  O31  1  0.718170  0.395380  0.129029  1
  O  O32  1  0.281830  0.895380  0.370971  1
  O  O33  1  0.063872  0.059181  0.306628  1
  O  O34  1  0.936128  0.559181  0.193372  1
  O  O35  1  0.308298  0.215824  0.092914  1
  O  O36  1  0.447264  0.321829  0.423727  1
  O  O37  1  0.842034  0.393955  0.341452  1
