# generated using pymatgen
data_MoPO5
_symmetry_space_group_name_H-M   'P 1'
_cell_length_a   6.48247044
_cell_length_b   10.86194568
_cell_length_c   13.05318350
_cell_angle_alpha   90.00000000
_cell_angle_beta   90.00000000
_cell_angle_gamma   90.00000000
_symmetry_Int_Tables_number   1
_chemical_formula_structural   MoPO5
_chemical_formula_sum   'Mo8 P8 O40'
_cell_volume   919.10391275
_cell_formula_units_Z   8
loop_
 _symmetry_equiv_pos_site_id
 _symmetry_equiv_pos_as_xyz
  1  'x, y, z'
loop_
 _atom_site_type_symbol
 _atom_site_label
 _atom_site_symmetry_multiplicity
 _atom_site_fract_x
 _atom_site_fract_y
 _atom_site_fract_z
 _atom_site_occupancy
  Mo  Mo0  1  0.025470  0.525139  0.118440  1
  Mo  Mo1  1  0.250158  0.259501  0.240975  1
  Mo  Mo2  1  0.750158  0.759501  0.259025  1
  Mo  Mo3  1  0.525470  0.025139  0.381560  1
  Mo  Mo4  1  0.474530  0.525139  0.618440  1
  Mo  Mo5  1  0.249842  0.259501  0.740975  1
  Mo  Mo6  1  0.749842  0.759501  0.759025  1
  Mo  Mo7  1  0.974530  0.025139  0.881560  1
  P  P8  1  0.841705  0.765696  0.005355  1
  P  P9  1  0.526277  0.504795  0.181353  1
  P  P10  1  0.026277  0.004795  0.318647  1
  P  P11  1  0.341705  0.265696  0.494645  1
  P  P12  1  0.658295  0.765696  0.505355  1
  P  P13  1  0.973723  0.504795  0.681353  1
  P  P14  1  0.473723  0.004795  0.818647  1
  P  P15  1  0.158295  0.265696  0.994645  1
  O  O16  1  0.951095  0.891411  0.988155  1
  O  O17  1  0.006974  0.662787  0.015326  1
  O  O18  1  0.299980  0.240240  0.087796  1
  O  O19  1  0.714098  0.491121  0.109994  1
  O  O20  1  0.710720  0.771518  0.103657  1
  O  O21  1  0.336323  0.541482  0.115828  1
  O  O22  1  0.065793  0.379675  0.217513  1
  O  O23  1  0.069473  0.109865  0.239627  1
  O  O24  1  0.978536  0.631128  0.222988  1
  O  O25  1  0.484771  0.385733  0.242881  1
  O  O26  1  0.984771  0.885733  0.257119  1
  O  O27  1  0.478536  0.131128  0.277012  1
  O  O28  1  0.569473  0.609865  0.260373  1
  O  O29  1  0.565793  0.879675  0.282487  1
  O  O30  1  0.836323  0.041482  0.384172  1
  O  O31  1  0.210720  0.271518  0.396343  1
  O  O32  1  0.214098  0.991121  0.390006  1
  O  O33  1  0.799980  0.740240  0.412204  1
  O  O34  1  0.506974  0.162787  0.484674  1
  O  O35  1  0.451095  0.391411  0.511845  1
  O  O36  1  0.548905  0.891411  0.488155  1
  O  O37  1  0.493026  0.662787  0.515326  1
  O  O38  1  0.200020  0.240240  0.587796  1
  O  O39  1  0.785902  0.491121  0.609994  1
  O  O40  1  0.789280  0.771518  0.603657  1
  O  O41  1  0.163677  0.541482  0.615828  1
  O  O42  1  0.434207  0.379675  0.717513  1
  O  O43  1  0.430527  0.109865  0.739627  1
  O  O44  1  0.521464  0.631128  0.722988  1
  O  O45  1  0.015229  0.385733  0.742881  1
  O  O46  1  0.515229  0.885733  0.757119  1
  O  O47  1  0.021464  0.131128  0.777012  1
  O  O48  1  0.930527  0.609865  0.760373  1
  O  O49  1  0.934207  0.879675  0.782487  1
  O  O50  1  0.663677  0.041482  0.884172  1
  O  O51  1  0.289280  0.271518  0.896343  1
  O  O52  1  0.285902  0.991121  0.890006  1
  O  O53  1  0.700020  0.740240  0.912204  1
  O  O54  1  0.993026  0.162787  0.984674  1
  O  O55  1  0.048905  0.391411  0.011845  1
