# generated using pymatgen
data_BaMo2Se2O11
_symmetry_space_group_name_H-M   'P 1'
_cell_length_a   9.02146511
_cell_length_b   9.02146511
_cell_length_c   7.99006558
_cell_angle_alpha   90.00000000
_cell_angle_beta   90.00000000
_cell_angle_gamma   126.38224892
_symmetry_Int_Tables_number   1
_chemical_formula_structural   BaMo2Se2O11
_chemical_formula_sum   'Ba2 Mo4 Se4 O22'
_cell_volume   523.53080365
_cell_formula_units_Z   2
loop_
 _symmetry_equiv_pos_site_id
 _symmetry_equiv_pos_as_xyz
  1  'x, y, z'
loop_
 _atom_site_type_symbol
 _atom_site_label
 _atom_site_symmetry_multiplicity
 _atom_site_fract_x
 _atom_site_fract_y
 _atom_site_fract_z
 _atom_site_occupancy
  Ba  Ba0  1  0.231460  0.231460  0.332092  1
  Ba  Ba1  1  0.768540  0.768540  0.832092  1
  Mo  Mo2  1  0.625539  0.842598  0.340255  1
  Mo  Mo3  1  0.374461  0.157402  0.840255  1
  Mo  Mo4  1  0.842598  0.625539  0.340255  1
  Mo  Mo5  1  0.157402  0.374461  0.840255  1
  Se  Se6  1  0.876666  0.292303  0.189769  1
  Se  Se7  1  0.707697  0.123334  0.689769  1
  Se  Se8  1  0.292303  0.876666  0.189769  1
  Se  Se9  1  0.123334  0.707697  0.689769  1
  O  O10  1  0.384621  0.565922  0.870868  1
  O  O11  1  0.814481  0.814481  0.417427  1
  O  O12  1  0.633069  0.913570  0.603669  1
  O  O13  1  0.148531  0.864863  0.340223  1
  O  O14  1  0.913570  0.633069  0.603669  1
  O  O15  1  0.667156  0.845109  0.126200  1
  O  O16  1  0.154891  0.332844  0.626200  1
  O  O17  1  0.086430  0.366931  0.103669  1
  O  O18  1  0.515149  0.044598  0.818057  1
  O  O19  1  0.366931  0.086431  0.103669  1
  O  O20  1  0.615379  0.434078  0.370868  1
  O  O21  1  0.955402  0.484851  0.318057  1
  O  O22  1  0.864863  0.148531  0.340223  1
  O  O23  1  0.434078  0.615379  0.370868  1
  O  O24  1  0.332844  0.154891  0.626200  1
  O  O25  1  0.185519  0.185519  0.917427  1
  O  O26  1  0.851469  0.135137  0.840223  1
  O  O27  1  0.135137  0.851469  0.840223  1
  O  O28  1  0.484851  0.955402  0.318057  1
  O  O29  1  0.845109  0.667156  0.126200  1
  O  O30  1  0.044598  0.515149  0.818057  1
  O  O31  1  0.565922  0.384621  0.870868  1
