# generated using pymatgen
data_Rb2Ca2(SO4)3
_symmetry_space_group_name_H-M   'P 1'
_cell_length_a   10.75163597
_cell_length_b   10.75163597
_cell_length_c   10.75163597
_cell_angle_alpha   90.00000000
_cell_angle_beta   90.00000000
_cell_angle_gamma   90.00000000
_symmetry_Int_Tables_number   1
_chemical_formula_structural   Rb2Ca2(SO4)3
_chemical_formula_sum   'Rb8 Ca8 S12 O48'
_cell_volume   1242.86413167
_cell_formula_units_Z   4
loop_
 _symmetry_equiv_pos_site_id
 _symmetry_equiv_pos_as_xyz
  1  'x, y, z'
loop_
 _atom_site_type_symbol
 _atom_site_label
 _atom_site_symmetry_multiplicity
 _atom_site_fract_x
 _atom_site_fract_y
 _atom_site_fract_z
 _atom_site_occupancy
  Rb  Rb0  1  0.550244  0.449756  0.949756  1
  Rb  Rb1  1  0.684063  0.184063  0.315937  1
  Rb  Rb2  1  0.449756  0.949756  0.550244  1
  Rb  Rb3  1  0.815937  0.815937  0.815937  1
  Rb  Rb4  1  0.050244  0.050244  0.050244  1
  Rb  Rb5  1  0.949756  0.550244  0.449756  1
  Rb  Rb6  1  0.315937  0.684063  0.184063  1
  Rb  Rb7  1  0.184063  0.315937  0.684063  1
  Ca  Ca8  1  0.168577  0.668577  0.831423  1
  Ca  Ca9  1  0.831423  0.168577  0.668577  1
  Ca  Ca10  1  0.407809  0.092191  0.907809  1
  Ca  Ca11  1  0.668577  0.831423  0.168577  1
  Ca  Ca12  1  0.092191  0.907809  0.407809  1
  Ca  Ca13  1  0.592191  0.592191  0.592191  1
  Ca  Ca14  1  0.907809  0.407809  0.092191  1
  Ca  Ca15  1  0.331423  0.331423  0.331423  1
  S  S16  1  0.624980  0.510902  0.275956  1
  S  S17  1  0.275956  0.624980  0.510902  1
  S  S18  1  0.510902  0.275956  0.624980  1
  S  S19  1  0.224044  0.375020  0.010902  1
  S  S20  1  0.375020  0.010902  0.224044  1
  S  S21  1  0.875020  0.489098  0.775956  1
  S  S22  1  0.724044  0.124980  0.989098  1
  S  S23  1  0.010902  0.224044  0.375020  1
  S  S24  1  0.775956  0.875020  0.489098  1
  S  S25  1  0.124980  0.989098  0.724044  1
  S  S26  1  0.489098  0.775956  0.875020  1
  S  S27  1  0.989098  0.724044  0.124980  1
  O  O28  1  0.406299  0.141167  0.258085  1
  O  O29  1  0.039379  0.809995  0.221165  1
  O  O30  1  0.906254  0.827602  0.494848  1
  O  O31  1  0.906299  0.358833  0.741915  1
  O  O32  1  0.309995  0.278835  0.960621  1
  O  O33  1  0.172398  0.994848  0.593746  1
  O  O34  1  0.190005  0.721165  0.460621  1
  O  O35  1  0.011360  0.067363  0.736873  1
  O  O36  1  0.736873  0.011360  0.067363  1
  O  O37  1  0.858833  0.758085  0.093701  1
  O  O38  1  0.758085  0.093701  0.858833  1
  O  O39  1  0.827602  0.494848  0.906254  1
  O  O40  1  0.241915  0.593701  0.641167  1
  O  O41  1  0.494848  0.906254  0.827602  1
  O  O42  1  0.741915  0.906299  0.358833  1
  O  O43  1  0.141167  0.258085  0.406299  1
  O  O44  1  0.690005  0.778835  0.539379  1
  O  O45  1  0.567363  0.763127  0.988640  1
  O  O46  1  0.593746  0.172398  0.994848  1
  O  O47  1  0.093746  0.327602  0.005152  1
  O  O48  1  0.505152  0.406254  0.672398  1
  O  O49  1  0.327602  0.005152  0.093746  1
  O  O50  1  0.672398  0.505152  0.406254  1
  O  O51  1  0.809995  0.221165  0.039379  1
  O  O52  1  0.460621  0.190005  0.721165  1
  O  O53  1  0.005152  0.093746  0.327602  1
  O  O54  1  0.778835  0.539379  0.690005  1
  O  O55  1  0.539379  0.690005  0.778835  1
  O  O56  1  0.641167  0.241915  0.593701  1
  O  O57  1  0.432637  0.263127  0.511360  1
  O  O58  1  0.960621  0.309995  0.278835  1
  O  O59  1  0.721165  0.460621  0.190005  1
  O  O60  1  0.994848  0.593746  0.172398  1
  O  O61  1  0.406254  0.672398  0.505152  1
  O  O62  1  0.932637  0.236873  0.488640  1
  O  O63  1  0.221165  0.039379  0.809995  1
  O  O64  1  0.593701  0.641167  0.241915  1
  O  O65  1  0.067363  0.736873  0.011360  1
  O  O66  1  0.278835  0.960621  0.309995  1
  O  O67  1  0.258085  0.406299  0.141167  1
  O  O68  1  0.763127  0.988640  0.567363  1
  O  O69  1  0.988640  0.567363  0.763127  1
  O  O70  1  0.236873  0.488640  0.932637  1
  O  O71  1  0.093701  0.858833  0.758085  1
  O  O72  1  0.263127  0.511360  0.432637  1
  O  O73  1  0.358833  0.741915  0.906299  1
  O  O74  1  0.511360  0.432637  0.263127  1
  O  O75  1  0.488640  0.932637  0.236873  1
