# generated using pymatgen
data_K4Na2TeO6
_symmetry_space_group_name_H-M   'P 1'
_cell_length_a   6.76621733
_cell_length_b   10.06244559
_cell_length_c   7.33783957
_cell_angle_alpha   90.00000000
_cell_angle_beta   122.73852682
_cell_angle_gamma   90.00000000
_symmetry_Int_Tables_number   1
_chemical_formula_structural   K4Na2TeO6
_chemical_formula_sum   'K8 Na4 Te2 O12'
_cell_volume   420.23262673
_cell_formula_units_Z   2
loop_
 _symmetry_equiv_pos_site_id
 _symmetry_equiv_pos_as_xyz
  1  'x, y, z'
loop_
 _atom_site_type_symbol
 _atom_site_label
 _atom_site_symmetry_multiplicity
 _atom_site_fract_x
 _atom_site_fract_y
 _atom_site_fract_z
 _atom_site_occupancy
  K  K0  1  0.687240  0.512193  0.433318  1
  K  K1  1  0.498435  0.677205  0.985810  1
  K  K2  1  0.312760  0.012193  0.066682  1
  K  K3  1  0.501565  0.322795  0.014190  1
  K  K4  1  0.498435  0.822795  0.485810  1
  K  K5  1  0.687240  0.987807  0.933318  1
  K  K6  1  0.501565  0.177205  0.514190  1
  K  K7  1  0.312760  0.487807  0.566682  1
  Na  Na8  1  0.012079  0.742010  0.285708  1
  Na  Na9  1  0.987921  0.257990  0.714292  1
  Na  Na10  1  0.987921  0.242010  0.214292  1
  Na  Na11  1  0.012079  0.757990  0.785708  1
  Te  Te12  1  0.000000  0.000000  0.500000  1
  Te  Te13  1  0.000000  0.500000  0.000000  1
  O  O14  1  0.222187  0.849609  0.656463  1
  O  O15  1  0.748955  0.870817  0.302501  1
  O  O16  1  0.748955  0.629183  0.802501  1
  O  O17  1  0.111719  0.008252  0.298539  1
  O  O18  1  0.111719  0.491748  0.798539  1
  O  O19  1  0.222187  0.650391  0.156463  1
  O  O20  1  0.888281  0.991748  0.701461  1
  O  O21  1  0.251045  0.370817  0.197499  1
  O  O22  1  0.777813  0.150391  0.343537  1
  O  O23  1  0.777813  0.349609  0.843537  1
  O  O24  1  0.888281  0.508252  0.201461  1
  O  O25  1  0.251045  0.129183  0.697499  1
