# generated using pymatgen
data_AgAsS2
_symmetry_space_group_name_H-M   'P 1'
_cell_length_a   8.65879867
_cell_length_b   8.65879867
_cell_length_c   17.58374695
_cell_angle_alpha   80.00718503
_cell_angle_beta   99.99281497
_cell_angle_gamma   125.55585557
_symmetry_Int_Tables_number   1
_chemical_formula_structural   AgAsS2
_chemical_formula_sum   'Ag12 As12 S24'
_cell_volume   1051.91383099
_cell_formula_units_Z   12
loop_
 _symmetry_equiv_pos_site_id
 _symmetry_equiv_pos_as_xyz
  1  'x, y, z'
loop_
 _atom_site_type_symbol
 _atom_site_label
 _atom_site_symmetry_multiplicity
 _atom_site_fract_x
 _atom_site_fract_y
 _atom_site_fract_z
 _atom_site_occupancy
  Ag  Ag0  1  0.121974  0.121974  0.250000  1
  Ag  Ag1  1  0.878026  0.878026  0.750000  1
  Ag  Ag2  1  0.633528  0.633528  0.250000  1
  Ag  Ag3  1  0.366472  0.366472  0.750000  1
  Ag  Ag4  1  0.525869  0.237882  0.412238  1
  Ag  Ag5  1  0.237882  0.525869  0.087762  1
  Ag  Ag6  1  0.474131  0.762118  0.587762  1
  Ag  Ag7  1  0.762118  0.474131  0.912238  1
  Ag  Ag8  1  0.947892  0.813570  0.080803  1
  Ag  Ag9  1  0.813570  0.947892  0.419197  1
  Ag  Ag10  1  0.052108  0.186430  0.919197  1
  Ag  Ag11  1  0.186430  0.052108  0.580803  1
  As  As12  1  0.377967  0.885634  0.231257  1
  As  As13  1  0.885634  0.377967  0.268743  1
  As  As14  1  0.622033  0.114366  0.768743  1
  As  As15  1  0.114366  0.622033  0.731257  1
  As  As16  1  0.707609  0.053063  0.081375  1
  As  As17  1  0.053063  0.707609  0.418625  1
  As  As18  1  0.292391  0.946937  0.918625  1
  As  As19  1  0.946937  0.292391  0.581375  1
  As  As20  1  0.471136  0.285689  0.087560  1
  As  As21  1  0.285689  0.471136  0.412440  1
  As  As22  1  0.528865  0.714311  0.912440  1
  As  As23  1  0.714311  0.528864  0.587560  1
  S  S24  1  0.592281  0.587771  0.396826  1
  S  S25  1  0.587771  0.592281  0.103174  1
  S  S26  1  0.407719  0.412229  0.603174  1
  S  S27  1  0.412229  0.407719  0.896826  1
  S  S28  1  0.157034  0.019583  0.409805  1
  S  S29  1  0.019583  0.157034  0.090195  1
  S  S30  1  0.842966  0.980417  0.590195  1
  S  S31  1  0.980417  0.842966  0.909805  1
  S  S32  1  0.197612  0.451161  0.278685  1
  S  S33  1  0.451161  0.197612  0.221315  1
  S  S34  1  0.802388  0.548839  0.721315  1
  S  S35  1  0.548839  0.802388  0.778685  1
  S  S36  1  0.691928  0.978857  0.214829  1
  S  S37  1  0.978857  0.691928  0.285171  1
  S  S38  1  0.308072  0.021143  0.785171  1
  S  S39  1  0.021143  0.308072  0.714829  1
  S  S40  1  0.248535  0.816436  0.108502  1
  S  S41  1  0.816436  0.248535  0.391498  1
  S  S42  1  0.751465  0.183564  0.891498  1
  S  S43  1  0.183564  0.751465  0.608502  1
  S  S44  1  0.354414  0.767929  0.425837  1
  S  S45  1  0.767929  0.354414  0.074163  1
  S  S46  1  0.645586  0.232071  0.574163  1
  S  S47  1  0.232071  0.645586  0.925837  1
