# generated using pymatgen
data_Fe7(AsO4)6
_symmetry_space_group_name_H-M   'P 1'
_cell_length_a   6.69731653
_cell_length_b   8.23442879
_cell_length_c   9.83169522
_cell_angle_alpha   104.84280246
_cell_angle_beta   107.78626566
_cell_angle_gamma   101.82935187
_symmetry_Int_Tables_number   1
_chemical_formula_structural   Fe7(AsO4)6
_chemical_formula_sum   'Fe7 As6 O24'
_cell_volume   474.84237761
_cell_formula_units_Z   1
loop_
 _symmetry_equiv_pos_site_id
 _symmetry_equiv_pos_as_xyz
  1  'x, y, z'
loop_
 _atom_site_type_symbol
 _atom_site_label
 _atom_site_symmetry_multiplicity
 _atom_site_fract_x
 _atom_site_fract_y
 _atom_site_fract_z
 _atom_site_occupancy
  Fe  Fe0  1  0.045867  0.218768  0.024429  1
  Fe  Fe1  1  0.954133  0.781232  0.975571  1
  Fe  Fe2  1  0.279955  0.304041  0.789184  1
  Fe  Fe3  1  0.720045  0.695959  0.210816  1
  Fe  Fe4  1  0.620496  0.046087  0.389540  1
  Fe  Fe5  1  0.379504  0.953913  0.610460  1
  Fe  Fe6  1  0.000000  0.500000  0.500000  1
  As  As7  1  0.099479  0.099471  0.334379  1
  As  As8  1  0.900521  0.900529  0.665621  1
  As  As9  1  0.227714  0.651434  0.269404  1
  As  As10  1  0.772286  0.348566  0.730596  1
  As  As11  1  0.604624  0.268039  0.128889  1
  As  As12  1  0.395376  0.731961  0.871111  1
  O  O13  1  0.006338  0.695893  0.154545  1
  O  O14  1  0.993662  0.304107  0.845455  1
  O  O15  1  0.068947  0.048651  0.144742  1
  O  O16  1  0.931053  0.951349  0.855258  1
  O  O17  1  0.128957  0.034766  0.655225  1
  O  O18  1  0.871043  0.965234  0.344775  1
  O  O19  1  0.137417  0.311033  0.427026  1
  O  O20  1  0.862583  0.688967  0.572974  1
  O  O21  1  0.211604  0.437424  0.197549  1
  O  O22  1  0.788396  0.562576  0.802451  1
  O  O23  1  0.221381  0.702416  0.451067  1
  O  O24  1  0.778619  0.297584  0.548933  1
  O  O25  1  0.323377  0.032168  0.417869  1
  O  O26  1  0.676623  0.967832  0.582131  1
  O  O27  1  0.525818  0.224171  0.723605  1
  O  O28  1  0.474182  0.775829  0.276395  1
  O  O29  1  0.554820  0.125029  0.221130  1
  O  O30  1  0.445180  0.874971  0.778870  1
  O  O31  1  0.645493  0.744542  0.001956  1
  O  O32  1  0.354507  0.255458  0.998044  1
  O  O33  1  0.738100  0.476018  0.264302  1
  O  O34  1  0.261900  0.523982  0.735698  1
  O  O35  1  0.757237  0.214036  0.024664  1
  O  O36  1  0.242763  0.785964  0.975336  1
