# generated using pymatgen
data_Pr3Si2Cl3O7
_symmetry_space_group_name_H-M   'P 1'
_cell_length_a   5.36168832
_cell_length_b   12.21945400
_cell_length_c   7.91486298
_cell_angle_alpha   90.00000000
_cell_angle_beta   108.78352768
_cell_angle_gamma   90.00000000
_symmetry_Int_Tables_number   1
_chemical_formula_structural   Pr3Si2Cl3O7
_chemical_formula_sum   'Pr6 Si4 Cl6 O14'
_cell_volume   490.93992460
_cell_formula_units_Z   2
loop_
 _symmetry_equiv_pos_site_id
 _symmetry_equiv_pos_as_xyz
  1  'x, y, z'
loop_
 _atom_site_type_symbol
 _atom_site_label
 _atom_site_symmetry_multiplicity
 _atom_site_fract_x
 _atom_site_fract_y
 _atom_site_fract_z
 _atom_site_occupancy
  Pr  Pr0  1  0.705761  0.102463  0.530623  1
  Pr  Pr1  1  0.967696  0.124137  0.079339  1
  Pr  Pr2  1  0.032304  0.624137  0.920661  1
  Pr  Pr3  1  0.553060  0.378195  0.202750  1
  Pr  Pr4  1  0.446940  0.878195  0.797250  1
  Pr  Pr5  1  0.294239  0.602463  0.469377  1
  Si  Si6  1  0.386946  0.176322  0.817459  1
  Si  Si7  1  0.788362  0.788718  0.564375  1
  Si  Si8  1  0.613054  0.676322  0.182541  1
  Si  Si9  1  0.211638  0.288718  0.435625  1
  Cl  Cl10  1  0.844873  0.505242  0.557170  1
  Cl  Cl11  1  0.457299  0.508859  0.832398  1
  Cl  Cl12  1  0.987901  0.882086  0.008089  1
  Cl  Cl13  1  0.155127  0.005242  0.442830  1
  Cl  Cl14  1  0.012099  0.382086  0.991911  1
  Cl  Cl15  1  0.542701  0.008859  0.167602  1
  O  O16  1  0.726882  0.915097  0.597594  1
  O  O17  1  0.419836  0.572929  0.196568  1
  O  O18  1  0.901753  0.252144  0.378532  1
  O  O19  1  0.910144  0.639418  0.191562  1
  O  O20  1  0.440177  0.737951  0.000842  1
  O  O21  1  0.652017  0.719943  0.693406  1
  O  O22  1  0.347983  0.219943  0.306594  1
  O  O23  1  0.616554  0.748476  0.361133  1
  O  O24  1  0.098247  0.752144  0.621468  1
  O  O25  1  0.383446  0.248476  0.638867  1
  O  O26  1  0.580164  0.072929  0.803432  1
  O  O27  1  0.089856  0.139418  0.808438  1
  O  O28  1  0.559823  0.237951  0.999158  1
  O  O29  1  0.273118  0.415097  0.402406  1
