# generated using pymatgen
data_LiB6C
_symmetry_space_group_name_H-M   'P 1'
_cell_length_a   5.32001026
_cell_length_b   5.32001026
_cell_length_c   4.70463492
_cell_angle_alpha   90.00000000
_cell_angle_beta   90.00000000
_cell_angle_gamma   115.83138524
_symmetry_Int_Tables_number   1
_chemical_formula_structural   LiB6C
_chemical_formula_sum   'Li2 B12 C2'
_cell_volume   119.84835820
_cell_formula_units_Z   2
loop_
 _symmetry_equiv_pos_site_id
 _symmetry_equiv_pos_as_xyz
  1  'x, y, z'
loop_
 _atom_site_type_symbol
 _atom_site_label
 _atom_site_symmetry_multiplicity
 _atom_site_fract_x
 _atom_site_fract_y
 _atom_site_fract_z
 _atom_site_occupancy
  Li  Li0  1  0.112774  0.527979  0.500000  1
  Li  Li1  1  0.527979  0.112774  0.500000  1
  B  B2  1  0.257669  0.257669  0.817102  1
  B  B3  1  0.097731  0.902339  0.693788  1
  B  B4  1  0.902339  0.097731  0.693788  1
  B  B5  1  0.743460  0.743460  0.183458  1
  B  B6  1  0.993499  0.332334  0.000000  1
  B  B7  1  0.902339  0.097731  0.306212  1
  B  B8  1  0.669343  0.007139  0.000000  1
  B  B9  1  0.332335  0.993499  0.000000  1
  B  B10  1  0.097731  0.902339  0.306212  1
  B  B11  1  0.257669  0.257669  0.182898  1
  B  B12  1  0.007139  0.669343  0.000000  1
  B  B13  1  0.743460  0.743460  0.816542  1
  C  C14  1  0.501968  0.501968  0.646512  1
  C  C15  1  0.501968  0.501968  0.353488  1
