# generated using pymatgen
data_NaZrCuSe3
_symmetry_space_group_name_H-M   'P 1'
_cell_length_a   3.86100000
_cell_length_b   10.36777956
_cell_length_c   13.75665315
_cell_angle_alpha   90.00000000
_cell_angle_beta   90.00000000
_cell_angle_gamma   90.00000000
_symmetry_Int_Tables_number   1
_chemical_formula_structural   NaZrCuSe3
_chemical_formula_sum   'Na4 Zr4 Cu4 Se12'
_cell_volume   550.67878269
_cell_formula_units_Z   4
loop_
 _symmetry_equiv_pos_site_id
 _symmetry_equiv_pos_as_xyz
  1  'x, y, z'
loop_
 _atom_site_type_symbol
 _atom_site_label
 _atom_site_symmetry_multiplicity
 _atom_site_fract_x
 _atom_site_fract_y
 _atom_site_fract_z
 _atom_site_occupancy
  Na  Na0  1  0.250000  0.043920  0.228219  1
  Na  Na1  1  0.750000  0.956080  0.771781  1
  Na  Na2  1  0.750000  0.543920  0.271781  1
  Na  Na3  1  0.250000  0.456080  0.728219  1
  Zr  Zr4  1  0.250000  0.321673  0.010591  1
  Zr  Zr5  1  0.750000  0.678327  0.989409  1
  Zr  Zr6  1  0.750000  0.821673  0.489409  1
  Zr  Zr7  1  0.250000  0.178327  0.510591  1
  Cu  Cu8  1  0.250000  0.591889  0.491644  1
  Cu  Cu9  1  0.750000  0.408111  0.508356  1
  Cu  Cu10  1  0.750000  0.091889  0.008356  1
  Cu  Cu11  1  0.250000  0.908111  0.991644  1
  Se  Se12  1  0.250000  0.564596  0.102921  1
  Se  Se13  1  0.750000  0.435404  0.897079  1
  Se  Se14  1  0.750000  0.064596  0.397079  1
  Se  Se15  1  0.250000  0.935404  0.602921  1
  Se  Se16  1  0.250000  0.382062  0.395670  1
  Se  Se17  1  0.750000  0.617938  0.604330  1
  Se  Se18  1  0.750000  0.882062  0.104330  1
  Se  Se19  1  0.250000  0.117938  0.895670  1
  Se  Se20  1  0.250000  0.752509  0.361901  1
  Se  Se21  1  0.750000  0.247491  0.638099  1
  Se  Se22  1  0.750000  0.252509  0.138099  1
  Se  Se23  1  0.250000  0.747491  0.861901  1
