# generated using pymatgen
data_Na3AlS3
_symmetry_space_group_name_H-M   'P 1'
_cell_length_a   7.65787221
_cell_length_b   12.15587000
_cell_length_c   13.80173391
_cell_angle_alpha   90.00000000
_cell_angle_beta   98.82099487
_cell_angle_gamma   90.00000000
_symmetry_Int_Tables_number   1
_chemical_formula_structural   Na3AlS3
_chemical_formula_sum   'Na24 Al8 S24'
_cell_volume   1269.58115866
_cell_formula_units_Z   8
loop_
 _symmetry_equiv_pos_site_id
 _symmetry_equiv_pos_as_xyz
  1  'x, y, z'
loop_
 _atom_site_type_symbol
 _atom_site_label
 _atom_site_symmetry_multiplicity
 _atom_site_fract_x
 _atom_site_fract_y
 _atom_site_fract_z
 _atom_site_occupancy
  Na  Na0  1  0.082129  0.982116  0.193750  1
  Na  Na1  1  0.994946  0.754952  0.988440  1
  Na  Na2  1  0.529618  0.808050  0.241033  1
  Na  Na3  1  0.913034  0.741774  0.473177  1
  Na  Na4  1  0.110484  0.912832  0.635723  1
  Na  Na5  1  0.586966  0.241774  0.526823  1
  Na  Na6  1  0.504844  0.824826  0.758154  1
  Na  Na7  1  0.086966  0.258226  0.526823  1
  Na  Na8  1  0.494946  0.745048  0.988440  1
  Na  Na9  1  0.389516  0.412832  0.364277  1
  Na  Na10  1  0.505054  0.254952  0.011560  1
  Na  Na11  1  0.005054  0.245048  0.011560  1
  Na  Na12  1  0.413034  0.758226  0.473177  1
  Na  Na13  1  0.470382  0.191950  0.758967  1
  Na  Na14  1  0.917871  0.017884  0.806250  1
  Na  Na15  1  0.610484  0.587168  0.635723  1
  Na  Na16  1  0.995156  0.324826  0.241846  1
  Na  Na17  1  0.889516  0.087168  0.364277  1
  Na  Na18  1  0.970382  0.308050  0.758967  1
  Na  Na19  1  0.495156  0.175174  0.241846  1
  Na  Na20  1  0.417871  0.482116  0.806250  1
  Na  Na21  1  0.029618  0.691950  0.241033  1
  Na  Na22  1  0.582129  0.517884  0.193750  1
  Na  Na23  1  0.004844  0.675174  0.758154  1
  Al  Al24  1  0.327243  0.006960  0.926584  1
  Al  Al25  1  0.322018  0.020960  0.433792  1
  Al  Al26  1  0.177982  0.520960  0.566208  1
  Al  Al27  1  0.822018  0.479040  0.433792  1
  Al  Al28  1  0.172757  0.506960  0.073416  1
  Al  Al29  1  0.827243  0.493040  0.926584  1
  Al  Al30  1  0.677982  0.979040  0.566208  1
  Al  Al31  1  0.672757  0.993040  0.073416  1
  S  S32  1  0.309329  0.359635  0.145393  1
  S  S33  1  0.205380  0.166985  0.875374  1
  S  S34  1  0.376638  0.389611  0.613963  1
  S  S35  1  0.809329  0.140365  0.145393  1
  S  S36  1  0.620652  0.001441  0.904024  1
  S  S37  1  0.690671  0.640365  0.854607  1
  S  S38  1  0.761656  0.816826  0.630917  1
  S  S39  1  0.876638  0.110389  0.613963  1
  S  S40  1  0.738344  0.316826  0.369083  1
  S  S41  1  0.879348  0.501441  0.095976  1
  S  S42  1  0.294620  0.666985  0.124626  1
  S  S43  1  0.190671  0.859635  0.854607  1
  S  S44  1  0.238344  0.183174  0.369083  1
  S  S45  1  0.406919  0.033800  0.602307  1
  S  S46  1  0.623362  0.610389  0.386037  1
  S  S47  1  0.120652  0.498559  0.904024  1
  S  S48  1  0.261656  0.683174  0.630917  1
  S  S49  1  0.123362  0.889611  0.386037  1
  S  S50  1  0.593081  0.966200  0.397693  1
  S  S51  1  0.379348  0.998559  0.095976  1
  S  S52  1  0.794620  0.833015  0.124626  1
  S  S53  1  0.093081  0.533800  0.397693  1
  S  S54  1  0.705380  0.333015  0.875374  1
  S  S55  1  0.906919  0.466200  0.602307  1
