# generated using pymatgen
data_BaF2
_symmetry_space_group_name_H-M   'P 1'
_cell_length_a   4.11046093
_cell_length_b   6.79956322
_cell_length_c   8.04557665
_cell_angle_alpha   90.00000000
_cell_angle_beta   90.00000000
_cell_angle_gamma   90.00000000
_symmetry_Int_Tables_number   1
_chemical_formula_structural   BaF2
_chemical_formula_sum   'Ba4 F8'
_cell_volume   224.86854889
_cell_formula_units_Z   4
loop_
 _symmetry_equiv_pos_site_id
 _symmetry_equiv_pos_as_xyz
  1  'x, y, z'
loop_
 _atom_site_type_symbol
 _atom_site_label
 _atom_site_symmetry_multiplicity
 _atom_site_fract_x
 _atom_site_fract_y
 _atom_site_fract_z
 _atom_site_occupancy
  Ba  Ba0  1  0.750000  0.249498  0.386157  1
  Ba  Ba1  1  0.250000  0.250502  0.886157  1
  Ba  Ba2  1  0.250000  0.750502  0.613843  1
  Ba  Ba3  1  0.750000  0.749498  0.113843  1
  F  F4  1  0.250000  0.027557  0.167329  1
  F  F5  1  0.250000  0.642728  0.929389  1
  F  F6  1  0.750000  0.972443  0.832671  1
  F  F7  1  0.750000  0.357272  0.070611  1
  F  F8  1  0.750000  0.472443  0.667329  1
  F  F9  1  0.750000  0.857272  0.429389  1
  F  F10  1  0.250000  0.142728  0.570611  1
  F  F11  1  0.250000  0.527557  0.332671  1
