# generated using pymatgen
data_CaMg2(SO4)3
_symmetry_space_group_name_H-M   'P 1'
_cell_length_a   8.46958473
_cell_length_b   8.46958473
_cell_length_c   7.44717587
_cell_angle_alpha   90.00000000
_cell_angle_beta   90.00000000
_cell_angle_gamma   120.00000000
_symmetry_Int_Tables_number   1
_chemical_formula_structural   CaMg2(SO4)3
_chemical_formula_sum   'Ca2 Mg4 S6 O24'
_cell_volume   462.64351214
_cell_formula_units_Z   2
loop_
 _symmetry_equiv_pos_site_id
 _symmetry_equiv_pos_as_xyz
  1  'x, y, z'
loop_
 _atom_site_type_symbol
 _atom_site_label
 _atom_site_symmetry_multiplicity
 _atom_site_fract_x
 _atom_site_fract_y
 _atom_site_fract_z
 _atom_site_occupancy
  Ca  Ca0  1  0.000000  0.000000  0.000000  1
  Ca  Ca1  1  0.000000  0.000000  0.500000  1
  Mg  Mg2  1  0.666667  0.333333  0.952839  1
  Mg  Mg3  1  0.333333  0.666667  0.047161  1
  Mg  Mg4  1  0.333333  0.666667  0.452839  1
  Mg  Mg5  1  0.666667  0.333333  0.547161  1
  S  S6  1  0.033499  0.670064  0.750000  1
  S  S7  1  0.670064  0.636565  0.250000  1
  S  S8  1  0.636565  0.966501  0.750000  1
  S  S9  1  0.363435  0.033499  0.250000  1
  S  S10  1  0.966501  0.329936  0.250000  1
  S  S11  1  0.329936  0.363435  0.750000  1
  O  O12  1  0.872392  0.480223  0.750000  1
  O  O13  1  0.162777  0.963337  0.250000  1
  O  O14  1  0.441527  0.142345  0.085802  1
  O  O15  1  0.199439  0.162777  0.750000  1
  O  O16  1  0.607830  0.127608  0.750000  1
  O  O17  1  0.519777  0.392170  0.750000  1
  O  O18  1  0.857655  0.299182  0.085802  1
  O  O19  1  0.142345  0.700818  0.585802  1
  O  O20  1  0.299182  0.441527  0.585802  1
  O  O21  1  0.127608  0.519777  0.250000  1
  O  O22  1  0.036663  0.199439  0.250000  1
  O  O23  1  0.963337  0.800561  0.750000  1
  O  O24  1  0.800561  0.837223  0.250000  1
  O  O25  1  0.299182  0.441527  0.914198  1
  O  O26  1  0.142345  0.700818  0.914198  1
  O  O27  1  0.480223  0.607830  0.250000  1
  O  O28  1  0.700818  0.558473  0.085802  1
  O  O29  1  0.441527  0.142345  0.414198  1
  O  O30  1  0.392170  0.872392  0.250000  1
  O  O31  1  0.857655  0.299182  0.414198  1
  O  O32  1  0.700818  0.558473  0.414198  1
  O  O33  1  0.837223  0.036663  0.750000  1
  O  O34  1  0.558473  0.857655  0.585802  1
  O  O35  1  0.558473  0.857655  0.914198  1
