# generated using pymatgen
data_AlMoP2O9
_symmetry_space_group_name_H-M   'P 1'
_cell_length_a   8.98554102
_cell_length_b   8.98554102
_cell_length_c   8.87723993
_cell_angle_alpha   90.00000000
_cell_angle_beta   90.00000000
_cell_angle_gamma   90.00000000
_symmetry_Int_Tables_number   1
_chemical_formula_structural   AlMoP2O9
_chemical_formula_sum   'Al4 Mo4 P8 O36'
_cell_volume   716.74788520
_cell_formula_units_Z   4
loop_
 _symmetry_equiv_pos_site_id
 _symmetry_equiv_pos_as_xyz
  1  'x, y, z'
loop_
 _atom_site_type_symbol
 _atom_site_label
 _atom_site_symmetry_multiplicity
 _atom_site_fract_x
 _atom_site_fract_y
 _atom_site_fract_z
 _atom_site_occupancy
  Al  Al0  1  0.000000  0.000000  0.000000  1
  Al  Al1  1  0.500000  0.500000  0.000000  1
  Al  Al2  1  0.500000  0.500000  0.500000  1
  Al  Al3  1  0.000000  0.000000  0.500000  1
  Mo  Mo4  1  0.500000  0.000000  0.818372  1
  Mo  Mo5  1  0.500000  0.000000  0.318372  1
  Mo  Mo6  1  0.000000  0.500000  0.681628  1
  Mo  Mo7  1  0.000000  0.500000  0.181628  1
  P  P8  1  0.681991  0.318009  0.750000  1
  P  P9  1  0.681991  0.681991  0.250000  1
  P  P10  1  0.818009  0.818009  0.750000  1
  P  P11  1  0.818009  0.181991  0.250000  1
  P  P12  1  0.181991  0.181991  0.750000  1
  P  P13  1  0.181991  0.818009  0.250000  1
  P  P14  1  0.318009  0.681991  0.750000  1
  P  P15  1  0.318009  0.318009  0.250000  1
  O  O16  1  0.601522  0.373911  0.608777  1
  O  O17  1  0.500000  0.000000  0.010856  1
  O  O18  1  0.873911  0.101522  0.108777  1
  O  O19  1  0.373911  0.398478  0.391223  1
  O  O20  1  0.838542  0.647533  0.733158  1
  O  O21  1  0.661458  0.852467  0.266842  1
  O  O22  1  0.161458  0.647533  0.233158  1
  O  O23  1  0.000000  0.500000  0.989144  1
  O  O24  1  0.898478  0.873911  0.891223  1
  O  O25  1  0.161458  0.352467  0.733158  1
  O  O26  1  0.626089  0.398478  0.891223  1
  O  O27  1  0.898478  0.126089  0.391223  1
  O  O28  1  0.500000  0.000000  0.510856  1
  O  O29  1  0.373911  0.601522  0.891223  1
  O  O30  1  0.661458  0.147533  0.766842  1
  O  O31  1  0.338542  0.852467  0.766842  1
  O  O32  1  0.873911  0.898478  0.608777  1
  O  O33  1  0.626089  0.601522  0.391223  1
  O  O34  1  0.101522  0.126089  0.891223  1
  O  O35  1  0.647533  0.838542  0.766842  1
  O  O36  1  0.000000  0.500000  0.489144  1
  O  O37  1  0.147533  0.661458  0.733158  1
  O  O38  1  0.338542  0.147533  0.266842  1
  O  O39  1  0.852467  0.338542  0.733158  1
  O  O40  1  0.352467  0.838542  0.266842  1
  O  O41  1  0.101522  0.873911  0.391223  1
  O  O42  1  0.126089  0.101522  0.608777  1
  O  O43  1  0.398478  0.373911  0.108777  1
  O  O44  1  0.647533  0.161458  0.266842  1
  O  O45  1  0.126089  0.898478  0.108777  1
  O  O46  1  0.852467  0.661458  0.233158  1
  O  O47  1  0.601522  0.626089  0.108777  1
  O  O48  1  0.147533  0.338542  0.233158  1
  O  O49  1  0.838542  0.352467  0.233158  1
  O  O50  1  0.398478  0.626089  0.608777  1
  O  O51  1  0.352467  0.161458  0.766842  1
