# generated using pymatgen
data_RbNa3SnO4
_symmetry_space_group_name_H-M   'P 1'
_cell_length_a   11.92880516
_cell_length_b   11.92880516
_cell_length_c   11.92880516
_cell_angle_alpha   114.15612678
_cell_angle_beta   114.15612678
_cell_angle_gamma   100.46011724
_symmetry_Int_Tables_number   1
_chemical_formula_structural   RbNa3SnO4
_chemical_formula_sum   'Rb8 Na24 Sn8 O32'
_cell_volume   1282.99252508
_cell_formula_units_Z   8
loop_
 _symmetry_equiv_pos_site_id
 _symmetry_equiv_pos_as_xyz
  1  'x, y, z'
loop_
 _atom_site_type_symbol
 _atom_site_label
 _atom_site_symmetry_multiplicity
 _atom_site_fract_x
 _atom_site_fract_y
 _atom_site_fract_z
 _atom_site_occupancy
  Rb  Rb0  1  0.689329  0.722258  0.494355  1
  Rb  Rb1  1  0.944974  0.939329  0.467071  1
  Rb  Rb2  1  0.227903  0.194974  0.505645  1
  Rb  Rb3  1  0.277742  0.772097  0.967071  1
  Rb  Rb4  1  0.060671  0.527742  0.005645  1
  Rb  Rb5  1  0.805026  0.310671  0.032929  1
  Rb  Rb6  1  0.522096  0.055026  0.994355  1
  Rb  Rb7  1  0.472258  0.477903  0.532929  1
  Na  Na8  1  0.408843  0.598446  0.129059  1
  Na  Na9  1  0.550594  0.190553  0.633284  1
  Na  Na10  1  0.667310  0.800594  0.860041  1
  Na  Na11  1  0.348446  0.719386  0.689602  1
  Na  Na12  1  0.192731  0.332690  0.133284  1
  Na  Na13  1  0.909992  0.046106  0.819818  1
  Na  Na14  1  0.280614  0.970216  0.629059  1
  Na  Na15  1  0.840008  0.203894  0.680182  1
  Na  Na16  1  0.720216  0.591157  0.189602  1
  Na  Na17  1  0.082690  0.449406  0.639959  1
  Na  Na18  1  0.199406  0.059447  0.866716  1
  Na  Na19  1  0.953894  0.773712  0.863886  1
  Na  Na20  1  0.796106  0.476288  0.636114  1
  Na  Na21  1  0.226288  0.090174  0.180182  1
  Na  Na22  1  0.557269  0.917310  0.366716  1
  Na  Na23  1  0.523712  0.159826  0.319818  1
  Na  Na24  1  0.029784  0.658843  0.310398  1
  Na  Na25  1  0.809447  0.442731  0.360041  1
  Na  Na26  1  0.940553  0.807269  0.139959  1
  Na  Na27  1  0.341157  0.651554  0.370941  1
  Na  Na28  1  0.401554  0.530614  0.810398  1
  Na  Na29  1  0.469386  0.279784  0.870941  1
  Na  Na30  1  0.909826  0.090008  0.136114  1
  Na  Na31  1  0.840174  0.159992  0.363886  1
  Sn  Sn32  1  0.606214  0.966725  0.713597  1
  Sn  Sn33  1  0.642616  0.856214  0.139489  1
  Sn  Sn34  1  0.253127  0.892616  0.286403  1
  Sn  Sn35  1  0.033275  0.746873  0.639489  1
  Sn  Sn36  1  0.143786  0.283275  0.786403  1
  Sn  Sn37  1  0.716725  0.503127  0.860511  1
  Sn  Sn38  1  0.496873  0.357384  0.213597  1
  Sn  Sn39  1  0.107384  0.393786  0.360511  1
  O  O40  1  0.691177  0.000904  0.610739  1
  O  O41  1  0.122019  0.501409  0.271930  1
  O  O42  1  0.912392  0.667269  0.426436  1
  O  O43  1  0.509167  0.764044  0.926436  1
  O  O44  1  0.919561  0.308823  0.309726  1
  O  O45  1  0.999096  0.609835  0.690274  1
  O  O46  1  0.332731  0.759167  0.245123  1
  O  O47  1  0.149910  0.877981  0.379390  1
  O  O48  1  0.750904  0.640165  0.809726  1
  O  O49  1  0.627981  0.748591  0.228070  1
  O  O50  1  0.769365  0.365565  0.754890  1
  O  O51  1  0.520521  0.399910  0.771930  1
  O  O52  1  0.229479  0.850090  0.728070  1
  O  O53  1  0.359835  0.169561  0.110739  1
  O  O54  1  0.235956  0.162392  0.745123  1
  O  O55  1  0.115565  0.860675  0.096200  1
  O  O56  1  0.390165  0.080439  0.389261  1
  O  O57  1  0.634435  0.389325  0.403800  1
  O  O58  1  0.610675  0.014475  0.245110  1
  O  O59  1  0.058823  0.249096  0.889261  1
  O  O60  1  0.417269  0.490833  0.254877  1
  O  O61  1  0.139325  0.235525  0.254890  1
  O  O62  1  0.764475  0.019365  0.903800  1
  O  O63  1  0.985525  0.230635  0.596200  1
  O  O64  1  0.600090  0.372019  0.120610  1
  O  O65  1  0.498591  0.770521  0.620610  1
  O  O66  1  0.514044  0.087608  0.754877  1
  O  O67  1  0.980635  0.884435  0.745110  1
  O  O68  1  0.240833  0.485956  0.573564  1
  O  O69  1  0.251409  0.479479  0.879390  1
  O  O70  1  0.830439  0.941177  0.190274  1
  O  O71  1  0.837608  0.582731  0.073564  1
