# generated using pymatgen
data_NaPH4O5
_symmetry_space_group_name_H-M   'P 1'
_cell_length_a   7.55652842
_cell_length_b   7.64628785
_cell_length_c   7.87713712
_cell_angle_alpha   90.00000000
_cell_angle_beta   90.00000000
_cell_angle_gamma   90.00000000
_symmetry_Int_Tables_number   1
_chemical_formula_structural   NaPH4O5
_chemical_formula_sum   'Na4 P4 H16 O20'
_cell_volume   455.13618913
_cell_formula_units_Z   4
loop_
 _symmetry_equiv_pos_site_id
 _symmetry_equiv_pos_as_xyz
  1  'x, y, z'
loop_
 _atom_site_type_symbol
 _atom_site_label
 _atom_site_symmetry_multiplicity
 _atom_site_fract_x
 _atom_site_fract_y
 _atom_site_fract_z
 _atom_site_occupancy
  Na  Na0  1  0.983480  0.504075  0.985511  1
  Na  Na1  1  0.483480  0.995925  0.485511  1
  Na  Na2  1  0.983480  0.004075  0.514489  1
  Na  Na3  1  0.483480  0.495925  0.014489  1
  P  P4  1  0.745469  0.380010  0.378671  1
  P  P5  1  0.245469  0.119990  0.878671  1
  P  P6  1  0.745469  0.880010  0.121329  1
  P  P7  1  0.245469  0.619990  0.621329  1
  H  H8  1  0.211516  0.189771  0.228342  1
  H  H9  1  0.711516  0.810229  0.771658  1
  H  H10  1  0.341243  0.784374  0.839173  1
  H  H11  1  0.341243  0.284374  0.660827  1
  H  H12  1  0.227983  0.276617  0.405053  1
  H  H13  1  0.711516  0.310229  0.728342  1
  H  H14  1  0.727983  0.223383  0.905053  1
  H  H15  1  0.463813  0.948218  0.103391  1
  H  H16  1  0.727983  0.723383  0.594947  1
  H  H17  1  0.963813  0.551782  0.603391  1
  H  H18  1  0.211516  0.689771  0.271658  1
  H  H19  1  0.963813  0.051782  0.896609  1
  H  H20  1  0.841243  0.715626  0.339173  1
  H  H21  1  0.227983  0.776617  0.094947  1
  H  H22  1  0.841243  0.215626  0.160827  1
  H  H23  1  0.463813  0.448218  0.396609  1
  O  O24  1  0.235423  0.772961  0.500403  1
  O  O25  1  0.055546  0.570697  0.697086  1
  O  O26  1  0.212388  0.161771  0.350942  1
  O  O27  1  0.856423  0.837707  0.287288  1
  O  O28  1  0.735423  0.227039  0.499597  1
  O  O29  1  0.827016  0.048027  0.046494  1
  O  O30  1  0.712388  0.338229  0.850942  1
  O  O31  1  0.055546  0.070697  0.802914  1
  O  O32  1  0.712388  0.838229  0.649058  1
  O  O33  1  0.235423  0.272961  0.999597  1
  O  O34  1  0.327016  0.951973  0.953506  1
  O  O35  1  0.735423  0.727039  0.000403  1
  O  O36  1  0.827016  0.548027  0.453506  1
  O  O37  1  0.856423  0.337707  0.212712  1
  O  O38  1  0.555546  0.929303  0.197086  1
  O  O39  1  0.356423  0.162293  0.712712  1
  O  O40  1  0.555546  0.429303  0.302914  1
  O  O41  1  0.212388  0.661771  0.149058  1
  O  O42  1  0.356423  0.662293  0.787288  1
  O  O43  1  0.327016  0.451973  0.546494  1
