# generated using pymatgen
data_K4Mn(MoO4)3
_symmetry_space_group_name_H-M   'P 1'
_cell_length_a   7.97391582
_cell_length_b   10.12784047
_cell_length_c   10.32354566
_cell_angle_alpha   92.82842594
_cell_angle_beta   106.86753088
_cell_angle_gamma   106.31581992
_symmetry_Int_Tables_number   1
_chemical_formula_structural   K4Mn(MoO4)3
_chemical_formula_sum   'K8 Mn2 Mo6 O24'
_cell_volume   757.90332375
_cell_formula_units_Z   2
loop_
 _symmetry_equiv_pos_site_id
 _symmetry_equiv_pos_as_xyz
  1  'x, y, z'
loop_
 _atom_site_type_symbol
 _atom_site_label
 _atom_site_symmetry_multiplicity
 _atom_site_fract_x
 _atom_site_fract_y
 _atom_site_fract_z
 _atom_site_occupancy
  K  K0  1  0.773322  0.236324  0.273568  1
  K  K1  1  0.251493  0.475671  0.021765  1
  K  K2  1  0.650345  0.568798  0.386666  1
  K  K3  1  0.748507  0.524329  0.978235  1
  K  K4  1  0.500000  0.000000  0.500000  1
  K  K5  1  0.226678  0.763676  0.726432  1
  K  K6  1  0.000000  0.000000  0.500000  1
  K  K7  1  0.349655  0.431202  0.613334  1
  Mn  Mn8  1  0.163104  0.879027  0.053237  1
  Mn  Mn9  1  0.836896  0.120973  0.946763  1
  Mo  Mo10  1  0.619148  0.846308  0.115346  1
  Mo  Mo11  1  0.123851  0.644189  0.317874  1
  Mo  Mo12  1  0.761554  0.806846  0.751754  1
  Mo  Mo13  1  0.380852  0.153692  0.884654  1
  Mo  Mo14  1  0.238446  0.193154  0.248246  1
  Mo  Mo15  1  0.876149  0.355811  0.682126  1
  O  O16  1  0.608062  0.156408  0.991689  1
  O  O17  1  0.555281  0.686363  0.761550  1
  O  O18  1  0.309536  0.573950  0.374922  1
  O  O19  1  0.886372  0.304741  0.851533  1
  O  O20  1  0.444719  0.313637  0.238450  1
  O  O21  1  0.391938  0.843592  0.008311  1
  O  O22  1  0.961038  0.774760  0.870077  1
  O  O23  1  0.155906  0.786974  0.443124  1
  O  O24  1  0.690464  0.426050  0.625078  1
  O  O25  1  0.911959  0.510818  0.296843  1
  O  O26  1  0.794467  0.923725  0.038560  1
  O  O27  1  0.113628  0.695259  0.148467  1
  O  O28  1  0.844094  0.213026  0.556876  1
  O  O29  1  0.610816  0.669828  0.132860  1
  O  O30  1  0.038962  0.225240  0.129923  1
  O  O31  1  0.747122  0.982788  0.766421  1
  O  O32  1  0.205533  0.076275  0.961440  1
  O  O33  1  0.252878  0.017212  0.233579  1
  O  O34  1  0.088041  0.489182  0.703157  1
  O  O35  1  0.323785  0.056831  0.719719  1
  O  O36  1  0.219421  0.218865  0.414394  1
  O  O37  1  0.389184  0.330172  0.867140  1
  O  O38  1  0.780579  0.781135  0.585606  1
  O  O39  1  0.676215  0.943169  0.280281  1
