# generated using pymatgen
data_CsLi2Cl3
_symmetry_space_group_name_H-M   'P 1'
_cell_length_a   7.19337519
_cell_length_b   7.19337519
_cell_length_c   7.19337519
_cell_angle_alpha   143.05711469
_cell_angle_beta   136.71946562
_cell_angle_gamma   58.18078831
_symmetry_Int_Tables_number   1
_chemical_formula_structural   CsLi2Cl3
_chemical_formula_sum   'Cs1 Li2 Cl3'
_cell_volume   152.01650724
_cell_formula_units_Z   1
loop_
 _symmetry_equiv_pos_site_id
 _symmetry_equiv_pos_as_xyz
  1  'x, y, z'
loop_
 _atom_site_type_symbol
 _atom_site_label
 _atom_site_symmetry_multiplicity
 _atom_site_fract_x
 _atom_site_fract_y
 _atom_site_fract_z
 _atom_site_occupancy
  Cs  Cs0  1  0.500000  0.500000  0.000000  1
  Li  Li1  1  0.808962  0.808962  0.000000  1
  Li  Li2  1  0.191038  0.191038  0.000000  1
  Cl  Cl3  1  0.268451  0.768451  0.500000  1
  Cl  Cl4  1  0.731549  0.231549  0.500000  1
  Cl  Cl5  1  1.000000  0.000000  0.000000  1
