# generated using pymatgen
data_Ca4P2O
_symmetry_space_group_name_H-M   'P 1'
_cell_length_a   8.19542474
_cell_length_b   8.19542474
_cell_length_c   8.19542474
_cell_angle_alpha   148.04153347
_cell_angle_beta   148.04153347
_cell_angle_gamma   45.82405782
_symmetry_Int_Tables_number   1
_chemical_formula_structural   Ca4P2O
_chemical_formula_sum   'Ca4 P2 O1'
_cell_volume   153.69523738
_cell_formula_units_Z   1
loop_
 _symmetry_equiv_pos_site_id
 _symmetry_equiv_pos_as_xyz
  1  'x, y, z'
loop_
 _atom_site_type_symbol
 _atom_site_label
 _atom_site_symmetry_multiplicity
 _atom_site_fract_x
 _atom_site_fract_y
 _atom_site_fract_z
 _atom_site_occupancy
  Ca  Ca0  1  0.826018  0.826018  0.000000  1
  Ca  Ca1  1  0.173982  0.173982  0.000000  1
  Ca  Ca2  1  0.500000  0.000000  0.500000  1
  Ca  Ca3  1  0.000000  0.500000  0.500000  1
  P  P4  1  0.636177  0.636177  0.000000  1
  P  P5  1  0.363823  0.363823  0.000000  1
  O  O6  1  0.000000  0.000000  0.000000  1
