# generated using pymatgen
data_NaInAs2O7
_symmetry_space_group_name_H-M   'P 1'
_cell_length_a   6.86194808
_cell_length_b   6.86194808
_cell_length_c   14.20611228
_cell_angle_alpha   75.00440533
_cell_angle_beta   104.99559467
_cell_angle_gamma   99.19199233
_symmetry_Int_Tables_number   1
_chemical_formula_structural   NaInAs2O7
_chemical_formula_sum   'Na4 In4 As8 O28'
_cell_volume   621.03644891
_cell_formula_units_Z   4
loop_
 _symmetry_equiv_pos_site_id
 _symmetry_equiv_pos_as_xyz
  1  'x, y, z'
loop_
 _atom_site_type_symbol
 _atom_site_label
 _atom_site_symmetry_multiplicity
 _atom_site_fract_x
 _atom_site_fract_y
 _atom_site_fract_z
 _atom_site_occupancy
  Na  Na0  1  0.957995  0.764722  0.619251  1
  Na  Na1  1  0.042005  0.235278  0.380749  1
  Na  Na2  1  0.764722  0.957995  0.880749  1
  Na  Na3  1  0.235278  0.042005  0.119251  1
  In  In4  1  0.593821  0.871456  0.359557  1
  In  In5  1  0.128544  0.406179  0.859557  1
  In  In6  1  0.871456  0.593821  0.140443  1
  In  In7  1  0.406179  0.128544  0.640443  1
  As  As8  1  0.333382  0.581167  0.075653  1
  As  As9  1  0.418833  0.666618  0.575653  1
  As  As10  1  0.581167  0.333382  0.424347  1
  As  As11  1  0.247250  0.910005  0.865492  1
  As  As12  1  0.752750  0.089995  0.134508  1
  As  As13  1  0.089995  0.752750  0.365492  1
  As  As14  1  0.910005  0.247250  0.634508  1
  As  As15  1  0.666618  0.418833  0.924347  1
  O  O16  1  0.115677  0.072119  0.892965  1
  O  O17  1  0.426515  0.030538  0.801345  1
  O  O18  1  0.884323  0.927881  0.107035  1
  O  O19  1  0.611919  0.794558  0.520869  1
  O  O20  1  0.573485  0.969462  0.198655  1
  O  O21  1  0.729696  0.079733  0.683433  1
  O  O22  1  0.811661  0.324640  0.869344  1
  O  O23  1  0.969462  0.573485  0.301345  1
  O  O24  1  0.206384  0.594433  0.481340  1
  O  O25  1  0.388081  0.205442  0.479131  1
  O  O26  1  0.270304  0.920267  0.316567  1
  O  O27  1  0.594433  0.206384  0.018660  1
  O  O28  1  0.793616  0.405567  0.518660  1
  O  O29  1  0.927881  0.884323  0.392965  1
  O  O30  1  0.794558  0.611919  0.979131  1
  O  O31  1  0.324640  0.811661  0.630656  1
  O  O32  1  0.188339  0.675360  0.130656  1
  O  O33  1  0.558983  0.513765  0.150033  1
  O  O34  1  0.486235  0.441017  0.650033  1
  O  O35  1  0.030538  0.426515  0.698655  1
  O  O36  1  0.079733  0.729696  0.816567  1
  O  O37  1  0.920267  0.270304  0.183433  1
  O  O38  1  0.405567  0.793616  0.981340  1
  O  O39  1  0.675360  0.188339  0.369344  1
  O  O40  1  0.513765  0.558983  0.349967  1
  O  O41  1  0.205442  0.388081  0.020869  1
  O  O42  1  0.441017  0.486235  0.849967  1
  O  O43  1  0.072119  0.115677  0.607035  1
