# generated using pymatgen
data_Ba3Bi2(PO4)4
_symmetry_space_group_name_H-M   'P 1'
_cell_length_a   11.31972415
_cell_length_b   11.31972415
_cell_length_c   8.85910981
_cell_angle_alpha   71.80341506
_cell_angle_beta   108.19658494
_cell_angle_gamma   133.84261851
_symmetry_Int_Tables_number   1
_chemical_formula_structural   Ba3Bi2(PO4)4
_chemical_formula_sum   'Ba6 Bi4 P8 O32'
_cell_volume   770.12574283
_cell_formula_units_Z   2
loop_
 _symmetry_equiv_pos_site_id
 _symmetry_equiv_pos_as_xyz
  1  'x, y, z'
loop_
 _atom_site_type_symbol
 _atom_site_label
 _atom_site_symmetry_multiplicity
 _atom_site_fract_x
 _atom_site_fract_y
 _atom_site_fract_z
 _atom_site_occupancy
  Ba  Ba0  1  0.277574  0.845014  0.773255  1
  Ba  Ba1  1  0.054939  0.054939  0.250000  1
  Ba  Ba2  1  0.945061  0.945061  0.750000  1
  Ba  Ba3  1  0.845014  0.277574  0.726745  1
  Ba  Ba4  1  0.722426  0.154986  0.226745  1
  Ba  Ba5  1  0.154986  0.722426  0.273255  1
  Bi  Bi6  1  0.525091  0.360713  0.687387  1
  Bi  Bi7  1  0.474909  0.639287  0.312613  1
  Bi  Bi8  1  0.360713  0.525091  0.812613  1
  Bi  Bi9  1  0.639287  0.474909  0.187387  1
  P  P10  1  0.452018  0.161868  0.450807  1
  P  P11  1  0.323461  0.102063  0.989001  1
  P  P12  1  0.897937  0.676539  0.489001  1
  P  P13  1  0.161868  0.452018  0.049193  1
  P  P14  1  0.547982  0.838132  0.549193  1
  P  P15  1  0.102063  0.323461  0.510999  1
  P  P16  1  0.838132  0.547982  0.950807  1
  P  P17  1  0.676539  0.897937  0.010999  1
  O  O18  1  0.549965  0.705133  0.002546  1
  O  O19  1  0.710400  0.900966  0.198740  1
  O  O20  1  0.598979  0.257419  0.354403  1
  O  O21  1  0.705133  0.549965  0.497454  1
  O  O22  1  0.815456  0.469165  0.134157  1
  O  O23  1  0.099034  0.289600  0.698740  1
  O  O24  1  0.386382  0.254144  0.399649  1
  O  O25  1  0.021727  0.678811  0.939109  1
  O  O26  1  0.398492  0.021835  0.075218  1
  O  O27  1  0.289600  0.099034  0.801260  1
  O  O28  1  0.678811  0.021727  0.560891  1
  O  O29  1  0.184544  0.530835  0.865843  1
  O  O30  1  0.745856  0.613618  0.899649  1
  O  O31  1  0.012893  0.160600  0.453677  1
  O  O32  1  0.601508  0.978165  0.924782  1
  O  O33  1  0.450035  0.294867  0.997454  1
  O  O34  1  0.613618  0.745856  0.600351  1
  O  O35  1  0.469165  0.815456  0.365843  1
  O  O36  1  0.321189  0.978273  0.439109  1
  O  O37  1  0.401021  0.742581  0.645597  1
  O  O38  1  0.900966  0.710400  0.301260  1
  O  O39  1  0.978165  0.601508  0.575218  1
  O  O40  1  0.160600  0.012893  0.046323  1
  O  O41  1  0.021835  0.398492  0.424782  1
  O  O42  1  0.742581  0.401021  0.854403  1
  O  O43  1  0.254144  0.386382  0.100351  1
  O  O44  1  0.294867  0.450035  0.502546  1
  O  O45  1  0.987107  0.839400  0.546323  1
  O  O46  1  0.257419  0.598979  0.145597  1
  O  O47  1  0.978273  0.321189  0.060891  1
  O  O48  1  0.839400  0.987107  0.953677  1
  O  O49  1  0.530835  0.184544  0.634157  1
