# generated using pymatgen
data_Nd2Te2W2O13
_symmetry_space_group_name_H-M   'P 1'
_cell_length_a   6.73116628
_cell_length_b   6.99305262
_cell_length_c   11.77325269
_cell_angle_alpha   90.58221907
_cell_angle_beta   98.38253118
_cell_angle_gamma   93.55247256
_symmetry_Int_Tables_number   1
_chemical_formula_structural   Nd2Te2W2O13
_chemical_formula_sum   'Nd4 Te4 W4 O26'
_cell_volume   547.10614481
_cell_formula_units_Z   2
loop_
 _symmetry_equiv_pos_site_id
 _symmetry_equiv_pos_as_xyz
  1  'x, y, z'
loop_
 _atom_site_type_symbol
 _atom_site_label
 _atom_site_symmetry_multiplicity
 _atom_site_fract_x
 _atom_site_fract_y
 _atom_site_fract_z
 _atom_site_occupancy
  Nd  Nd0  1  0.769304  0.870745  0.881713  1
  Nd  Nd1  1  0.632298  0.371790  0.367569  1
  Nd  Nd2  1  0.367702  0.628210  0.632431  1
  Nd  Nd3  1  0.230696  0.129255  0.118287  1
  Te  Te4  1  0.248561  0.612810  0.949190  1
  Te  Te5  1  0.751439  0.387190  0.050810  1
  Te  Te6  1  0.170266  0.179037  0.441316  1
  Te  Te7  1  0.829734  0.820963  0.558684  1
  W  W8  1  0.110320  0.623128  0.297532  1
  W  W9  1  0.246543  0.118827  0.813329  1
  W  W10  1  0.889680  0.376872  0.702468  1
  W  W11  1  0.753457  0.881173  0.186671  1
  O  O12  1  0.423185  0.679639  0.842417  1
  O  O13  1  0.179073  0.750524  0.435092  1
  O  O14  1  0.923884  0.167935  0.803759  1
  O  O15  1  0.797146  0.046712  0.310283  1
  O  O16  1  0.156263  0.952418  0.930345  1
  O  O17  1  0.011488  0.414008  0.145901  1
  O  O18  1  0.009344  0.387442  0.377431  1
  O  O19  1  0.576815  0.320361  0.157583  1
  O  O20  1  0.076116  0.832065  0.196241  1
  O  O21  1  0.843737  0.047582  0.069655  1
  O  O22  1  0.271803  0.331496  0.951718  1
  O  O23  1  0.202217  0.347996  0.719379  1
  O  O24  1  0.728197  0.668504  0.048282  1
  O  O25  1  0.618522  0.653917  0.486800  1
  O  O26  1  0.485903  0.899462  0.145876  1
  O  O27  1  0.349703  0.541643  0.276836  1
  O  O28  1  0.677977  0.854367  0.679877  1
  O  O29  1  0.202854  0.953288  0.689717  1
  O  O30  1  0.797783  0.652004  0.280621  1
  O  O31  1  0.381478  0.346083  0.513200  1
  O  O32  1  0.322023  0.145633  0.320123  1
  O  O33  1  0.990656  0.612558  0.622569  1
  O  O34  1  0.650297  0.458357  0.723164  1
  O  O35  1  0.820927  0.249476  0.564908  1
  O  O36  1  0.514097  0.100538  0.854124  1
  O  O37  1  0.988512  0.585992  0.854099  1
