# generated using pymatgen
data_K2Ni(NO3)4
_symmetry_space_group_name_H-M   'P 1'
_cell_length_a   9.26549191
_cell_length_b   9.26549191
_cell_length_c   9.23762551
_cell_angle_alpha   82.58203529
_cell_angle_beta   97.41796471
_cell_angle_gamma   134.31542045
_symmetry_Int_Tables_number   1
_chemical_formula_structural   K2Ni(NO3)4
_chemical_formula_sum   'K4 Ni2 N8 O24'
_cell_volume   561.83101055
_cell_formula_units_Z   2
loop_
 _symmetry_equiv_pos_site_id
 _symmetry_equiv_pos_as_xyz
  1  'x, y, z'
loop_
 _atom_site_type_symbol
 _atom_site_label
 _atom_site_symmetry_multiplicity
 _atom_site_fract_x
 _atom_site_fract_y
 _atom_site_fract_z
 _atom_site_occupancy
  K  K0  1  0.894929  0.412080  0.717155  1
  K  K1  1  0.587920  0.105071  0.217155  1
  K  K2  1  0.570167  0.688609  0.649025  1
  K  K3  1  0.311391  0.429833  0.149025  1
  Ni  Ni4  1  0.966280  0.725528  0.324261  1
  Ni  Ni5  1  0.274472  0.033720  0.824261  1
  N  N6  1  0.998572  0.666627  0.024837  1
  N  N7  1  0.459868  0.869062  0.903622  1
  N  N8  1  0.013951  0.132798  0.787436  1
  N  N9  1  0.333373  0.001428  0.524837  1
  N  N10  1  0.617479  0.492586  0.415427  1
  N  N11  1  0.507414  0.382521  0.915427  1
  N  N12  1  0.130938  0.540132  0.403622  1
  N  N13  1  0.867202  0.986049  0.287436  1
  O  O14  1  0.377244  0.767286  0.792862  1
  O  O15  1  0.492353  0.030935  0.905005  1
  O  O16  1  0.969065  0.507647  0.405005  1
  O  O17  1  0.606370  0.555496  0.951222  1
  O  O18  1  0.202432  0.928630  0.616718  1
  O  O19  1  0.154873  0.299025  0.844131  1
  O  O20  1  0.034179  0.012347  0.767693  1
  O  O21  1  0.700975  0.845127  0.344131  1
  O  O22  1  0.058569  0.731045  0.893641  1
  O  O23  1  0.507588  0.347333  0.784694  1
  O  O24  1  0.175887  0.484957  0.516524  1
  O  O25  1  0.922865  0.153161  0.246473  1
  O  O26  1  0.071370  0.797568  0.116718  1
  O  O27  1  0.393128  0.225955  0.002839  1
  O  O28  1  0.517795  0.125430  0.555806  1
  O  O29  1  0.846839  0.077135  0.746473  1
  O  O30  1  0.515043  0.824113  0.016524  1
  O  O31  1  0.987653  0.965821  0.267693  1
  O  O32  1  0.774045  0.606872  0.502839  1
  O  O33  1  0.652667  0.492412  0.284694  1
  O  O34  1  0.874570  0.482205  0.055806  1
  O  O35  1  0.268955  0.941431  0.393641  1
  O  O36  1  0.232714  0.622756  0.292862  1
  O  O37  1  0.444504  0.393630  0.451222  1
