# generated using pymatgen
data_KSnSO4F
_symmetry_space_group_name_H-M   'P 1'
_cell_length_a   6.24680110
_cell_length_b   7.21004501
_cell_length_c   7.37187251
_cell_angle_alpha   106.92953454
_cell_angle_beta   102.57798116
_cell_angle_gamma   109.87224558
_symmetry_Int_Tables_number   1
_chemical_formula_structural   KSnSO4F
_chemical_formula_sum   'K2 Sn2 S2 O8 F2'
_cell_volume   279.59806023
_cell_formula_units_Z   2
loop_
 _symmetry_equiv_pos_site_id
 _symmetry_equiv_pos_as_xyz
  1  'x, y, z'
loop_
 _atom_site_type_symbol
 _atom_site_label
 _atom_site_symmetry_multiplicity
 _atom_site_fract_x
 _atom_site_fract_y
 _atom_site_fract_z
 _atom_site_occupancy
  K  K0  1  0.691148  0.338909  0.129976  1
  K  K1  1  0.308852  0.661091  0.870024  1
  Sn  Sn2  1  0.863392  0.942186  0.707874  1
  Sn  Sn3  1  0.136608  0.057814  0.292126  1
  S  S4  1  0.670076  0.361886  0.660070  1
  S  S5  1  0.329924  0.638114  0.339930  1
  O  O6  1  0.516584  0.640619  0.247094  1
  O  O7  1  0.483416  0.359381  0.752906  1
  O  O8  1  0.181120  0.419235  0.326387  1
  O  O9  1  0.158132  0.710684  0.238352  1
  O  O10  1  0.548348  0.211182  0.437257  1
  O  O11  1  0.451652  0.788818  0.562743  1
  O  O12  1  0.818880  0.580765  0.673613  1
  O  O13  1  0.841868  0.289316  0.761648  1
  F  F14  1  0.236172  0.024213  0.033216  1
  F  F15  1  0.763828  0.975787  0.966784  1
