# generated using pymatgen
data_Pr(IO3)3
_symmetry_space_group_name_H-M   'P 1'
_cell_length_a   8.97432635
_cell_length_b   6.05625443
_cell_length_c   17.07494738
_cell_angle_alpha   90.00000000
_cell_angle_beta   114.79304076
_cell_angle_gamma   90.00000000
_symmetry_Int_Tables_number   1
_chemical_formula_structural   Pr(IO3)3
_chemical_formula_sum   'Pr4 I12 O36'
_cell_volume   842.49846604
_cell_formula_units_Z   4
loop_
 _symmetry_equiv_pos_site_id
 _symmetry_equiv_pos_as_xyz
  1  'x, y, z'
loop_
 _atom_site_type_symbol
 _atom_site_label
 _atom_site_symmetry_multiplicity
 _atom_site_fract_x
 _atom_site_fract_y
 _atom_site_fract_z
 _atom_site_occupancy
  Pr  Pr0  1  0.139151  0.267976  0.599876  1
  Pr  Pr1  1  0.860849  0.767976  0.900124  1
  Pr  Pr2  1  0.139151  0.232024  0.099876  1
  Pr  Pr3  1  0.860849  0.732024  0.400124  1
  I  I4  1  0.640000  0.135575  0.977098  1
  I  I5  1  0.068965  0.313087  0.850772  1
  I  I6  1  0.416372  0.910301  0.302182  1
  I  I7  1  0.416372  0.589699  0.802182  1
  I  I8  1  0.360000  0.864425  0.022902  1
  I  I9  1  0.068965  0.186913  0.350772  1
  I  I10  1  0.583628  0.410301  0.197818  1
  I  I11  1  0.640000  0.364425  0.477098  1
  I  I12  1  0.360000  0.635575  0.522902  1
  I  I13  1  0.583628  0.089699  0.697818  1
  I  I14  1  0.931035  0.813087  0.649228  1
  I  I15  1  0.931035  0.686913  0.149228  1
  O  O16  1  0.668131  0.413119  0.116932  1
  O  O17  1  0.094997  0.606575  0.670727  1
  O  O18  1  0.090807  0.409459  0.957545  1
  O  O19  1  0.656582  0.682865  0.245183  1
  O  O20  1  0.343418  0.182865  0.254817  1
  O  O21  1  0.343418  0.317135  0.754817  1
  O  O22  1  0.641120  0.587068  0.553301  1
  O  O23  1  0.090807  0.090541  0.457545  1
  O  O24  1  0.909193  0.909459  0.542455  1
  O  O25  1  0.909193  0.590541  0.042455  1
  O  O26  1  0.094997  0.893425  0.170727  1
  O  O27  1  0.936716  0.951054  0.296104  1
  O  O28  1  0.936716  0.548946  0.796104  1
  O  O29  1  0.358880  0.412932  0.446699  1
  O  O30  1  0.596730  0.967056  0.880415  1
  O  O31  1  0.641120  0.912932  0.053301  1
  O  O32  1  0.905003  0.106575  0.829273  1
  O  O33  1  0.135425  0.901460  0.991261  1
  O  O34  1  0.063284  0.451054  0.203896  1
  O  O35  1  0.063284  0.048946  0.703896  1
  O  O36  1  0.905003  0.393425  0.329273  1
  O  O37  1  0.596730  0.532944  0.380415  1
  O  O38  1  0.864575  0.098540  0.008739  1
  O  O39  1  0.370285  0.501009  0.131304  1
  O  O40  1  0.403270  0.032944  0.119585  1
  O  O41  1  0.668131  0.086881  0.616932  1
  O  O42  1  0.358880  0.087068  0.946699  1
  O  O43  1  0.629715  0.001009  0.368696  1
  O  O44  1  0.403270  0.467056  0.619585  1
  O  O45  1  0.629715  0.498991  0.868696  1
  O  O46  1  0.864575  0.401460  0.508739  1
  O  O47  1  0.656582  0.817135  0.745183  1
  O  O48  1  0.331869  0.913119  0.383068  1
  O  O49  1  0.370285  0.998991  0.631304  1
  O  O50  1  0.135425  0.598540  0.491261  1
  O  O51  1  0.331869  0.586881  0.883068  1
