# generated using pymatgen
data_BaCSNCl
_symmetry_space_group_name_H-M   'P 1'
_cell_length_a   5.91308570
_cell_length_b   4.68979536
_cell_length_c   8.90497719
_cell_angle_alpha   90.00000000
_cell_angle_beta   98.71094826
_cell_angle_gamma   90.00000000
_symmetry_Int_Tables_number   1
_chemical_formula_structural   BaCSNCl
_chemical_formula_sum   'Ba2 C2 S2 N2 Cl2'
_cell_volume   244.09684049
_cell_formula_units_Z   2
loop_
 _symmetry_equiv_pos_site_id
 _symmetry_equiv_pos_as_xyz
  1  'x, y, z'
loop_
 _atom_site_type_symbol
 _atom_site_label
 _atom_site_symmetry_multiplicity
 _atom_site_fract_x
 _atom_site_fract_y
 _atom_site_fract_z
 _atom_site_occupancy
  Ba  Ba0  1  0.210103  0.250000  0.301411  1
  Ba  Ba1  1  0.789897  0.750000  0.698589  1
  C  C2  1  0.606063  0.750000  0.154384  1
  C  C3  1  0.393937  0.250000  0.845616  1
  S  S4  1  0.140144  0.250000  0.896104  1
  S  S5  1  0.859856  0.750000  0.103896  1
  N  N6  1  0.420989  0.750000  0.190952  1
  N  N7  1  0.579011  0.250000  0.809048  1
  Cl  Cl8  1  0.252174  0.750000  0.548368  1
  Cl  Cl9  1  0.747826  0.250000  0.451632  1
