# generated using pymatgen
data_Ba(PO3)2
_symmetry_space_group_name_H-M   'P 1'
_cell_length_a   7.67385104
_cell_length_b   6.99006048
_cell_length_c   11.97878356
_cell_angle_alpha   90.00000000
_cell_angle_beta   124.90989477
_cell_angle_gamma   90.00000000
_symmetry_Int_Tables_number   1
_chemical_formula_structural   Ba(PO3)2
_chemical_formula_sum   'Ba4 P8 O24'
_cell_volume   526.92519844
_cell_formula_units_Z   4
loop_
 _symmetry_equiv_pos_site_id
 _symmetry_equiv_pos_as_xyz
  1  'x, y, z'
loop_
 _atom_site_type_symbol
 _atom_site_label
 _atom_site_symmetry_multiplicity
 _atom_site_fract_x
 _atom_site_fract_y
 _atom_site_fract_z
 _atom_site_occupancy
  Ba  Ba0  1  0.319671  0.097348  0.174467  1
  Ba  Ba1  1  0.319671  0.402652  0.674467  1
  Ba  Ba2  1  0.680329  0.597348  0.325533  1
  Ba  Ba3  1  0.680329  0.902652  0.825533  1
  P  P4  1  0.955904  0.105285  0.335913  1
  P  P5  1  0.707981  0.204910  0.579373  1
  P  P6  1  0.044096  0.605285  0.164087  1
  P  P7  1  0.292019  0.795090  0.420627  1
  P  P8  1  0.292019  0.704910  0.920627  1
  P  P9  1  0.707981  0.295090  0.079373  1
  P  P10  1  0.955904  0.394715  0.835913  1
  P  P11  1  0.044096  0.894715  0.664087  1
  O  O12  1  0.614179  0.224329  0.937897  1
  O  O13  1  0.209639  0.031343  0.683441  1
  O  O14  1  0.181152  0.498171  0.897707  1
  O  O15  1  0.818848  0.998171  0.602293  1
  O  O16  1  0.906545  0.157587  0.185340  1
  O  O17  1  0.906545  0.342413  0.685340  1
  O  O18  1  0.181152  0.001829  0.397707  1
  O  O19  1  0.432085  0.818146  0.370807  1
  O  O20  1  0.385821  0.724329  0.562103  1
  O  O21  1  0.093455  0.842413  0.814660  1
  O  O22  1  0.385821  0.775671  0.062103  1
  O  O23  1  0.001440  0.789426  0.087433  1
  O  O24  1  0.614179  0.275671  0.437897  1
  O  O25  1  0.567915  0.181854  0.629193  1
  O  O26  1  0.790361  0.531343  0.816559  1
  O  O27  1  0.001440  0.710574  0.587433  1
  O  O28  1  0.998560  0.289426  0.412567  1
  O  O29  1  0.093455  0.657587  0.314660  1
  O  O30  1  0.209639  0.468657  0.183441  1
  O  O31  1  0.818848  0.501829  0.102293  1
  O  O32  1  0.998560  0.210574  0.912567  1
  O  O33  1  0.567915  0.318146  0.129193  1
  O  O34  1  0.790361  0.968657  0.316559  1
  O  O35  1  0.432085  0.681854  0.870807  1
