# generated using pymatgen
data_Ca2As3Pb3ClO12
_symmetry_space_group_name_H-M   'P 1'
_cell_length_a   10.39668271
_cell_length_b   10.39668271
_cell_length_c   7.18141251
_cell_angle_alpha   90.00000000
_cell_angle_beta   90.00000000
_cell_angle_gamma   120.00000000
_symmetry_Int_Tables_number   1
_chemical_formula_structural   Ca2As3Pb3ClO12
_chemical_formula_sum   'Ca4 As6 Pb6 Cl2 O24'
_cell_volume   672.24887733
_cell_formula_units_Z   2
loop_
 _symmetry_equiv_pos_site_id
 _symmetry_equiv_pos_as_xyz
  1  'x, y, z'
loop_
 _atom_site_type_symbol
 _atom_site_label
 _atom_site_symmetry_multiplicity
 _atom_site_fract_x
 _atom_site_fract_y
 _atom_site_fract_z
 _atom_site_occupancy
  Ca  Ca0  1  0.666667  0.333333  0.506169  1
  Ca  Ca1  1  0.333333  0.666667  0.493831  1
  Ca  Ca2  1  0.666667  0.333333  0.993831  1
  Ca  Ca3  1  0.333333  0.666667  0.006169  1
  As  As4  1  0.608743  0.029775  0.250000  1
  As  As5  1  0.029775  0.421033  0.750000  1
  As  As6  1  0.578967  0.608743  0.750000  1
  As  As7  1  0.391257  0.970225  0.750000  1
  As  As8  1  0.970225  0.578967  0.250000  1
  As  As9  1  0.421033  0.391257  0.250000  1
  Pb  Pb10  1  0.235500  0.262034  0.750000  1
  Pb  Pb11  1  0.026533  0.764500  0.750000  1
  Pb  Pb12  1  0.764500  0.737966  0.250000  1
  Pb  Pb13  1  0.737966  0.973467  0.750000  1
  Pb  Pb14  1  0.973467  0.235500  0.250000  1
  Pb  Pb15  1  0.262034  0.026533  0.250000  1
  Cl  Cl16  1  0.000000  0.000000  0.500000  1
  Cl  Cl17  1  0.000000  0.000000  0.000000  1
  O  O18  1  0.363523  0.274565  0.440741  1
  O  O19  1  0.530762  0.144843  0.250000  1
  O  O20  1  0.725435  0.088958  0.059259  1
  O  O21  1  0.911042  0.636477  0.059259  1
  O  O22  1  0.469238  0.855157  0.750000  1
  O  O23  1  0.088958  0.363523  0.559259  1
  O  O24  1  0.274565  0.911042  0.940741  1
  O  O25  1  0.633456  0.478605  0.750000  1
  O  O26  1  0.144843  0.614081  0.750000  1
  O  O27  1  0.385919  0.530762  0.750000  1
  O  O28  1  0.366544  0.521395  0.250000  1
  O  O29  1  0.636477  0.725435  0.940741  1
  O  O30  1  0.845149  0.366544  0.750000  1
  O  O31  1  0.154851  0.633456  0.250000  1
  O  O32  1  0.636477  0.725435  0.559259  1
  O  O33  1  0.274565  0.911042  0.559259  1
  O  O34  1  0.088958  0.363523  0.940741  1
  O  O35  1  0.855157  0.385919  0.250000  1
  O  O36  1  0.478605  0.845149  0.250000  1
  O  O37  1  0.363523  0.274565  0.059259  1
  O  O38  1  0.614081  0.469238  0.250000  1
  O  O39  1  0.911042  0.636477  0.440741  1
  O  O40  1  0.725435  0.088958  0.440741  1
  O  O41  1  0.521395  0.154851  0.750000  1
