# generated using pymatgen
data_ZrF4
_symmetry_space_group_name_H-M   'P 1'
_cell_length_a   8.04283797
_cell_length_b   8.04283797
_cell_length_c   7.85192985
_cell_angle_alpha   90.00000000
_cell_angle_beta   90.00000000
_cell_angle_gamma   90.00000000
_symmetry_Int_Tables_number   1
_chemical_formula_structural   ZrF4
_chemical_formula_sum   'Zr8 F32'
_cell_volume   507.91969118
_cell_formula_units_Z   8
loop_
 _symmetry_equiv_pos_site_id
 _symmetry_equiv_pos_as_xyz
  1  'x, y, z'
loop_
 _atom_site_type_symbol
 _atom_site_label
 _atom_site_symmetry_multiplicity
 _atom_site_fract_x
 _atom_site_fract_y
 _atom_site_fract_z
 _atom_site_occupancy
  Zr  Zr0  1  0.319675  0.182811  0.769856  1
  Zr  Zr1  1  0.680325  0.817189  0.230144  1
  Zr  Zr2  1  0.319675  0.182811  0.230144  1
  Zr  Zr3  1  0.817189  0.319675  0.730144  1
  Zr  Zr4  1  0.680325  0.817189  0.769856  1
  Zr  Zr5  1  0.182811  0.680325  0.730144  1
  Zr  Zr6  1  0.182811  0.680325  0.269856  1
  Zr  Zr7  1  0.817189  0.319675  0.269856  1
  F  F8  1  0.672743  0.292771  0.500000  1
  F  F9  1  0.440489  0.711344  0.805410  1
  F  F10  1  0.064356  0.203186  0.213855  1
  F  F11  1  0.559511  0.288656  0.194590  1
  F  F12  1  0.796814  0.064356  0.286145  1
  F  F13  1  0.288656  0.440489  0.694590  1
  F  F14  1  0.500000  0.000000  0.703384  1
  F  F15  1  0.203186  0.935644  0.713855  1
  F  F16  1  0.665303  0.960344  0.000000  1
  F  F17  1  0.064356  0.203186  0.786145  1
  F  F18  1  0.000000  0.500000  0.796616  1
  F  F19  1  0.935644  0.796814  0.786145  1
  F  F20  1  0.203186  0.935644  0.286145  1
  F  F21  1  0.000000  0.500000  0.203384  1
  F  F22  1  0.334697  0.039656  0.000000  1
  F  F23  1  0.711344  0.559511  0.694590  1
  F  F24  1  0.796814  0.064356  0.713855  1
  F  F25  1  0.559511  0.288656  0.805410  1
  F  F26  1  0.181875  0.694074  0.000000  1
  F  F27  1  0.960344  0.334697  0.500000  1
  F  F28  1  0.707229  0.672743  0.000000  1
  F  F29  1  0.039656  0.665303  0.500000  1
  F  F30  1  0.305926  0.181875  0.500000  1
  F  F31  1  0.935644  0.796814  0.213855  1
  F  F32  1  0.818125  0.305926  0.000000  1
  F  F33  1  0.288656  0.440489  0.305410  1
  F  F34  1  0.292771  0.327257  0.000000  1
  F  F35  1  0.500000  0.000000  0.296616  1
  F  F36  1  0.711344  0.559511  0.305410  1
  F  F37  1  0.694074  0.818125  0.500000  1
  F  F38  1  0.440489  0.711344  0.194590  1
  F  F39  1  0.327257  0.707229  0.500000  1
