# generated using pymatgen
data_Ba2P7Cl
_symmetry_space_group_name_H-M   'P 1'
_cell_length_a   6.42156459
_cell_length_b   6.92966938
_cell_length_c   11.87969215
_cell_angle_alpha   90.00000000
_cell_angle_beta   95.23233960
_cell_angle_gamma   90.00000000
_symmetry_Int_Tables_number   1
_chemical_formula_structural   Ba2P7Cl
_chemical_formula_sum   'Ba4 P14 Cl2'
_cell_volume   526.43542562
_cell_formula_units_Z   2
loop_
 _symmetry_equiv_pos_site_id
 _symmetry_equiv_pos_as_xyz
  1  'x, y, z'
loop_
 _atom_site_type_symbol
 _atom_site_label
 _atom_site_symmetry_multiplicity
 _atom_site_fract_x
 _atom_site_fract_y
 _atom_site_fract_z
 _atom_site_occupancy
  Ba  Ba0  1  0.229264  0.250000  0.045662  1
  Ba  Ba1  1  0.432757  0.250000  0.653063  1
  Ba  Ba2  1  0.770736  0.750000  0.954338  1
  Ba  Ba3  1  0.567243  0.750000  0.346937  1
  P  P4  1  0.008903  0.250000  0.449491  1
  P  P5  1  0.117018  0.993970  0.804762  1
  P  P6  1  0.321563  0.750000  0.777634  1
  P  P7  1  0.674467  0.250000  0.406523  1
  P  P8  1  0.144717  0.419701  0.313113  1
  P  P9  1  0.144717  0.080299  0.313113  1
  P  P10  1  0.855283  0.919701  0.686887  1
  P  P11  1  0.882982  0.006030  0.195238  1
  P  P12  1  0.678437  0.250000  0.222366  1
  P  P13  1  0.882982  0.493970  0.195238  1
  P  P14  1  0.855283  0.580299  0.686887  1
  P  P15  1  0.325533  0.750000  0.593477  1
  P  P16  1  0.117018  0.506030  0.804762  1
  P  P17  1  0.991097  0.750000  0.550509  1
  Cl  Cl18  1  0.365041  0.750000  0.088987  1
  Cl  Cl19  1  0.634959  0.250000  0.911013  1
