# generated using pymatgen
data_Na13Ca7S12(O16F)3
_symmetry_space_group_name_H-M   'P 1'
_cell_length_a   9.53247681
_cell_length_b   6.96955338
_cell_length_c   16.56412188
_cell_angle_alpha   90.00000000
_cell_angle_beta   90.10093059
_cell_angle_gamma   90.00000000
_symmetry_Int_Tables_number   1
_chemical_formula_structural   Na13Ca7S12(O16F)3
_chemical_formula_sum   'Na13 Ca7 S12 O48 F3'
_cell_volume   1100.47061343
_cell_formula_units_Z   1
loop_
 _symmetry_equiv_pos_site_id
 _symmetry_equiv_pos_as_xyz
  1  'x, y, z'
loop_
 _atom_site_type_symbol
 _atom_site_label
 _atom_site_symmetry_multiplicity
 _atom_site_fract_x
 _atom_site_fract_y
 _atom_site_fract_z
 _atom_site_occupancy
  Na  Na0  1  0.711633  0.000000  0.995070  1
  Na  Na1  1  0.495771  0.242404  0.832336  1
  Na  Na2  1  0.495771  0.757596  0.832336  1
  Na  Na3  1  0.373471  0.500000  0.621948  1
  Na  Na4  1  0.144669  0.000000  0.865779  1
  Na  Na5  1  0.128728  0.000000  0.141715  1
  Na  Na6  1  0.007238  0.747078  0.668626  1
  Na  Na7  1  0.995078  0.240157  0.330871  1
  Na  Na8  1  0.007238  0.252922  0.668626  1
  Na  Na9  1  0.995078  0.759843  0.330871  1
  Na  Na10  1  0.631157  0.000000  0.376527  1
  Na  Na11  1  0.500391  0.754658  0.168259  1
  Na  Na12  1  0.500391  0.245342  0.168259  1
  Ca  Ca13  1  0.620019  0.000000  0.625347  1
  Ca  Ca14  1  0.262154  0.000000  0.497385  1
  Ca  Ca15  1  0.880286  0.500000  0.875727  1
  Ca  Ca16  1  0.874595  0.500000  0.121176  1
  Ca  Ca17  1  0.745097  0.500000  0.500819  1
  Ca  Ca18  1  0.384300  0.500000  0.378039  1
  Ca  Ca19  1  0.243417  0.500000  0.001792  1
  S  S20  1  0.674452  0.500000  0.694395  1
  S  S21  1  0.622423  0.500000  0.987424  1
  S  S22  1  0.290398  0.000000  0.678320  1
  S  S23  1  0.208972  0.500000  0.818968  1
  S  S24  1  0.170713  0.500000  0.195640  1
  S  S25  1  0.119777  0.500000  0.487401  1
  S  S26  1  0.881230  0.000000  0.512403  1
  S  S27  1  0.828434  0.000000  0.807080  1
  S  S28  1  0.797170  0.000000  0.178417  1
  S  S29  1  0.710539  0.500000  0.317461  1
  S  S30  1  0.363951  0.000000  0.012043  1
  S  S31  1  0.331672  0.000000  0.309537  1
  O  O32  1  0.701461  0.671139  0.958003  1
  O  O33  1  0.701461  0.328861  0.958003  1
  O  O34  1  0.682996  0.000000  0.839106  1
  O  O35  1  0.685680  0.500000  0.784272  1
  O  O36  1  0.594594  0.672914  0.668011  1
  O  O37  1  0.594594  0.327086  0.668011  1
  O  O38  1  0.478751  0.500000  0.951816  1
  O  O39  1  0.420605  0.000000  0.728809  1
  O  O40  1  0.394992  0.000000  0.924061  1
  O  O41  1  0.336276  0.500000  0.767944  1
  O  O42  1  0.288904  0.172167  0.624503  1
  O  O43  1  0.288904  0.827833  0.624503  1
  O  O44  1  0.209474  0.671270  0.873621  1
  O  O45  1  0.209474  0.328730  0.873621  1
  O  O46  1  0.202558  0.328904  0.459940  1
  O  O47  1  0.202558  0.671096  0.459940  1
  O  O48  1  0.187544  0.000000  0.344991  1
  O  O49  1  0.188978  0.500000  0.284987  1
  O  O50  1  0.162793  0.000000  0.729336  1
  O  O51  1  0.101036  0.500000  0.575721  1
  O  O52  1  0.086827  0.671061  0.170759  1
  O  O53  1  0.086827  0.328939  0.170759  1
  O  O54  1  0.077892  0.500000  0.769312  1
  O  O55  1  0.020924  0.000000  0.552844  1
  O  O56  1  0.981315  0.500000  0.445054  1
  O  O57  1  0.918304  0.000000  0.235145  1
  O  O58  1  0.907384  0.172026  0.835785  1
  O  O59  1  0.907384  0.827974  0.835785  1
  O  O60  1  0.896013  0.000000  0.423901  1
  O  O61  1  0.834682  0.500000  0.262750  1
  O  O62  1  0.825490  0.000000  0.716537  1
  O  O63  1  0.816051  0.500000  0.655954  1
  O  O64  1  0.799157  0.171420  0.540733  1
  O  O65  1  0.799157  0.828580  0.540733  1
  O  O66  1  0.803370  0.172194  0.124356  1
  O  O67  1  0.803370  0.827806  0.124356  1
  O  O68  1  0.717048  0.671769  0.371083  1
  O  O69  1  0.717048  0.328231  0.371083  1
  O  O70  1  0.662103  0.000000  0.223509  1
  O  O71  1  0.615353  0.500000  0.077405  1
  O  O72  1  0.577637  0.500000  0.269653  1
  O  O73  1  0.496910  0.000000  0.059761  1
  O  O74  1  0.409465  0.172622  0.338781  1
  O  O75  1  0.409465  0.827378  0.338781  1
  O  O76  1  0.327715  0.000000  0.220030  1
  O  O77  1  0.309663  0.500000  0.154176  1
  O  O78  1  0.278747  0.171905  0.034573  1
  O  O79  1  0.278747  0.828095  0.034573  1
  F  F80  1  0.998186  0.500000  0.999903  1
  F  F81  1  0.497266  0.000000  0.509723  1
  F  F82  1  0.510647  0.500000  0.492398  1
