# generated using pymatgen
data_MnH12C2(NCl2)2
_symmetry_space_group_name_H-M   'P 1'
_cell_length_a   7.28467063
_cell_length_b   7.28467063
_cell_length_c   19.69359191
_cell_angle_alpha   90.00000000
_cell_angle_beta   90.00000000
_cell_angle_gamma   90.00000000
_symmetry_Int_Tables_number   1
_chemical_formula_structural   MnH12C2(NCl2)2
_chemical_formula_sum   'Mn4 H48 C8 N8 Cl16'
_cell_volume   1045.06854146
_cell_formula_units_Z   4
loop_
 _symmetry_equiv_pos_site_id
 _symmetry_equiv_pos_as_xyz
  1  'x, y, z'
loop_
 _atom_site_type_symbol
 _atom_site_label
 _atom_site_symmetry_multiplicity
 _atom_site_fract_x
 _atom_site_fract_y
 _atom_site_fract_z
 _atom_site_occupancy
  Mn  Mn0  1  0.250000  0.750000  0.750000  1
  Mn  Mn1  1  0.750000  0.250000  0.750000  1
  Mn  Mn2  1  0.250000  0.250000  0.250000  1
  Mn  Mn3  1  0.750000  0.750000  0.250000  1
  H  H4  1  0.805516  0.305516  0.029038  1
  H  H5  1  0.905274  0.243503  0.143832  1
  H  H6  1  0.256497  0.594726  0.143832  1
  H  H7  1  0.743503  0.405274  0.143832  1
  H  H8  1  0.194484  0.694484  0.029038  1
  H  H9  1  0.750273  0.424522  0.445841  1
  H  H10  1  0.075478  0.749727  0.445841  1
  H  H11  1  0.756497  0.905274  0.856168  1
  H  H12  1  0.688649  0.188649  0.167950  1
  H  H13  1  0.594726  0.743503  0.856168  1
  H  H14  1  0.424522  0.750273  0.054159  1
  H  H15  1  0.811351  0.311351  0.332050  1
  H  H16  1  0.188649  0.311351  0.832050  1
  H  H17  1  0.243503  0.094726  0.856168  1
  H  H18  1  0.905274  0.756497  0.643832  1
  H  H19  1  0.575478  0.249727  0.054159  1
  H  H20  1  0.094726  0.756497  0.143832  1
  H  H21  1  0.250273  0.924522  0.054159  1
  H  H22  1  0.405274  0.743503  0.356168  1
  H  H23  1  0.311351  0.811351  0.167950  1
  H  H24  1  0.249727  0.575478  0.445841  1
  H  H25  1  0.305516  0.194484  0.970962  1
  H  H26  1  0.243503  0.905274  0.356168  1
  H  H27  1  0.194484  0.305516  0.529038  1
  H  H28  1  0.750273  0.575478  0.945841  1
  H  H29  1  0.305516  0.805516  0.470962  1
  H  H30  1  0.694484  0.805516  0.970962  1
  H  H31  1  0.094726  0.243503  0.643832  1
  H  H32  1  0.811351  0.688649  0.832050  1
  H  H33  1  0.311351  0.188649  0.667950  1
  H  H34  1  0.688649  0.811351  0.667950  1
  H  H35  1  0.749727  0.075478  0.054159  1
  H  H36  1  0.756497  0.094726  0.356168  1
  H  H37  1  0.694484  0.194484  0.470962  1
  H  H38  1  0.594726  0.256497  0.356168  1
  H  H39  1  0.075478  0.250273  0.945841  1
  H  H40  1  0.250273  0.075478  0.554159  1
  H  H41  1  0.249727  0.424522  0.945841  1
  H  H42  1  0.924522  0.749727  0.945841  1
  H  H43  1  0.256497  0.405274  0.643832  1
  H  H44  1  0.924522  0.250273  0.445841  1
  H  H45  1  0.743503  0.594726  0.643832  1
  H  H46  1  0.405274  0.256497  0.856168  1
  H  H47  1  0.188649  0.688649  0.332050  1
  H  H48  1  0.749727  0.924522  0.554159  1
  H  H49  1  0.805516  0.694484  0.529038  1
  H  H50  1  0.424522  0.249727  0.554159  1
  H  H51  1  0.575478  0.750273  0.554159  1
  C  C52  1  0.778827  0.278827  0.437232  1
  C  C53  1  0.221173  0.721173  0.437232  1
  C  C54  1  0.721173  0.778827  0.562768  1
  C  C55  1  0.278827  0.778827  0.062768  1
  C  C56  1  0.778827  0.721173  0.937232  1
  C  C57  1  0.721173  0.221173  0.062768  1
  C  C58  1  0.221173  0.278827  0.937232  1
  C  C59  1  0.278827  0.221173  0.562768  1
  N  N60  1  0.733386  0.766614  0.865646  1
  N  N61  1  0.766614  0.266614  0.134354  1
  N  N62  1  0.233386  0.266614  0.634354  1
  N  N63  1  0.733386  0.233386  0.365646  1
  N  N64  1  0.266614  0.233386  0.865646  1
  N  N65  1  0.266614  0.766614  0.365646  1
  N  N66  1  0.766614  0.733386  0.634354  1
  N  N67  1  0.233386  0.733386  0.134354  1
  Cl  Cl68  1  0.786068  0.713932  0.124879  1
  Cl  Cl69  1  0.713932  0.213932  0.875121  1
  Cl  Cl70  1  0.500000  0.000000  0.727340  1
  Cl  Cl71  1  0.500000  0.000000  0.227340  1
  Cl  Cl72  1  0.213932  0.286068  0.124879  1
  Cl  Cl73  1  0.213932  0.713932  0.624879  1
  Cl  Cl74  1  0.000000  0.500000  0.772660  1
  Cl  Cl75  1  0.786068  0.286068  0.624879  1
  Cl  Cl76  1  0.286068  0.213932  0.375121  1
  Cl  Cl77  1  0.286068  0.786068  0.875121  1
  Cl  Cl78  1  0.000000  0.000000  0.250000  1
  Cl  Cl79  1  0.500000  0.500000  0.250000  1
  Cl  Cl80  1  0.000000  0.500000  0.272660  1
  Cl  Cl81  1  0.000000  0.000000  0.750000  1
  Cl  Cl82  1  0.713932  0.786068  0.375121  1
  Cl  Cl83  1  0.500000  0.500000  0.750000  1
