# generated using pymatgen
data_Rb4H6C2O9
_symmetry_space_group_name_H-M   'P 1'
_cell_length_a   9.42426495
_cell_length_b   9.42426495
_cell_length_c   7.59276509
_cell_angle_alpha   70.32494347
_cell_angle_beta   109.67505653
_cell_angle_gamma   84.17503891
_symmetry_Int_Tables_number   1
_chemical_formula_structural   Rb4H6C2O9
_chemical_formula_sum   'Rb8 H12 C4 O18'
_cell_volume   580.10143515
_cell_formula_units_Z   2
loop_
 _symmetry_equiv_pos_site_id
 _symmetry_equiv_pos_as_xyz
  1  'x, y, z'
loop_
 _atom_site_type_symbol
 _atom_site_label
 _atom_site_symmetry_multiplicity
 _atom_site_fract_x
 _atom_site_fract_y
 _atom_site_fract_z
 _atom_site_occupancy
  Rb  Rb0  1  0.994010  0.282758  0.958567  1
  Rb  Rb1  1  0.282758  0.994010  0.541433  1
  Rb  Rb2  1  0.005990  0.717242  0.041433  1
  Rb  Rb3  1  0.717242  0.005990  0.458567  1
  Rb  Rb4  1  0.311500  0.311500  0.750000  1
  Rb  Rb5  1  0.688500  0.688500  0.250000  1
  Rb  Rb6  1  0.618398  0.618398  0.750000  1
  Rb  Rb7  1  0.381602  0.381602  0.250000  1
  H  H8  1  0.224496  0.641410  0.463857  1
  H  H9  1  0.641410  0.224496  0.036143  1
  H  H10  1  0.775504  0.358590  0.536143  1
  H  H11  1  0.358590  0.775504  0.963857  1
  H  H12  1  0.352694  0.702534  0.378381  1
  H  H13  1  0.702534  0.352694  0.121619  1
  H  H14  1  0.647306  0.297466  0.621619  1
  H  H15  1  0.297466  0.647306  0.878381  1
  H  H16  1  0.007939  0.874314  0.344664  1
  H  H17  1  0.874314  0.007939  0.155336  1
  H  H18  1  0.992061  0.125686  0.655336  1
  H  H19  1  0.125686  0.992061  0.844664  1
  C  C20  1  0.030169  0.639401  0.656056  1
  C  C21  1  0.639401  0.030169  0.843944  1
  C  C22  1  0.969831  0.360599  0.343944  1
  C  C23  1  0.360599  0.969831  0.156056  1
  O  O24  1  0.891900  0.674374  0.649504  1
  O  O25  1  0.674374  0.891900  0.850496  1
  O  O26  1  0.108100  0.325626  0.350496  1
  O  O27  1  0.325626  0.108100  0.149504  1
  O  O28  1  0.147073  0.557564  0.830685  1
  O  O29  1  0.557564  0.147073  0.669315  1
  O  O30  1  0.852927  0.442436  0.169315  1
  O  O31  1  0.442436  0.852927  0.330685  1
  O  O32  1  0.055278  0.684743  0.487869  1
  O  O33  1  0.684743  0.055278  0.012131  1
  O  O34  1  0.944722  0.315257  0.512131  1
  O  O35  1  0.315257  0.944722  0.987869  1
  O  O36  1  0.313019  0.608753  0.428842  1
  O  O37  1  0.608753  0.313019  0.071158  1
  O  O38  1  0.686981  0.391247  0.571158  1
  O  O39  1  0.391247  0.686981  0.928842  1
  O  O40  1  0.985511  0.985511  0.250000  1
  O  O41  1  0.014489  0.014489  0.750000  1
