# generated using pymatgen
data_Lu2WO6
_symmetry_space_group_name_H-M   'P 1'
_cell_length_a   7.58302403
_cell_length_b   5.29621132
_cell_length_c   11.28936130
_cell_angle_alpha   90.00000000
_cell_angle_beta   104.82242900
_cell_angle_gamma   90.00000000
_symmetry_Int_Tables_number   1
_chemical_formula_structural   Lu2WO6
_chemical_formula_sum   'Lu8 W4 O24'
_cell_volume   438.30790559
_cell_formula_units_Z   4
loop_
 _symmetry_equiv_pos_site_id
 _symmetry_equiv_pos_as_xyz
  1  'x, y, z'
loop_
 _atom_site_type_symbol
 _atom_site_label
 _atom_site_symmetry_multiplicity
 _atom_site_fract_x
 _atom_site_fract_y
 _atom_site_fract_z
 _atom_site_occupancy
  Lu  Lu0  1  0.000000  0.260058  0.250000  1
  Lu  Lu1  1  0.794959  0.183503  0.920891  1
  Lu  Lu2  1  0.205041  0.183503  0.579109  1
  Lu  Lu3  1  0.000000  0.739942  0.750000  1
  Lu  Lu4  1  0.500000  0.314959  0.250000  1
  Lu  Lu5  1  0.205041  0.816497  0.079109  1
  Lu  Lu6  1  0.794959  0.816497  0.420891  1
  Lu  Lu7  1  0.500000  0.685041  0.750000  1
  W  W8  1  0.722947  0.743914  0.114260  1
  W  W9  1  0.722947  0.256086  0.614260  1
  W  W10  1  0.277053  0.743914  0.385740  1
  W  W11  1  0.277053  0.256086  0.885740  1
  O  O12  1  0.152266  0.539743  0.931082  1
  O  O13  1  0.057682  0.041328  0.895145  1
  O  O14  1  0.710146  0.023097  0.229898  1
  O  O15  1  0.152266  0.460257  0.431082  1
  O  O16  1  0.486336  0.363432  0.615017  1
  O  O17  1  0.057682  0.958672  0.395145  1
  O  O18  1  0.793345  0.539469  0.275069  1
  O  O19  1  0.793345  0.460531  0.775069  1
  O  O20  1  0.633271  0.148613  0.448871  1
  O  O21  1  0.942318  0.041328  0.604855  1
  O  O22  1  0.847734  0.460257  0.068918  1
  O  O23  1  0.206655  0.460531  0.724931  1
  O  O24  1  0.366729  0.851387  0.551129  1
  O  O25  1  0.486336  0.636568  0.115017  1
  O  O26  1  0.513664  0.363432  0.884983  1
  O  O27  1  0.942318  0.958672  0.104855  1
  O  O28  1  0.847734  0.539743  0.568918  1
  O  O29  1  0.289854  0.976903  0.770102  1
  O  O30  1  0.206655  0.539469  0.224931  1
  O  O31  1  0.633271  0.851387  0.948871  1
  O  O32  1  0.289854  0.023097  0.270102  1
  O  O33  1  0.366729  0.148613  0.051129  1
  O  O34  1  0.710146  0.976903  0.729898  1
  O  O35  1  0.513664  0.636568  0.384983  1
