# generated using pymatgen
data_Na3NO4
_symmetry_space_group_name_H-M   'P 1'
_cell_length_a   8.71854665
_cell_length_b   9.14427002
_cell_length_c   9.82544878
_cell_angle_alpha   90.00000000
_cell_angle_beta   90.00000000
_cell_angle_gamma   90.00000000
_symmetry_Int_Tables_number   1
_chemical_formula_structural   Na3NO4
_chemical_formula_sum   'Na24 N8 O32'
_cell_volume   783.33139604
_cell_formula_units_Z   8
loop_
 _symmetry_equiv_pos_site_id
 _symmetry_equiv_pos_as_xyz
  1  'x, y, z'
loop_
 _atom_site_type_symbol
 _atom_site_label
 _atom_site_symmetry_multiplicity
 _atom_site_fract_x
 _atom_site_fract_y
 _atom_site_fract_z
 _atom_site_occupancy
  Na  Na0  1  0.617440  0.960474  0.854367  1
  Na  Na1  1  0.202898  0.240918  0.384665  1
  Na  Na2  1  0.382560  0.539526  0.354367  1
  Na  Na3  1  0.297102  0.740918  0.615335  1
  Na  Na4  1  0.297102  0.240918  0.884665  1
  Na  Na5  1  0.547263  0.876856  0.393353  1
  Na  Na6  1  0.882560  0.460474  0.145633  1
  Na  Na7  1  0.452737  0.123144  0.606647  1
  Na  Na8  1  0.952737  0.376856  0.606647  1
  Na  Na9  1  0.202898  0.740918  0.115335  1
  Na  Na10  1  0.702898  0.759082  0.115335  1
  Na  Na11  1  0.117440  0.039526  0.645633  1
  Na  Na12  1  0.617440  0.460474  0.645633  1
  Na  Na13  1  0.797102  0.259082  0.884665  1
  Na  Na14  1  0.952737  0.876856  0.893353  1
  Na  Na15  1  0.882560  0.960474  0.354367  1
  Na  Na16  1  0.117440  0.539526  0.854367  1
  Na  Na17  1  0.547263  0.376856  0.106647  1
  Na  Na18  1  0.047263  0.623144  0.393353  1
  Na  Na19  1  0.797102  0.759082  0.615335  1
  Na  Na20  1  0.702898  0.259082  0.384665  1
  Na  Na21  1  0.047263  0.123144  0.106647  1
  Na  Na22  1  0.452737  0.623144  0.893353  1
  Na  Na23  1  0.382560  0.039526  0.145633  1
  N  N24  1  0.711696  0.098235  0.119483  1
  N  N25  1  0.788304  0.098235  0.619483  1
  N  N26  1  0.711696  0.598235  0.380517  1
  N  N27  1  0.211696  0.901765  0.380517  1
  N  N28  1  0.788304  0.598235  0.880517  1
  N  N29  1  0.288304  0.401765  0.619483  1
  N  N30  1  0.288304  0.901765  0.880517  1
  N  N31  1  0.211696  0.401765  0.119483  1
  O  O32  1  0.605540  0.143827  0.021836  1
  O  O33  1  0.200949  0.281123  0.661431  1
  O  O34  1  0.894460  0.643827  0.978164  1
  O  O35  1  0.190680  0.507171  0.563933  1
  O  O36  1  0.200949  0.781123  0.838569  1
  O  O37  1  0.309320  0.007171  0.436067  1
  O  O38  1  0.636168  0.540067  0.267229  1
  O  O39  1  0.105540  0.856173  0.478164  1
  O  O40  1  0.700949  0.218877  0.661431  1
  O  O41  1  0.394460  0.356173  0.521836  1
  O  O42  1  0.136168  0.959933  0.267229  1
  O  O43  1  0.799051  0.718877  0.338569  1
  O  O44  1  0.299051  0.781123  0.338569  1
  O  O45  1  0.136168  0.459933  0.232771  1
  O  O46  1  0.394460  0.856173  0.978164  1
  O  O47  1  0.809320  0.992829  0.063933  1
  O  O48  1  0.190680  0.007171  0.936067  1
  O  O49  1  0.363832  0.959933  0.767229  1
  O  O50  1  0.363832  0.459933  0.732771  1
  O  O51  1  0.863832  0.540067  0.767229  1
  O  O52  1  0.799051  0.218877  0.161431  1
  O  O53  1  0.605540  0.643827  0.478164  1
  O  O54  1  0.105540  0.356173  0.021836  1
  O  O55  1  0.809320  0.492829  0.436067  1
  O  O56  1  0.299051  0.281123  0.161431  1
  O  O57  1  0.894460  0.143827  0.521836  1
  O  O58  1  0.863832  0.040067  0.732771  1
  O  O59  1  0.700949  0.718877  0.838569  1
  O  O60  1  0.636168  0.040067  0.232771  1
  O  O61  1  0.309320  0.507171  0.063933  1
  O  O62  1  0.690680  0.992829  0.563933  1
  O  O63  1  0.690680  0.492829  0.936067  1
