# generated using pymatgen
data_P4Se3
_symmetry_space_group_name_H-M   'P 1'
_cell_length_a   10.44851694
_cell_length_b   12.72890655
_cell_length_c   28.44654449
_cell_angle_alpha   90.00000000
_cell_angle_beta   90.00000000
_cell_angle_gamma   90.00000000
_symmetry_Int_Tables_number   1
_chemical_formula_structural   P4Se3
_chemical_formula_sum   'P64 Se48'
_cell_volume   3783.33909151
_cell_formula_units_Z   16
loop_
 _symmetry_equiv_pos_site_id
 _symmetry_equiv_pos_as_xyz
  1  'x, y, z'
loop_
 _atom_site_type_symbol
 _atom_site_label
 _atom_site_symmetry_multiplicity
 _atom_site_fract_x
 _atom_site_fract_y
 _atom_site_fract_z
 _atom_site_occupancy
  P  P0  1  0.857313  0.002825  0.755380  1
  P  P1  1  0.250000  0.227589  0.667222  1
  P  P2  1  0.750000  0.821477  0.101063  1
  P  P3  1  0.142687  0.997175  0.244620  1
  P  P4  1  0.642687  0.502825  0.744620  1
  P  P5  1  0.642444  0.459629  0.370042  1
  P  P6  1  0.750000  0.321477  0.398937  1
  P  P7  1  0.357313  0.997175  0.244620  1
  P  P8  1  0.642687  0.002825  0.755380  1
  P  P9  1  0.250000  0.478442  0.517678  1
  P  P10  1  0.357487  0.973572  0.645280  1
  P  P11  1  0.642494  0.779166  0.587354  1
  P  P12  1  0.357506  0.720834  0.087354  1
  P  P13  1  0.750000  0.025286  0.286313  1
  P  P14  1  0.750000  0.042734  0.821389  1
  P  P15  1  0.750000  0.909874  0.622672  1
  P  P16  1  0.750000  0.542734  0.678611  1
  P  P17  1  0.750000  0.452997  0.998418  1
  P  P18  1  0.750000  0.772411  0.332778  1
  P  P19  1  0.857556  0.959629  0.129958  1
  P  P20  1  0.642444  0.959629  0.129958  1
  P  P21  1  0.357313  0.497175  0.255380  1
  P  P22  1  0.250000  0.228717  0.193268  1
  P  P23  1  0.642513  0.526428  0.145280  1
  P  P24  1  0.250000  0.974714  0.713687  1
  P  P25  1  0.250000  0.457266  0.321389  1
  P  P26  1  0.250000  0.047003  0.498418  1
  P  P27  1  0.250000  0.728717  0.306732  1
  P  P28  1  0.857506  0.279166  0.912646  1
  P  P29  1  0.250000  0.678523  0.601063  1
  P  P30  1  0.250000  0.727589  0.832778  1
  P  P31  1  0.250000  0.090126  0.377328  1
  P  P32  1  0.857313  0.502825  0.744620  1
  P  P33  1  0.750000  0.271283  0.693268  1
  P  P34  1  0.357487  0.473572  0.854720  1
  P  P35  1  0.142494  0.720834  0.087354  1
  P  P36  1  0.142513  0.473572  0.854720  1
  P  P37  1  0.142687  0.497175  0.255380  1
  P  P38  1  0.857487  0.026428  0.354720  1
  P  P39  1  0.642513  0.026428  0.354720  1
  P  P40  1  0.750000  0.409874  0.877328  1
  P  P41  1  0.250000  0.474714  0.786313  1
  P  P42  1  0.750000  0.021558  0.017678  1
  P  P43  1  0.750000  0.272411  0.167222  1
  P  P44  1  0.250000  0.547003  0.001582  1
  P  P45  1  0.142444  0.540371  0.629958  1
  P  P46  1  0.750000  0.521558  0.482322  1
  P  P47  1  0.250000  0.978442  0.982322  1
  P  P48  1  0.857487  0.526428  0.145280  1
  P  P49  1  0.357556  0.040371  0.870042  1
  P  P50  1  0.750000  0.952997  0.501582  1
  P  P51  1  0.250000  0.590126  0.122672  1
  P  P52  1  0.642494  0.279166  0.912646  1
  P  P53  1  0.357506  0.220834  0.412646  1
  P  P54  1  0.142513  0.973572  0.645280  1
  P  P55  1  0.857556  0.459629  0.370042  1
  P  P56  1  0.250000  0.178523  0.898937  1
  P  P57  1  0.750000  0.525286  0.213687  1
  P  P58  1  0.750000  0.771283  0.806732  1
  P  P59  1  0.250000  0.957266  0.178611  1
  P  P60  1  0.357556  0.540371  0.629958  1
  P  P61  1  0.857506  0.779166  0.587354  1
  P  P62  1  0.142494  0.220834  0.412646  1
  P  P63  1  0.142444  0.040371  0.870042  1
  Se  Se64  1  0.583873  0.832757  0.762998  1
  Se  Se65  1  0.584043  0.841911  0.516173  1
  Se  Se66  1  0.915893  0.857923  0.367740  1
  Se  Se67  1  0.250000  0.105978  0.135057  1
  Se  Se68  1  0.415893  0.642077  0.867740  1
  Se  Se69  1  0.416127  0.167243  0.237002  1
  Se  Se70  1  0.750000  0.342755  0.477877  1
  Se  Se71  1  0.916070  0.056638  0.066906  1
  Se  Se72  1  0.084043  0.158089  0.483827  1
  Se  Se73  1  0.915893  0.357923  0.132260  1
  Se  Se74  1  0.416070  0.443362  0.566906  1
  Se  Se75  1  0.083873  0.167243  0.237002  1
  Se  Se76  1  0.916070  0.556638  0.433094  1
  Se  Se77  1  0.750000  0.894022  0.864943  1
  Se  Se78  1  0.250000  0.605978  0.364943  1
  Se  Se79  1  0.084107  0.642077  0.867740  1
  Se  Se80  1  0.415957  0.158089  0.483827  1
  Se  Se81  1  0.415893  0.142077  0.632260  1
  Se  Se82  1  0.583930  0.056638  0.066906  1
  Se  Se83  1  0.750000  0.356193  0.237929  1
  Se  Se84  1  0.584107  0.357923  0.132260  1
  Se  Se85  1  0.583930  0.556638  0.433094  1
  Se  Se86  1  0.750000  0.394022  0.635057  1
  Se  Se87  1  0.584043  0.341911  0.983827  1
  Se  Se88  1  0.083930  0.943362  0.933094  1
  Se  Se89  1  0.083930  0.443362  0.566906  1
  Se  Se90  1  0.250000  0.157245  0.977877  1
  Se  Se91  1  0.750000  0.842755  0.022123  1
  Se  Se92  1  0.583873  0.332757  0.737002  1
  Se  Se93  1  0.750000  0.856193  0.262071  1
  Se  Se94  1  0.750000  0.544217  0.929495  1
  Se  Se95  1  0.916127  0.332757  0.737002  1
  Se  Se96  1  0.250000  0.657245  0.522123  1
  Se  Se97  1  0.250000  0.143807  0.737929  1
  Se  Se98  1  0.416127  0.667243  0.262998  1
  Se  Se99  1  0.750000  0.044217  0.570505  1
  Se  Se100  1  0.915957  0.841911  0.516173  1
  Se  Se101  1  0.915957  0.341911  0.983827  1
  Se  Se102  1  0.084107  0.142077  0.632260  1
  Se  Se103  1  0.083873  0.667243  0.262998  1
  Se  Se104  1  0.916127  0.832757  0.762998  1
  Se  Se105  1  0.250000  0.643807  0.762071  1
  Se  Se106  1  0.584107  0.857923  0.367740  1
  Se  Se107  1  0.250000  0.455783  0.070505  1
  Se  Se108  1  0.250000  0.955783  0.429495  1
  Se  Se109  1  0.084043  0.658089  0.016173  1
  Se  Se110  1  0.415957  0.658089  0.016173  1
  Se  Se111  1  0.416070  0.943362  0.933094  1
