# generated using pymatgen
data_Ta2Zn4O9
_symmetry_space_group_name_H-M   'P 1'
_cell_length_a   8.86432937
_cell_length_b   8.96006917
_cell_length_c   10.48865910
_cell_angle_alpha   87.60563147
_cell_angle_beta   87.50128050
_cell_angle_gamma   61.23276024
_symmetry_Int_Tables_number   1
_chemical_formula_structural   Ta2Zn4O9
_chemical_formula_sum   'Ta8 Zn16 O36'
_cell_volume   729.34691397
_cell_formula_units_Z   4
loop_
 _symmetry_equiv_pos_site_id
 _symmetry_equiv_pos_as_xyz
  1  'x, y, z'
loop_
 _atom_site_type_symbol
 _atom_site_label
 _atom_site_symmetry_multiplicity
 _atom_site_fract_x
 _atom_site_fract_y
 _atom_site_fract_z
 _atom_site_occupancy
  Ta  Ta0  1  0.000000  0.000000  0.000000  1
  Ta  Ta1  1  0.693093  0.997914  0.757436  1
  Ta  Ta2  1  0.000000  0.000000  0.500000  1
  Ta  Ta3  1  0.669330  0.646205  0.699199  1
  Ta  Ta4  1  0.674313  0.646844  0.203398  1
  Ta  Ta5  1  0.325687  0.353156  0.796602  1
  Ta  Ta6  1  0.330670  0.353795  0.300801  1
  Ta  Ta7  1  0.306907  0.002086  0.242564  1
  Zn  Zn8  1  0.658959  0.940550  0.429000  1
  Zn  Zn9  1  0.992098  0.743644  0.268062  1
  Zn  Zn10  1  0.960083  0.655631  0.934011  1
  Zn  Zn11  1  0.424503  0.900571  0.951038  1
  Zn  Zn12  1  0.225028  0.797041  0.757902  1
  Zn  Zn13  1  0.901014  0.432674  0.442348  1
  Zn  Zn14  1  0.363643  0.674434  0.460411  1
  Zn  Zn15  1  0.328032  0.594888  0.045959  1
  Zn  Zn16  1  0.671968  0.405112  0.954041  1
  Zn  Zn17  1  0.636357  0.325566  0.539589  1
  Zn  Zn18  1  0.098986  0.567326  0.557652  1
  Zn  Zn19  1  0.774972  0.202959  0.242098  1
  Zn  Zn20  1  0.575497  0.099429  0.048962  1
  Zn  Zn21  1  0.039917  0.344369  0.065989  1
  Zn  Zn22  1  0.007902  0.256356  0.731938  1
  Zn  Zn23  1  0.341041  0.059450  0.571000  1
  O  O24  1  0.898616  0.948514  0.660338  1
  O  O25  1  0.910976  0.952466  0.161780  1
  O  O26  1  0.591820  0.911262  0.620043  1
  O  O27  1  0.762215  0.765657  0.824337  1
  O  O28  1  0.535040  0.906067  0.123693  1
  O  O29  1  0.774896  0.740804  0.326035  1
  O  O30  1  0.221085  0.954750  0.083603  1
  O  O31  1  0.229656  0.911084  0.579056  1
  O  O32  1  0.871285  0.592226  0.092568  1
  O  O33  1  0.873219  0.585172  0.592265  1
  O  O34  1  0.456989  0.754170  0.810787  1
  O  O35  1  0.443033  0.768752  0.312874  1
  O  O36  1  0.564472  0.576274  0.577118  1
  O  O37  1  0.547595  0.595620  0.078832  1
  O  O38  1  0.116690  0.754658  0.945881  1
  O  O39  1  0.783900  0.439059  0.799732  1
  O  O40  1  0.090196  0.761529  0.441149  1
  O  O41  1  0.762978  0.430373  0.297936  1
  O  O42  1  0.237022  0.569627  0.702064  1
  O  O43  1  0.909804  0.238471  0.558851  1
  O  O44  1  0.216100  0.560941  0.200268  1
  O  O45  1  0.883310  0.245342  0.054119  1
  O  O46  1  0.452405  0.404380  0.921168  1
  O  O47  1  0.435528  0.423726  0.422882  1
  O  O48  1  0.556967  0.231248  0.687126  1
  O  O49  1  0.543011  0.245830  0.189213  1
  O  O50  1  0.126781  0.414828  0.407735  1
  O  O51  1  0.128715  0.407774  0.907432  1
  O  O52  1  0.770344  0.088916  0.420944  1
  O  O53  1  0.778915  0.045250  0.916397  1
  O  O54  1  0.225104  0.259196  0.673965  1
  O  O55  1  0.464960  0.093933  0.876307  1
  O  O56  1  0.237785  0.234343  0.175663  1
  O  O57  1  0.408180  0.088738  0.379957  1
  O  O58  1  0.089024  0.047534  0.838220  1
  O  O59  1  0.101384  0.051486  0.339662  1
