# generated using pymatgen
data_Sn5(PO5)2
_symmetry_space_group_name_H-M   'P 1'
_cell_length_a   7.28952691
_cell_length_b   7.32344881
_cell_length_c   13.23587286
_cell_angle_alpha   87.91509407
_cell_angle_beta   86.08414629
_cell_angle_gamma   61.81678850
_symmetry_Int_Tables_number   1
_chemical_formula_structural   Sn5(PO5)2
_chemical_formula_sum   'Sn10 P4 O20'
_cell_volume   621.35729070
_cell_formula_units_Z   2
loop_
 _symmetry_equiv_pos_site_id
 _symmetry_equiv_pos_as_xyz
  1  'x, y, z'
loop_
 _atom_site_type_symbol
 _atom_site_label
 _atom_site_symmetry_multiplicity
 _atom_site_fract_x
 _atom_site_fract_y
 _atom_site_fract_z
 _atom_site_occupancy
  Sn  Sn0  1  0.994358  0.697268  0.168257  1
  Sn  Sn1  1  0.436859  0.783654  0.140441  1
  Sn  Sn2  1  0.673521  0.305248  0.376412  1
  Sn  Sn3  1  0.005642  0.302732  0.831743  1
  Sn  Sn4  1  0.932431  0.239062  0.131438  1
  Sn  Sn5  1  0.563141  0.216346  0.859559  1
  Sn  Sn6  1  0.193101  0.196797  0.378820  1
  Sn  Sn7  1  0.326479  0.694752  0.623588  1
  Sn  Sn8  1  0.067569  0.760938  0.868562  1
  Sn  Sn9  1  0.806899  0.803203  0.621180  1
  P  P10  1  0.938334  0.198477  0.603858  1
  P  P11  1  0.061666  0.801523  0.396142  1
  P  P12  1  0.470877  0.242883  0.122663  1
  P  P13  1  0.529123  0.757117  0.877337  1
  O  O14  1  0.083241  0.705819  0.506137  1
  O  O15  1  0.108142  0.912790  0.146367  1
  O  O16  1  0.688204  0.523490  0.887023  1
  O  O17  1  0.311796  0.476510  0.112977  1
  O  O18  1  0.223122  0.881959  0.378172  1
  O  O19  1  0.776878  0.118041  0.621828  1
  O  O20  1  0.108476  0.626203  0.319565  1
  O  O21  1  0.355581  0.783718  0.805310  1
  O  O22  1  0.644419  0.216282  0.194690  1
  O  O23  1  0.167604  0.028144  0.612309  1
  O  O24  1  0.584772  0.153052  0.019455  1
  O  O25  1  0.354498  0.122083  0.166656  1
  O  O26  1  0.832396  0.971856  0.387691  1
  O  O27  1  0.932052  0.298694  0.287314  1
  O  O28  1  0.645502  0.877917  0.833344  1
  O  O29  1  0.067948  0.701306  0.712686  1
  O  O30  1  0.891524  0.373797  0.680435  1
  O  O31  1  0.415228  0.846948  0.980545  1
  O  O32  1  0.891858  0.087210  0.853633  1
  O  O33  1  0.916759  0.294181  0.493863  1
