# generated using pymatgen
data_Sr7GeN6
_symmetry_space_group_name_H-M   'P 1'
_cell_length_a   6.62644562
_cell_length_b   11.67779467
_cell_length_c   13.93855126
_cell_angle_alpha   90.00000000
_cell_angle_beta   90.00000000
_cell_angle_gamma   90.00000000
_symmetry_Int_Tables_number   1
_chemical_formula_structural   Sr7GeN6
_chemical_formula_sum   'Sr28 Ge4 N24'
_cell_volume   1078.59675572
_cell_formula_units_Z   4
loop_
 _symmetry_equiv_pos_site_id
 _symmetry_equiv_pos_as_xyz
  1  'x, y, z'
loop_
 _atom_site_type_symbol
 _atom_site_label
 _atom_site_symmetry_multiplicity
 _atom_site_fract_x
 _atom_site_fract_y
 _atom_site_fract_z
 _atom_site_occupancy
  Sr  Sr0  1  0.645122  0.724142  0.625647  1
  Sr  Sr1  1  0.736100  0.962118  0.479779  1
  Sr  Sr2  1  0.145122  0.775858  0.625647  1
  Sr  Sr3  1  0.940938  0.500000  0.250000  1
  Sr  Sr4  1  0.610759  0.294274  0.123030  1
  Sr  Sr5  1  0.236100  0.462118  0.020221  1
  Sr  Sr6  1  0.059062  0.500000  0.750000  1
  Sr  Sr7  1  0.736100  0.037882  0.020221  1
  Sr  Sr8  1  0.610759  0.705726  0.376970  1
  Sr  Sr9  1  0.559062  0.000000  0.750000  1
  Sr  Sr10  1  0.354878  0.275858  0.374353  1
  Sr  Sr11  1  0.854878  0.775858  0.125647  1
  Sr  Sr12  1  0.889241  0.205726  0.623030  1
  Sr  Sr13  1  0.110759  0.794274  0.376970  1
  Sr  Sr14  1  0.236100  0.537882  0.479779  1
  Sr  Sr15  1  0.645122  0.275858  0.874353  1
  Sr  Sr16  1  0.263900  0.962118  0.979779  1
  Sr  Sr17  1  0.145122  0.224142  0.874353  1
  Sr  Sr18  1  0.263900  0.037882  0.520221  1
  Sr  Sr19  1  0.440938  0.000000  0.250000  1
  Sr  Sr20  1  0.889241  0.794274  0.876970  1
  Sr  Sr21  1  0.854878  0.224142  0.374353  1
  Sr  Sr22  1  0.354878  0.724142  0.125647  1
  Sr  Sr23  1  0.389241  0.705726  0.876970  1
  Sr  Sr24  1  0.763900  0.537882  0.979779  1
  Sr  Sr25  1  0.389241  0.294274  0.623030  1
  Sr  Sr26  1  0.110759  0.205726  0.123030  1
  Sr  Sr27  1  0.763900  0.462118  0.520221  1
  Ge  Ge28  1  0.569768  0.500000  0.750000  1
  Ge  Ge29  1  0.930232  0.000000  0.250000  1
  Ge  Ge30  1  0.430232  0.500000  0.250000  1
  Ge  Ge31  1  0.069768  0.000000  0.750000  1
  N  N32  1  0.901829  0.045505  0.856086  1
  N  N33  1  0.740589  0.626286  0.791553  1
  N  N34  1  0.401829  0.545505  0.643914  1
  N  N35  1  0.240589  0.873714  0.791553  1
  N  N36  1  0.593505  0.833986  0.002669  1
  N  N37  1  0.593505  0.166014  0.497331  1
  N  N38  1  0.901829  0.954495  0.643914  1
  N  N39  1  0.906495  0.333986  0.997331  1
  N  N40  1  0.406495  0.833986  0.502669  1
  N  N41  1  0.759411  0.126286  0.208447  1
  N  N42  1  0.740589  0.373714  0.708447  1
  N  N43  1  0.406495  0.166014  0.997331  1
  N  N44  1  0.598171  0.545505  0.143914  1
  N  N45  1  0.598171  0.454495  0.356086  1
  N  N46  1  0.259411  0.626286  0.291553  1
  N  N47  1  0.759411  0.873714  0.291553  1
  N  N48  1  0.093505  0.666014  0.002669  1
  N  N49  1  0.098171  0.045505  0.356086  1
  N  N50  1  0.240589  0.126286  0.708447  1
  N  N51  1  0.098171  0.954495  0.143914  1
  N  N52  1  0.906495  0.666014  0.502669  1
  N  N53  1  0.093505  0.333986  0.497331  1
  N  N54  1  0.401829  0.454495  0.856086  1
  N  N55  1  0.259411  0.373714  0.208447  1
