# generated using pymatgen
data_CdPH6NO5
_symmetry_space_group_name_H-M   'P 1'
_cell_length_a   4.99488600
_cell_length_b   5.87990474
_cell_length_c   18.31688136
_cell_angle_alpha   90.00000000
_cell_angle_beta   90.00000000
_cell_angle_gamma   90.00000000
_symmetry_Int_Tables_number   1
_chemical_formula_structural   CdPH6NO5
_chemical_formula_sum   'Cd4 P4 H24 N4 O20'
_cell_volume   537.95680209
_cell_formula_units_Z   4
loop_
 _symmetry_equiv_pos_site_id
 _symmetry_equiv_pos_as_xyz
  1  'x, y, z'
loop_
 _atom_site_type_symbol
 _atom_site_label
 _atom_site_symmetry_multiplicity
 _atom_site_fract_x
 _atom_site_fract_y
 _atom_site_fract_z
 _atom_site_occupancy
  Cd  Cd0  1  0.859940  0.750000  0.265347  1
  Cd  Cd1  1  0.359940  0.250000  0.234653  1
  Cd  Cd2  1  0.140060  0.250000  0.734653  1
  Cd  Cd3  1  0.640060  0.750000  0.765347  1
  P  P4  1  0.283617  0.750000  0.146360  1
  P  P5  1  0.783617  0.250000  0.353640  1
  P  P6  1  0.716383  0.250000  0.853640  1
  P  P7  1  0.216383  0.750000  0.646360  1
  H  H8  1  0.558262  0.750000  0.522729  1
  H  H9  1  0.058262  0.250000  0.977271  1
  H  H10  1  0.441738  0.250000  0.477271  1
  H  H11  1  0.941738  0.750000  0.022729  1
  H  H12  1  0.909124  0.750000  0.523942  1
  H  H13  1  0.409124  0.250000  0.976058  1
  H  H14  1  0.090876  0.250000  0.476058  1
  H  H15  1  0.590876  0.750000  0.023942  1
  H  H16  1  0.317376  0.883136  0.349934  1
  H  H17  1  0.817376  0.116864  0.150066  1
  H  H18  1  0.682624  0.383136  0.650066  1
  H  H19  1  0.182624  0.616864  0.849934  1
  H  H20  1  0.682624  0.116864  0.650066  1
  H  H21  1  0.182624  0.883136  0.849934  1
  H  H22  1  0.317376  0.616864  0.349934  1
  H  H23  1  0.817376  0.383136  0.150066  1
  H  H24  1  0.740583  0.894978  0.459089  1
  H  H25  1  0.240583  0.105022  0.040911  1
  H  H26  1  0.259417  0.394978  0.540911  1
  H  H27  1  0.759417  0.605022  0.959089  1
  H  H28  1  0.259417  0.105022  0.540911  1
  H  H29  1  0.759417  0.894978  0.959089  1
  H  H30  1  0.740583  0.605022  0.459089  1
  H  H31  1  0.240583  0.394978  0.040911  1
  N  N32  1  0.736460  0.750000  0.491119  1
  N  N33  1  0.236460  0.250000  0.008881  1
  N  N34  1  0.263540  0.250000  0.508881  1
  N  N35  1  0.763540  0.750000  0.991119  1
  O  O36  1  0.579991  0.750000  0.167172  1
  O  O37  1  0.079991  0.250000  0.332828  1
  O  O38  1  0.420009  0.250000  0.832828  1
  O  O39  1  0.920009  0.750000  0.667172  1
  O  O40  1  0.132738  0.962810  0.179532  1
  O  O41  1  0.632738  0.037190  0.320468  1
  O  O42  1  0.867262  0.462810  0.820468  1
  O  O43  1  0.367262  0.537190  0.679532  1
  O  O44  1  0.867262  0.037190  0.820468  1
  O  O45  1  0.367262  0.962810  0.679532  1
  O  O46  1  0.132738  0.537190  0.179532  1
  O  O47  1  0.632738  0.462810  0.320468  1
  O  O48  1  0.253371  0.750000  0.061816  1
  O  O49  1  0.753371  0.250000  0.438184  1
  O  O50  1  0.746629  0.250000  0.938184  1
  O  O51  1  0.246629  0.750000  0.561816  1
  O  O52  1  0.198281  0.750000  0.356732  1
  O  O53  1  0.698281  0.250000  0.143268  1
  O  O54  1  0.801719  0.250000  0.643268  1
  O  O55  1  0.301719  0.750000  0.856732  1
