# generated using pymatgen
data_SbMoOF9
_symmetry_space_group_name_H-M   'P 1'
_cell_length_a   7.68497086
_cell_length_b   10.72181093
_cell_length_c   12.23269973
_cell_angle_alpha   90.00000000
_cell_angle_beta   125.77242021
_cell_angle_gamma   90.00000000
_symmetry_Int_Tables_number   1
_chemical_formula_structural   SbMoOF9
_chemical_formula_sum   'Sb4 Mo4 O4 F36'
_cell_volume   817.78362333
_cell_formula_units_Z   4
loop_
 _symmetry_equiv_pos_site_id
 _symmetry_equiv_pos_as_xyz
  1  'x, y, z'
loop_
 _atom_site_type_symbol
 _atom_site_label
 _atom_site_symmetry_multiplicity
 _atom_site_fract_x
 _atom_site_fract_y
 _atom_site_fract_z
 _atom_site_occupancy
  Sb  Sb0  1  0.904608  0.517253  0.691375  1
  Sb  Sb1  1  0.095392  0.017253  0.808625  1
  Sb  Sb2  1  0.095392  0.482747  0.308625  1
  Sb  Sb3  1  0.904608  0.982747  0.191375  1
  Mo  Mo4  1  0.538448  0.687164  0.164984  1
  Mo  Mo5  1  0.538448  0.812836  0.664984  1
  Mo  Mo6  1  0.461552  0.187164  0.335016  1
  Mo  Mo7  1  0.461552  0.312836  0.835016  1
  O  O8  1  0.708149  0.251180  0.916654  1
  O  O9  1  0.708149  0.248820  0.416654  1
  O  O10  1  0.291851  0.748820  0.083346  1
  O  O11  1  0.291851  0.751180  0.583346  1
  F  F12  1  0.666330  0.744680  0.339690  1
  F  F13  1  0.982127  0.478081  0.123438  1
  F  F14  1  0.907382  0.147441  0.780756  1
  F  F15  1  0.314161  0.150878  0.842864  1
  F  F16  1  0.779021  0.980889  0.004475  1
  F  F17  1  0.982127  0.021919  0.623438  1
  F  F18  1  0.333670  0.255320  0.660310  1
  F  F19  1  0.513616  0.473267  0.806247  1
  F  F20  1  0.779021  0.519111  0.504475  1
  F  F21  1  0.551217  0.643685  0.022167  1
  F  F22  1  0.220979  0.019111  0.995525  1
  F  F23  1  0.298634  0.604100  0.339357  1
  F  F24  1  0.907382  0.352559  0.280756  1
  F  F25  1  0.092618  0.852559  0.219244  1
  F  F26  1  0.109250  0.388131  0.721537  1
  F  F27  1  0.298634  0.895900  0.839357  1
  F  F28  1  0.701366  0.104100  0.160643  1
  F  F29  1  0.109250  0.111869  0.221537  1
  F  F30  1  0.220979  0.480889  0.495525  1
  F  F31  1  0.448783  0.356315  0.977833  1
  F  F32  1  0.333670  0.244680  0.160310  1
  F  F33  1  0.551217  0.856315  0.522167  1
  F  F34  1  0.890750  0.611869  0.278463  1
  F  F35  1  0.314161  0.349122  0.342864  1
  F  F36  1  0.890750  0.888131  0.778463  1
  F  F37  1  0.448783  0.143685  0.477833  1
  F  F38  1  0.666330  0.755320  0.839690  1
  F  F39  1  0.701366  0.395900  0.660643  1
  F  F40  1  0.017873  0.521919  0.876562  1
  F  F41  1  0.486384  0.973267  0.693753  1
  F  F42  1  0.092618  0.647441  0.719244  1
  F  F43  1  0.486384  0.526733  0.193753  1
  F  F44  1  0.685839  0.849122  0.157136  1
  F  F45  1  0.017873  0.978081  0.376562  1
  F  F46  1  0.685839  0.650878  0.657136  1
  F  F47  1  0.513616  0.026733  0.306247  1
