# generated using pymatgen
data_MnH16C4(NCl2)2
_symmetry_space_group_name_H-M   'P 1'
_cell_length_a   7.28291383
_cell_length_b   7.40342604
_cell_length_c   22.51288398
_cell_angle_alpha   90.00000000
_cell_angle_beta   90.00000000
_cell_angle_gamma   90.00000000
_symmetry_Int_Tables_number   1
_chemical_formula_structural   MnH16C4(NCl2)2
_chemical_formula_sum   'Mn4 H64 C16 N8 Cl16'
_cell_volume   1213.86124772
_cell_formula_units_Z   4
loop_
 _symmetry_equiv_pos_site_id
 _symmetry_equiv_pos_as_xyz
  1  'x, y, z'
loop_
 _atom_site_type_symbol
 _atom_site_label
 _atom_site_symmetry_multiplicity
 _atom_site_fract_x
 _atom_site_fract_y
 _atom_site_fract_z
 _atom_site_occupancy
  Mn  Mn0  1  0.000000  0.000000  0.000000  1
  Mn  Mn1  1  0.000000  0.500000  0.500000  1
  Mn  Mn2  1  0.500000  0.500000  0.000000  1
  Mn  Mn3  1  0.500000  0.000000  0.500000  1
  H  H4  1  0.517321  0.195097  0.788921  1
  H  H5  1  0.982679  0.695097  0.211079  1
  H  H6  1  0.009343  0.653854  0.099688  1
  H  H7  1  0.010706  0.197721  0.663933  1
  H  H8  1  0.179924  0.451922  0.165725  1
  H  H9  1  0.320076  0.451922  0.665725  1
  H  H10  1  0.522962  0.997947  0.743843  1
  H  H11  1  0.953442  0.054131  0.570041  1
  H  H12  1  0.977038  0.497947  0.256157  1
  H  H13  1  0.711189  0.549362  0.708649  1
  H  H14  1  0.022962  0.502053  0.743843  1
  H  H15  1  0.453442  0.445869  0.570041  1
  H  H16  1  0.509343  0.346146  0.400312  1
  H  H17  1  0.017321  0.304903  0.788921  1
  H  H18  1  0.490657  0.153854  0.900312  1
  H  H19  1  0.046558  0.445869  0.070041  1
  H  H20  1  0.837279  0.005520  0.403847  1
  H  H21  1  0.509343  0.846146  0.099688  1
  H  H22  1  0.546558  0.554131  0.429959  1
  H  H23  1  0.010706  0.697721  0.836067  1
  H  H24  1  0.453442  0.945869  0.929959  1
  H  H25  1  0.990657  0.346146  0.900312  1
  H  H26  1  0.989294  0.302279  0.163933  1
  H  H27  1  0.337279  0.494480  0.403847  1
  H  H28  1  0.162721  0.994480  0.596153  1
  H  H29  1  0.982679  0.195097  0.288921  1
  H  H30  1  0.679924  0.048078  0.165725  1
  H  H31  1  0.477038  0.502053  0.243843  1
  H  H32  1  0.989294  0.802279  0.336067  1
  H  H33  1  0.211189  0.950638  0.708649  1
  H  H34  1  0.522962  0.497947  0.756157  1
  H  H35  1  0.662721  0.505520  0.596153  1
  H  H36  1  0.679924  0.548078  0.334275  1
  H  H37  1  0.489294  0.697721  0.336067  1
  H  H38  1  0.022962  0.002053  0.756157  1
  H  H39  1  0.046558  0.945869  0.429959  1
  H  H40  1  0.990657  0.846146  0.599688  1
  H  H41  1  0.017321  0.804903  0.711079  1
  H  H42  1  0.510706  0.302279  0.663933  1
  H  H43  1  0.517321  0.695097  0.711079  1
  H  H44  1  0.820076  0.548078  0.834275  1
  H  H45  1  0.711189  0.049362  0.791351  1
  H  H46  1  0.009343  0.153854  0.400312  1
  H  H47  1  0.162721  0.494480  0.903847  1
  H  H48  1  0.788811  0.549362  0.208649  1
  H  H49  1  0.490657  0.653854  0.599688  1
  H  H50  1  0.179924  0.951922  0.334275  1
  H  H51  1  0.820076  0.048078  0.665725  1
  H  H52  1  0.477038  0.002053  0.256157  1
  H  H53  1  0.546558  0.054131  0.070041  1
  H  H54  1  0.837279  0.505520  0.096153  1
  H  H55  1  0.337279  0.994480  0.096153  1
  H  H56  1  0.211189  0.450638  0.791351  1
  H  H57  1  0.662721  0.005520  0.903847  1
  H  H58  1  0.482679  0.304903  0.288921  1
  H  H59  1  0.320076  0.951922  0.834275  1
  H  H60  1  0.288811  0.950638  0.208649  1
  H  H61  1  0.489294  0.197721  0.163933  1
  H  H62  1  0.953442  0.554131  0.929959  1
  H  H63  1  0.510706  0.802279  0.836067  1
  H  H64  1  0.788811  0.049362  0.291351  1
  H  H65  1  0.977038  0.997947  0.243843  1
  H  H66  1  0.482679  0.804903  0.211079  1
  H  H67  1  0.288811  0.450638  0.291351  1
  C  C68  1  0.529545  0.054826  0.163242  1
  C  C69  1  0.060979  0.446794  0.787411  1
  C  C70  1  0.470455  0.945174  0.836758  1
  C  C71  1  0.060979  0.946794  0.712589  1
  C  C72  1  0.560979  0.553206  0.712589  1
  C  C73  1  0.970455  0.554826  0.836758  1
  C  C74  1  0.560979  0.053206  0.787411  1
  C  C75  1  0.029545  0.445174  0.163242  1
  C  C76  1  0.439021  0.446794  0.287411  1
  C  C77  1  0.939021  0.553206  0.212589  1
  C  C78  1  0.939021  0.053206  0.287411  1
  C  C79  1  0.029545  0.945174  0.336758  1
  C  C80  1  0.439021  0.946794  0.212589  1
  C  C81  1  0.470455  0.445174  0.663242  1
  C  C82  1  0.529545  0.554826  0.336758  1
  C  C83  1  0.970455  0.054826  0.663242  1
  N  N84  1  0.977744  0.516740  0.103420  1
  N  N85  1  0.477744  0.483260  0.396580  1
  N  N86  1  0.522256  0.016740  0.896580  1
  N  N87  1  0.022256  0.483260  0.896580  1
  N  N88  1  0.022256  0.983260  0.603420  1
  N  N89  1  0.522256  0.516740  0.603420  1
  N  N90  1  0.477744  0.983260  0.103420  1
  N  N91  1  0.977744  0.016740  0.396580  1
  Cl  Cl92  1  0.519297  0.546802  0.108752  1
  Cl  Cl93  1  0.019297  0.953198  0.108752  1
  Cl  Cl94  1  0.480703  0.953198  0.608752  1
  Cl  Cl95  1  0.775908  0.222545  0.513331  1
  Cl  Cl96  1  0.724092  0.222545  0.013331  1
  Cl  Cl97  1  0.224092  0.277455  0.013331  1
  Cl  Cl98  1  0.775908  0.722545  0.986669  1
  Cl  Cl99  1  0.980703  0.546802  0.608752  1
  Cl  Cl100  1  0.275908  0.277455  0.513331  1
  Cl  Cl101  1  0.224092  0.777455  0.486669  1
  Cl  Cl102  1  0.275908  0.777455  0.986669  1
  Cl  Cl103  1  0.019297  0.453198  0.391248  1
  Cl  Cl104  1  0.980703  0.046802  0.891248  1
  Cl  Cl105  1  0.480703  0.453198  0.891248  1
  Cl  Cl106  1  0.519297  0.046802  0.391248  1
  Cl  Cl107  1  0.724092  0.722545  0.486669  1
