# generated using pymatgen
data_KZrF5
_symmetry_space_group_name_H-M   'P 1'
_cell_length_a   7.50441885
_cell_length_b   8.62215723
_cell_length_c   10.91779759
_cell_angle_alpha   75.21117657
_cell_angle_beta   71.72643655
_cell_angle_gamma   66.21247088
_symmetry_Int_Tables_number   1
_chemical_formula_structural   KZrF5
_chemical_formula_sum   'K6 Zr6 F30'
_cell_volume   607.03709344
_cell_formula_units_Z   6
loop_
 _symmetry_equiv_pos_site_id
 _symmetry_equiv_pos_as_xyz
  1  'x, y, z'
loop_
 _atom_site_type_symbol
 _atom_site_label
 _atom_site_symmetry_multiplicity
 _atom_site_fract_x
 _atom_site_fract_y
 _atom_site_fract_z
 _atom_site_occupancy
  K  K0  1  0.716256  0.506220  0.767158  1
  K  K1  1  0.745471  0.157175  0.071576  1
  K  K2  1  0.223207  0.177581  0.579050  1
  K  K3  1  0.776793  0.822419  0.420950  1
  K  K4  1  0.254529  0.842825  0.928424  1
  K  K5  1  0.283744  0.493780  0.232842  1
  Zr  Zr6  1  0.766191  0.659194  0.080656  1
  Zr  Zr7  1  0.740430  0.333231  0.431281  1
  Zr  Zr8  1  0.259570  0.666769  0.568719  1
  Zr  Zr9  1  0.281207  0.971948  0.254932  1
  Zr  Zr10  1  0.233809  0.340806  0.919344  1
  Zr  Zr11  1  0.718793  0.028052  0.745068  1
  F  F12  1  0.628911  0.127479  0.556184  1
  F  F13  1  0.979741  0.720917  0.112301  1
  F  F14  1  0.326151  0.127268  0.060740  1
  F  F15  1  0.819733  0.241280  0.622476  1
  F  F16  1  0.035652  0.577001  0.598204  1
  F  F17  1  0.389976  0.114856  0.801729  1
  F  F18  1  0.008498  0.112291  0.386938  1
  F  F19  1  0.664214  0.510436  0.024115  1
  F  F20  1  0.578742  0.235698  0.861285  1
  F  F21  1  0.685205  0.245447  0.298709  1
  F  F22  1  0.991850  0.597777  0.898091  1
  F  F23  1  0.059631  0.991570  0.177365  1
  F  F24  1  0.610024  0.885144  0.198271  1
  F  F25  1  0.592427  0.557792  0.535394  1
  F  F26  1  0.345146  0.165529  0.282554  1
  F  F27  1  0.407573  0.442208  0.464606  1
  F  F28  1  0.673849  0.872732  0.939260  1
  F  F29  1  0.020259  0.279083  0.887699  1
  F  F30  1  0.008150  0.402223  0.101909  1
  F  F31  1  0.180267  0.758720  0.377524  1
  F  F32  1  0.654854  0.834471  0.717446  1
  F  F33  1  0.685220  0.552192  0.276729  1
  F  F34  1  0.991502  0.887709  0.613062  1
  F  F35  1  0.421258  0.764302  0.138715  1
  F  F36  1  0.314780  0.447808  0.723271  1
  F  F37  1  0.964348  0.422999  0.401796  1
  F  F38  1  0.940369  0.008430  0.822635  1
  F  F39  1  0.335786  0.489564  0.975885  1
  F  F40  1  0.314795  0.754553  0.701291  1
  F  F41  1  0.371089  0.872521  0.443816  1
