# generated using pymatgen
data_Ca18Nd2Si3P9(O16F)3
_symmetry_space_group_name_H-M   'P 1'
_cell_length_a   9.53799817
_cell_length_b   13.89648232
_cell_length_c   9.57541649
_cell_angle_alpha   90.00000000
_cell_angle_beta   119.82777598
_cell_angle_gamma   90.00000000
_symmetry_Int_Tables_number   1
_chemical_formula_structural   Ca18Nd2Si3P9(O16F)3
_chemical_formula_sum   'Ca18 Nd2 Si3 P9 O48 F3'
_cell_volume   1101.03595047
_cell_formula_units_Z   1
loop_
 _symmetry_equiv_pos_site_id
 _symmetry_equiv_pos_as_xyz
  1  'x, y, z'
loop_
 _atom_site_type_symbol
 _atom_site_label
 _atom_site_symmetry_multiplicity
 _atom_site_fract_x
 _atom_site_fract_y
 _atom_site_fract_z
 _atom_site_occupancy
  Ca  Ca0  1  0.002395  0.249941  0.245693  1
  Ca  Ca1  1  0.002395  0.750059  0.245693  1
  Ca  Ca2  1  0.242325  0.250440  0.999329  1
  Ca  Ca3  1  0.242325  0.749560  0.999329  1
  Ca  Ca4  1  0.660490  0.375136  0.324866  1
  Ca  Ca5  1  0.666156  0.875744  0.330106  1
  Ca  Ca6  1  0.666156  0.124256  0.330106  1
  Ca  Ca7  1  0.660490  0.624864  0.324866  1
  Ca  Ca8  1  0.276992  0.500000  0.273262  1
  Ca  Ca9  1  0.755133  0.250276  0.754289  1
  Ca  Ca10  1  0.755133  0.749724  0.754289  1
  Ca  Ca11  1  0.326408  0.122131  0.667850  1
  Ca  Ca12  1  0.330116  0.624467  0.667195  1
  Ca  Ca13  1  0.326408  0.877869  0.667850  1
  Ca  Ca14  1  0.330116  0.375533  0.667195  1
  Ca  Ca15  1  0.715388  0.500000  0.994422  1
  Ca  Ca16  1  0.004877  0.000000  0.740375  1
  Ca  Ca17  1  0.014147  0.500000  0.728211  1
  Nd  Nd18  1  0.240669  0.000000  0.247035  1
  Nd  Nd19  1  0.749628  0.000000  0.997982  1
  Si  Si20  1  0.393162  0.000000  0.028794  1
  Si  Si21  1  0.380953  0.500000  0.025405  1
  Si  Si22  1  0.975149  0.000000  0.364559  1
  P  P23  1  0.972220  0.500000  0.353737  1
  P  P24  1  0.376698  0.251759  0.407092  1
  P  P25  1  0.376698  0.748241  0.407092  1
  P  P26  1  0.636173  0.000000  0.610471  1
  P  P27  1  0.648408  0.500000  0.620420  1
  P  P28  1  0.026228  0.249982  0.625289  1
  P  P29  1  0.026228  0.750018  0.625289  1
  P  P30  1  0.596654  0.251234  0.970051  1
  P  P31  1  0.596654  0.748766  0.970051  1
  O  O32  1  0.919556  0.907706  0.238382  1
  O  O33  1  0.919676  0.411069  0.240453  1
  O  O34  1  0.919556  0.092294  0.238382  1
  O  O35  1  0.919676  0.588931  0.240453  1
  O  O36  1  0.667070  0.251137  0.154575  1
  O  O37  1  0.667070  0.748863  0.154575  1
  O  O38  1  0.593678  0.000000  0.126008  1
  O  O39  1  0.581742  0.500000  0.129757  1
  O  O40  1  0.336469  0.093288  0.095829  1
  O  O41  1  0.317896  0.593210  0.085004  1
  O  O42  1  0.336469  0.906712  0.095829  1
  O  O43  1  0.317896  0.406790  0.085004  1
  O  O44  1  0.873015  0.000000  0.460424  1
  O  O45  1  0.877107  0.500000  0.448398  1
  O  O46  1  0.495318  0.252279  0.341536  1
  O  O47  1  0.495318  0.747721  0.341536  1
  O  O48  1  0.841154  0.251141  0.509800  1
  O  O49  1  0.841154  0.748859  0.509800  1
  O  O50  1  0.535412  0.000000  0.422070  1
  O  O51  1  0.556687  0.500000  0.431549  1
  O  O52  1  0.265990  0.341749  0.355484  1
  O  O53  1  0.262144  0.837260  0.343054  1
  O  O54  1  0.265990  0.658251  0.355484  1
  O  O55  1  0.262144  0.162740  0.343054  1
  O  O56  1  0.746976  0.910189  0.667164  1
  O  O57  1  0.762067  0.411283  0.682354  1
  O  O58  1  0.746976  0.089811  0.667164  1
  O  O59  1  0.762067  0.588717  0.682354  1
  O  O60  1  0.468607  0.247687  0.594649  1
  O  O61  1  0.468607  0.752313  0.594649  1
  O  O62  1  0.172060  0.000000  0.481344  1
  O  O63  1  0.156141  0.500000  0.475712  1
  O  O64  1  0.522834  0.000000  0.683922  1
  O  O65  1  0.523099  0.500000  0.679102  1
  O  O66  1  0.120172  0.248532  0.530282  1
  O  O67  1  0.120172  0.751468  0.530282  1
  O  O68  1  0.652754  0.340405  0.913454  1
  O  O69  1  0.655613  0.838645  0.915979  1
  O  O70  1  0.655613  0.161355  0.915979  1
  O  O71  1  0.652754  0.659595  0.913454  1
  O  O72  1  0.408649  0.750281  0.877726  1
  O  O73  1  0.408649  0.249719  0.877726  1
  O  O74  1  0.317995  0.000000  0.834139  1
  O  O75  1  0.317586  0.500000  0.830928  1
  O  O76  1  0.079961  0.161225  0.738525  1
  O  O77  1  0.083174  0.659572  0.734916  1
  O  O78  1  0.083174  0.340428  0.734916  1
  O  O79  1  0.079961  0.838775  0.738525  1
  F  F80  1  0.996617  0.251439  0.999491  1
  F  F81  1  0.996617  0.748561  0.999491  1
  F  F82  1  0.999942  0.000000  0.991137  1
