# generated using pymatgen
data_Ba3Bi(ClO)3
_symmetry_space_group_name_H-M   'P 1'
_cell_length_a   7.15034249
_cell_length_b   12.21992613
_cell_length_c   12.46783599
_cell_angle_alpha   90.00000000
_cell_angle_beta   90.00000000
_cell_angle_gamma   90.00000000
_symmetry_Int_Tables_number   1
_chemical_formula_structural   Ba3Bi(ClO)3
_chemical_formula_sum   'Ba12 Bi4 Cl12 O12'
_cell_volume   1089.39782923
_cell_formula_units_Z   4
loop_
 _symmetry_equiv_pos_site_id
 _symmetry_equiv_pos_as_xyz
  1  'x, y, z'
loop_
 _atom_site_type_symbol
 _atom_site_label
 _atom_site_symmetry_multiplicity
 _atom_site_fract_x
 _atom_site_fract_y
 _atom_site_fract_z
 _atom_site_occupancy
  Ba  Ba0  1  0.169219  0.068052  0.887146  1
  Ba  Ba1  1  0.650430  0.250000  0.968979  1
  Ba  Ba2  1  0.669219  0.068052  0.612854  1
  Ba  Ba3  1  0.169219  0.431948  0.887146  1
  Ba  Ba4  1  0.330781  0.931948  0.387146  1
  Ba  Ba5  1  0.349570  0.750000  0.031021  1
  Ba  Ba6  1  0.830781  0.568052  0.112854  1
  Ba  Ba7  1  0.330781  0.568052  0.387146  1
  Ba  Ba8  1  0.830781  0.931948  0.112854  1
  Ba  Ba9  1  0.150430  0.250000  0.531021  1
  Ba  Ba10  1  0.669219  0.431948  0.612854  1
  Ba  Ba11  1  0.849570  0.750000  0.468979  1
  Bi  Bi12  1  0.096029  0.250000  0.121387  1
  Bi  Bi13  1  0.596029  0.250000  0.378613  1
  Bi  Bi14  1  0.903971  0.750000  0.878613  1
  Bi  Bi15  1  0.403971  0.750000  0.621387  1
  Cl  Cl16  1  0.894723  0.002537  0.362323  1
  Cl  Cl17  1  0.084991  0.750000  0.232421  1
  Cl  Cl18  1  0.105277  0.502537  0.637677  1
  Cl  Cl19  1  0.584991  0.750000  0.267579  1
  Cl  Cl20  1  0.605277  0.997463  0.862323  1
  Cl  Cl21  1  0.915009  0.250000  0.767579  1
  Cl  Cl22  1  0.394723  0.002537  0.137677  1
  Cl  Cl23  1  0.394723  0.497463  0.137677  1
  Cl  Cl24  1  0.605277  0.502537  0.862323  1
  Cl  Cl25  1  0.894723  0.497463  0.362323  1
  Cl  Cl26  1  0.415009  0.250000  0.732421  1
  Cl  Cl27  1  0.105277  0.997463  0.637677  1
  O  O28  1  0.072081  0.873229  0.949445  1
  O  O29  1  0.427919  0.373229  0.449445  1
  O  O30  1  0.927919  0.126771  0.050555  1
  O  O31  1  0.572081  0.626771  0.550555  1
  O  O32  1  0.713799  0.750000  0.006818  1
  O  O33  1  0.286201  0.250000  0.993182  1
  O  O34  1  0.786201  0.250000  0.506818  1
  O  O35  1  0.927919  0.373229  0.050555  1
  O  O36  1  0.572081  0.873229  0.550555  1
  O  O37  1  0.427919  0.126771  0.449445  1
  O  O38  1  0.213799  0.750000  0.493182  1
  O  O39  1  0.072081  0.626771  0.949445  1
