# generated using pymatgen
data_Mg17(As3O16)2
_symmetry_space_group_name_H-M   'P 1'
_cell_length_a   9.96081703
_cell_length_b   12.18876923
_cell_length_c   10.60937976
_cell_angle_alpha   90.00000000
_cell_angle_beta   110.75095504
_cell_angle_gamma   90.00000000
_symmetry_Int_Tables_number   1
_chemical_formula_structural   Mg17(As3O16)2
_chemical_formula_sum   'Mg34 As12 O64'
_cell_volume   1204.52683286
_cell_formula_units_Z   2
loop_
 _symmetry_equiv_pos_site_id
 _symmetry_equiv_pos_as_xyz
  1  'x, y, z'
loop_
 _atom_site_type_symbol
 _atom_site_label
 _atom_site_symmetry_multiplicity
 _atom_site_fract_x
 _atom_site_fract_y
 _atom_site_fract_z
 _atom_site_occupancy
  Mg  Mg0  1  0.255677  0.000020  0.745846  1
  Mg  Mg1  1  0.254863  0.120633  0.505308  1
  Mg  Mg2  1  0.734366  0.999399  0.747131  1
  Mg  Mg3  1  0.000000  0.000000  0.000000  1
  Mg  Mg4  1  0.001147  0.741687  0.001676  1
  Mg  Mg5  1  0.998315  0.120996  0.739917  1
  Mg  Mg6  1  0.265634  0.000601  0.252869  1
  Mg  Mg7  1  0.265494  0.751721  0.256192  1
  Mg  Mg8  1  0.264855  0.875194  0.005387  1
  Mg  Mg9  1  0.745137  0.879367  0.494692  1
  Mg  Mg10  1  0.744323  0.999980  0.254154  1
  Mg  Mg11  1  0.731451  0.750530  0.243884  1
  Mg  Mg12  1  0.001147  0.758313  0.501676  1
  Mg  Mg13  1  0.000000  0.500000  0.500000  1
  Mg  Mg14  1  0.001685  0.879004  0.260083  1
  Mg  Mg15  1  0.265494  0.748279  0.756192  1
  Mg  Mg16  1  0.265634  0.499399  0.752869  1
  Mg  Mg17  1  0.264855  0.624806  0.505387  1
  Mg  Mg18  1  0.745137  0.620633  0.994692  1
  Mg  Mg19  1  0.731451  0.749470  0.743884  1
  Mg  Mg20  1  0.744323  0.500020  0.754154  1
  Mg  Mg21  1  0.998315  0.379004  0.239917  1
  Mg  Mg22  1  0.998853  0.258313  0.998324  1
  Mg  Mg23  1  0.001685  0.620996  0.760083  1
  Mg  Mg24  1  0.255677  0.499980  0.245846  1
  Mg  Mg25  1  0.268549  0.250530  0.256116  1
  Mg  Mg26  1  0.254863  0.379367  0.005308  1
  Mg  Mg27  1  0.735145  0.375194  0.494613  1
  Mg  Mg28  1  0.734366  0.500601  0.247131  1
  Mg  Mg29  1  0.734506  0.251721  0.243808  1
  Mg  Mg30  1  0.998853  0.241687  0.498324  1
  Mg  Mg31  1  0.268549  0.249470  0.756116  1
  Mg  Mg32  1  0.735145  0.124806  0.994613  1
  Mg  Mg33  1  0.734506  0.248279  0.743808  1
  As  As34  1  0.000577  0.126125  0.248911  1
  As  As35  1  0.999423  0.873875  0.751089  1
  As  As36  1  0.576658  0.875198  0.943339  1
  As  As37  1  0.999423  0.626125  0.251089  1
  As  As38  1  0.423342  0.124802  0.056661  1
  As  As39  1  0.576658  0.624802  0.443339  1
  As  As40  1  0.000577  0.373875  0.748911  1
  As  As41  1  0.422225  0.874711  0.557027  1
  As  As42  1  0.577775  0.374711  0.942973  1
  As  As43  1  0.422225  0.625289  0.057027  1
  As  As44  1  0.577775  0.125289  0.442973  1
  As  As45  1  0.423342  0.375198  0.556661  1
  O  O46  1  0.879358  0.980660  0.649096  1
  O  O47  1  0.878973  0.132398  0.344249  1
  O  O48  1  0.387752  0.875346  0.879369  1
  O  O49  1  0.366421  0.990129  0.615466  1
  O  O50  1  0.632876  0.990717  0.883882  1
  O  O51  1  0.633492  0.124578  0.615208  1
  O  O52  1  0.883985  0.016409  0.136622  1
  O  O53  1  0.884136  0.734893  0.139475  1
  O  O54  1  0.865710  0.124174  0.871752  1
  O  O55  1  0.885433  0.872913  0.861650  1
  O  O56  1  0.134290  0.875826  0.128248  1
  O  O57  1  0.116015  0.983591  0.863378  1
  O  O58  1  0.366508  0.875422  0.384792  1
  O  O59  1  0.387752  0.624654  0.379369  1
  O  O60  1  0.367124  0.009283  0.116118  1
  O  O61  1  0.367437  0.741327  0.116129  1
  O  O62  1  0.633579  0.009871  0.384534  1
  O  O63  1  0.631836  0.741025  0.385540  1
  O  O64  1  0.612248  0.124654  0.120631  1
  O  O65  1  0.631854  0.877354  0.115159  1
  O  O66  1  0.884136  0.765107  0.639475  1
  O  O67  1  0.883985  0.483591  0.636622  1
  O  O68  1  0.857801  0.867132  0.363626  1
  O  O69  1  0.885433  0.627087  0.361650  1
  O  O70  1  0.121027  0.867602  0.655751  1
  O  O71  1  0.134290  0.624174  0.628248  1
  O  O72  1  0.120642  0.019340  0.350904  1
  O  O73  1  0.115177  0.737239  0.367222  1
  O  O74  1  0.366508  0.624578  0.884792  1
  O  O75  1  0.389334  0.374955  0.880402  1
  O  O76  1  0.367437  0.758673  0.616129  1
  O  O77  1  0.367124  0.490717  0.616118  1
  O  O78  1  0.631836  0.758975  0.885540  1
  O  O79  1  0.633579  0.490129  0.884534  1
  O  O80  1  0.610666  0.874955  0.619598  1
  O  O81  1  0.631854  0.622646  0.615159  1
  O  O82  1  0.879358  0.519340  0.149096  1
  O  O83  1  0.884823  0.237239  0.132778  1
  O  O84  1  0.857801  0.632868  0.863626  1
  O  O85  1  0.878973  0.367602  0.844249  1
  O  O86  1  0.121027  0.632398  0.155751  1
  O  O87  1  0.142199  0.367132  0.136374  1
  O  O88  1  0.115177  0.762761  0.867222  1
  O  O89  1  0.120642  0.480660  0.850904  1
  O  O90  1  0.368146  0.377354  0.384841  1
  O  O91  1  0.389334  0.125045  0.380402  1
  O  O92  1  0.366421  0.509871  0.115466  1
  O  O93  1  0.368164  0.241025  0.114460  1
  O  O94  1  0.632876  0.509283  0.383882  1
  O  O95  1  0.632563  0.241327  0.383871  1
  O  O96  1  0.610666  0.625045  0.119598  1
  O  O97  1  0.633492  0.375422  0.115208  1
  O  O98  1  0.884823  0.262761  0.632778  1
  O  O99  1  0.865710  0.375826  0.371752  1
  O  O100  1  0.114567  0.372913  0.638350  1
  O  O101  1  0.142199  0.132868  0.636374  1
  O  O102  1  0.116015  0.516409  0.363378  1
  O  O103  1  0.115864  0.234893  0.360525  1
  O  O104  1  0.368146  0.122646  0.884841  1
  O  O105  1  0.368164  0.258975  0.614460  1
  O  O106  1  0.632563  0.258673  0.883871  1
  O  O107  1  0.612248  0.375346  0.620631  1
  O  O108  1  0.114567  0.127087  0.138350  1
  O  O109  1  0.115864  0.265107  0.860525  1
