# generated using pymatgen
data_NbBi4BrO8
_symmetry_space_group_name_H-M   'P 1'
_cell_length_a   5.58037330
_cell_length_b   5.64904261
_cell_length_c   29.78132492
_cell_angle_alpha   90.00000000
_cell_angle_beta   90.00000000
_cell_angle_gamma   90.00000000
_symmetry_Int_Tables_number   1
_chemical_formula_structural   NbBi4BrO8
_chemical_formula_sum   'Nb4 Bi16 Br4 O32'
_cell_volume   938.81953437
_cell_formula_units_Z   4
loop_
 _symmetry_equiv_pos_site_id
 _symmetry_equiv_pos_as_xyz
  1  'x, y, z'
loop_
 _atom_site_type_symbol
 _atom_site_label
 _atom_site_symmetry_multiplicity
 _atom_site_fract_x
 _atom_site_fract_y
 _atom_site_fract_z
 _atom_site_occupancy
  Nb  Nb0  1  0.000000  0.008113  0.250000  1
  Nb  Nb1  1  0.000000  0.991887  0.750000  1
  Nb  Nb2  1  0.500000  0.508113  0.250000  1
  Nb  Nb3  1  0.500000  0.491887  0.750000  1
  Bi  Bi4  1  0.487895  0.506650  0.572547  1
  Bi  Bi5  1  0.487895  0.493350  0.072547  1
  Bi  Bi6  1  0.521238  0.946067  0.159245  1
  Bi  Bi7  1  0.012105  0.993350  0.072547  1
  Bi  Bi8  1  0.512105  0.506650  0.927453  1
  Bi  Bi9  1  0.521238  0.053933  0.659245  1
  Bi  Bi10  1  0.021238  0.446067  0.340755  1
  Bi  Bi11  1  0.021238  0.553933  0.840755  1
  Bi  Bi12  1  0.987895  0.006650  0.927453  1
  Bi  Bi13  1  0.978762  0.446067  0.159245  1
  Bi  Bi14  1  0.987895  0.993350  0.427453  1
  Bi  Bi15  1  0.512105  0.493350  0.427453  1
  Bi  Bi16  1  0.478762  0.946067  0.340755  1
  Bi  Bi17  1  0.012105  0.006650  0.572547  1
  Bi  Bi18  1  0.478762  0.053933  0.840755  1
  Bi  Bi19  1  0.978762  0.553933  0.659245  1
  Br  Br20  1  0.000000  0.500000  0.000000  1
  Br  Br21  1  0.000000  0.500000  0.500000  1
  Br  Br22  1  0.500000  0.000000  0.000000  1
  Br  Br23  1  0.500000  0.000000  0.500000  1
  O  O24  1  0.251563  0.300122  0.233129  1
  O  O25  1  0.748746  0.753403  0.107983  1
  O  O26  1  0.604696  0.580323  0.186994  1
  O  O27  1  0.395304  0.419677  0.813006  1
  O  O28  1  0.395304  0.580323  0.313006  1
  O  O29  1  0.753051  0.754171  0.889927  1
  O  O30  1  0.748437  0.300122  0.266871  1
  O  O31  1  0.751563  0.800122  0.266871  1
  O  O32  1  0.895304  0.080323  0.186994  1
  O  O33  1  0.253051  0.745829  0.110073  1
  O  O34  1  0.751254  0.253403  0.107983  1
  O  O35  1  0.246949  0.754171  0.610073  1
  O  O36  1  0.251254  0.753403  0.392017  1
  O  O37  1  0.746949  0.254171  0.889927  1
  O  O38  1  0.251563  0.699878  0.733129  1
  O  O39  1  0.748437  0.699878  0.766871  1
  O  O40  1  0.753051  0.245829  0.389927  1
  O  O41  1  0.751563  0.199878  0.766871  1
  O  O42  1  0.751254  0.746597  0.607983  1
  O  O43  1  0.251254  0.246597  0.892017  1
  O  O44  1  0.104696  0.919677  0.813006  1
  O  O45  1  0.248437  0.199878  0.733129  1
  O  O46  1  0.895304  0.919677  0.686994  1
  O  O47  1  0.746949  0.745829  0.389927  1
  O  O48  1  0.104696  0.080323  0.313006  1
  O  O49  1  0.248437  0.800122  0.233129  1
  O  O50  1  0.604696  0.419677  0.686994  1
  O  O51  1  0.748746  0.246597  0.607983  1
  O  O52  1  0.246949  0.245829  0.110073  1
  O  O53  1  0.248746  0.253403  0.392017  1
  O  O54  1  0.248746  0.746597  0.892017  1
  O  O55  1  0.253051  0.254171  0.610073  1
