# generated using pymatgen
data_NaFe(SeO4)2
_symmetry_space_group_name_H-M   'P 1'
_cell_length_a   5.02526946
_cell_length_b   5.02526946
_cell_length_c   7.31937245
_cell_angle_alpha   88.45859986
_cell_angle_beta   91.54140014
_cell_angle_gamma   113.30606121
_symmetry_Int_Tables_number   1
_chemical_formula_structural   NaFe(SeO4)2
_chemical_formula_sum   'Na1 Fe1 Se2 O8'
_cell_volume   169.66853005
_cell_formula_units_Z   1
loop_
 _symmetry_equiv_pos_site_id
 _symmetry_equiv_pos_as_xyz
  1  'x, y, z'
loop_
 _atom_site_type_symbol
 _atom_site_label
 _atom_site_symmetry_multiplicity
 _atom_site_fract_x
 _atom_site_fract_y
 _atom_site_fract_z
 _atom_site_occupancy
  Na  Na0  1  1.000000  0.000000  0.500000  1
  Fe  Fe1  1  0.000000  0.000000  0.000000  1
  Se  Se2  1  0.637658  0.362342  0.776999  1
  Se  Se3  1  0.362342  0.637658  0.223001  1
  O  O4  1  0.232821  0.271772  0.204992  1
  O  O5  1  0.716149  0.283851  0.575683  1
  O  O6  1  0.767179  0.728228  0.795008  1
  O  O7  1  0.728228  0.767179  0.204992  1
  O  O8  1  0.235423  0.764577  0.041050  1
  O  O9  1  0.271772  0.232821  0.795008  1
  O  O10  1  0.764577  0.235423  0.958950  1
  O  O11  1  0.283851  0.716149  0.424317  1
