# generated using pymatgen
data_SrCuAs2O7
_symmetry_space_group_name_H-M   'P 1'
_cell_length_a   5.71585670
_cell_length_b   8.38065759
_cell_length_c   14.04577995
_cell_angle_alpha   90.00000000
_cell_angle_beta   111.75587930
_cell_angle_gamma   90.00000000
_symmetry_Int_Tables_number   1
_chemical_formula_structural   SrCuAs2O7
_chemical_formula_sum   'Sr4 Cu4 As8 O28'
_cell_volume   624.90526060
_cell_formula_units_Z   4
loop_
 _symmetry_equiv_pos_site_id
 _symmetry_equiv_pos_as_xyz
  1  'x, y, z'
loop_
 _atom_site_type_symbol
 _atom_site_label
 _atom_site_symmetry_multiplicity
 _atom_site_fract_x
 _atom_site_fract_y
 _atom_site_fract_z
 _atom_site_occupancy
  Sr  Sr0  1  0.491301  0.658725  0.782660  1
  Sr  Sr1  1  0.508699  0.341275  0.217340  1
  Sr  Sr2  1  0.491301  0.841275  0.282660  1
  Sr  Sr3  1  0.508699  0.158725  0.717340  1
  Cu  Cu4  1  0.824962  0.857980  0.619248  1
  Cu  Cu5  1  0.175038  0.357980  0.880752  1
  Cu  Cu6  1  0.175038  0.142020  0.380752  1
  Cu  Cu7  1  0.824962  0.642020  0.119248  1
  As  As8  1  0.830784  0.181436  0.505333  1
  As  As9  1  0.904007  0.033157  0.157107  1
  As  As10  1  0.830784  0.318564  0.005333  1
  As  As11  1  0.904007  0.466843  0.657107  1
  As  As12  1  0.169216  0.818564  0.494667  1
  As  As13  1  0.095993  0.966843  0.842893  1
  As  As14  1  0.095993  0.533157  0.342893  1
  As  As15  1  0.169216  0.681436  0.994667  1
  O  O16  1  0.341826  0.553680  0.304715  1
  O  O17  1  0.598723  0.159330  0.389523  1
  O  O18  1  0.813103  0.108758  0.030224  1
  O  O19  1  0.401277  0.840670  0.610477  1
  O  O20  1  0.186897  0.891242  0.969776  1
  O  O21  1  0.140770  0.351855  0.017975  1
  O  O22  1  0.221745  0.592022  0.893358  1
  O  O23  1  0.994002  0.157437  0.847286  1
  O  O24  1  0.221745  0.907978  0.393358  1
  O  O25  1  0.859230  0.648145  0.982025  1
  O  O26  1  0.826764  0.630819  0.265416  1
  O  O27  1  0.826764  0.869181  0.765416  1
  O  O28  1  0.005998  0.842563  0.152714  1
  O  O29  1  0.173236  0.369181  0.734584  1
  O  O30  1  0.813103  0.391242  0.530224  1
  O  O31  1  0.778255  0.407978  0.106642  1
  O  O32  1  0.140770  0.148145  0.517975  1
  O  O33  1  0.598723  0.340670  0.889523  1
  O  O34  1  0.994002  0.342563  0.347286  1
  O  O35  1  0.658174  0.446320  0.695285  1
  O  O36  1  0.173236  0.130819  0.234584  1
  O  O37  1  0.341826  0.946320  0.804715  1
  O  O38  1  0.778255  0.092022  0.606642  1
  O  O39  1  0.859230  0.851855  0.482025  1
  O  O40  1  0.401277  0.659330  0.110477  1
  O  O41  1  0.005998  0.657437  0.652714  1
  O  O42  1  0.186897  0.608758  0.469776  1
  O  O43  1  0.658174  0.053680  0.195285  1
