# generated using pymatgen
data_NaNd(Si3O7)2
_symmetry_space_group_name_H-M   'P 1'
_cell_length_a   13.22856501
_cell_length_b   13.22856501
_cell_length_c   13.22856501
_cell_angle_alpha   145.94293772
_cell_angle_beta   107.77440737
_cell_angle_gamma   82.31364211
_symmetry_Int_Tables_number   1
_chemical_formula_structural   NaNd(Si3O7)2
_chemical_formula_sum   'Na4 Nd4 Si24 O56'
_cell_volume   1203.30854929
_cell_formula_units_Z   4
loop_
 _symmetry_equiv_pos_site_id
 _symmetry_equiv_pos_as_xyz
  1  'x, y, z'
loop_
 _atom_site_type_symbol
 _atom_site_label
 _atom_site_symmetry_multiplicity
 _atom_site_fract_x
 _atom_site_fract_y
 _atom_site_fract_z
 _atom_site_occupancy
  Na  Na0  1  0.750000  0.750000  0.000000  1
  Na  Na1  1  0.500000  0.000000  0.500000  1
  Na  Na2  1  0.250000  0.250000  0.000000  1
  Na  Na3  1  0.000000  0.500000  0.500000  1
  Nd  Nd4  1  0.521451  0.750000  0.771451  1
  Nd  Nd5  1  0.478549  0.250000  0.228549  1
  Nd  Nd6  1  0.021451  0.250000  0.771451  1
  Nd  Nd7  1  0.978549  0.750000  0.228549  1
  Si  Si8  1  0.232883  0.701034  0.228964  1
  Si  Si9  1  0.775062  0.114518  0.182882  1
  Si  Si10  1  0.767117  0.298966  0.771036  1
  Si  Si11  1  0.568364  0.385482  0.660544  1
  Si  Si12  1  0.666094  0.268011  0.934105  1
  Si  Si13  1  0.267117  0.496081  0.468151  1
  Si  Si14  1  0.275062  0.092180  0.660544  1
  Si  Si15  1  0.724938  0.907820  0.339456  1
  Si  Si16  1  0.027930  0.798966  0.531849  1
  Si  Si17  1  0.931636  0.592180  0.817118  1
  Si  Si18  1  0.166094  0.231989  0.398083  1
  Si  Si19  1  0.224938  0.885482  0.817118  1
  Si  Si20  1  0.366423  0.321812  0.688235  1
  Si  Si21  1  0.068364  0.407820  0.182882  1
  Si  Si22  1  0.333906  0.731989  0.065895  1
  Si  Si23  1  0.732883  0.503919  0.531849  1
  Si  Si24  1  0.866423  0.178188  0.044611  1
  Si  Si25  1  0.633577  0.678188  0.311765  1
  Si  Si26  1  0.527930  0.996081  0.228964  1
  Si  Si27  1  0.833906  0.768011  0.601917  1
  Si  Si28  1  0.431636  0.614518  0.339456  1
  Si  Si29  1  0.972070  0.201034  0.468151  1
  Si  Si30  1  0.133577  0.821812  0.955389  1
  Si  Si31  1  0.472070  0.003919  0.771036  1
  O  O32  1  0.060766  0.268158  0.457925  1
  O  O33  1  0.564966  0.586162  0.787411  1
  O  O34  1  0.484051  0.308810  0.666283  1
  O  O35  1  0.115177  0.572647  0.065053  1
  O  O36  1  0.355319  0.046461  0.737358  1
  O  O37  1  0.642527  0.817768  0.333717  1
  O  O38  1  0.507594  0.050124  0.934947  1
  O  O39  1  0.204303  0.890928  0.427825  1
  O  O40  1  0.144681  0.882039  0.691142  1
  O  O41  1  0.636765  0.469089  0.105854  1
  O  O42  1  0.689767  0.231842  0.792608  1
  O  O43  1  0.992406  0.927353  0.542530  1
  O  O44  1  0.615177  0.550124  0.542530  1
  O  O45  1  0.863235  0.969089  0.832324  1
  O  O46  1  0.363235  0.530911  0.894146  1
  O  O47  1  0.939234  0.731842  0.542075  1
  O  O48  1  0.435034  0.413838  0.212589  1
  O  O49  1  0.189767  0.397159  0.457925  1
  O  O50  1  0.136765  0.030911  0.167676  1
  O  O51  1  0.701249  0.913838  0.978804  1
  O  O52  1  0.269910  0.242008  0.511918  1
  O  O53  1  0.690897  0.382039  0.737358  1
  O  O54  1  0.855319  0.117961  0.308858  1
  O  O55  1  0.515949  0.691190  0.333717  1
  O  O56  1  0.984051  0.317768  0.175241  1
  O  O57  1  0.798751  0.777555  0.212589  1
  O  O58  1  0.536897  0.223522  0.427825  1
  O  O59  1  0.884823  0.427353  0.934947  1
  O  O60  1  0.230090  0.742008  0.972098  1
  O  O61  1  0.357473  0.182232  0.666283  1
  O  O62  1  0.190897  0.453539  0.308858  1
  O  O63  1  0.857473  0.191190  0.175241  1
  O  O64  1  0.730090  0.757992  0.488082  1
  O  O65  1  0.704303  0.276478  0.313375  1
  O  O66  1  0.142527  0.808810  0.824759  1
  O  O67  1  0.384823  0.449876  0.457470  1
  O  O68  1  0.935034  0.722445  0.021196  1
  O  O69  1  0.963103  0.390928  0.686625  1
  O  O70  1  0.007594  0.072647  0.457470  1
  O  O71  1  0.064966  0.277555  0.978804  1
  O  O72  1  0.560766  0.102841  0.792608  1
  O  O73  1  0.439234  0.897159  0.207392  1
  O  O74  1  0.795697  0.109072  0.572175  1
  O  O75  1  0.492406  0.949876  0.065053  1
  O  O76  1  0.463103  0.776478  0.572175  1
  O  O77  1  0.310233  0.768158  0.207392  1
  O  O78  1  0.810233  0.602841  0.542075  1
  O  O79  1  0.201249  0.222445  0.787411  1
  O  O80  1  0.298751  0.086162  0.021196  1
  O  O81  1  0.015949  0.682232  0.824759  1
  O  O82  1  0.769910  0.257992  0.027902  1
  O  O83  1  0.309103  0.617961  0.262642  1
  O  O84  1  0.036897  0.609072  0.313375  1
  O  O85  1  0.295697  0.723522  0.686625  1
  O  O86  1  0.644681  0.953539  0.262642  1
  O  O87  1  0.809103  0.546461  0.691142  1
