# generated using pymatgen
data_K5In3(SiO3)7
_symmetry_space_group_name_H-M   'P 1'
_cell_length_a   10.41993442
_cell_length_b   12.69873284
_cell_length_c   17.11805503
_cell_angle_alpha   90.00000000
_cell_angle_beta   90.00000000
_cell_angle_gamma   90.00000000
_symmetry_Int_Tables_number   1
_chemical_formula_structural   K5In3(SiO3)7
_chemical_formula_sum   'K20 In12 Si28 O84'
_cell_volume   2265.06041522
_cell_formula_units_Z   4
loop_
 _symmetry_equiv_pos_site_id
 _symmetry_equiv_pos_as_xyz
  1  'x, y, z'
loop_
 _atom_site_type_symbol
 _atom_site_label
 _atom_site_symmetry_multiplicity
 _atom_site_fract_x
 _atom_site_fract_y
 _atom_site_fract_z
 _atom_site_occupancy
  K  K0  1  0.407749  0.568074  0.895847  1
  K  K1  1  0.040710  0.386103  0.345748  1
  K  K2  1  0.263068  0.824120  0.553031  1
  K  K3  1  0.887364  0.906174  0.865340  1
  K  K4  1  0.907749  0.931926  0.395847  1
  K  K5  1  0.907749  0.431926  0.104153  1
  K  K6  1  0.430034  0.761881  0.159140  1
  K  K7  1  0.930034  0.238119  0.840860  1
  K  K8  1  0.387364  0.093826  0.134660  1
  K  K9  1  0.387364  0.593826  0.365340  1
  K  K10  1  0.407749  0.068074  0.604153  1
  K  K11  1  0.930034  0.738119  0.659140  1
  K  K12  1  0.540710  0.113897  0.845748  1
  K  K13  1  0.763068  0.175880  0.446969  1
  K  K14  1  0.763068  0.675880  0.053031  1
  K  K15  1  0.430034  0.261881  0.340860  1
  K  K16  1  0.540710  0.613897  0.654252  1
  K  K17  1  0.887364  0.406174  0.634660  1
  K  K18  1  0.040710  0.886103  0.154252  1
  K  K19  1  0.263068  0.324120  0.946969  1
  In  In20  1  0.776029  0.567523  0.859877  1
  In  In21  1  0.792626  0.141158  0.048959  1
  In  In22  1  0.289827  0.312087  0.732417  1
  In  In23  1  0.776029  0.067523  0.640123  1
  In  In24  1  0.789827  0.687913  0.267583  1
  In  In25  1  0.289827  0.812087  0.767583  1
  In  In26  1  0.292626  0.358842  0.548959  1
  In  In27  1  0.792626  0.641158  0.451041  1
  In  In28  1  0.292626  0.858842  0.951041  1
  In  In29  1  0.276029  0.432477  0.140123  1
  In  In30  1  0.276029  0.932477  0.359877  1
  In  In31  1  0.789827  0.187913  0.232417  1
  Si  Si32  1  0.565889  0.325945  0.106806  1
  Si  Si33  1  0.065889  0.174055  0.606806  1
  Si  Si34  1  0.702587  0.359698  0.957831  1
  Si  Si35  1  0.716899  0.428206  0.336266  1
  Si  Si36  1  0.088042  0.115013  0.292926  1
  Si  Si37  1  0.085022  0.052854  0.993779  1
  Si  Si38  1  0.588042  0.384987  0.792926  1
  Si  Si39  1  0.061942  0.980356  0.703941  1
  Si  Si40  1  0.585022  0.947146  0.006221  1
  Si  Si41  1  0.082115  0.214001  0.130965  1
  Si  Si42  1  0.716899  0.928206  0.163734  1
  Si  Si43  1  0.582115  0.285999  0.630965  1
  Si  Si44  1  0.565889  0.825945  0.393194  1
  Si  Si45  1  0.588042  0.884987  0.707074  1
  Si  Si46  1  0.061942  0.480356  0.796059  1
  Si  Si47  1  0.202587  0.640302  0.042169  1
  Si  Si48  1  0.088042  0.615013  0.207074  1
  Si  Si49  1  0.216899  0.571794  0.663734  1
  Si  Si50  1  0.585022  0.447146  0.493779  1
  Si  Si51  1  0.085022  0.552854  0.506221  1
  Si  Si52  1  0.702587  0.859698  0.542169  1
  Si  Si53  1  0.082115  0.714001  0.369035  1
  Si  Si54  1  0.065889  0.674055  0.893194  1
  Si  Si55  1  0.561942  0.019644  0.296059  1
  Si  Si56  1  0.216899  0.071794  0.836266  1
  Si  Si57  1  0.202587  0.140302  0.457831  1
  Si  Si58  1  0.582115  0.785999  0.869035  1
  Si  Si59  1  0.561942  0.519644  0.203941  1
  O  O60  1  0.798096  0.836851  0.206723  1
  O  O61  1  0.667800  0.383969  0.423493  1
  O  O62  1  0.425833  0.777262  0.863141  1
  O  O63  1  0.069479  0.162911  0.509837  1
  O  O64  1  0.798096  0.336851  0.293277  1
  O  O65  1  0.626102  0.888629  0.922819  1
  O  O66  1  0.247249  0.017639  0.464679  1
  O  O67  1  0.247249  0.517639  0.035321  1
  O  O68  1  0.925833  0.722738  0.363141  1
  O  O69  1  0.637179  0.131312  0.302659  1
  O  O70  1  0.164652  0.672600  0.133293  1
  O  O71  1  0.164652  0.172600  0.366707  1
  O  O72  1  0.298096  0.163149  0.793277  1
  O  O73  1  0.432758  0.434450  0.476486  1
  O  O74  1  0.298096  0.663149  0.706723  1
  O  O75  1  0.408986  0.038222  0.305797  1
  O  O76  1  0.126102  0.111371  0.077181  1
  O  O77  1  0.130520  0.492004  0.216725  1
  O  O78  1  0.140718  0.688485  0.281141  1
  O  O79  1  0.137179  0.368688  0.802659  1
  O  O80  1  0.626286  0.439196  0.138604  1
  O  O81  1  0.747249  0.982361  0.535321  1
  O  O82  1  0.129045  0.931060  0.001661  1
  O  O83  1  0.801619  0.535740  0.347601  1
  O  O84  1  0.626102  0.388629  0.577181  1
  O  O85  1  0.301619  0.464260  0.652399  1
  O  O86  1  0.932758  0.565550  0.523514  1
  O  O87  1  0.626286  0.939196  0.361396  1
  O  O88  1  0.129045  0.431060  0.498339  1
  O  O89  1  0.569479  0.837089  0.490163  1
  O  O90  1  0.158314  0.771625  0.866110  1
  O  O91  1  0.640718  0.811515  0.781141  1
  O  O92  1  0.434996  0.872559  0.691656  1
  O  O93  1  0.640718  0.311515  0.718859  1
  O  O94  1  0.630520  0.507996  0.783275  1
  O  O95  1  0.667800  0.883969  0.076507  1
  O  O96  1  0.934996  0.127441  0.308344  1
  O  O97  1  0.167800  0.616031  0.576507  1
  O  O98  1  0.126102  0.611371  0.422819  1
  O  O99  1  0.301619  0.964260  0.847601  1
  O  O100  1  0.137179  0.868688  0.697341  1
  O  O101  1  0.637179  0.631312  0.197341  1
  O  O102  1  0.925833  0.222738  0.136859  1
  O  O103  1  0.629045  0.068940  0.998339  1
  O  O104  1  0.167800  0.116031  0.923493  1
  O  O105  1  0.934996  0.627441  0.191656  1
  O  O106  1  0.918615  0.689421  0.863799  1
  O  O107  1  0.434996  0.372559  0.808344  1
  O  O108  1  0.643793  0.680505  0.905318  1
  O  O109  1  0.569479  0.337089  0.009837  1
  O  O110  1  0.658314  0.728375  0.366110  1
  O  O111  1  0.418615  0.810579  0.363799  1
  O  O112  1  0.143793  0.819495  0.405318  1
  O  O113  1  0.918615  0.189421  0.636201  1
  O  O114  1  0.432758  0.934450  0.023514  1
  O  O115  1  0.816895  0.781237  0.516083  1
  O  O116  1  0.316895  0.718763  0.016083  1
  O  O117  1  0.816895  0.281237  0.983917  1
  O  O118  1  0.140718  0.188485  0.218859  1
  O  O119  1  0.908986  0.961778  0.694203  1
  O  O120  1  0.747249  0.482361  0.964679  1
  O  O121  1  0.580971  0.459793  0.290475  1
  O  O122  1  0.664652  0.327400  0.866707  1
  O  O123  1  0.658314  0.228375  0.133890  1
  O  O124  1  0.158314  0.271625  0.633890  1
  O  O125  1  0.080971  0.540207  0.709525  1
  O  O126  1  0.580971  0.959793  0.209525  1
  O  O127  1  0.316895  0.218763  0.483917  1
  O  O128  1  0.801619  0.035740  0.152399  1
  O  O129  1  0.126286  0.560804  0.861396  1
  O  O130  1  0.126286  0.060804  0.638604  1
  O  O131  1  0.629045  0.568940  0.501661  1
  O  O132  1  0.643793  0.180505  0.594682  1
  O  O133  1  0.069479  0.662911  0.990163  1
  O  O134  1  0.143793  0.319495  0.094682  1
  O  O135  1  0.425833  0.277262  0.636859  1
  O  O136  1  0.130520  0.992004  0.283275  1
  O  O137  1  0.080971  0.040207  0.790475  1
  O  O138  1  0.630520  0.007996  0.716725  1
  O  O139  1  0.408986  0.538222  0.194203  1
  O  O140  1  0.932758  0.065550  0.976486  1
  O  O141  1  0.418615  0.310579  0.136201  1
  O  O142  1  0.664652  0.827400  0.633293  1
  O  O143  1  0.908986  0.461778  0.805797  1
