# generated using pymatgen
data_K3Hg3S2Cl5O6
_symmetry_space_group_name_H-M   'P 1'
_cell_length_a   6.13855880
_cell_length_b   12.58652963
_cell_length_c   22.75847549
_cell_angle_alpha   90.00000000
_cell_angle_beta   90.00000000
_cell_angle_gamma   90.00000000
_symmetry_Int_Tables_number   1
_chemical_formula_structural   K3Hg3S2Cl5O6
_chemical_formula_sum   'K12 Hg12 S8 Cl20 O24'
_cell_volume   1758.39155612
_cell_formula_units_Z   4
loop_
 _symmetry_equiv_pos_site_id
 _symmetry_equiv_pos_as_xyz
  1  'x, y, z'
loop_
 _atom_site_type_symbol
 _atom_site_label
 _atom_site_symmetry_multiplicity
 _atom_site_fract_x
 _atom_site_fract_y
 _atom_site_fract_z
 _atom_site_occupancy
  K  K0  1  0.750000  0.134195  0.489672  1
  K  K1  1  0.250000  0.126228  0.997981  1
  K  K2  1  0.250000  0.368895  0.132935  1
  K  K3  1  0.250000  0.634195  0.010328  1
  K  K4  1  0.250000  0.865805  0.510328  1
  K  K5  1  0.750000  0.626228  0.502019  1
  K  K6  1  0.750000  0.631105  0.867065  1
  K  K7  1  0.250000  0.373772  0.497981  1
  K  K8  1  0.750000  0.873772  0.002019  1
  K  K9  1  0.750000  0.365805  0.989672  1
  K  K10  1  0.250000  0.131105  0.632935  1
  K  K11  1  0.750000  0.868895  0.367065  1
  Hg  Hg12  1  0.750000  0.125726  0.811784  1
  Hg  Hg13  1  0.250000  0.874274  0.188216  1
  Hg  Hg14  1  0.750000  0.113045  0.191223  1
  Hg  Hg15  1  0.750000  0.386955  0.691223  1
  Hg  Hg16  1  0.250000  0.886955  0.808777  1
  Hg  Hg17  1  0.250000  0.140985  0.314034  1
  Hg  Hg18  1  0.250000  0.625726  0.688216  1
  Hg  Hg19  1  0.250000  0.613045  0.308777  1
  Hg  Hg20  1  0.750000  0.374274  0.311784  1
  Hg  Hg21  1  0.750000  0.859015  0.685966  1
  Hg  Hg22  1  0.750000  0.640985  0.185966  1
  Hg  Hg23  1  0.250000  0.359015  0.814034  1
  S  S24  1  0.250000  0.839519  0.912879  1
  S  S25  1  0.250000  0.421883  0.916239  1
  S  S26  1  0.750000  0.160481  0.087121  1
  S  S27  1  0.250000  0.660481  0.412879  1
  S  S28  1  0.250000  0.078117  0.416239  1
  S  S29  1  0.750000  0.339519  0.587121  1
  S  S30  1  0.750000  0.921883  0.583761  1
  S  S31  1  0.750000  0.578117  0.083761  1
  Cl  Cl32  1  0.750000  0.372263  0.415606  1
  Cl  Cl33  1  0.250000  0.369982  0.308999  1
  Cl  Cl34  1  0.750000  0.630018  0.691001  1
  Cl  Cl35  1  0.250000  0.366655  0.704494  1
  Cl  Cl36  1  0.250000  0.611112  0.200314  1
  Cl  Cl37  1  0.250000  0.133345  0.204494  1
  Cl  Cl38  1  0.250000  0.873458  0.292491  1
  Cl  Cl39  1  0.250000  0.627737  0.584394  1
  Cl  Cl40  1  0.750000  0.373458  0.207509  1
  Cl  Cl41  1  0.750000  0.111112  0.299686  1
  Cl  Cl42  1  0.250000  0.626542  0.792491  1
  Cl  Cl43  1  0.750000  0.866655  0.795506  1
  Cl  Cl44  1  0.250000  0.888888  0.700314  1
  Cl  Cl45  1  0.750000  0.127737  0.915606  1
  Cl  Cl46  1  0.750000  0.388888  0.799686  1
  Cl  Cl47  1  0.750000  0.869982  0.191001  1
  Cl  Cl48  1  0.750000  0.126542  0.707509  1
  Cl  Cl49  1  0.250000  0.130018  0.808999  1
  Cl  Cl50  1  0.250000  0.872263  0.084394  1
  Cl  Cl51  1  0.750000  0.633345  0.295506  1
  O  O52  1  0.250000  0.171156  0.456258  1
  O  O53  1  0.950144  0.987081  0.575960  1
  O  O54  1  0.949867  0.224531  0.076300  1
  O  O55  1  0.450144  0.487081  0.924040  1
  O  O56  1  0.950144  0.512919  0.075960  1
  O  O57  1  0.050133  0.775469  0.923700  1
  O  O58  1  0.550133  0.275469  0.576300  1
  O  O59  1  0.750000  0.828844  0.543742  1
  O  O60  1  0.750000  0.061448  0.052463  1
  O  O61  1  0.250000  0.938552  0.947537  1
  O  O62  1  0.449867  0.724531  0.423700  1
  O  O63  1  0.250000  0.328844  0.956258  1
  O  O64  1  0.549856  0.987081  0.575960  1
  O  O65  1  0.049856  0.487081  0.924040  1
  O  O66  1  0.250000  0.561448  0.447537  1
  O  O67  1  0.550133  0.224531  0.076300  1
  O  O68  1  0.449867  0.775469  0.923700  1
  O  O69  1  0.450144  0.012919  0.424040  1
  O  O70  1  0.949867  0.275469  0.576300  1
  O  O71  1  0.750000  0.671156  0.043742  1
  O  O72  1  0.049856  0.012919  0.424040  1
  O  O73  1  0.050133  0.724531  0.423700  1
  O  O74  1  0.549856  0.512919  0.075960  1
  O  O75  1  0.750000  0.438552  0.552463  1
