# generated using pymatgen
data_TaI4
_symmetry_space_group_name_H-M   'P 1'
_cell_length_a   7.64861034
_cell_length_b   11.11984706
_cell_length_c   11.26941704
_cell_angle_alpha   98.15319385
_cell_angle_beta   88.41856150
_cell_angle_gamma   105.53493261
_symmetry_Int_Tables_number   1
_chemical_formula_structural   TaI4
_chemical_formula_sum   'Ta4 I16'
_cell_volume   914.07545479
_cell_formula_units_Z   4
loop_
 _symmetry_equiv_pos_site_id
 _symmetry_equiv_pos_as_xyz
  1  'x, y, z'
loop_
 _atom_site_type_symbol
 _atom_site_label
 _atom_site_symmetry_multiplicity
 _atom_site_fract_x
 _atom_site_fract_y
 _atom_site_fract_z
 _atom_site_occupancy
  Ta  Ta0  1  0.887565  0.908761  0.161753  1
  Ta  Ta1  1  0.112435  0.091239  0.838247  1
  Ta  Ta2  1  0.812000  0.673761  0.276658  1
  Ta  Ta3  1  0.188000  0.326239  0.723342  1
  I  I4  1  0.775166  0.948356  0.930013  1
  I  I5  1  0.536808  0.760131  0.169399  1
  I  I6  1  0.106048  0.896632  0.347841  1
  I  I7  1  0.802613  0.113555  0.276597  1
  I  I8  1  0.197387  0.886445  0.723403  1
  I  I9  1  0.941039  0.449400  0.668490  1
  I  I10  1  0.588619  0.439743  0.196606  1
  I  I11  1  0.972221  0.688871  0.039624  1
  I  I12  1  0.893952  0.103368  0.652159  1
  I  I13  1  0.463192  0.239869  0.830601  1
  I  I14  1  0.224834  0.051644  0.069987  1
  I  I15  1  0.027779  0.311129  0.960376  1
  I  I16  1  0.336167  0.290852  0.508200  1
  I  I17  1  0.058961  0.550600  0.331510  1
  I  I18  1  0.663833  0.709148  0.491800  1
  I  I19  1  0.411381  0.560257  0.803394  1
