# generated using pymatgen
data_K2Zn(SO4)2
_symmetry_space_group_name_H-M   'P 1'
_cell_length_a   5.44336477
_cell_length_b   8.94267030
_cell_length_c   17.06914124
_cell_angle_alpha   90.00000000
_cell_angle_beta   106.78116089
_cell_angle_gamma   90.00000000
_symmetry_Int_Tables_number   1
_chemical_formula_structural   K2Zn(SO4)2
_chemical_formula_sum   'K8 Zn4 S8 O32'
_cell_volume   795.51124287
_cell_formula_units_Z   4
loop_
 _symmetry_equiv_pos_site_id
 _symmetry_equiv_pos_as_xyz
  1  'x, y, z'
loop_
 _atom_site_type_symbol
 _atom_site_label
 _atom_site_symmetry_multiplicity
 _atom_site_fract_x
 _atom_site_fract_y
 _atom_site_fract_z
 _atom_site_occupancy
  K  K0  1  0.504738  0.855713  0.271611  1
  K  K1  1  0.287035  0.825882  0.522554  1
  K  K2  1  0.495262  0.355713  0.228389  1
  K  K3  1  0.287035  0.674118  0.022554  1
  K  K4  1  0.495262  0.144287  0.728389  1
  K  K5  1  0.712965  0.174118  0.477446  1
  K  K6  1  0.712965  0.325882  0.977446  1
  K  K7  1  0.504738  0.644287  0.771611  1
  Zn  Zn8  1  0.115875  0.029940  0.869517  1
  Zn  Zn9  1  0.884125  0.970060  0.130483  1
  Zn  Zn10  1  0.115875  0.470060  0.369517  1
  Zn  Zn11  1  0.884125  0.529940  0.630483  1
  S  S12  1  0.087970  0.384213  0.823248  1
  S  S13  1  0.682092  0.890049  0.927816  1
  S  S14  1  0.087970  0.115787  0.323248  1
  S  S15  1  0.682092  0.609951  0.427816  1
  S  S16  1  0.317908  0.109951  0.072184  1
  S  S17  1  0.317908  0.390049  0.572184  1
  S  S18  1  0.912030  0.884213  0.676752  1
  S  S19  1  0.912030  0.615787  0.176752  1
  O  O20  1  0.682152  0.617899  0.514674  1
  O  O21  1  0.170828  0.234592  0.092326  1
  O  O22  1  0.102281  0.045504  0.244550  1
  O  O23  1  0.820947  0.378763  0.827612  1
  O  O24  1  0.207790  0.962849  0.090114  1
  O  O25  1  0.741046  0.531876  0.107557  1
  O  O26  1  0.258954  0.031876  0.392443  1
  O  O27  1  0.170828  0.265408  0.592326  1
  O  O28  1  0.593697  0.380481  0.625105  1
  O  O29  1  0.829172  0.765408  0.907674  1
  O  O30  1  0.593697  0.119519  0.125105  1
  O  O31  1  0.897719  0.954496  0.755450  1
  O  O32  1  0.102281  0.454496  0.744550  1
  O  O33  1  0.207790  0.537151  0.590114  1
  O  O34  1  0.406303  0.619519  0.374895  1
  O  O35  1  0.406303  0.880481  0.874895  1
  O  O36  1  0.809173  0.773518  0.177556  1
  O  O37  1  0.258954  0.468124  0.892443  1
  O  O38  1  0.190827  0.273518  0.322444  1
  O  O39  1  0.179053  0.621237  0.172388  1
  O  O40  1  0.820947  0.121237  0.327612  1
  O  O41  1  0.829172  0.734592  0.407674  1
  O  O42  1  0.897719  0.545504  0.255450  1
  O  O43  1  0.792210  0.462849  0.409886  1
  O  O44  1  0.317848  0.117899  0.985326  1
  O  O45  1  0.741046  0.968124  0.607557  1
  O  O46  1  0.179053  0.878763  0.672388  1
  O  O47  1  0.682152  0.882101  0.014674  1
  O  O48  1  0.190827  0.226482  0.822444  1
  O  O49  1  0.317848  0.382101  0.485326  1
  O  O50  1  0.809173  0.726482  0.677556  1
  O  O51  1  0.792210  0.037151  0.909886  1
