# generated using pymatgen
data_Fe2SiO4
_symmetry_space_group_name_H-M   'P 1'
_cell_length_a   4.89022930
_cell_length_b   6.17539107
_cell_length_c   10.63336193
_cell_angle_alpha   90.00000000
_cell_angle_beta   90.00000000
_cell_angle_gamma   90.00000000
_symmetry_Int_Tables_number   1
_chemical_formula_structural   Fe2SiO4
_chemical_formula_sum   'Fe8 Si4 O16'
_cell_volume   321.11773004
_cell_formula_units_Z   4
loop_
 _symmetry_equiv_pos_site_id
 _symmetry_equiv_pos_as_xyz
  1  'x, y, z'
loop_
 _atom_site_type_symbol
 _atom_site_label
 _atom_site_symmetry_multiplicity
 _atom_site_fract_x
 _atom_site_fract_y
 _atom_site_fract_z
 _atom_site_occupancy
  Fe  Fe0  1  0.486017  0.750000  0.779103  1
  Fe  Fe1  1  0.986017  0.250000  0.720897  1
  Fe  Fe2  1  0.513983  0.250000  0.220897  1
  Fe  Fe3  1  0.013983  0.750000  0.279103  1
  Fe  Fe4  1  0.500000  0.500000  0.500000  1
  Fe  Fe5  1  0.000000  0.500000  0.000000  1
  Fe  Fe6  1  0.500000  0.000000  0.500000  1
  Fe  Fe7  1  0.000000  0.000000  0.000000  1
  Si  Si8  1  0.928175  0.750000  0.596467  1
  Si  Si9  1  0.428175  0.250000  0.903533  1
  Si  Si10  1  0.071825  0.250000  0.403533  1
  Si  Si11  1  0.571825  0.750000  0.096467  1
  O  O12  1  0.211649  0.463073  0.334706  1
  O  O13  1  0.711649  0.536927  0.165294  1
  O  O14  1  0.788351  0.963073  0.665294  1
  O  O15  1  0.288351  0.036927  0.834706  1
  O  O16  1  0.788351  0.536927  0.665294  1
  O  O17  1  0.288351  0.463073  0.834706  1
  O  O18  1  0.211649  0.036927  0.334706  1
  O  O19  1  0.711649  0.963073  0.165294  1
  O  O20  1  0.788636  0.750000  0.452799  1
  O  O21  1  0.288636  0.250000  0.047201  1
  O  O22  1  0.211364  0.250000  0.547201  1
  O  O23  1  0.711364  0.750000  0.952799  1
  O  O24  1  0.235675  0.750000  0.091654  1
  O  O25  1  0.735675  0.250000  0.408346  1
  O  O26  1  0.764325  0.250000  0.908346  1
  O  O27  1  0.264325  0.750000  0.591654  1
