# generated using pymatgen
data_Te2PdBr6
_symmetry_space_group_name_H-M   'P 1'
_cell_length_a   17.11217831
_cell_length_b   9.32595851
_cell_length_c   19.80934425
_cell_angle_alpha   90.00000000
_cell_angle_beta   116.36123584
_cell_angle_gamma   90.00000000
_symmetry_Int_Tables_number   1
_chemical_formula_structural   Te2PdBr6
_chemical_formula_sum   'Te16 Pd8 Br48'
_cell_volume   2832.58456894
_cell_formula_units_Z   8
loop_
 _symmetry_equiv_pos_site_id
 _symmetry_equiv_pos_as_xyz
  1  'x, y, z'
loop_
 _atom_site_type_symbol
 _atom_site_label
 _atom_site_symmetry_multiplicity
 _atom_site_fract_x
 _atom_site_fract_y
 _atom_site_fract_z
 _atom_site_occupancy
  Te  Te0  1  0.481882  0.653440  0.359264  1
  Te  Te1  1  0.660638  0.710122  0.549778  1
  Te  Te2  1  0.339362  0.210122  0.950222  1
  Te  Te3  1  0.339362  0.289878  0.450222  1
  Te  Te4  1  0.660638  0.789878  0.049778  1
  Te  Te5  1  0.868658  0.137418  0.355644  1
  Te  Te6  1  0.518118  0.153440  0.140736  1
  Te  Te7  1  0.892484  0.221273  0.546496  1
  Te  Te8  1  0.518118  0.346560  0.640736  1
  Te  Te9  1  0.107516  0.778727  0.453504  1
  Te  Te10  1  0.481882  0.846560  0.859264  1
  Te  Te11  1  0.131342  0.862582  0.644356  1
  Te  Te12  1  0.892484  0.278727  0.046496  1
  Te  Te13  1  0.107516  0.721273  0.953504  1
  Te  Te14  1  0.131342  0.637418  0.144356  1
  Te  Te15  1  0.868658  0.362582  0.855644  1
  Pd  Pd16  1  0.497217  0.835792  0.993608  1
  Pd  Pd17  1  0.994229  0.163423  0.487619  1
  Pd  Pd18  1  0.994229  0.336577  0.987619  1
  Pd  Pd19  1  0.502783  0.164208  0.006392  1
  Pd  Pd20  1  0.005771  0.663423  0.012381  1
  Pd  Pd21  1  0.502783  0.335792  0.506392  1
  Pd  Pd22  1  0.497217  0.664208  0.493608  1
  Pd  Pd23  1  0.005771  0.836577  0.512381  1
  Br  Br24  1  0.134649  0.515442  0.491303  1
  Br  Br25  1  0.271453  0.664627  0.126436  1
  Br  Br26  1  0.063002  0.105577  0.398555  1
  Br  Br27  1  0.638768  0.820735  0.873628  1
  Br  Br28  1  0.665668  0.121204  0.093516  1
  Br  Br29  1  0.936998  0.894423  0.601445  1
  Br  Br30  1  0.863737  0.395858  0.309550  1
  Br  Br31  1  0.728547  0.335373  0.873564  1
  Br  Br32  1  0.361232  0.179265  0.126372  1
  Br  Br33  1  0.136340  0.175468  0.604709  1
  Br  Br34  1  0.638768  0.679265  0.373628  1
  Br  Br35  1  0.334332  0.878796  0.906484  1
  Br  Br36  1  0.723571  0.742285  0.691278  1
  Br  Br37  1  0.557248  0.417757  0.178024  1
  Br  Br38  1  0.863737  0.104142  0.809550  1
  Br  Br39  1  0.518830  0.336679  0.386467  1
  Br  Br40  1  0.018651  0.776454  0.815215  1
  Br  Br41  1  0.361232  0.320735  0.626372  1
  Br  Br42  1  0.481170  0.836679  0.113533  1
  Br  Br43  1  0.136340  0.324532  0.104709  1
  Br  Br44  1  0.728547  0.164627  0.373564  1
  Br  Br45  1  0.865351  0.484558  0.508697  1
  Br  Br46  1  0.981349  0.276454  0.684785  1
  Br  Br47  1  0.136263  0.604142  0.690450  1
  Br  Br48  1  0.723571  0.757715  0.191278  1
  Br  Br49  1  0.481170  0.663321  0.613533  1
  Br  Br50  1  0.655162  0.978575  0.523992  1
  Br  Br51  1  0.863660  0.824532  0.395291  1
  Br  Br52  1  0.136263  0.895858  0.190450  1
  Br  Br53  1  0.655162  0.521425  0.023992  1
  Br  Br54  1  0.665668  0.378796  0.593516  1
  Br  Br55  1  0.018651  0.723546  0.315215  1
  Br  Br56  1  0.981349  0.223546  0.184785  1
  Br  Br57  1  0.271453  0.835373  0.626436  1
  Br  Br58  1  0.344838  0.478575  0.976008  1
  Br  Br59  1  0.557248  0.082243  0.678024  1
  Br  Br60  1  0.442752  0.917757  0.321976  1
  Br  Br61  1  0.276429  0.242285  0.808722  1
  Br  Br62  1  0.936998  0.605577  0.101445  1
  Br  Br63  1  0.518830  0.163321  0.886467  1
  Br  Br64  1  0.334332  0.621204  0.406484  1
  Br  Br65  1  0.863660  0.675468  0.895291  1
  Br  Br66  1  0.276429  0.257715  0.308722  1
  Br  Br67  1  0.865351  0.015442  0.008697  1
  Br  Br68  1  0.063002  0.394423  0.898555  1
  Br  Br69  1  0.442752  0.582243  0.821976  1
  Br  Br70  1  0.344838  0.021425  0.476008  1
  Br  Br71  1  0.134649  0.984558  0.991303  1
