# generated using pymatgen
data_YInO3
_symmetry_space_group_name_H-M   'P 1'
_cell_length_a   6.36381389
_cell_length_b   6.36381389
_cell_length_c   12.38968577
_cell_angle_alpha   90.00000000
_cell_angle_beta   90.00000000
_cell_angle_gamma   120.00000000
_symmetry_Int_Tables_number   1
_chemical_formula_structural   YInO3
_chemical_formula_sum   'Y6 In6 O18'
_cell_volume   434.53610118
_cell_formula_units_Z   6
loop_
 _symmetry_equiv_pos_site_id
 _symmetry_equiv_pos_as_xyz
  1  'x, y, z'
loop_
 _atom_site_type_symbol
 _atom_site_label
 _atom_site_symmetry_multiplicity
 _atom_site_fract_x
 _atom_site_fract_y
 _atom_site_fract_z
 _atom_site_occupancy
  Y  Y0  1  0.000000  0.000000  0.271050  1
  Y  Y1  1  0.000000  0.000000  0.771050  1
  Y  Y2  1  0.333333  0.666667  0.235606  1
  Y  Y3  1  0.666667  0.333333  0.735606  1
  Y  Y4  1  0.333333  0.666667  0.735606  1
  Y  Y5  1  0.666667  0.333333  0.235606  1
  In  In6  1  0.333519  0.000000  0.001103  1
  In  In7  1  0.333519  0.333519  0.501103  1
  In  In8  1  0.000000  0.666481  0.501103  1
  In  In9  1  0.000000  0.333519  0.001103  1
  In  In10  1  0.666481  0.666481  0.001103  1
  In  In11  1  0.666481  0.000000  0.501103  1
  O  O12  1  0.307048  0.000000  0.172767  1
  O  O13  1  0.307048  0.307048  0.672767  1
  O  O14  1  0.000000  0.692952  0.672767  1
  O  O15  1  0.000000  0.307048  0.172767  1
  O  O16  1  0.692952  0.692952  0.172767  1
  O  O17  1  0.692952  0.000000  0.672767  1
  O  O18  1  0.639347  0.000000  0.331261  1
  O  O19  1  0.639347  0.639347  0.831261  1
  O  O20  1  0.000000  0.360653  0.831261  1
  O  O21  1  0.000000  0.639347  0.331261  1
  O  O22  1  0.360653  0.360653  0.331261  1
  O  O23  1  0.360653  0.000000  0.831261  1
  O  O24  1  0.000000  0.000000  0.468821  1
  O  O25  1  0.000000  0.000000  0.968821  1
  O  O26  1  0.333333  0.666667  0.030362  1
  O  O27  1  0.666667  0.333333  0.530362  1
  O  O28  1  0.333333  0.666667  0.530362  1
  O  O29  1  0.666667  0.333333  0.030362  1
