# generated using pymatgen
data_Na5MoNO4
_symmetry_space_group_name_H-M   'P 1'
_cell_length_a   5.77273188
_cell_length_b   5.77273188
_cell_length_c   10.84058672
_cell_angle_alpha   90.00000000
_cell_angle_beta   90.00000000
_cell_angle_gamma   119.16121380
_symmetry_Int_Tables_number   1
_chemical_formula_structural   Na5MoNO4
_chemical_formula_sum   'Na10 Mo2 N2 O8'
_cell_volume   315.46793048
_cell_formula_units_Z   2
loop_
 _symmetry_equiv_pos_site_id
 _symmetry_equiv_pos_as_xyz
  1  'x, y, z'
loop_
 _atom_site_type_symbol
 _atom_site_label
 _atom_site_symmetry_multiplicity
 _atom_site_fract_x
 _atom_site_fract_y
 _atom_site_fract_z
 _atom_site_occupancy
  Na  Na0  1  0.190909  0.809091  0.500000  1
  Na  Na1  1  0.190909  0.809091  0.000000  1
  Na  Na2  1  0.545462  0.168992  0.750000  1
  Na  Na3  1  0.168992  0.545462  0.750000  1
  Na  Na4  1  0.500000  0.500000  0.000000  1
  Na  Na5  1  0.809091  0.190909  0.500000  1
  Na  Na6  1  0.809091  0.190909  0.000000  1
  Na  Na7  1  0.500000  0.500000  0.500000  1
  Na  Na8  1  0.454538  0.831008  0.250000  1
  Na  Na9  1  0.831008  0.454538  0.250000  1
  Mo  Mo10  1  0.207589  0.207589  0.250000  1
  Mo  Mo11  1  0.792411  0.792411  0.750000  1
  N  N12  1  0.906642  0.906642  0.250000  1
  N  N13  1  0.093358  0.093358  0.750000  1
  O  O14  1  0.834598  0.559252  0.627125  1
  O  O15  1  0.559252  0.834598  0.627125  1
  O  O16  1  0.165402  0.440748  0.372875  1
  O  O17  1  0.440748  0.165402  0.372875  1
  O  O18  1  0.440748  0.165402  0.127125  1
  O  O19  1  0.165402  0.440748  0.127125  1
  O  O20  1  0.559252  0.834598  0.872875  1
  O  O21  1  0.834598  0.559252  0.872875  1
