# generated using pymatgen
data_Na4MgC6(SN)6
_symmetry_space_group_name_H-M   'P 1'
_cell_length_a   8.74645162
_cell_length_b   8.74645162
_cell_length_c   14.08479821
_cell_angle_alpha   90.00000000
_cell_angle_beta   90.00000000
_cell_angle_gamma   120.00000000
_symmetry_Int_Tables_number   1
_chemical_formula_structural   Na4MgC6(SN)6
_chemical_formula_sum   'Na8 Mg2 C12 S12 N12'
_cell_volume   933.13624268
_cell_formula_units_Z   2
loop_
 _symmetry_equiv_pos_site_id
 _symmetry_equiv_pos_as_xyz
  1  'x, y, z'
loop_
 _atom_site_type_symbol
 _atom_site_label
 _atom_site_symmetry_multiplicity
 _atom_site_fract_x
 _atom_site_fract_y
 _atom_site_fract_z
 _atom_site_occupancy
  Na  Na0  1  0.333333  0.666667  0.974826  1
  Na  Na1  1  0.666667  0.333333  0.474826  1
  Na  Na2  1  0.666667  0.333333  0.025174  1
  Na  Na3  1  0.333333  0.666667  0.525174  1
  Na  Na4  1  0.000000  0.000000  0.000000  1
  Na  Na5  1  0.333333  0.666667  0.250000  1
  Na  Na6  1  0.000000  0.000000  0.500000  1
  Na  Na7  1  0.666667  0.333333  0.750000  1
  Mg  Mg8  1  0.666667  0.333333  0.250000  1
  Mg  Mg9  1  0.333333  0.666667  0.750000  1
  C  C10  1  0.342032  0.998728  0.364322  1
  C  C11  1  0.657968  0.001272  0.635678  1
  C  C12  1  0.343304  0.001272  0.864322  1
  C  C13  1  0.998728  0.656696  0.635678  1
  C  C14  1  0.001272  0.343304  0.364322  1
  C  C15  1  0.343304  0.342032  0.635678  1
  C  C16  1  0.998728  0.342032  0.864322  1
  C  C17  1  0.656696  0.998728  0.135678  1
  C  C18  1  0.001272  0.657968  0.135678  1
  C  C19  1  0.657968  0.656696  0.864322  1
  C  C20  1  0.656696  0.657968  0.364322  1
  C  C21  1  0.342032  0.343304  0.135678  1
  S  S22  1  0.166172  0.812906  0.392109  1
  S  S23  1  0.646735  0.812906  0.107891  1
  S  S24  1  0.833828  0.187094  0.607891  1
  S  S25  1  0.187094  0.353265  0.392109  1
  S  S26  1  0.646735  0.833828  0.392109  1
  S  S27  1  0.166172  0.353265  0.107891  1
  S  S28  1  0.833828  0.646735  0.892109  1
  S  S29  1  0.353265  0.166172  0.607891  1
  S  S30  1  0.812906  0.646735  0.607891  1
  S  S31  1  0.812906  0.166172  0.892109  1
  S  S32  1  0.353265  0.187094  0.892109  1
  S  S33  1  0.187094  0.833828  0.107891  1
  N  N34  1  0.337240  0.867373  0.842883  1
  N  N35  1  0.530133  0.662760  0.842883  1
  N  N36  1  0.132627  0.662760  0.657117  1
  N  N37  1  0.867373  0.530133  0.157117  1
  N  N38  1  0.530133  0.867373  0.657117  1
  N  N39  1  0.132627  0.469867  0.842883  1
  N  N40  1  0.867373  0.337240  0.342883  1
  N  N41  1  0.337240  0.469867  0.657117  1
  N  N42  1  0.469867  0.337240  0.157117  1
  N  N43  1  0.469867  0.132627  0.342883  1
  N  N44  1  0.662760  0.530133  0.342883  1
  N  N45  1  0.662760  0.132627  0.157117  1
