# generated using pymatgen
data_Pd(Se3Br)2
_symmetry_space_group_name_H-M   'P 1'
_cell_length_a   4.84521883
_cell_length_b   7.80617878
_cell_length_c   8.19998811
_cell_angle_alpha   65.49486983
_cell_angle_beta   85.48302855
_cell_angle_gamma   79.30541636
_symmetry_Int_Tables_number   1
_chemical_formula_structural   Pd(Se3Br)2
_chemical_formula_sum   'Pd1 Se6 Br2'
_cell_volume   277.30621629
_cell_formula_units_Z   1
loop_
 _symmetry_equiv_pos_site_id
 _symmetry_equiv_pos_as_xyz
  1  'x, y, z'
loop_
 _atom_site_type_symbol
 _atom_site_label
 _atom_site_symmetry_multiplicity
 _atom_site_fract_x
 _atom_site_fract_y
 _atom_site_fract_z
 _atom_site_occupancy
  Pd  Pd0  1  0.000000  0.000000  0.000000  1
  Se  Se1  1  0.051279  0.517384  0.755315  1
  Se  Se2  1  0.948721  0.482616  0.244685  1
  Se  Se3  1  0.147498  0.729301  0.280654  1
  Se  Se4  1  0.163599  0.217722  0.492064  1
  Se  Se5  1  0.836401  0.782278  0.507936  1
  Se  Se6  1  0.852502  0.270699  0.719346  1
  Br  Br7  1  0.379633  0.840925  0.864158  1
  Br  Br8  1  0.620367  0.159075  0.135842  1
