# generated using pymatgen
data_Pr2Ta2Cl2O7
_symmetry_space_group_name_H-M   'P 1'
_cell_length_a   8.06277062
_cell_length_b   8.06277062
_cell_length_c   6.97424453
_cell_angle_alpha   67.08400260
_cell_angle_beta   112.91599740
_cell_angle_gamma   151.53378453
_symmetry_Int_Tables_number   1
_chemical_formula_structural   Pr2Ta2Cl2O7
_chemical_formula_sum   'Pr2 Ta2 Cl2 O7'
_cell_volume   197.89789716
_cell_formula_units_Z   1
loop_
 _symmetry_equiv_pos_site_id
 _symmetry_equiv_pos_as_xyz
  1  'x, y, z'
loop_
 _atom_site_type_symbol
 _atom_site_label
 _atom_site_symmetry_multiplicity
 _atom_site_fract_x
 _atom_site_fract_y
 _atom_site_fract_z
 _atom_site_occupancy
  Pr  Pr0  1  0.308016  0.691984  0.835076  1
  Pr  Pr1  1  0.691984  0.308016  0.164924  1
  Ta  Ta2  1  0.965407  0.034593  0.201562  1
  Ta  Ta3  1  0.034593  0.965407  0.798438  1
  Cl  Cl4  1  0.678361  0.321639  0.565899  1
  Cl  Cl5  1  0.321639  0.678361  0.434101  1
  O  O6  1  0.455187  0.544813  0.165146  1
  O  O7  1  0.544813  0.455187  0.834854  1
  O  O8  1  0.919483  0.080517  0.847607  1
  O  O9  1  0.000000  0.000000  0.500000  1
  O  O10  1  0.826146  0.173854  0.070171  1
  O  O11  1  0.080517  0.919483  0.152393  1
  O  O12  1  0.173854  0.826146  0.929829  1
