# generated using pymatgen
data_SiSe2
_symmetry_space_group_name_H-M   'P 1'
_cell_length_a   7.03824629
_cell_length_b   7.03824629
_cell_length_c   7.03824629
_cell_angle_alpha   130.15280800
_cell_angle_beta   124.09749420
_cell_angle_gamma   78.14526108
_symmetry_Int_Tables_number   1
_chemical_formula_structural   SiSe2
_chemical_formula_sum   'Si2 Se4'
_cell_volume   213.85892196
_cell_formula_units_Z   2
loop_
 _symmetry_equiv_pos_site_id
 _symmetry_equiv_pos_as_xyz
  1  'x, y, z'
loop_
 _atom_site_type_symbol
 _atom_site_label
 _atom_site_symmetry_multiplicity
 _atom_site_fract_x
 _atom_site_fract_y
 _atom_site_fract_z
 _atom_site_occupancy
  Si  Si0  1  0.000000  0.750000  0.750000  1
  Si  Si1  1  0.000000  0.250000  0.250000  1
  Se  Se2  1  0.303961  0.111806  0.192155  1
  Se  Se3  1  0.696039  0.888194  0.807845  1
  Se  Se4  1  0.080349  0.388194  0.692155  1
  Se  Se5  1  0.919651  0.611806  0.307845  1
