# generated using pymatgen
data_SbTe(IF2)3
_symmetry_space_group_name_H-M   'P 1'
_cell_length_a   8.70661164
_cell_length_b   10.91017355
_cell_length_c   13.42343096
_cell_angle_alpha   90.00000000
_cell_angle_beta   99.73868215
_cell_angle_gamma   90.00000000
_symmetry_Int_Tables_number   1
_chemical_formula_structural   SbTe(IF2)3
_chemical_formula_sum   'Sb4 Te4 I12 F24'
_cell_volume   1256.72550784
_cell_formula_units_Z   4
loop_
 _symmetry_equiv_pos_site_id
 _symmetry_equiv_pos_as_xyz
  1  'x, y, z'
loop_
 _atom_site_type_symbol
 _atom_site_label
 _atom_site_symmetry_multiplicity
 _atom_site_fract_x
 _atom_site_fract_y
 _atom_site_fract_z
 _atom_site_occupancy
  Sb  Sb0  1  0.684013  0.223505  0.577838  1
  Sb  Sb1  1  0.315987  0.776495  0.422162  1
  Sb  Sb2  1  0.684013  0.276495  0.077838  1
  Sb  Sb3  1  0.315987  0.723505  0.922162  1
  Te  Te4  1  0.317653  0.323771  0.804235  1
  Te  Te5  1  0.682347  0.823771  0.695765  1
  Te  Te6  1  0.317653  0.176229  0.304235  1
  Te  Te7  1  0.682347  0.676229  0.195765  1
  I  I8  1  0.220617  0.046639  0.133737  1
  I  I9  1  0.064772  0.336365  0.896822  1
  I  I10  1  0.779383  0.953361  0.866263  1
  I  I11  1  0.064772  0.163635  0.396822  1
  I  I12  1  0.719627  0.590138  0.762242  1
  I  I13  1  0.220617  0.453361  0.633737  1
  I  I14  1  0.935228  0.836365  0.603178  1
  I  I15  1  0.779383  0.546639  0.366263  1
  I  I16  1  0.719627  0.909862  0.262242  1
  I  I17  1  0.935228  0.663635  0.103178  1
  I  I18  1  0.280373  0.090138  0.737758  1
  I  I19  1  0.280373  0.409862  0.237758  1
  F  F20  1  0.389255  0.938038  0.393335  1
  F  F21  1  0.479691  0.239205  0.002927  1
  F  F22  1  0.260024  0.838428  0.545710  1
  F  F23  1  0.619365  0.214775  0.198801  1
  F  F24  1  0.610745  0.438038  0.106665  1
  F  F25  1  0.757268  0.383539  0.549124  1
  F  F26  1  0.380635  0.785225  0.801199  1
  F  F27  1  0.113910  0.682851  0.850128  1
  F  F28  1  0.380635  0.714775  0.301199  1
  F  F29  1  0.520309  0.760795  0.997073  1
  F  F30  1  0.757268  0.116461  0.049124  1
  F  F31  1  0.886090  0.317149  0.149872  1
  F  F32  1  0.739976  0.161572  0.454290  1
  F  F33  1  0.610745  0.061962  0.606665  1
  F  F34  1  0.619365  0.285225  0.698801  1
  F  F35  1  0.739976  0.338428  0.954290  1
  F  F36  1  0.113910  0.817149  0.350128  1
  F  F37  1  0.389255  0.561962  0.893335  1
  F  F38  1  0.479691  0.260795  0.502927  1
  F  F39  1  0.886090  0.182851  0.649872  1
  F  F40  1  0.520309  0.739205  0.497073  1
  F  F41  1  0.260024  0.661572  0.045710  1
  F  F42  1  0.242732  0.616461  0.450876  1
  F  F43  1  0.242732  0.883539  0.950876  1
