# generated using pymatgen
data_Ba2WO5
_symmetry_space_group_name_H-M   'P 1'
_cell_length_a   5.80748095
_cell_length_b   7.56897980
_cell_length_c   11.72903559
_cell_angle_alpha   90.00000000
_cell_angle_beta   90.00000000
_cell_angle_gamma   90.00000000
_symmetry_Int_Tables_number   1
_chemical_formula_structural   Ba2WO5
_chemical_formula_sum   'Ba8 W4 O20'
_cell_volume   515.56976909
_cell_formula_units_Z   4
loop_
 _symmetry_equiv_pos_site_id
 _symmetry_equiv_pos_as_xyz
  1  'x, y, z'
loop_
 _atom_site_type_symbol
 _atom_site_label
 _atom_site_symmetry_multiplicity
 _atom_site_fract_x
 _atom_site_fract_y
 _atom_site_fract_z
 _atom_site_occupancy
  Ba  Ba0  1  0.750000  0.672770  0.916201  1
  Ba  Ba1  1  0.250000  0.327230  0.083799  1
  Ba  Ba2  1  0.750000  0.172770  0.583799  1
  Ba  Ba3  1  0.250000  0.827230  0.416201  1
  Ba  Ba4  1  0.250000  0.520801  0.716582  1
  Ba  Ba5  1  0.750000  0.479199  0.283418  1
  Ba  Ba6  1  0.250000  0.020801  0.783418  1
  Ba  Ba7  1  0.750000  0.979199  0.216582  1
  W  W8  1  0.250000  0.825009  0.063830  1
  W  W9  1  0.750000  0.174991  0.936170  1
  W  W10  1  0.250000  0.325009  0.436170  1
  W  W11  1  0.750000  0.674991  0.563830  1
  O  O12  1  0.009266  0.177123  0.387404  1
  O  O13  1  0.509266  0.822877  0.612596  1
  O  O14  1  0.490734  0.677123  0.112596  1
  O  O15  1  0.990734  0.322877  0.887404  1
  O  O16  1  0.990734  0.822877  0.612596  1
  O  O17  1  0.490734  0.177123  0.387404  1
  O  O18  1  0.509266  0.322877  0.887404  1
  O  O19  1  0.009266  0.677123  0.112596  1
  O  O20  1  0.750000  0.774027  0.407298  1
  O  O21  1  0.250000  0.225973  0.592702  1
  O  O22  1  0.750000  0.274027  0.092702  1
  O  O23  1  0.250000  0.725973  0.907298  1
  O  O24  1  0.500000  0.000000  0.000000  1
  O  O25  1  0.000000  0.000000  0.000000  1
  O  O26  1  0.000000  0.500000  0.500000  1
  O  O27  1  0.500000  0.500000  0.500000  1
  O  O28  1  0.250000  0.970962  0.196096  1
  O  O29  1  0.750000  0.029038  0.803904  1
  O  O30  1  0.250000  0.470962  0.303904  1
  O  O31  1  0.750000  0.529038  0.696096  1
