# generated using pymatgen
data_AlPI8
_symmetry_space_group_name_H-M   'P 1'
_cell_length_a   11.19623032
_cell_length_b   11.40269498
_cell_length_c   16.23096342
_cell_angle_alpha   90.00000000
_cell_angle_beta   90.00000000
_cell_angle_gamma   90.00000000
_symmetry_Int_Tables_number   1
_chemical_formula_structural   AlPI8
_chemical_formula_sum   'Al4 P4 I32'
_cell_volume   2072.16164120
_cell_formula_units_Z   4
loop_
 _symmetry_equiv_pos_site_id
 _symmetry_equiv_pos_as_xyz
  1  'x, y, z'
loop_
 _atom_site_type_symbol
 _atom_site_label
 _atom_site_symmetry_multiplicity
 _atom_site_fract_x
 _atom_site_fract_y
 _atom_site_fract_z
 _atom_site_occupancy
  Al  Al0  1  0.992206  0.920201  0.662267  1
  Al  Al1  1  0.492206  0.579799  0.162267  1
  Al  Al2  1  0.007794  0.079799  0.162267  1
  Al  Al3  1  0.507794  0.420201  0.662267  1
  P  P4  1  0.014992  0.457987  0.449321  1
  P  P5  1  0.514992  0.042013  0.949321  1
  P  P6  1  0.985008  0.542013  0.949321  1
  P  P7  1  0.485008  0.957987  0.449321  1
  I  I8  1  0.487042  0.606220  0.745165  1
  I  I9  1  0.629627  0.968817  0.829604  1
  I  I10  1  0.538766  0.546756  0.006992  1
  I  I11  1  0.958505  0.754296  0.974930  1
  I  I12  1  0.541495  0.254296  0.974930  1
  I  I13  1  0.038766  0.953244  0.506992  1
  I  I14  1  0.870373  0.468817  0.829604  1
  I  I15  1  0.301978  0.014349  0.925422  1
  I  I16  1  0.646887  0.732667  0.213880  1
  I  I17  1  0.512958  0.393780  0.245165  1
  I  I18  1  0.853113  0.232667  0.213880  1
  I  I19  1  0.987042  0.893780  0.245165  1
  I  I20  1  0.353113  0.267333  0.713880  1
  I  I21  1  0.698022  0.985651  0.425422  1
  I  I22  1  0.198022  0.514349  0.925422  1
  I  I23  1  0.370373  0.031183  0.329604  1
  I  I24  1  0.427528  0.079463  0.570110  1
  I  I25  1  0.717975  0.330061  0.675780  1
  I  I26  1  0.458505  0.745704  0.474930  1
  I  I27  1  0.572472  0.920537  0.070110  1
  I  I28  1  0.782025  0.830061  0.675780  1
  I  I29  1  0.927528  0.420537  0.070110  1
  I  I30  1  0.012958  0.106220  0.745165  1
  I  I31  1  0.146887  0.767333  0.713880  1
  I  I32  1  0.129627  0.531183  0.329604  1
  I  I33  1  0.461234  0.453244  0.506992  1
  I  I34  1  0.217975  0.169939  0.175780  1
  I  I35  1  0.801978  0.485651  0.425422  1
  I  I36  1  0.072472  0.579463  0.570110  1
  I  I37  1  0.282025  0.669939  0.175780  1
  I  I38  1  0.041495  0.245704  0.474930  1
  I  I39  1  0.961234  0.046756  0.006992  1
