# generated using pymatgen
data_Sr2CuF6
_symmetry_space_group_name_H-M   'P 1'
_cell_length_a   8.78729844
_cell_length_b   8.78729844
_cell_length_c   5.80493001
_cell_angle_alpha   90.00000000
_cell_angle_beta   90.00000000
_cell_angle_gamma   141.41710252
_symmetry_Int_Tables_number   1
_chemical_formula_structural   Sr2CuF6
_chemical_formula_sum   'Sr4 Cu2 F12'
_cell_volume   279.54136602
_cell_formula_units_Z   2
loop_
 _symmetry_equiv_pos_site_id
 _symmetry_equiv_pos_as_xyz
  1  'x, y, z'
loop_
 _atom_site_type_symbol
 _atom_site_label
 _atom_site_symmetry_multiplicity
 _atom_site_fract_x
 _atom_site_fract_y
 _atom_site_fract_z
 _atom_site_occupancy
  Sr  Sr0  1  0.338268  0.661732  0.500000  1
  Sr  Sr1  1  0.838268  0.161732  1.000000  1
  Sr  Sr2  1  0.161732  0.838268  0.000000  1
  Sr  Sr3  1  0.661732  0.338268  0.500000  1
  Cu  Cu4  1  0.000000  0.000000  0.500000  1
  Cu  Cu5  1  0.500000  0.500000  0.000000  1
  F  F6  1  0.914925  0.753108  0.332976  1
  F  F7  1  0.495003  0.995003  0.250000  1
  F  F8  1  0.004997  0.504997  0.750000  1
  F  F9  1  0.085075  0.246892  0.667024  1
  F  F10  1  0.504997  0.004997  0.750000  1
  F  F11  1  0.246892  0.085075  0.667024  1
  F  F12  1  0.585075  0.746892  0.832976  1
  F  F13  1  0.746892  0.585075  0.832976  1
  F  F14  1  0.995003  0.495003  0.250000  1
  F  F15  1  0.253108  0.414925  0.167024  1
  F  F16  1  0.414925  0.253108  0.167024  1
  F  F17  1  0.753108  0.914925  0.332976  1
