# generated using pymatgen
data_K2Co(PO3)4
_symmetry_space_group_name_H-M   'P 1'
_cell_length_a   8.50741219
_cell_length_b   8.50741219
_cell_length_c   7.77578323
_cell_angle_alpha   81.56986420
_cell_angle_beta   98.43013580
_cell_angle_gamma   82.97799683
_symmetry_Int_Tables_number   1
_chemical_formula_structural   K2Co(PO3)4
_chemical_formula_sum   'K4 Co2 P8 O24'
_cell_volume   544.71077366
_cell_formula_units_Z   2
loop_
 _symmetry_equiv_pos_site_id
 _symmetry_equiv_pos_as_xyz
  1  'x, y, z'
loop_
 _atom_site_type_symbol
 _atom_site_label
 _atom_site_symmetry_multiplicity
 _atom_site_fract_x
 _atom_site_fract_y
 _atom_site_fract_z
 _atom_site_occupancy
  K  K0  1  0.758614  0.492967  0.079892  1
  K  K1  1  0.507033  0.241386  0.579892  1
  K  K2  1  0.202770  0.529657  0.915727  1
  K  K3  1  0.470343  0.797230  0.415727  1
  Co  Co4  1  0.846699  0.845946  0.749500  1
  Co  Co5  1  0.154054  0.153301  0.249500  1
  P  P6  1  0.969903  0.182395  0.834912  1
  P  P7  1  0.817605  0.030097  0.334912  1
  P  P8  1  0.828182  0.495372  0.574161  1
  P  P9  1  0.504628  0.171818  0.074161  1
  P  P10  1  0.132437  0.493158  0.419237  1
  P  P11  1  0.506842  0.867563  0.919237  1
  P  P12  1  0.035379  0.810709  0.179725  1
  P  P13  1  0.189291  0.964621  0.679725  1
  O  O14  1  0.660228  0.508844  0.478546  1
  O  O15  1  0.491156  0.339772  0.978546  1
  O  O16  1  0.870247  0.602661  0.706663  1
  O  O17  1  0.397339  0.129753  0.206663  1
  O  O18  1  0.879921  0.310306  0.665901  1
  O  O19  1  0.689694  0.120079  0.165901  1
  O  O20  1  0.940675  0.508220  0.421799  1
  O  O21  1  0.491780  0.059325  0.921799  1
  O  O22  1  0.167206  0.387659  0.284867  1
  O  O23  1  0.612341  0.832794  0.784867  1
  O  O24  1  0.232614  0.457569  0.597693  1
  O  O25  1  0.542431  0.767386  0.097693  1
  O  O26  1  0.146998  0.675807  0.332906  1
  O  O27  1  0.324193  0.853002  0.832906  1
  O  O28  1  0.973137  0.731297  0.027695  1
  O  O29  1  0.268703  0.026863  0.527695  1
  O  O30  1  0.138561  0.940554  0.155042  1
  O  O31  1  0.059446  0.861439  0.655042  1
  O  O32  1  0.884165  0.865807  0.271296  1
  O  O33  1  0.134193  0.115835  0.771296  1
  O  O34  1  0.017753  0.268965  0.985784  1
  O  O35  1  0.731035  0.982247  0.485784  1
  O  O36  1  0.861637  0.056234  0.853054  1
  O  O37  1  0.943766  0.138363  0.353054  1
