# generated using pymatgen
data_WSNCl5
_symmetry_space_group_name_H-M   'P 1'
_cell_length_a   6.28812929
_cell_length_b   9.55590104
_cell_length_c   16.78503512
_cell_angle_alpha   90.00000000
_cell_angle_beta   110.21398658
_cell_angle_gamma   90.00000000
_symmetry_Int_Tables_number   1
_chemical_formula_structural   WSNCl5
_chemical_formula_sum   'W4 S4 N4 Cl20'
_cell_volume   946.47116601
_cell_formula_units_Z   4
loop_
 _symmetry_equiv_pos_site_id
 _symmetry_equiv_pos_as_xyz
  1  'x, y, z'
loop_
 _atom_site_type_symbol
 _atom_site_label
 _atom_site_symmetry_multiplicity
 _atom_site_fract_x
 _atom_site_fract_y
 _atom_site_fract_z
 _atom_site_occupancy
  W  W0  1  0.902990  0.852907  0.409536  1
  W  W1  1  0.902990  0.647093  0.909536  1
  W  W2  1  0.097010  0.147093  0.590464  1
  W  W3  1  0.097010  0.352907  0.090464  1
  S  S4  1  0.572125  0.287964  0.255756  1
  S  S5  1  0.572125  0.212036  0.755756  1
  S  S6  1  0.427875  0.787964  0.244244  1
  S  S7  1  0.427875  0.712036  0.744244  1
  N  N8  1  0.349842  0.184472  0.677855  1
  N  N9  1  0.650158  0.684472  0.822145  1
  N  N10  1  0.650158  0.815528  0.322145  1
  N  N11  1  0.349842  0.315528  0.177855  1
  Cl  Cl12  1  0.870306  0.326060  0.608810  1
  Cl  Cl13  1  0.449667  0.916272  0.148785  1
  Cl  Cl14  1  0.946679  0.506567  0.162576  1
  Cl  Cl15  1  0.946679  0.993433  0.662576  1
  Cl  Cl16  1  0.550333  0.416272  0.351215  1
  Cl  Cl17  1  0.449667  0.583728  0.648785  1
  Cl  Cl18  1  0.259213  0.558335  0.043562  1
  Cl  Cl19  1  0.870306  0.173940  0.108810  1
  Cl  Cl20  1  0.820042  0.773690  0.011464  1
  Cl  Cl21  1  0.129694  0.673940  0.391190  1
  Cl  Cl22  1  0.820042  0.726310  0.511464  1
  Cl  Cl23  1  0.740787  0.441665  0.956438  1
  Cl  Cl24  1  0.740787  0.058335  0.456438  1
  Cl  Cl25  1  0.129694  0.826060  0.891190  1
  Cl  Cl26  1  0.053321  0.493433  0.837424  1
  Cl  Cl27  1  0.259213  0.941665  0.543562  1
  Cl  Cl28  1  0.550333  0.083728  0.851215  1
  Cl  Cl29  1  0.179958  0.273690  0.488536  1
  Cl  Cl30  1  0.053321  0.006567  0.337424  1
  Cl  Cl31  1  0.179958  0.226310  0.988536  1
