# generated using pymatgen
data_Nd10S19
_symmetry_space_group_name_H-M   'P 1'
_cell_length_a   8.96434336
_cell_length_b   8.96434336
_cell_length_c   16.23827560
_cell_angle_alpha   90.00000000
_cell_angle_beta   90.00000000
_cell_angle_gamma   90.00000000
_symmetry_Int_Tables_number   1
_chemical_formula_structural   Nd10S19
_chemical_formula_sum   'Nd20 S38'
_cell_volume   1304.89892663
_cell_formula_units_Z   2
loop_
 _symmetry_equiv_pos_site_id
 _symmetry_equiv_pos_as_xyz
  1  'x, y, z'
loop_
 _atom_site_type_symbol
 _atom_site_label
 _atom_site_symmetry_multiplicity
 _atom_site_fract_x
 _atom_site_fract_y
 _atom_site_fract_z
 _atom_site_occupancy
  Nd  Nd0  1  0.098340  0.209243  0.127693  1
  Nd  Nd1  1  0.500000  0.000000  0.635483  1
  Nd  Nd2  1  0.895473  0.805372  0.647204  1
  Nd  Nd3  1  0.194628  0.895473  0.352796  1
  Nd  Nd4  1  0.401660  0.290757  0.372307  1
  Nd  Nd5  1  0.901660  0.790757  0.127693  1
  Nd  Nd6  1  0.805372  0.104527  0.352796  1
  Nd  Nd7  1  0.290757  0.598340  0.627693  1
  Nd  Nd8  1  0.694628  0.395473  0.147204  1
  Nd  Nd9  1  0.500000  0.000000  0.135483  1
  Nd  Nd10  1  0.104527  0.194628  0.647204  1
  Nd  Nd11  1  0.709243  0.401660  0.627693  1
  Nd  Nd12  1  0.790757  0.098340  0.872307  1
  Nd  Nd13  1  0.604527  0.694628  0.852796  1
  Nd  Nd14  1  0.209243  0.901660  0.872307  1
  Nd  Nd15  1  0.598340  0.709243  0.372307  1
  Nd  Nd16  1  0.000000  0.500000  0.364517  1
  Nd  Nd17  1  0.395473  0.305372  0.852796  1
  Nd  Nd18  1  0.305372  0.604527  0.147204  1
  Nd  Nd19  1  0.000000  0.500000  0.864517  1
  S  S20  1  0.898265  0.803115  0.311930  1
  S  S21  1  0.000000  0.500000  0.184203  1
  S  S22  1  0.172880  0.361113  0.499997  1
  S  S23  1  0.299182  0.598163  0.323740  1
  S  S24  1  0.700818  0.401837  0.323740  1
  S  S25  1  0.280175  0.054090  0.500939  1
  S  S26  1  0.000000  0.500000  0.684203  1
  S  S27  1  0.780175  0.554090  0.999061  1
  S  S28  1  0.219825  0.445910  0.999061  1
  S  S29  1  0.945910  0.280175  0.499061  1
  S  S30  1  0.361113  0.827120  0.500003  1
  S  S31  1  0.500000  0.000000  0.815797  1
  S  S32  1  0.719825  0.945910  0.500939  1
  S  S33  1  0.799182  0.098163  0.176260  1
  S  S34  1  0.445910  0.780175  0.000939  1
  S  S35  1  0.138887  0.672880  0.999997  1
  S  S36  1  0.327120  0.138887  0.000003  1
  S  S37  1  0.101735  0.196885  0.311930  1
  S  S38  1  0.554090  0.219825  0.000939  1
  S  S39  1  0.500000  0.500000  0.500000  1
  S  S40  1  0.303115  0.601735  0.811930  1
  S  S41  1  0.401837  0.299182  0.676260  1
  S  S42  1  0.827120  0.638887  0.499997  1
  S  S43  1  0.098163  0.200818  0.823740  1
  S  S44  1  0.901837  0.799182  0.823740  1
  S  S45  1  0.054090  0.719825  0.499061  1
  S  S46  1  0.601735  0.696885  0.188070  1
  S  S47  1  0.598163  0.700818  0.676260  1
  S  S48  1  0.500000  0.000000  0.315797  1
  S  S49  1  0.861113  0.327120  0.999997  1
  S  S50  1  0.398265  0.303115  0.188070  1
  S  S51  1  0.638887  0.172880  0.500003  1
  S  S52  1  0.696885  0.398265  0.811930  1
  S  S53  1  0.000000  0.000000  0.000000  1
  S  S54  1  0.672880  0.861113  0.000003  1
  S  S55  1  0.803115  0.101735  0.688070  1
  S  S56  1  0.200818  0.901837  0.176260  1
  S  S57  1  0.196885  0.898265  0.688070  1
