# generated using pymatgen
data_Ba(Si3N4)2
_symmetry_space_group_name_H-M   'P 1'
_cell_length_a   6.64143095
_cell_length_b   6.64143095
_cell_length_c   6.64143095
_cell_angle_alpha   136.96818191
_cell_angle_beta   106.01823806
_cell_angle_gamma   89.60361436
_symmetry_Int_Tables_number   1
_chemical_formula_structural   Ba(Si3N4)2
_chemical_formula_sum   'Ba1 Si6 N8'
_cell_volume   183.47622336
_cell_formula_units_Z   1
loop_
 _symmetry_equiv_pos_site_id
 _symmetry_equiv_pos_as_xyz
  1  'x, y, z'
loop_
 _atom_site_type_symbol
 _atom_site_label
 _atom_site_symmetry_multiplicity
 _atom_site_fract_x
 _atom_site_fract_y
 _atom_site_fract_z
 _atom_site_occupancy
  Ba  Ba0  1  0.000000  0.166192  0.166192  1
  Si  Si1  1  0.459333  0.812345  0.950705  1
  Si  Si2  1  0.540667  0.491373  0.353013  1
  Si  Si3  1  0.138360  0.491373  0.950705  1
  Si  Si4  1  0.861640  0.812345  0.353013  1
  Si  Si5  1  0.371739  0.019096  0.647357  1
  Si  Si6  1  0.628261  0.275619  0.647357  1
  N  N7  1  0.681955  0.983943  0.301987  1
  N  N8  1  0.881438  0.502163  0.979958  1
  N  N9  1  0.118562  0.098520  0.620725  1
  N  N10  1  0.214347  0.707508  0.921855  1
  N  N11  1  0.522205  0.502163  0.620725  1
  N  N12  1  0.477795  0.098520  0.979958  1
  N  N13  1  0.785653  0.707508  0.493160  1
  N  N14  1  0.318045  0.620032  0.301987  1
