# generated using pymatgen
data_CsTb2Ag3Se5
_symmetry_space_group_name_H-M   'P 1'
_cell_length_a   8.12359688
_cell_length_b   8.12359688
_cell_length_c   17.63785250
_cell_angle_alpha   90.00000000
_cell_angle_beta   90.00000000
_cell_angle_gamma   149.09000546
_symmetry_Int_Tables_number   1
_chemical_formula_structural   CsTb2Ag3Se5
_chemical_formula_sum   'Cs2 Tb4 Ag6 Se10'
_cell_volume   597.92171521
_cell_formula_units_Z   2
loop_
 _symmetry_equiv_pos_site_id
 _symmetry_equiv_pos_as_xyz
  1  'x, y, z'
loop_
 _atom_site_type_symbol
 _atom_site_label
 _atom_site_symmetry_multiplicity
 _atom_site_fract_x
 _atom_site_fract_y
 _atom_site_fract_z
 _atom_site_occupancy
  Cs  Cs0  1  0.561678  0.438322  0.750000  1
  Cs  Cs1  1  0.438322  0.561678  0.250000  1
  Tb  Tb2  1  0.692777  0.307223  0.404925  1
  Tb  Tb3  1  0.307223  0.692777  0.595075  1
  Tb  Tb4  1  0.307223  0.692777  0.904925  1
  Tb  Tb5  1  0.692777  0.307223  0.095075  1
  Ag  Ag6  1  0.843570  0.156430  0.750000  1
  Ag  Ag7  1  0.156430  0.843570  0.250000  1
  Ag  Ag8  1  0.917104  0.082896  0.458283  1
  Ag  Ag9  1  0.082896  0.917104  0.541717  1
  Ag  Ag10  1  0.082896  0.917104  0.958283  1
  Ag  Ag11  1  0.917104  0.082896  0.041717  1
  Se  Se12  1  0.930700  0.069300  0.884184  1
  Se  Se13  1  0.069300  0.930700  0.115816  1
  Se  Se14  1  0.069300  0.930700  0.384184  1
  Se  Se15  1  0.930700  0.069300  0.615816  1
  Se  Se16  1  0.247431  0.752569  0.750000  1
  Se  Se17  1  0.752569  0.247431  0.250000  1
  Se  Se18  1  0.681601  0.318399  0.930415  1
  Se  Se19  1  0.318399  0.681601  0.069585  1
  Se  Se20  1  0.318399  0.681601  0.430415  1
  Se  Se21  1  0.681601  0.318399  0.569585  1
