# generated using pymatgen
data_Cs8Ta6O19
_symmetry_space_group_name_H-M   'P 1'
_cell_length_a   10.04851698
_cell_length_b   10.04851698
_cell_length_c   10.04851698
_cell_angle_alpha   119.85404288
_cell_angle_beta   119.85404288
_cell_angle_gamma   90.25299160
_symmetry_Int_Tables_number   1
_chemical_formula_structural   Cs8Ta6O19
_chemical_formula_sum   'Cs8 Ta6 O19'
_cell_volume   719.02400255
_cell_formula_units_Z   1
loop_
 _symmetry_equiv_pos_site_id
 _symmetry_equiv_pos_as_xyz
  1  'x, y, z'
loop_
 _atom_site_type_symbol
 _atom_site_label
 _atom_site_symmetry_multiplicity
 _atom_site_fract_x
 _atom_site_fract_y
 _atom_site_fract_z
 _atom_site_occupancy
  Cs  Cs0  1  0.931996  0.564693  0.200343  1
  Cs  Cs1  1  0.731653  0.931996  0.367304  1
  Cs  Cs2  1  0.564693  0.364349  0.632696  1
  Cs  Cs3  1  0.364349  0.731653  0.799657  1
  Cs  Cs4  1  0.068004  0.435307  0.799657  1
  Cs  Cs5  1  0.268347  0.068004  0.632696  1
  Cs  Cs6  1  0.435307  0.635651  0.367304  1
  Cs  Cs7  1  0.635651  0.268347  0.200343  1
  Ta  Ta8  1  0.895673  0.786371  0.682044  1
  Ta  Ta9  1  0.213629  0.895673  0.109302  1
  Ta  Ta10  1  0.786371  0.104327  0.890698  1
  Ta  Ta11  1  0.104327  0.213629  0.317956  1
  Ta  Ta12  1  0.166449  0.166449  0.000000  1
  Ta  Ta13  1  0.833551  0.833551  0.000000  1
  O  O14  1  0.803293  0.629630  0.432923  1
  O  O15  1  0.370370  0.803293  0.173662  1
  O  O16  1  0.629630  0.196707  0.826338  1
  O  O17  1  0.196707  0.370370  0.567077  1
  O  O18  1  0.296017  0.296017  0.000000  1
  O  O19  1  0.703983  0.703983  0.000000  1
  O  O20  1  0.087060  0.739713  0.826773  1
  O  O21  1  0.260287  0.087060  0.347348  1
  O  O22  1  0.739713  0.912940  0.652652  1
  O  O23  1  0.912940  0.260287  0.173227  1
  O  O24  1  0.773028  0.684965  0.736308  1
  O  O25  1  0.036720  0.773028  0.088063  1
  O  O26  1  0.684965  0.948657  0.911937  1
  O  O27  1  0.948657  0.036720  0.263692  1
  O  O28  1  0.226972  0.315035  0.263692  1
  O  O29  1  0.963280  0.226972  0.911937  1
  O  O30  1  0.315035  0.051343  0.088063  1
  O  O31  1  0.051343  0.963280  0.736308  1
  O  O32  1  0.000000  0.000000  0.000000  1
