# generated using pymatgen
data_RbSb2C2O4F5
_symmetry_space_group_name_H-M   'P 1'
_cell_length_a   6.15305008
_cell_length_b   6.65900938
_cell_length_c   23.13776485
_cell_angle_alpha   90.00000000
_cell_angle_beta   90.00000000
_cell_angle_gamma   90.00000000
_symmetry_Int_Tables_number   1
_chemical_formula_structural   RbSb2C2O4F5
_chemical_formula_sum   'Rb4 Sb8 C8 O16 F20'
_cell_volume   948.02868782
_cell_formula_units_Z   4
loop_
 _symmetry_equiv_pos_site_id
 _symmetry_equiv_pos_as_xyz
  1  'x, y, z'
loop_
 _atom_site_type_symbol
 _atom_site_label
 _atom_site_symmetry_multiplicity
 _atom_site_fract_x
 _atom_site_fract_y
 _atom_site_fract_z
 _atom_site_occupancy
  Rb  Rb0  1  0.477580  0.005284  0.003902  1
  Rb  Rb1  1  0.977580  0.494716  0.996098  1
  Rb  Rb2  1  0.022420  0.994716  0.503902  1
  Rb  Rb3  1  0.522420  0.505284  0.496098  1
  Sb  Sb4  1  0.487804  0.990829  0.385293  1
  Sb  Sb5  1  0.534987  0.548898  0.857367  1
  Sb  Sb6  1  0.512196  0.490829  0.114707  1
  Sb  Sb7  1  0.965013  0.451102  0.357367  1
  Sb  Sb8  1  0.987804  0.509171  0.614707  1
  Sb  Sb9  1  0.034987  0.951102  0.142633  1
  Sb  Sb10  1  0.465013  0.048898  0.642633  1
  Sb  Sb11  1  0.012196  0.009171  0.885293  1
  C  C12  1  0.679326  0.443477  0.735413  1
  C  C13  1  0.682111  0.375246  0.255030  1
  C  C14  1  0.179326  0.056523  0.264587  1
  C  C15  1  0.320674  0.943477  0.764587  1
  C  C16  1  0.182111  0.124754  0.744970  1
  C  C17  1  0.820674  0.556523  0.235413  1
  C  C18  1  0.817889  0.624754  0.755030  1
  C  C19  1  0.317889  0.875246  0.244970  1
  O  O20  1  0.696543  0.381939  0.684079  1
  O  O21  1  0.052033  0.205364  0.778163  1
  O  O22  1  0.785361  0.681466  0.808686  1
  O  O23  1  0.214639  0.181466  0.691314  1
  O  O24  1  0.285361  0.818534  0.191314  1
  O  O25  1  0.552033  0.294636  0.221837  1
  O  O26  1  0.196543  0.118061  0.315921  1
  O  O27  1  0.552809  0.368544  0.773382  1
  O  O28  1  0.947191  0.631456  0.273382  1
  O  O29  1  0.947967  0.705364  0.721837  1
  O  O30  1  0.803457  0.618061  0.184079  1
  O  O31  1  0.303457  0.881939  0.815921  1
  O  O32  1  0.714639  0.318534  0.308686  1
  O  O33  1  0.447967  0.794636  0.278163  1
  O  O34  1  0.052809  0.131456  0.226618  1
  O  O35  1  0.447191  0.868544  0.726618  1
  F  F36  1  0.751062  0.703020  0.596985  1
  F  F37  1  0.745008  0.345935  0.887738  1
  F  F38  1  0.178817  0.765659  0.082977  1
  F  F39  1  0.321183  0.234341  0.582977  1
  F  F40  1  0.748938  0.296980  0.096985  1
  F  F41  1  0.577200  0.927358  0.468008  1
  F  F42  1  0.821183  0.265659  0.417023  1
  F  F43  1  0.245008  0.154065  0.112262  1
  F  F44  1  0.077200  0.572642  0.531992  1
  F  F45  1  0.248938  0.203020  0.903015  1
  F  F46  1  0.254992  0.845935  0.612262  1
  F  F47  1  0.251062  0.796980  0.403015  1
  F  F48  1  0.318933  0.208480  0.424619  1
  F  F49  1  0.754992  0.654065  0.387738  1
  F  F50  1  0.678817  0.734341  0.917023  1
  F  F51  1  0.818933  0.291520  0.575381  1
  F  F52  1  0.181067  0.791520  0.924619  1
  F  F53  1  0.922800  0.072642  0.968008  1
  F  F54  1  0.422800  0.427358  0.031992  1
  F  F55  1  0.681067  0.708480  0.075381  1
