# generated using pymatgen
data_FeCuO2
_symmetry_space_group_name_H-M   'P 1'
_cell_length_a   6.02979600
_cell_length_b   6.02979600
_cell_length_c   6.02979600
_cell_angle_alpha   29.49005806
_cell_angle_beta   29.49005806
_cell_angle_gamma   29.49005806
_symmetry_Int_Tables_number   1
_chemical_formula_structural   FeCuO2
_chemical_formula_sum   'Fe1 Cu1 O2'
_cell_volume   47.02406890
_cell_formula_units_Z   1
loop_
 _symmetry_equiv_pos_site_id
 _symmetry_equiv_pos_as_xyz
  1  'x, y, z'
loop_
 _atom_site_type_symbol
 _atom_site_label
 _atom_site_symmetry_multiplicity
 _atom_site_fract_x
 _atom_site_fract_y
 _atom_site_fract_z
 _atom_site_occupancy
  Fe  Fe0  1  0.500000  0.500000  0.500000  1
  Cu  Cu1  1  0.000000  0.000000  0.000000  1
  O  O2  1  0.893207  0.893207  0.893207  1
  O  O3  1  0.106793  0.106793  0.106793  1
