# generated using pymatgen
data_Na2SrV3O9
_symmetry_space_group_name_H-M   'P 1'
_cell_length_a   5.51257397
_cell_length_b   15.21247961
_cell_length_c   10.25788006
_cell_angle_alpha   90.00000000
_cell_angle_beta   97.74248492
_cell_angle_gamma   90.00000000
_symmetry_Int_Tables_number   1
_chemical_formula_structural   Na2SrV3O9
_chemical_formula_sum   'Na8 Sr4 V12 O36'
_cell_volume   852.38281591
_cell_formula_units_Z   4
loop_
 _symmetry_equiv_pos_site_id
 _symmetry_equiv_pos_as_xyz
  1  'x, y, z'
loop_
 _atom_site_type_symbol
 _atom_site_label
 _atom_site_symmetry_multiplicity
 _atom_site_fract_x
 _atom_site_fract_y
 _atom_site_fract_z
 _atom_site_occupancy
  Na  Na0  1  0.765358  0.291825  0.469489  1
  Na  Na1  1  0.751584  0.933385  0.022372  1
  Na  Na2  1  0.765358  0.208175  0.969489  1
  Na  Na3  1  0.234642  0.791825  0.030511  1
  Na  Na4  1  0.248416  0.066615  0.977628  1
  Na  Na5  1  0.248416  0.433385  0.477628  1
  Na  Na6  1  0.751584  0.566615  0.522372  1
  Na  Na7  1  0.234642  0.708175  0.530511  1
  Sr  Sr8  1  0.259317  0.113909  0.532065  1
  Sr  Sr9  1  0.259317  0.386091  0.032065  1
  Sr  Sr10  1  0.740683  0.886091  0.467935  1
  Sr  Sr11  1  0.740683  0.613909  0.967935  1
  V  V12  1  0.709171  0.400685  0.784466  1
  V  V13  1  0.709171  0.099315  0.284466  1
  V  V14  1  0.211171  0.952571  0.295503  1
  V  V15  1  0.785510  0.763284  0.744444  1
  V  V16  1  0.290829  0.900685  0.715534  1
  V  V17  1  0.214490  0.236716  0.255556  1
  V  V18  1  0.785510  0.736716  0.244444  1
  V  V19  1  0.788829  0.452571  0.204497  1
  V  V20  1  0.211171  0.547429  0.795503  1
  V  V21  1  0.788829  0.047429  0.704497  1
  V  V22  1  0.214490  0.263284  0.755556  1
  V  V23  1  0.290829  0.599315  0.215534  1
  O  O24  1  0.654966  0.089751  0.121314  1
  O  O25  1  0.517197  0.687304  0.157761  1
  O  O26  1  0.749968  0.847070  0.222034  1
  O  O27  1  0.824511  0.060338  0.870386  1
  O  O28  1  0.030405  0.984835  0.646103  1
  O  O29  1  0.654966  0.410249  0.621314  1
  O  O30  1  0.345034  0.910249  0.878686  1
  O  O31  1  0.250032  0.152930  0.777966  1
  O  O32  1  0.969595  0.015165  0.353897  1
  O  O33  1  0.749742  0.358774  0.111877  1
  O  O34  1  0.250258  0.858774  0.388123  1
  O  O35  1  0.250258  0.641226  0.888123  1
  O  O36  1  0.749968  0.652930  0.722034  1
  O  O37  1  0.969595  0.484835  0.853897  1
  O  O38  1  0.482803  0.312696  0.842239  1
  O  O39  1  0.483345  0.013786  0.350952  1
  O  O40  1  0.345034  0.589751  0.378686  1
  O  O41  1  0.034157  0.809055  0.670398  1
  O  O42  1  0.517197  0.812696  0.657761  1
  O  O43  1  0.483345  0.486214  0.850952  1
  O  O44  1  0.189784  0.282013  0.590162  1
  O  O45  1  0.175489  0.939662  0.129614  1
  O  O46  1  0.810216  0.717987  0.409838  1
  O  O47  1  0.189784  0.217987  0.090162  1
  O  O48  1  0.516655  0.986214  0.649048  1
  O  O49  1  0.030405  0.515165  0.146103  1
  O  O50  1  0.824511  0.439662  0.370386  1
  O  O51  1  0.965843  0.309055  0.829602  1
  O  O52  1  0.749742  0.141226  0.611877  1
  O  O53  1  0.810216  0.782013  0.909838  1
  O  O54  1  0.965843  0.190945  0.329602  1
  O  O55  1  0.482803  0.187304  0.342239  1
  O  O56  1  0.175489  0.560338  0.629614  1
  O  O57  1  0.516655  0.513786  0.149048  1
  O  O58  1  0.250032  0.347070  0.277966  1
  O  O59  1  0.034157  0.690945  0.170398  1
