# generated using pymatgen
data_SrGeO3
_symmetry_space_group_name_H-M   'P 1'
_cell_length_a   8.77188340
_cell_length_b   10.07480742
_cell_length_c   11.31029466
_cell_angle_alpha   106.09496448
_cell_angle_beta   89.91154151
_cell_angle_gamma   102.09578770
_symmetry_Int_Tables_number   1
_chemical_formula_structural   SrGeO3
_chemical_formula_sum   'Sr12 Ge12 O36'
_cell_volume   937.34478937
_cell_formula_units_Z   12
loop_
 _symmetry_equiv_pos_site_id
 _symmetry_equiv_pos_as_xyz
  1  'x, y, z'
loop_
 _atom_site_type_symbol
 _atom_site_label
 _atom_site_symmetry_multiplicity
 _atom_site_fract_x
 _atom_site_fract_y
 _atom_site_fract_z
 _atom_site_occupancy
  Sr  Sr0  1  0.401571  0.649805  0.485680  1
  Sr  Sr1  1  0.251206  0.002431  0.492039  1
  Sr  Sr2  1  0.083247  0.350462  0.664058  1
  Sr  Sr3  1  0.077696  0.342027  0.012964  1
  Sr  Sr4  1  0.430929  0.649398  0.842666  1
  Sr  Sr5  1  0.598429  0.350195  0.514320  1
  Sr  Sr6  1  0.748105  0.002225  0.010010  1
  Sr  Sr7  1  0.569071  0.350602  0.157334  1
  Sr  Sr8  1  0.748794  0.997569  0.507961  1
  Sr  Sr9  1  0.916753  0.649538  0.335942  1
  Sr  Sr10  1  0.251895  0.997775  0.989990  1
  Sr  Sr11  1  0.922304  0.657973  0.987036  1
  Ge  Ge12  1  0.755560  0.705240  0.710918  1
  Ge  Ge13  1  0.100712  0.704019  0.640354  1
  Ge  Ge14  1  0.259944  0.703830  0.138742  1
  Ge  Ge15  1  0.244440  0.294760  0.289082  1
  Ge  Ge16  1  0.899288  0.295981  0.359646  1
  Ge  Ge17  1  0.394507  0.290824  0.783213  1
  Ge  Ge18  1  0.496846  0.995228  0.249390  1
  Ge  Ge19  1  0.605493  0.709176  0.216787  1
  Ge  Ge20  1  0.740056  0.296170  0.861258  1
  Ge  Ge21  1  0.997153  0.993580  0.748489  1
  Ge  Ge22  1  0.002847  0.006420  0.251511  1
  Ge  Ge23  1  0.503154  0.004772  0.750610  1
  O  O24  1  0.590352  0.390755  0.843053  1
  O  O25  1  0.743257  0.739438  0.870790  1
  O  O26  1  0.269526  0.396641  0.858876  1
  O  O27  1  0.773254  0.397691  0.329526  1
  O  O28  1  0.730474  0.603359  0.141124  1
  O  O29  1  0.185181  0.128714  0.326196  1
  O  O30  1  0.954729  0.913338  0.359084  1
  O  O31  1  0.314994  0.868495  0.260615  1
  O  O32  1  0.902617  0.606489  0.646807  1
  O  O33  1  0.994700  0.084203  0.902852  1
  O  O34  1  0.005300  0.915797  0.097148  1
  O  O35  1  0.542390  0.085406  0.403545  1
  O  O36  1  0.421046  0.396561  0.365282  1
  O  O37  1  0.685006  0.131505  0.739385  1
  O  O38  1  0.250294  0.739705  0.996361  1
  O  O39  1  0.814819  0.871286  0.673804  1
  O  O40  1  0.919568  0.402964  0.845647  1
  O  O41  1  0.623937  0.873509  0.177552  1
  O  O42  1  0.368386  0.263435  0.624223  1
  O  O43  1  0.045271  0.086662  0.640916  1
  O  O44  1  0.080432  0.597036  0.154353  1
  O  O45  1  0.749706  0.260295  0.003639  1
  O  O46  1  0.882334  0.132000  0.238517  1
  O  O47  1  0.133746  0.738406  0.497884  1
  O  O48  1  0.376063  0.126491  0.822448  1
  O  O49  1  0.503890  0.913977  0.860086  1
  O  O50  1  0.097383  0.393511  0.353193  1
  O  O51  1  0.226746  0.602309  0.670474  1
  O  O52  1  0.866254  0.261594  0.502116  1
  O  O53  1  0.631614  0.736565  0.375777  1
  O  O54  1  0.578954  0.603439  0.634718  1
  O  O55  1  0.457610  0.914594  0.596455  1
  O  O56  1  0.409648  0.609245  0.156947  1
  O  O57  1  0.256743  0.260562  0.129210  1
  O  O58  1  0.496110  0.086023  0.139914  1
  O  O59  1  0.117666  0.868000  0.761483  1
