# generated using pymatgen
data_Pr6S4N3Cl
_symmetry_space_group_name_H-M   'P 1'
_cell_length_a   4.06621778
_cell_length_b   11.87080606
_cell_length_c   26.94831995
_cell_angle_alpha   90.00000000
_cell_angle_beta   90.00000000
_cell_angle_gamma   90.00000000
_symmetry_Int_Tables_number   1
_chemical_formula_structural   Pr6S4N3Cl
_chemical_formula_sum   'Pr24 S16 N12 Cl4'
_cell_volume   1300.77607299
_cell_formula_units_Z   4
loop_
 _symmetry_equiv_pos_site_id
 _symmetry_equiv_pos_as_xyz
  1  'x, y, z'
loop_
 _atom_site_type_symbol
 _atom_site_label
 _atom_site_symmetry_multiplicity
 _atom_site_fract_x
 _atom_site_fract_y
 _atom_site_fract_z
 _atom_site_occupancy
  Pr  Pr0  1  0.750000  0.264646  0.169146  1
  Pr  Pr1  1  0.250000  0.235354  0.669146  1
  Pr  Pr2  1  0.250000  0.234631  0.934504  1
  Pr  Pr3  1  0.250000  0.911569  0.959565  1
  Pr  Pr4  1  0.250000  0.445333  0.809297  1
  Pr  Pr5  1  0.750000  0.054667  0.309297  1
  Pr  Pr6  1  0.250000  0.411569  0.540435  1
  Pr  Pr7  1  0.750000  0.088431  0.040435  1
  Pr  Pr8  1  0.750000  0.588431  0.459565  1
  Pr  Pr9  1  0.250000  0.883049  0.205262  1
  Pr  Pr10  1  0.750000  0.616951  0.705262  1
  Pr  Pr11  1  0.750000  0.765369  0.065496  1
  Pr  Pr12  1  0.750000  0.558369  0.926172  1
  Pr  Pr13  1  0.750000  0.058369  0.573828  1
  Pr  Pr14  1  0.750000  0.764646  0.330854  1
  Pr  Pr15  1  0.750000  0.265369  0.434504  1
  Pr  Pr16  1  0.250000  0.735354  0.830854  1
  Pr  Pr17  1  0.250000  0.734631  0.565496  1
  Pr  Pr18  1  0.250000  0.383049  0.294738  1
  Pr  Pr19  1  0.250000  0.945333  0.690703  1
  Pr  Pr20  1  0.750000  0.116951  0.794738  1
  Pr  Pr21  1  0.750000  0.554667  0.190703  1
  Pr  Pr22  1  0.250000  0.941631  0.426172  1
  Pr  Pr23  1  0.250000  0.441631  0.073828  1
  S  S24  1  0.750000  0.454812  0.365274  1
  S  S25  1  0.750000  0.954812  0.134726  1
  S  S26  1  0.750000  0.786221  0.896254  1
  S  S27  1  0.250000  0.145936  0.492773  1
  S  S28  1  0.750000  0.354064  0.992773  1
  S  S29  1  0.250000  0.681949  0.140907  1
  S  S30  1  0.750000  0.318051  0.859093  1
  S  S31  1  0.250000  0.545188  0.634726  1
  S  S32  1  0.750000  0.286221  0.603746  1
  S  S33  1  0.250000  0.645936  0.007227  1
  S  S34  1  0.250000  0.045188  0.865274  1
  S  S35  1  0.250000  0.181949  0.359093  1
  S  S36  1  0.250000  0.713779  0.396254  1
  S  S37  1  0.750000  0.818051  0.640907  1
  S  S38  1  0.250000  0.213779  0.103746  1
  S  S39  1  0.750000  0.854064  0.507227  1
  N  N40  1  0.250000  0.611936  0.760364  1
  N  N41  1  0.750000  0.888064  0.260364  1
  N  N42  1  0.250000  0.562045  0.876215  1
  N  N43  1  0.750000  0.388064  0.239636  1
  N  N44  1  0.250000  0.062045  0.623785  1
  N  N45  1  0.250000  0.097724  0.990482  1
  N  N46  1  0.250000  0.111936  0.739636  1
  N  N47  1  0.750000  0.402276  0.490482  1
  N  N48  1  0.750000  0.437955  0.123785  1
  N  N49  1  0.750000  0.902276  0.009518  1
  N  N50  1  0.250000  0.597724  0.509518  1
  N  N51  1  0.750000  0.937955  0.376215  1
  Cl  Cl52  1  0.750000  0.867905  0.767209  1
  Cl  Cl53  1  0.250000  0.632095  0.267209  1
  Cl  Cl54  1  0.750000  0.367905  0.732791  1
  Cl  Cl55  1  0.250000  0.132095  0.232791  1
