# generated using pymatgen
data_K3AlAs2
_symmetry_space_group_name_H-M   'P 1'
_cell_length_a   9.16589365
_cell_length_b   12.29254829
_cell_length_c   15.69881797
_cell_angle_alpha   72.50435902
_cell_angle_beta   73.06033579
_cell_angle_gamma   71.98350177
_symmetry_Int_Tables_number   1
_chemical_formula_structural   K3AlAs2
_chemical_formula_sum   'K24 Al8 As16'
_cell_volume   1565.43038042
_cell_formula_units_Z   8
loop_
 _symmetry_equiv_pos_site_id
 _symmetry_equiv_pos_as_xyz
  1  'x, y, z'
loop_
 _atom_site_type_symbol
 _atom_site_label
 _atom_site_symmetry_multiplicity
 _atom_site_fract_x
 _atom_site_fract_y
 _atom_site_fract_z
 _atom_site_occupancy
  K  K0  1  0.344087  0.917381  0.691396  1
  K  K1  1  0.655913  0.082619  0.308604  1
  K  K2  1  0.822860  0.399465  0.692215  1
  K  K3  1  0.177140  0.600535  0.307785  1
  K  K4  1  0.804712  0.760268  0.681978  1
  K  K5  1  0.195288  0.239732  0.318022  1
  K  K6  1  0.218976  0.751716  0.616706  1
  K  K7  1  0.781024  0.248284  0.383294  1
  K  K8  1  0.163438  0.425016  0.756938  1
  K  K9  1  0.836562  0.574984  0.243062  1
  K  K10  1  0.983335  0.108066  0.587004  1
  K  K11  1  0.016665  0.891934  0.412996  1
  K  K12  1  0.541249  0.078566  0.744721  1
  K  K13  1  0.458751  0.921434  0.255279  1
  K  K14  1  0.480265  0.573234  0.841559  1
  K  K15  1  0.519735  0.426766  0.158441  1
  K  K16  1  0.028831  0.098115  0.850492  1
  K  K17  1  0.971169  0.901885  0.149508  1
  K  K18  1  0.513078  0.376165  0.584666  1
  K  K19  1  0.486922  0.623835  0.415334  1
  K  K20  1  0.317409  0.082377  0.021420  1
  K  K21  1  0.682591  0.917623  0.978580  1
  K  K22  1  0.819350  0.625996  0.975874  1
  K  K23  1  0.180650  0.374004  0.024126  1
  Al  Al24  1  0.156788  0.387998  0.510104  1
  Al  Al25  1  0.843212  0.612002  0.489896  1
  Al  Al26  1  0.407296  0.142547  0.508883  1
  Al  Al27  1  0.592704  0.857453  0.491117  1
  Al  Al28  1  0.148624  0.779875  0.923454  1
  Al  Al29  1  0.851376  0.220125  0.076546  1
  Al  Al30  1  0.641116  0.268900  0.946214  1
  Al  Al31  1  0.358884  0.731100  0.053786  1
  As  As32  1  0.218808  0.219050  0.645164  1
  As  As33  1  0.781192  0.780950  0.354836  1
  As  As34  1  0.326490  0.987765  0.461023  1
  As  As35  1  0.673510  0.012235  0.538977  1
  As  As36  1  0.587737  0.660048  0.606354  1
  As  As37  1  0.412263  0.339952  0.393646  1
  As  As38  1  0.093831  0.591039  0.540882  1
  As  As39  1  0.906169  0.408961  0.459118  1
  As  As40  1  0.988964  0.832955  0.815436  1
  As  As41  1  0.011036  0.167045  0.184564  1
  As  As42  1  0.488666  0.292665  0.841153  1
  As  As43  1  0.511334  0.707335  0.158847  1
  As  As44  1  0.846471  0.370134  0.930786  1
  As  As45  1  0.153529  0.629866  0.069214  1
  As  As46  1  0.367800  0.869733  0.905463  1
  As  As47  1  0.632200  0.130267  0.094537  1
