# generated using pymatgen
data_P4S(NF)6
_symmetry_space_group_name_H-M   'P 1'
_cell_length_a   9.62541635
_cell_length_b   11.86889164
_cell_length_c   20.69857408
_cell_angle_alpha   90.00000000
_cell_angle_beta   103.22507169
_cell_angle_gamma   90.00000000
_symmetry_Int_Tables_number   1
_chemical_formula_structural   P4S(NF)6
_chemical_formula_sum   'P32 S8 N48 F48'
_cell_volume   2301.95406956
_cell_formula_units_Z   8
loop_
 _symmetry_equiv_pos_site_id
 _symmetry_equiv_pos_as_xyz
  1  'x, y, z'
loop_
 _atom_site_type_symbol
 _atom_site_label
 _atom_site_symmetry_multiplicity
 _atom_site_fract_x
 _atom_site_fract_y
 _atom_site_fract_z
 _atom_site_occupancy
  P  P0  1  0.394065  0.031065  0.858375  1
  P  P1  1  0.800177  0.703438  0.639567  1
  P  P2  1  0.800177  0.796562  0.139567  1
  P  P3  1  0.285281  0.210450  0.633281  1
  P  P4  1  0.328737  0.871377  0.650036  1
  P  P5  1  0.810488  0.361476  0.631446  1
  P  P6  1  0.479448  0.544087  0.871698  1
  P  P7  1  0.671263  0.128623  0.349964  1
  P  P8  1  0.109694  0.024147  0.650021  1
  P  P9  1  0.605935  0.968935  0.141625  1
  P  P10  1  0.189512  0.861476  0.868554  1
  P  P11  1  0.021164  0.549021  0.626084  1
  P  P12  1  0.199823  0.296562  0.360433  1
  P  P13  1  0.978836  0.049021  0.873916  1
  P  P14  1  0.890306  0.524147  0.849979  1
  P  P15  1  0.714719  0.789550  0.366719  1
  P  P16  1  0.605935  0.531065  0.641625  1
  P  P17  1  0.109694  0.475853  0.150021  1
  P  P18  1  0.671263  0.371377  0.849964  1
  P  P19  1  0.520552  0.044087  0.628302  1
  P  P20  1  0.714719  0.710450  0.866719  1
  P  P21  1  0.328737  0.628623  0.150036  1
  P  P22  1  0.890306  0.975853  0.349979  1
  P  P23  1  0.285281  0.289550  0.133281  1
  P  P24  1  0.978836  0.450979  0.373916  1
  P  P25  1  0.199823  0.203438  0.860433  1
  P  P26  1  0.479448  0.955913  0.371698  1
  P  P27  1  0.520552  0.455913  0.128302  1
  P  P28  1  0.021164  0.950979  0.126084  1
  P  P29  1  0.810488  0.138524  0.131446  1
  P  P30  1  0.394065  0.468935  0.358375  1
  P  P31  1  0.189512  0.638524  0.368554  1
  S  S32  1  0.074940  0.857583  0.549861  1
  S  S33  1  0.549126  0.690920  0.537698  1
  S  S34  1  0.450874  0.309080  0.462302  1
  S  S35  1  0.074940  0.642417  0.049861  1
  S  S36  1  0.925060  0.142417  0.450139  1
  S  S37  1  0.925060  0.357583  0.950139  1
  S  S38  1  0.450874  0.190920  0.962302  1
  S  S39  1  0.549126  0.809080  0.037698  1
  N  N40  1  0.504520  0.584604  0.571499  1
  N  N41  1  0.771922  0.315507  0.919385  1
  N  N42  1  0.720765  0.880525  0.178538  1
  N  N43  1  0.771922  0.184493  0.419385  1
  N  N44  1  0.419331  0.147536  0.622026  1
  N  N45  1  0.237967  0.947725  0.687898  1
  N  N46  1  0.050411  0.331703  0.374151  1
  N  N47  1  0.279235  0.380525  0.321462  1
  N  N48  1  0.306169  0.248132  0.931499  1
  N  N49  1  0.693831  0.748132  0.568501  1
  N  N50  1  0.529430  0.080492  0.365489  1
  N  N51  1  0.656350  0.408996  0.626927  1
  N  N52  1  0.983975  0.039688  0.418490  1
  N  N53  1  0.059820  0.936387  0.872974  1
  N  N54  1  0.470570  0.919508  0.634511  1
  N  N55  1  0.949589  0.668297  0.625849  1
  N  N56  1  0.529430  0.419508  0.865489  1
  N  N57  1  0.237967  0.552275  0.187898  1
  N  N58  1  0.139980  0.150124  0.632733  1
  N  N59  1  0.580669  0.852464  0.377974  1
  N  N60  1  0.656350  0.091004  0.126927  1
  N  N61  1  0.419331  0.352464  0.122026  1
  N  N62  1  0.059820  0.563613  0.372974  1
  N  N63  1  0.693831  0.751868  0.068501  1
  N  N64  1  0.580669  0.647536  0.877974  1
  N  N65  1  0.720765  0.619475  0.678538  1
  N  N66  1  0.940180  0.436387  0.627026  1
  N  N67  1  0.949589  0.831703  0.125849  1
  N  N68  1  0.860020  0.849876  0.367267  1
  N  N69  1  0.343650  0.908996  0.873073  1
  N  N70  1  0.343650  0.591004  0.373073  1
  N  N71  1  0.228078  0.684493  0.080615  1
  N  N72  1  0.139980  0.349876  0.132733  1
  N  N73  1  0.504520  0.915396  0.071499  1
  N  N74  1  0.495480  0.084604  0.928501  1
  N  N75  1  0.228078  0.815507  0.580615  1
  N  N76  1  0.279235  0.119475  0.821462  1
  N  N77  1  0.016025  0.539688  0.081510  1
  N  N78  1  0.495480  0.415396  0.428501  1
  N  N79  1  0.762033  0.052275  0.312102  1
  N  N80  1  0.860020  0.650124  0.867267  1
  N  N81  1  0.470570  0.580492  0.134511  1
  N  N82  1  0.016025  0.960312  0.581510  1
  N  N83  1  0.762033  0.447725  0.812102  1
  N  N84  1  0.050411  0.168297  0.874151  1
  N  N85  1  0.306169  0.251868  0.431499  1
  N  N86  1  0.983975  0.460312  0.918490  1
  N  N87  1  0.940180  0.063613  0.127026  1
  F  F88  1  0.671510  0.713821  0.303608  1
  F  F89  1  0.998142  0.030747  0.694098  1
  F  F90  1  0.145886  0.784428  0.806095  1
  F  F91  1  0.655826  0.433392  0.184659  1
  F  F92  1  0.655826  0.066608  0.684659  1
  F  F93  1  0.591427  0.047554  0.567491  1
  F  F94  1  0.408573  0.547554  0.932509  1
  F  F95  1  0.749928  0.694523  0.420370  1
  F  F96  1  0.159098  0.546527  0.682843  1
  F  F97  1  0.001858  0.530747  0.805902  1
  F  F98  1  0.908126  0.452751  0.434770  1
  F  F99  1  0.591427  0.452446  0.067491  1
  F  F100  1  0.829605  0.685480  0.180822  1
  F  F101  1  0.375450  0.735848  0.193406  1
  F  F102  1  0.170395  0.314520  0.819178  1
  F  F103  1  0.840902  0.046527  0.817157  1
  F  F104  1  0.205579  0.730951  0.423633  1
  F  F105  1  0.908126  0.047249  0.934770  1
  F  F106  1  0.328490  0.213821  0.196392  1
  F  F107  1  0.170395  0.185480  0.319178  1
  F  F108  1  0.829605  0.814520  0.680822  1
  F  F109  1  0.001858  0.969253  0.305902  1
  F  F110  1  0.493901  0.514662  0.684795  1
  F  F111  1  0.506099  0.014662  0.815205  1
  F  F112  1  0.145886  0.715572  0.306095  1
  F  F113  1  0.344174  0.933392  0.315341  1
  F  F114  1  0.854114  0.215572  0.193905  1
  F  F115  1  0.159098  0.953473  0.182843  1
  F  F116  1  0.091874  0.547249  0.565230  1
  F  F117  1  0.493901  0.985338  0.184795  1
  F  F118  1  0.998142  0.469253  0.194098  1
  F  F119  1  0.250072  0.194523  0.079630  1
  F  F120  1  0.408573  0.952446  0.432509  1
  F  F121  1  0.840902  0.453473  0.317157  1
  F  F122  1  0.854114  0.284428  0.693905  1
  F  F123  1  0.375450  0.764152  0.693406  1
  F  F124  1  0.749928  0.805477  0.920370  1
  F  F125  1  0.624550  0.235848  0.306594  1
  F  F126  1  0.091874  0.952751  0.065230  1
  F  F127  1  0.506099  0.485338  0.315205  1
  F  F128  1  0.794421  0.269049  0.576367  1
  F  F129  1  0.671510  0.786179  0.803608  1
  F  F130  1  0.250072  0.305477  0.579630  1
  F  F131  1  0.328490  0.286179  0.696392  1
  F  F132  1  0.205579  0.769049  0.923633  1
  F  F133  1  0.794421  0.230951  0.076367  1
  F  F134  1  0.624550  0.264152  0.806594  1
  F  F135  1  0.344174  0.566608  0.815341  1
