# generated using pymatgen
data_NaMg4(PO4)3
_symmetry_space_group_name_H-M   'P 1'
_cell_length_a   6.39378726
_cell_length_b   9.92278839
_cell_length_c   15.52961255
_cell_angle_alpha   90.00000000
_cell_angle_beta   90.00000000
_cell_angle_gamma   90.00000000
_symmetry_Int_Tables_number   1
_chemical_formula_structural   NaMg4(PO4)3
_chemical_formula_sum   'Na4 Mg16 P12 O48'
_cell_volume   985.26381336
_cell_formula_units_Z   4
loop_
 _symmetry_equiv_pos_site_id
 _symmetry_equiv_pos_as_xyz
  1  'x, y, z'
loop_
 _atom_site_type_symbol
 _atom_site_label
 _atom_site_symmetry_multiplicity
 _atom_site_fract_x
 _atom_site_fract_y
 _atom_site_fract_z
 _atom_site_occupancy
  Na  Na0  1  0.250000  0.249542  0.786611  1
  Na  Na1  1  0.750000  0.250458  0.286611  1
  Na  Na2  1  0.750000  0.750458  0.213389  1
  Na  Na3  1  0.250000  0.749542  0.713389  1
  Mg  Mg4  1  0.499293  0.247118  0.054942  1
  Mg  Mg5  1  0.500707  0.252882  0.554942  1
  Mg  Mg6  1  0.000707  0.747118  0.445058  1
  Mg  Mg7  1  0.250000  0.045164  0.370022  1
  Mg  Mg8  1  0.750000  0.066321  0.871633  1
  Mg  Mg9  1  0.250000  0.433679  0.371633  1
  Mg  Mg10  1  0.250000  0.545164  0.129978  1
  Mg  Mg11  1  0.000707  0.247118  0.054942  1
  Mg  Mg12  1  0.999293  0.252882  0.554942  1
  Mg  Mg13  1  0.999293  0.752882  0.945058  1
  Mg  Mg14  1  0.750000  0.954836  0.629978  1
  Mg  Mg15  1  0.750000  0.566321  0.628367  1
  Mg  Mg16  1  0.750000  0.454836  0.870022  1
  Mg  Mg17  1  0.250000  0.933679  0.128367  1
  Mg  Mg18  1  0.500707  0.752882  0.945058  1
  Mg  Mg19  1  0.499293  0.747118  0.445058  1
  P  P20  1  0.750000  0.794866  0.772613  1
  P  P21  1  0.250000  0.705134  0.272613  1
  P  P22  1  0.750000  0.456112  0.443635  1
  P  P23  1  0.750000  0.294866  0.727387  1
  P  P24  1  0.250000  0.470880  0.938499  1
  P  P25  1  0.250000  0.970880  0.561501  1
  P  P26  1  0.250000  0.043888  0.943635  1
  P  P27  1  0.250000  0.205134  0.227387  1
  P  P28  1  0.250000  0.543888  0.556365  1
  P  P29  1  0.750000  0.956112  0.056365  1
  P  P30  1  0.750000  0.529120  0.061501  1
  P  P31  1  0.750000  0.029120  0.438499  1
  O  O32  1  0.555011  0.062568  0.386964  1
  O  O33  1  0.550230  0.243524  0.681158  1
  O  O34  1  0.250000  0.386682  0.545331  1
  O  O35  1  0.750000  0.895143  0.961261  1
  O  O36  1  0.550230  0.743524  0.818842  1
  O  O37  1  0.750000  0.252478  0.823193  1
  O  O38  1  0.945825  0.404250  0.398522  1
  O  O39  1  0.750000  0.613318  0.454669  1
  O  O40  1  0.250000  0.385447  0.025955  1
  O  O41  1  0.250000  0.886682  0.954669  1
  O  O42  1  0.750000  0.752478  0.676807  1
  O  O43  1  0.250000  0.604857  0.461261  1
  O  O44  1  0.555011  0.562568  0.113036  1
  O  O45  1  0.250000  0.123399  0.531677  1
  O  O46  1  0.050230  0.256476  0.181158  1
  O  O47  1  0.949770  0.743524  0.818842  1
  O  O48  1  0.554175  0.404250  0.398522  1
  O  O49  1  0.554175  0.904250  0.101478  1
  O  O50  1  0.250000  0.047375  0.233826  1
  O  O51  1  0.054175  0.595750  0.601478  1
  O  O52  1  0.945825  0.904250  0.101478  1
  O  O53  1  0.449770  0.756476  0.318842  1
  O  O54  1  0.750000  0.876601  0.468323  1
  O  O55  1  0.445825  0.095750  0.898522  1
  O  O56  1  0.750000  0.376601  0.031677  1
  O  O57  1  0.050230  0.756476  0.318842  1
  O  O58  1  0.055011  0.937432  0.613036  1
  O  O59  1  0.250000  0.747522  0.176807  1
  O  O60  1  0.250000  0.885447  0.474045  1
  O  O61  1  0.250000  0.247522  0.323193  1
  O  O62  1  0.449770  0.256476  0.181158  1
  O  O63  1  0.444989  0.437432  0.886964  1
  O  O64  1  0.055011  0.437432  0.886964  1
  O  O65  1  0.250000  0.547375  0.266174  1
  O  O66  1  0.054175  0.095750  0.898522  1
  O  O67  1  0.444989  0.937432  0.613036  1
  O  O68  1  0.750000  0.114553  0.525955  1
  O  O69  1  0.750000  0.452625  0.733826  1
  O  O70  1  0.949770  0.243524  0.681158  1
  O  O71  1  0.750000  0.113318  0.045331  1
  O  O72  1  0.750000  0.952625  0.766174  1
  O  O73  1  0.250000  0.623399  0.968323  1
  O  O74  1  0.445825  0.595750  0.601478  1
  O  O75  1  0.944989  0.562568  0.113036  1
  O  O76  1  0.750000  0.614553  0.974045  1
  O  O77  1  0.944989  0.062568  0.386964  1
  O  O78  1  0.750000  0.395143  0.538739  1
  O  O79  1  0.250000  0.104857  0.038739  1
