# generated using pymatgen
data_Sr4Br6O
_symmetry_space_group_name_H-M   'P 1'
_cell_length_a   9.99661459
_cell_length_b   9.99661459
_cell_length_c   7.67159353
_cell_angle_alpha   90.00000000
_cell_angle_beta   90.00000000
_cell_angle_gamma   120.00000000
_symmetry_Int_Tables_number   1
_chemical_formula_structural   Sr4Br6O
_chemical_formula_sum   'Sr8 Br12 O2'
_cell_volume   663.92972479
_cell_formula_units_Z   2
loop_
 _symmetry_equiv_pos_site_id
 _symmetry_equiv_pos_as_xyz
  1  'x, y, z'
loop_
 _atom_site_type_symbol
 _atom_site_label
 _atom_site_symmetry_multiplicity
 _atom_site_fract_x
 _atom_site_fract_y
 _atom_site_fract_z
 _atom_site_occupancy
  Sr  Sr0  1  0.798912  0.597824  0.997039  1
  Sr  Sr1  1  0.402176  0.201088  0.997039  1
  Sr  Sr2  1  0.666667  0.333333  0.584705  1
  Sr  Sr3  1  0.201088  0.798912  0.497039  1
  Sr  Sr4  1  0.597824  0.798912  0.497039  1
  Sr  Sr5  1  0.201088  0.402176  0.497039  1
  Sr  Sr6  1  0.333333  0.666667  0.084705  1
  Sr  Sr7  1  0.798912  0.201088  0.997039  1
  Br  Br8  1  0.534752  0.069503  0.293150  1
  Br  Br9  1  0.465248  0.930497  0.793150  1
  Br  Br10  1  0.534752  0.465248  0.293150  1
  Br  Br11  1  0.139155  0.860845  0.114368  1
  Br  Br12  1  0.721689  0.860845  0.114368  1
  Br  Br13  1  0.860845  0.721689  0.614368  1
  Br  Br14  1  0.069503  0.534752  0.793150  1
  Br  Br15  1  0.930497  0.465248  0.293150  1
  Br  Br16  1  0.278311  0.139155  0.614368  1
  Br  Br17  1  0.139155  0.278311  0.114368  1
  Br  Br18  1  0.465248  0.534752  0.793150  1
  Br  Br19  1  0.860845  0.139155  0.614368  1
  O  O20  1  0.333333  0.666667  0.396921  1
  O  O21  1  0.666667  0.333333  0.896921  1
