# generated using pymatgen
data_MgAl2O4
_symmetry_space_group_name_H-M   'P 1'
_cell_length_a   5.77533482
_cell_length_b   5.77533482
_cell_length_c   33.20920050
_cell_angle_alpha   85.04121654
_cell_angle_beta   94.95878346
_cell_angle_gamma   120.07374806
_symmetry_Int_Tables_number   1
_chemical_formula_structural   MgAl2O4
_chemical_formula_sum   'Mg14 Al28 O56'
_cell_volume   953.77878370
_cell_formula_units_Z   14
loop_
 _symmetry_equiv_pos_site_id
 _symmetry_equiv_pos_as_xyz
  1  'x, y, z'
loop_
 _atom_site_type_symbol
 _atom_site_label
 _atom_site_symmetry_multiplicity
 _atom_site_fract_x
 _atom_site_fract_y
 _atom_site_fract_z
 _atom_site_occupancy
  Mg  Mg0  1  0.000000  0.500000  0.500000  1
  Mg  Mg1  1  0.693615  0.306385  0.587198  1
  Mg  Mg2  1  0.500000  1.000000  0.500000  1
  Mg  Mg3  1  0.410756  0.589244  0.732560  1
  Mg  Mg4  1  0.124928  0.875072  0.874861  1
  Mg  Mg5  1  0.731877  0.268123  0.695534  1
  Mg  Mg6  1  0.839244  0.160756  0.017820  1
  Mg  Mg7  1  0.446535  0.553465  0.839268  1
  Mg  Mg8  1  0.553465  0.446535  0.160732  1
  Mg  Mg9  1  0.160756  0.839244  0.982180  1
  Mg  Mg10  1  0.268123  0.731877  0.304466  1
  Mg  Mg11  1  0.875072  0.124928  0.125139  1
  Mg  Mg12  1  0.589244  0.410756  0.267440  1
  Mg  Mg13  1  0.306385  0.693615  0.412802  1
  Al  Al14  1  0.977998  0.022002  0.444822  1
  Al  Al15  1  0.642487  0.357513  0.427040  1
  Al  Al16  1  0.500000  0.500000  0.500000  1
  Al  Al17  1  0.711491  0.784680  0.643251  1
  Al  Al18  1  0.357513  0.642487  0.572960  1
  Al  Al19  1  0.215821  0.784179  0.643086  1
  Al  Al20  1  0.428696  0.071560  0.785530  1
  Al  Al21  1  0.215320  0.288509  0.643251  1
  Al  Al22  1  0.022002  0.977998  0.555178  1
  Al  Al23  1  0.071535  0.928465  0.714196  1
  Al  Al24  1  0.928538  0.071462  0.785516  1
  Al  Al25  1  0.785745  0.214255  0.857030  1
  Al  Al26  1  0.928440  0.571304  0.785530  1
  Al  Al27  1  0.642905  0.357095  0.928536  1
  Al  Al28  1  0.857266  0.642894  0.071452  1
  Al  Al29  1  0.357106  0.142734  0.071452  1
  Al  Al30  1  0.642894  0.857266  0.928548  1
  Al  Al31  1  0.500000  0.500000  0.000000  1
  Al  Al32  1  0.357095  0.642905  0.071464  1
  Al  Al33  1  0.142734  0.357106  0.928548  1
  Al  Al34  1  0.571304  0.928440  0.214470  1
  Al  Al35  1  0.214255  0.785745  0.142970  1
  Al  Al36  1  0.288509  0.215320  0.356749  1
  Al  Al37  1  0.071462  0.928538  0.214484  1
  Al  Al38  1  0.928465  0.071535  0.285804  1
  Al  Al39  1  0.071560  0.428696  0.214470  1
  Al  Al40  1  0.784179  0.215821  0.356914  1
  Al  Al41  1  0.784680  0.711491  0.356749  1
  O  O42  1  0.810958  0.189042  0.459498  1
  O  O43  1  0.664058  0.335942  0.528684  1
  O  O44  1  0.804884  0.668250  0.461326  1
  O  O45  1  0.331750  0.195116  0.461326  1
  O  O46  1  0.668250  0.804884  0.538674  1
  O  O47  1  0.519030  0.480970  0.610784  1
  O  O48  1  0.335942  0.664058  0.471316  1
  O  O49  1  0.195116  0.331750  0.538674  1
  O  O50  1  0.390528  0.609472  0.673613  1
  O  O51  1  0.521587  0.929971  0.610481  1
  O  O52  1  0.189042  0.810958  0.540502  1
  O  O53  1  0.070029  0.478413  0.610481  1
  O  O54  1  0.353252  0.088734  0.676215  1
  O  O55  1  0.232254  0.767746  0.751852  1
  O  O56  1  0.911266  0.646748  0.676215  1
  O  O57  1  0.036700  0.963300  0.610647  1
  O  O58  1  0.232636  0.212789  0.751874  1
  O  O59  1  0.105126  0.894874  0.815485  1
  O  O60  1  0.787211  0.767364  0.751874  1
  O  O61  1  0.911644  0.088356  0.676381  1
  O  O62  1  0.070251  0.375541  0.819292  1
  O  O63  1  0.946739  0.053261  0.894721  1
  O  O64  1  0.624459  0.929749  0.819292  1
  O  O65  1  0.751928  0.248072  0.755378  1
  O  O66  1  0.819418  0.180582  0.958411  1
  O  O67  1  0.947023  0.498832  0.894752  1
  O  O68  1  0.624732  0.375268  0.819333  1
  O  O69  1  0.501168  0.052977  0.894752  1
  O  O70  1  0.784641  0.661257  0.962311  1
  O  O71  1  0.661045  0.338955  0.037646  1
  O  O72  1  0.533722  0.466278  0.101325  1
  O  O73  1  0.338743  0.215359  0.962311  1
  O  O74  1  0.466278  0.533722  0.898675  1
  O  O75  1  0.661257  0.784641  0.037689  1
  O  O76  1  0.338955  0.661045  0.962354  1
  O  O77  1  0.215359  0.338743  0.037689  1
  O  O78  1  0.498832  0.947023  0.105248  1
  O  O79  1  0.375268  0.624732  0.180667  1
  O  O80  1  0.052977  0.501168  0.105248  1
  O  O81  1  0.248072  0.751928  0.244622  1
  O  O82  1  0.180582  0.819418  0.041589  1
  O  O83  1  0.375541  0.070251  0.180708  1
  O  O84  1  0.053261  0.946739  0.105279  1
  O  O85  1  0.929749  0.624459  0.180708  1
  O  O86  1  0.212789  0.232636  0.248126  1
  O  O87  1  0.088356  0.911644  0.323619  1
  O  O88  1  0.767364  0.787211  0.248126  1
  O  O89  1  0.894874  0.105126  0.184515  1
  O  O90  1  0.963300  0.036700  0.389353  1
  O  O91  1  0.088734  0.353252  0.323785  1
  O  O92  1  0.646748  0.911266  0.323785  1
  O  O93  1  0.767746  0.232254  0.248148  1
  O  O94  1  0.929971  0.521587  0.389519  1
  O  O95  1  0.609472  0.390528  0.326387  1
  O  O96  1  0.478413  0.070029  0.389519  1
  O  O97  1  0.480970  0.519030  0.389216  1
