# generated using pymatgen
data_ZrMo2Se8(Cl7O)2
_symmetry_space_group_name_H-M   'P 1'
_cell_length_a   13.91088759
_cell_length_b   7.40416277
_cell_length_c   15.69825836
_cell_angle_alpha   90.00000000
_cell_angle_beta   104.29244897
_cell_angle_gamma   90.00000000
_symmetry_Int_Tables_number   1
_chemical_formula_structural   ZrMo2Se8(Cl7O)2
_chemical_formula_sum   'Zr2 Mo4 Se16 Cl28 O4'
_cell_volume   1566.85094474
_cell_formula_units_Z   2
loop_
 _symmetry_equiv_pos_site_id
 _symmetry_equiv_pos_as_xyz
  1  'x, y, z'
loop_
 _atom_site_type_symbol
 _atom_site_label
 _atom_site_symmetry_multiplicity
 _atom_site_fract_x
 _atom_site_fract_y
 _atom_site_fract_z
 _atom_site_occupancy
  Zr  Zr0  1  0.000000  0.000000  0.000000  1
  Zr  Zr1  1  0.000000  0.500000  0.500000  1
  Mo  Mo2  1  0.553598  0.308445  0.097968  1
  Mo  Mo3  1  0.446402  0.808445  0.402032  1
  Mo  Mo4  1  0.446402  0.691555  0.902032  1
  Mo  Mo5  1  0.553598  0.191555  0.597968  1
  Se  Se6  1  0.153614  0.616050  0.214895  1
  Se  Se7  1  0.846386  0.383950  0.785105  1
  Se  Se8  1  0.258926  0.493153  0.134822  1
  Se  Se9  1  0.291232  0.253252  0.730777  1
  Se  Se10  1  0.291232  0.246748  0.230777  1
  Se  Se11  1  0.741074  0.506847  0.865178  1
  Se  Se12  1  0.708768  0.753252  0.769223  1
  Se  Se13  1  0.816581  0.868089  0.189914  1
  Se  Se14  1  0.708768  0.746748  0.269223  1
  Se  Se15  1  0.816581  0.631911  0.689914  1
  Se  Se16  1  0.183419  0.368089  0.310086  1
  Se  Se17  1  0.741074  0.993153  0.365178  1
  Se  Se18  1  0.183419  0.131911  0.810086  1
  Se  Se19  1  0.846386  0.116050  0.285105  1
  Se  Se20  1  0.258926  0.006847  0.634822  1
  Se  Se21  1  0.153614  0.883950  0.714895  1
  Cl  Cl22  1  0.453081  0.889325  0.258683  1
  Cl  Cl23  1  0.531954  0.340108  0.939596  1
  Cl  Cl24  1  0.620482  0.776433  0.931935  1
  Cl  Cl25  1  0.379518  0.276433  0.568065  1
  Cl  Cl26  1  0.975734  0.379267  0.642678  1
  Cl  Cl27  1  0.379518  0.223567  0.068065  1
  Cl  Cl28  1  0.830118  0.114326  0.920996  1
  Cl  Cl29  1  0.290692  0.971980  0.378096  1
  Cl  Cl30  1  0.926615  0.712491  0.030005  1
  Cl  Cl31  1  0.830118  0.385674  0.420996  1
  Cl  Cl32  1  0.468046  0.840108  0.560404  1
  Cl  Cl33  1  0.169882  0.885674  0.079004  1
  Cl  Cl34  1  0.073385  0.287509  0.969995  1
  Cl  Cl35  1  0.620482  0.723567  0.431935  1
  Cl  Cl36  1  0.975734  0.120733  0.142678  1
  Cl  Cl37  1  0.169882  0.614326  0.579004  1
  Cl  Cl38  1  0.024266  0.620733  0.357322  1
  Cl  Cl39  1  0.024266  0.879267  0.857322  1
  Cl  Cl40  1  0.926615  0.787509  0.530005  1
  Cl  Cl41  1  0.709308  0.028020  0.621904  1
  Cl  Cl42  1  0.453081  0.610675  0.758683  1
  Cl  Cl43  1  0.073385  0.212491  0.469995  1
  Cl  Cl44  1  0.709308  0.471980  0.121904  1
  Cl  Cl45  1  0.546919  0.110675  0.741317  1
  Cl  Cl46  1  0.531954  0.159892  0.439596  1
  Cl  Cl47  1  0.546919  0.389325  0.241317  1
  Cl  Cl48  1  0.290692  0.528020  0.878096  1
  Cl  Cl49  1  0.468046  0.659892  0.060404  1
  O  O50  1  0.398227  0.902902  0.888932  1
  O  O51  1  0.601773  0.402902  0.611068  1
  O  O52  1  0.601773  0.097098  0.111068  1
  O  O53  1  0.398227  0.597098  0.388932  1
