# generated using pymatgen
data_RbCO2
_symmetry_space_group_name_H-M   'P 1'
_cell_length_a   6.47876929
_cell_length_b   10.65006215
_cell_length_c   8.34540706
_cell_angle_alpha   90.00000000
_cell_angle_beta   97.66291770
_cell_angle_gamma   90.00000000
_symmetry_Int_Tables_number   1
_chemical_formula_structural   RbCO2
_chemical_formula_sum   'Rb8 C8 O16'
_cell_volume   570.68490429
_cell_formula_units_Z   8
loop_
 _symmetry_equiv_pos_site_id
 _symmetry_equiv_pos_as_xyz
  1  'x, y, z'
loop_
 _atom_site_type_symbol
 _atom_site_label
 _atom_site_symmetry_multiplicity
 _atom_site_fract_x
 _atom_site_fract_y
 _atom_site_fract_z
 _atom_site_occupancy
  Rb  Rb0  1  0.269266  0.584134  0.665935  1
  Rb  Rb1  1  0.783587  0.705396  0.980043  1
  Rb  Rb2  1  0.269266  0.915866  0.165935  1
  Rb  Rb3  1  0.730734  0.084134  0.834065  1
  Rb  Rb4  1  0.216413  0.205396  0.519957  1
  Rb  Rb5  1  0.730734  0.415866  0.334065  1
  Rb  Rb6  1  0.216413  0.294604  0.019957  1
  Rb  Rb7  1  0.783587  0.794604  0.480043  1
  C  C8  1  0.666928  0.106570  0.341522  1
  C  C9  1  0.812960  0.445392  0.727094  1
  C  C10  1  0.187040  0.554608  0.272906  1
  C  C11  1  0.333072  0.606570  0.158478  1
  C  C12  1  0.333072  0.893430  0.658478  1
  C  C13  1  0.187040  0.945392  0.772906  1
  C  C14  1  0.812960  0.054608  0.227094  1
  C  C15  1  0.666928  0.393430  0.841522  1
  O  O16  1  0.224659  0.444303  0.329705  1
  O  O17  1  0.775341  0.555697  0.670295  1
  O  O18  1  0.959440  0.126213  0.195225  1
  O  O19  1  0.498291  0.156478  0.274040  1
  O  O20  1  0.959440  0.373787  0.695225  1
  O  O21  1  0.725628  0.097671  0.492412  1
  O  O22  1  0.498291  0.343522  0.774040  1
  O  O23  1  0.501709  0.843522  0.725960  1
  O  O24  1  0.274372  0.597671  0.007588  1
  O  O25  1  0.274372  0.902329  0.507588  1
  O  O26  1  0.040560  0.626213  0.304775  1
  O  O27  1  0.501709  0.656478  0.225960  1
  O  O28  1  0.040560  0.873787  0.804775  1
  O  O29  1  0.775341  0.944303  0.170295  1
  O  O30  1  0.224659  0.055697  0.829705  1
  O  O31  1  0.725628  0.402329  0.992412  1
