# generated using pymatgen
data_SrMo2(AsO6)2
_symmetry_space_group_name_H-M   'P 1'
_cell_length_a   6.68219947
_cell_length_b   7.03441865
_cell_length_c   10.68258768
_cell_angle_alpha   90.00000000
_cell_angle_beta   91.42417106
_cell_angle_gamma   90.00000000
_symmetry_Int_Tables_number   1
_chemical_formula_structural   SrMo2(AsO6)2
_chemical_formula_sum   'Sr2 Mo4 As4 O24'
_cell_volume   501.98407104
_cell_formula_units_Z   2
loop_
 _symmetry_equiv_pos_site_id
 _symmetry_equiv_pos_as_xyz
  1  'x, y, z'
loop_
 _atom_site_type_symbol
 _atom_site_label
 _atom_site_symmetry_multiplicity
 _atom_site_fract_x
 _atom_site_fract_y
 _atom_site_fract_z
 _atom_site_occupancy
  Sr  Sr0  1  0.500000  0.000000  0.500000  1
  Sr  Sr1  1  0.500000  0.500000  0.000000  1
  Mo  Mo2  1  0.751514  0.952378  0.164113  1
  Mo  Mo3  1  0.248486  0.452378  0.335887  1
  Mo  Mo4  1  0.248486  0.047622  0.835887  1
  Mo  Mo5  1  0.751514  0.547622  0.664113  1
  As  As6  1  0.742425  0.958346  0.844783  1
  As  As7  1  0.257575  0.458346  0.655217  1
  As  As8  1  0.257575  0.041654  0.155217  1
  As  As9  1  0.742425  0.541654  0.344783  1
  O  O10  1  0.723122  0.814294  0.973054  1
  O  O11  1  0.276878  0.314294  0.526946  1
  O  O12  1  0.276878  0.185706  0.026946  1
  O  O13  1  0.723122  0.685706  0.473054  1
  O  O14  1  0.547688  0.120160  0.839645  1
  O  O15  1  0.452312  0.620160  0.660355  1
  O  O16  1  0.452312  0.879840  0.160355  1
  O  O17  1  0.547688  0.379840  0.339645  1
  O  O18  1  0.960124  0.090914  0.860008  1
  O  O19  1  0.039876  0.590914  0.639992  1
  O  O20  1  0.039876  0.909086  0.139992  1
  O  O21  1  0.960124  0.409086  0.360008  1
  O  O22  1  0.742582  0.853252  0.699572  1
  O  O23  1  0.257418  0.353252  0.800428  1
  O  O24  1  0.257418  0.146748  0.300428  1
  O  O25  1  0.742582  0.646748  0.199572  1
  O  O26  1  0.714458  0.176405  0.096595  1
  O  O27  1  0.285542  0.676405  0.403405  1
  O  O28  1  0.285542  0.823595  0.903405  1
  O  O29  1  0.714458  0.323595  0.596595  1
  O  O30  1  0.756665  0.006593  0.323019  1
  O  O31  1  0.243335  0.506593  0.176981  1
  O  O32  1  0.243335  0.993407  0.676981  1
  O  O33  1  0.756665  0.493407  0.823019  1
