# generated using pymatgen
data_Ca11Si4SO18
_symmetry_space_group_name_H-M   'P 1'
_cell_length_a   8.68260275
_cell_length_b   8.68260275
_cell_length_c   8.68260275
_cell_angle_alpha   105.25586363
_cell_angle_beta   105.25586363
_cell_angle_gamma   118.27734985
_symmetry_Int_Tables_number   1
_chemical_formula_structural   Ca11Si4SO18
_chemical_formula_sum   'Ca11 Si4 S1 O18'
_cell_volume   494.82978931
_cell_formula_units_Z   1
loop_
 _symmetry_equiv_pos_site_id
 _symmetry_equiv_pos_as_xyz
  1  'x, y, z'
loop_
 _atom_site_type_symbol
 _atom_site_label
 _atom_site_symmetry_multiplicity
 _atom_site_fract_x
 _atom_site_fract_y
 _atom_site_fract_z
 _atom_site_occupancy
  Ca  Ca0  1  0.503535  0.003535  0.500000  1
  Ca  Ca1  1  0.205591  0.951085  0.745494  1
  Ca  Ca2  1  0.807988  0.050302  0.242314  1
  Ca  Ca3  1  0.949698  0.192012  0.757686  1
  Ca  Ca4  1  0.500000  0.500000  0.000000  1
  Ca  Ca5  1  0.996465  0.496465  0.500000  1
  Ca  Ca6  1  0.205591  0.460098  0.254506  1
  Ca  Ca7  1  0.539902  0.794409  0.745494  1
  Ca  Ca8  1  0.807988  0.565674  0.757686  1
  Ca  Ca9  1  0.434326  0.192012  0.242314  1
  Ca  Ca10  1  0.048915  0.794409  0.254506  1
  Si  Si11  1  0.710908  0.289092  1.000000  1
  Si  Si12  1  0.289092  0.289092  0.578184  1
  Si  Si13  1  0.710908  0.710908  0.421816  1
  Si  Si14  1  0.289092  0.710908  1.000000  1
  S  S15  1  0.000000  0.000000  0.000000  1
  O  O16  1  0.496133  0.206741  0.001437  1
  O  O17  1  0.205304  0.206741  0.710608  1
  O  O18  1  0.505304  0.503867  0.710608  1
  O  O19  1  0.139747  0.685875  0.817243  1
  O  O20  1  0.793259  0.503867  0.998563  1
  O  O21  1  0.868632  0.685875  0.546128  1
  O  O22  1  0.505304  0.794696  0.001437  1
  O  O23  1  0.139747  0.322504  0.453872  1
  O  O24  1  0.677496  0.131368  0.817243  1
  O  O25  1  0.750000  0.250000  0.500000  1
  O  O26  1  0.868632  0.322504  0.182757  1
  O  O27  1  0.496133  0.494696  0.289392  1
  O  O28  1  0.677496  0.860253  0.546128  1
  O  O29  1  0.314125  0.860253  0.182757  1
  O  O30  1  0.205304  0.494696  0.998563  1
  O  O31  1  0.314125  0.131368  0.453872  1
  O  O32  1  0.793259  0.794696  0.289392  1
  O  O33  1  0.250000  0.750000  0.500000  1
