# generated using pymatgen
data_SnH22(Cl3O5)2
_symmetry_space_group_name_H-M   'P 1'
_cell_length_a   9.08627287
_cell_length_b   7.34695212
_cell_length_c   16.34311675
_cell_angle_alpha   90.00000000
_cell_angle_beta   120.87275384
_cell_angle_gamma   90.00000000
_symmetry_Int_Tables_number   1
_chemical_formula_structural   SnH22(Cl3O5)2
_chemical_formula_sum   'Sn2 H44 Cl12 O20'
_cell_volume   936.42185671
_cell_formula_units_Z   2
loop_
 _symmetry_equiv_pos_site_id
 _symmetry_equiv_pos_as_xyz
  1  'x, y, z'
loop_
 _atom_site_type_symbol
 _atom_site_label
 _atom_site_symmetry_multiplicity
 _atom_site_fract_x
 _atom_site_fract_y
 _atom_site_fract_z
 _atom_site_occupancy
  Sn  Sn0  1  0.500000  0.500000  0.000000  1
  Sn  Sn1  1  0.500000  0.000000  0.500000  1
  H  H2  1  0.032392  0.389672  0.261463  1
  H  H3  1  0.967608  0.610328  0.738537  1
  H  H4  1  0.130777  0.296737  0.363275  1
  H  H5  1  0.642211  0.230356  0.293060  1
  H  H6  1  0.967608  0.889672  0.238537  1
  H  H7  1  0.642211  0.269644  0.793060  1
  H  H8  1  0.975212  0.499660  0.362833  1
  H  H9  1  0.358923  0.902620  0.083097  1
  H  H10  1  0.541162  0.508422  0.318166  1
  H  H11  1  0.641077  0.097380  0.916903  1
  H  H12  1  0.167801  0.496126  0.185374  1
  H  H13  1  0.358923  0.597380  0.583097  1
  H  H14  1  0.458838  0.491578  0.681834  1
  H  H15  1  0.667056  0.193648  0.206055  1
  H  H16  1  0.184878  0.458976  0.615474  1
  H  H17  1  0.967186  0.020346  0.608744  1
  H  H18  1  0.458838  0.008422  0.181834  1
  H  H19  1  0.923687  0.779788  0.872859  1
  H  H20  1  0.332944  0.693648  0.293945  1
  H  H21  1  0.869223  0.796737  0.136725  1
  H  H22  1  0.332944  0.806352  0.793945  1
  H  H23  1  0.923687  0.720212  0.372859  1
  H  H24  1  0.184878  0.041024  0.115474  1
  H  H25  1  0.032392  0.110328  0.761463  1
  H  H26  1  0.076313  0.220212  0.127141  1
  H  H27  1  0.869223  0.703263  0.636725  1
  H  H28  1  0.815122  0.958976  0.884526  1
  H  H29  1  0.032814  0.520346  0.891256  1
  H  H30  1  0.130777  0.203263  0.863275  1
  H  H31  1  0.832199  0.996126  0.314626  1
  H  H32  1  0.967186  0.479654  0.108744  1
  H  H33  1  0.167801  0.003874  0.685374  1
  H  H34  1  0.076313  0.279788  0.627141  1
  H  H35  1  0.641077  0.402620  0.416903  1
  H  H36  1  0.815122  0.541024  0.384526  1
  H  H37  1  0.667056  0.306352  0.706055  1
  H  H38  1  0.357789  0.730356  0.206940  1
  H  H39  1  0.024788  0.999660  0.137167  1
  H  H40  1  0.032814  0.979654  0.391256  1
  H  H41  1  0.357789  0.769644  0.706940  1
  H  H42  1  0.024788  0.500340  0.637167  1
  H  H43  1  0.541162  0.991578  0.818166  1
  H  H44  1  0.975212  0.000340  0.862833  1
  H  H45  1  0.832199  0.503874  0.814626  1
  Cl  Cl46  1  0.651205  0.203732  0.055503  1
  Cl  Cl47  1  0.647610  0.890976  0.664150  1
  Cl  Cl48  1  0.348795  0.703732  0.444497  1
  Cl  Cl49  1  0.742348  0.617274  0.984746  1
  Cl  Cl50  1  0.352390  0.390976  0.835850  1
  Cl  Cl51  1  0.742348  0.882726  0.484746  1
  Cl  Cl52  1  0.647610  0.609024  0.164150  1
  Cl  Cl53  1  0.257652  0.382726  0.015254  1
  Cl  Cl54  1  0.348795  0.796268  0.944497  1
  Cl  Cl55  1  0.651205  0.296268  0.555503  1
  Cl  Cl56  1  0.352390  0.109024  0.335850  1
  Cl  Cl57  1  0.257652  0.117274  0.515254  1
  O  O58  1  0.064830  0.084575  0.662127  1
  O  O59  1  0.974872  0.638426  0.681176  1
  O  O60  1  0.647304  0.063634  0.860397  1
  O  O61  1  0.352696  0.936366  0.139603  1
  O  O62  1  0.935170  0.584575  0.837873  1
  O  O63  1  0.025128  0.138426  0.818824  1
  O  O64  1  0.352696  0.563634  0.639603  1
  O  O65  1  0.649432  0.131483  0.253658  1
  O  O66  1  0.647304  0.436366  0.360397  1
  O  O67  1  0.974872  0.861574  0.181176  1
  O  O68  1  0.068600  0.410939  0.603096  1
  O  O69  1  0.350568  0.868517  0.746342  1
  O  O70  1  0.064830  0.415425  0.162127  1
  O  O71  1  0.068600  0.089061  0.103096  1
  O  O72  1  0.649432  0.368517  0.753658  1
  O  O73  1  0.025128  0.361574  0.318824  1
  O  O74  1  0.935170  0.915425  0.337873  1
  O  O75  1  0.931400  0.910939  0.896904  1
  O  O76  1  0.350568  0.631483  0.246342  1
  O  O77  1  0.931400  0.589061  0.396904  1
