# generated using pymatgen
data_Li4Al3Ge3IO12
_symmetry_space_group_name_H-M   'P 1'
_cell_length_a   8.84635457
_cell_length_b   8.84635457
_cell_length_c   8.84635457
_cell_angle_alpha   90.00000000
_cell_angle_beta   90.00000000
_cell_angle_gamma   90.00000000
_symmetry_Int_Tables_number   1
_chemical_formula_structural   Li4Al3Ge3IO12
_chemical_formula_sum   'Li8 Al6 Ge6 I2 O24'
_cell_volume   692.29792021
_cell_formula_units_Z   2
loop_
 _symmetry_equiv_pos_site_id
 _symmetry_equiv_pos_as_xyz
  1  'x, y, z'
loop_
 _atom_site_type_symbol
 _atom_site_label
 _atom_site_symmetry_multiplicity
 _atom_site_fract_x
 _atom_site_fract_y
 _atom_site_fract_z
 _atom_site_occupancy
  Li  Li0  1  0.690966  0.309034  0.309034  1
  Li  Li1  1  0.809034  0.190966  0.809034  1
  Li  Li2  1  0.309034  0.309034  0.690966  1
  Li  Li3  1  0.690966  0.690966  0.690966  1
  Li  Li4  1  0.190966  0.809034  0.809034  1
  Li  Li5  1  0.190966  0.190966  0.190966  1
  Li  Li6  1  0.309034  0.690966  0.309034  1
  Li  Li7  1  0.809034  0.809034  0.190966  1
  Al  Al8  1  0.000000  0.750000  0.500000  1
  Al  Al9  1  0.250000  0.500000  0.000000  1
  Al  Al10  1  0.500000  0.000000  0.750000  1
  Al  Al11  1  0.500000  0.000000  0.250000  1
  Al  Al12  1  0.000000  0.250000  0.500000  1
  Al  Al13  1  0.750000  0.500000  0.000000  1
  Ge  Ge14  1  0.000000  0.500000  0.250000  1
  Ge  Ge15  1  0.500000  0.750000  0.000000  1
  Ge  Ge16  1  0.500000  0.250000  0.000000  1
  Ge  Ge17  1  0.000000  0.500000  0.750000  1
  Ge  Ge18  1  0.750000  0.000000  0.500000  1
  Ge  Ge19  1  0.250000  0.000000  0.500000  1
  I  I20  1  0.000000  0.000000  0.000000  1
  I  I21  1  0.500000  0.500000  0.500000  1
  O  O22  1  0.590890  0.859074  0.140626  1
  O  O23  1  0.640926  0.090890  0.359374  1
  O  O24  1  0.409110  0.859074  0.859374  1
  O  O25  1  0.140926  0.859374  0.590890  1
  O  O26  1  0.859074  0.859374  0.409110  1
  O  O27  1  0.090890  0.359374  0.640926  1
  O  O28  1  0.859374  0.409110  0.859074  1
  O  O29  1  0.090890  0.640626  0.359074  1
  O  O30  1  0.359074  0.909110  0.359374  1
  O  O31  1  0.140626  0.409110  0.140926  1
  O  O32  1  0.140626  0.590890  0.859074  1
  O  O33  1  0.140926  0.140626  0.409110  1
  O  O34  1  0.859074  0.140626  0.590890  1
  O  O35  1  0.909110  0.359374  0.359074  1
  O  O36  1  0.909110  0.640626  0.640926  1
  O  O37  1  0.409110  0.140926  0.140626  1
  O  O38  1  0.359374  0.640926  0.090890  1
  O  O39  1  0.640926  0.909110  0.640626  1
  O  O40  1  0.359074  0.090890  0.640626  1
  O  O41  1  0.590890  0.140926  0.859374  1
  O  O42  1  0.859374  0.590890  0.140926  1
  O  O43  1  0.640626  0.359074  0.090890  1
  O  O44  1  0.640626  0.640926  0.909110  1
  O  O45  1  0.359374  0.359074  0.909110  1
