# generated using pymatgen
data_Rb2Bi4O7
_symmetry_space_group_name_H-M   'P 1'
_cell_length_a   12.49483147
_cell_length_b   12.49483147
_cell_length_c   15.81216884
_cell_angle_alpha   86.32520184
_cell_angle_beta   93.67479816
_cell_angle_gamma   116.93485728
_symmetry_Int_Tables_number   1
_chemical_formula_structural   Rb2Bi4O7
_chemical_formula_sum   'Rb16 Bi32 O56'
_cell_volume   2194.58808385
_cell_formula_units_Z   8
loop_
 _symmetry_equiv_pos_site_id
 _symmetry_equiv_pos_as_xyz
  1  'x, y, z'
loop_
 _atom_site_type_symbol
 _atom_site_label
 _atom_site_symmetry_multiplicity
 _atom_site_fract_x
 _atom_site_fract_y
 _atom_site_fract_z
 _atom_site_occupancy
  Rb  Rb0  1  0.539347  0.371578  0.710907  1
  Rb  Rb1  1  0.628582  0.978271  0.208191  1
  Rb  Rb2  1  0.371578  0.539347  0.789093  1
  Rb  Rb3  1  0.126730  0.453661  0.209778  1
  Rb  Rb4  1  0.628422  0.460653  0.210907  1
  Rb  Rb5  1  0.371418  0.021729  0.791809  1
  Rb  Rb6  1  0.546339  0.873270  0.709778  1
  Rb  Rb7  1  0.967855  0.127611  0.290691  1
  Rb  Rb8  1  0.460653  0.628422  0.289093  1
  Rb  Rb9  1  0.978271  0.628582  0.291809  1
  Rb  Rb10  1  0.127611  0.967855  0.209309  1
  Rb  Rb11  1  0.873270  0.546339  0.790222  1
  Rb  Rb12  1  0.872389  0.032145  0.790691  1
  Rb  Rb13  1  0.032145  0.872389  0.709309  1
  Rb  Rb14  1  0.021729  0.371418  0.708191  1
  Rb  Rb15  1  0.453661  0.126730  0.290222  1
  Bi  Bi16  1  0.298658  0.785857  0.385673  1
  Bi  Bi17  1  0.956912  0.601882  0.038813  1
  Bi  Bi18  1  0.216816  0.735963  0.626904  1
  Bi  Bi19  1  0.735963  0.216816  0.873096  1
  Bi  Bi20  1  0.395109  0.089853  0.042073  1
  Bi  Bi21  1  0.890567  0.091007  0.043065  1
  Bi  Bi22  1  0.701342  0.214143  0.614327  1
  Bi  Bi23  1  0.784569  0.756870  0.378944  1
  Bi  Bi24  1  0.709972  0.703162  0.881246  1
  Bi  Bi25  1  0.215431  0.243130  0.621056  1
  Bi  Bi26  1  0.109433  0.908993  0.956935  1
  Bi  Bi27  1  0.296838  0.290028  0.381246  1
  Bi  Bi28  1  0.398118  0.043088  0.538813  1
  Bi  Bi29  1  0.756870  0.784569  0.121056  1
  Bi  Bi30  1  0.452464  0.600134  0.034758  1
  Bi  Bi31  1  0.910147  0.604891  0.542073  1
  Bi  Bi32  1  0.214143  0.701342  0.885673  1
  Bi  Bi33  1  0.243130  0.215431  0.878944  1
  Bi  Bi34  1  0.703162  0.709972  0.618754  1
  Bi  Bi35  1  0.290028  0.296838  0.118754  1
  Bi  Bi36  1  0.547536  0.399866  0.965242  1
  Bi  Bi37  1  0.399866  0.547536  0.534758  1
  Bi  Bi38  1  0.264037  0.783184  0.126904  1
  Bi  Bi39  1  0.600134  0.452464  0.465242  1
  Bi  Bi40  1  0.604891  0.910147  0.957927  1
  Bi  Bi41  1  0.601882  0.956912  0.461187  1
  Bi  Bi42  1  0.785857  0.298658  0.114327  1
  Bi  Bi43  1  0.091007  0.890567  0.456935  1
  Bi  Bi44  1  0.783184  0.264037  0.373096  1
  Bi  Bi45  1  0.043088  0.398118  0.961187  1
  Bi  Bi46  1  0.089853  0.395109  0.457927  1
  Bi  Bi47  1  0.908993  0.109433  0.543065  1
  O  O48  1  0.285350  0.285350  0.750000  1
  O  O49  1  0.970952  0.350958  0.343836  1
  O  O50  1  0.350958  0.970952  0.156164  1
  O  O51  1  0.281350  0.910610  0.971585  1
  O  O52  1  0.284038  0.760512  0.758059  1
  O  O53  1  0.416947  0.385181  0.532370  1
  O  O54  1  0.766733  0.086478  0.386632  1
  O  O55  1  0.109633  0.513983  0.850197  1
  O  O56  1  0.116208  0.580605  0.031210  1
  O  O57  1  0.513983  0.109633  0.649803  1
  O  O58  1  0.086478  0.766733  0.113368  1
  O  O59  1  0.417680  0.224735  0.897584  1
  O  O60  1  0.580605  0.116208  0.468790  1
  O  O61  1  0.255216  0.931939  0.377504  1
  O  O62  1  0.744784  0.068061  0.622496  1
  O  O63  1  0.715962  0.239488  0.241941  1
  O  O64  1  0.089390  0.718650  0.471585  1
  O  O65  1  0.775265  0.582320  0.397584  1
  O  O66  1  0.614819  0.583053  0.032370  1
  O  O67  1  0.583053  0.614819  0.467630  1
  O  O68  1  0.560848  0.740424  0.880205  1
  O  O69  1  0.222865  0.088407  0.028816  1
  O  O70  1  0.718650  0.089390  0.028415  1
  O  O71  1  0.236936  0.236936  0.250000  1
  O  O72  1  0.582320  0.775265  0.102416  1
  O  O73  1  0.649042  0.029048  0.843836  1
  O  O74  1  0.486554  0.389600  0.352031  1
  O  O75  1  0.439152  0.259576  0.119795  1
  O  O76  1  0.224735  0.417680  0.602416  1
  O  O77  1  0.913522  0.233267  0.886632  1
  O  O78  1  0.239488  0.715962  0.258059  1
  O  O79  1  0.486017  0.890367  0.350197  1
  O  O80  1  0.259576  0.439152  0.380205  1
  O  O81  1  0.513446  0.610400  0.647969  1
  O  O82  1  0.931939  0.255216  0.122496  1
  O  O83  1  0.233267  0.913522  0.613368  1
  O  O84  1  0.740424  0.560848  0.619795  1
  O  O85  1  0.151119  0.027498  0.844549  1
  O  O86  1  0.777135  0.911593  0.971184  1
  O  O87  1  0.385181  0.416947  0.967630  1
  O  O88  1  0.910610  0.281350  0.528415  1
  O  O89  1  0.714650  0.714650  0.250000  1
  O  O90  1  0.883792  0.419395  0.968790  1
  O  O91  1  0.029048  0.649042  0.656164  1
  O  O92  1  0.760512  0.284038  0.741941  1
  O  O93  1  0.419395  0.883792  0.531210  1
  O  O94  1  0.610400  0.513446  0.852031  1
  O  O95  1  0.890367  0.486017  0.149803  1
  O  O96  1  0.848881  0.972502  0.155451  1
  O  O97  1  0.763064  0.763064  0.750000  1
  O  O98  1  0.911593  0.777135  0.528816  1
  O  O99  1  0.068061  0.744784  0.877504  1
  O  O100  1  0.088407  0.222865  0.471184  1
  O  O101  1  0.027498  0.151119  0.655451  1
  O  O102  1  0.972502  0.848881  0.344549  1
  O  O103  1  0.389600  0.486554  0.147969  1
