# generated using pymatgen
data_Hg3AsS4Br
_symmetry_space_group_name_H-M   'P 1'
_cell_length_a   7.58720963
_cell_length_b   7.58720963
_cell_length_c   10.06009224
_cell_angle_alpha   90.00000000
_cell_angle_beta   90.00000000
_cell_angle_gamma   120.00000000
_symmetry_Int_Tables_number   1
_chemical_formula_structural   Hg3AsS4Br
_chemical_formula_sum   'Hg6 As2 S8 Br2'
_cell_volume   501.52982099
_cell_formula_units_Z   2
loop_
 _symmetry_equiv_pos_site_id
 _symmetry_equiv_pos_as_xyz
  1  'x, y, z'
loop_
 _atom_site_type_symbol
 _atom_site_label
 _atom_site_symmetry_multiplicity
 _atom_site_fract_x
 _atom_site_fract_y
 _atom_site_fract_z
 _atom_site_occupancy
  Hg  Hg0  1  0.497389  0.994778  0.242591  1
  Hg  Hg1  1  0.994778  0.497389  0.742591  1
  Hg  Hg2  1  0.005222  0.502611  0.242591  1
  Hg  Hg3  1  0.502611  0.497389  0.742591  1
  Hg  Hg4  1  0.502611  0.005222  0.742591  1
  Hg  Hg5  1  0.497389  0.502611  0.242591  1
  As  As6  1  0.000000  0.000000  0.734367  1
  As  As7  1  0.000000  0.000000  0.234367  1
  S  S8  1  0.701497  0.850748  0.854764  1
  S  S9  1  0.666667  0.333333  0.617315  1
  S  S10  1  0.850748  0.149252  0.354764  1
  S  S11  1  0.149252  0.298503  0.854764  1
  S  S12  1  0.298503  0.149252  0.354764  1
  S  S13  1  0.850748  0.701497  0.354764  1
  S  S14  1  0.149252  0.850748  0.854764  1
  S  S15  1  0.333333  0.666667  0.117315  1
  Br  Br16  1  0.666667  0.333333  0.036256  1
  Br  Br17  1  0.333333  0.666667  0.536256  1
