# generated using pymatgen
data_P2NCl5O
_symmetry_space_group_name_H-M   'P 1'
_cell_length_a   13.24555869
_cell_length_b   20.56597852
_cell_length_c   15.75354398
_cell_angle_alpha   90.00000000
_cell_angle_beta   110.81530283
_cell_angle_gamma   90.00000000
_symmetry_Int_Tables_number   1
_chemical_formula_structural   P2NCl5O
_chemical_formula_sum   'P32 N16 Cl80 O16'
_cell_volume   4011.29388958
_cell_formula_units_Z   16
loop_
 _symmetry_equiv_pos_site_id
 _symmetry_equiv_pos_as_xyz
  1  'x, y, z'
loop_
 _atom_site_type_symbol
 _atom_site_label
 _atom_site_symmetry_multiplicity
 _atom_site_fract_x
 _atom_site_fract_y
 _atom_site_fract_z
 _atom_site_occupancy
  P  P0  1  0.023964  0.754699  0.553507  1
  P  P1  1  0.473215  0.252258  0.951671  1
  P  P2  1  0.473215  0.247742  0.451671  1
  P  P3  1  0.193261  0.776468  0.737784  1
  P  P4  1  0.526785  0.752258  0.548329  1
  P  P5  1  0.448311  0.485829  0.716589  1
  P  P6  1  0.806739  0.276468  0.762216  1
  P  P7  1  0.023964  0.745301  0.053507  1
  P  P8  1  0.264850  0.507914  0.544895  1
  P  P9  1  0.976036  0.245301  0.446493  1
  P  P10  1  0.735150  0.007914  0.955105  1
  P  P11  1  0.735150  0.492086  0.455105  1
  P  P12  1  0.205411  0.497741  0.966190  1
  P  P13  1  0.314341  0.209332  0.771864  1
  P  P14  1  0.448311  0.014171  0.216589  1
  P  P15  1  0.969202  0.005380  0.717667  1
  P  P16  1  0.794589  0.502259  0.033810  1
  P  P17  1  0.193261  0.723532  0.237784  1
  P  P18  1  0.030798  0.505380  0.782333  1
  P  P19  1  0.976036  0.254699  0.946493  1
  P  P20  1  0.030798  0.994620  0.282333  1
  P  P21  1  0.685659  0.709332  0.728136  1
  P  P22  1  0.314341  0.290668  0.271864  1
  P  P23  1  0.806739  0.223532  0.262216  1
  P  P24  1  0.264850  0.992086  0.044895  1
  P  P25  1  0.794589  0.997741  0.533810  1
  P  P26  1  0.969202  0.494620  0.217667  1
  P  P27  1  0.551689  0.985829  0.783411  1
  P  P28  1  0.685659  0.790668  0.228136  1
  P  P29  1  0.526785  0.747742  0.048329  1
  P  P30  1  0.551689  0.514171  0.283411  1
  P  P31  1  0.205411  0.002259  0.466190  1
  N  N32  1  0.906786  0.498316  0.109704  1
  N  N33  1  0.871444  0.247134  0.856067  1
  N  N34  1  0.128556  0.752866  0.143933  1
  N  N35  1  0.663787  0.486528  0.353845  1
  N  N36  1  0.627405  0.750536  0.642738  1
  N  N37  1  0.372595  0.249464  0.357262  1
  N  N38  1  0.093214  0.998316  0.390296  1
  N  N39  1  0.128556  0.747134  0.643933  1
  N  N40  1  0.372595  0.250536  0.857262  1
  N  N41  1  0.336213  0.986528  0.146155  1
  N  N42  1  0.093214  0.501684  0.890296  1
  N  N43  1  0.663787  0.013472  0.853845  1
  N  N44  1  0.906786  0.001684  0.609704  1
  N  N45  1  0.871444  0.252866  0.356067  1
  N  N46  1  0.336213  0.513472  0.646155  1
  N  N47  1  0.627405  0.749464  0.142738  1
  Cl  Cl48  1  0.418390  0.106573  0.248863  1
  Cl  Cl49  1  0.391319  0.729727  0.575651  1
  Cl  Cl50  1  0.099225  0.061773  0.224290  1
  Cl  Cl51  1  0.186949  0.012317  0.585303  1
  Cl  Cl52  1  0.968232  0.343728  0.000474  1
  Cl  Cl53  1  0.181860  0.075745  0.011167  1
  Cl  Cl54  1  0.265949  0.638718  0.236614  1
  Cl  Cl55  1  0.813051  0.512317  0.914697  1
  Cl  Cl56  1  0.106709  0.235018  0.407966  1
  Cl  Cl57  1  0.968232  0.156272  0.500474  1
  Cl  Cl58  1  0.111074  0.709258  0.320996  1
  Cl  Cl59  1  0.888926  0.290742  0.679004  1
  Cl  Cl60  1  0.700346  0.923834  0.541912  1
  Cl  Cl61  1  0.106709  0.264982  0.907966  1
  Cl  Cl62  1  0.153213  0.577336  0.513288  1
  Cl  Cl63  1  0.181860  0.424255  0.511167  1
  Cl  Cl64  1  0.537110  0.465319  0.167558  1
  Cl  Cl65  1  0.391319  0.770273  0.075651  1
  Cl  Cl66  1  0.818140  0.575745  0.488833  1
  Cl  Cl67  1  0.188794  0.258565  0.688726  1
  Cl  Cl68  1  0.581610  0.606573  0.251137  1
  Cl  Cl69  1  0.888926  0.209258  0.179004  1
  Cl  Cl70  1  0.846787  0.422664  0.486712  1
  Cl  Cl71  1  0.031768  0.843728  0.499526  1
  Cl  Cl72  1  0.459279  0.173807  0.025631  1
  Cl  Cl73  1  0.188794  0.241435  0.188726  1
  Cl  Cl74  1  0.311891  0.716004  0.805129  1
  Cl  Cl75  1  0.900775  0.561773  0.275710  1
  Cl  Cl76  1  0.893291  0.735018  0.092034  1
  Cl  Cl77  1  0.253248  0.124610  0.792541  1
  Cl  Cl78  1  0.153213  0.922664  0.013288  1
  Cl  Cl79  1  0.340035  0.983510  0.955629  1
  Cl  Cl80  1  0.846787  0.077336  0.986712  1
  Cl  Cl81  1  0.608681  0.270273  0.424349  1
  Cl  Cl82  1  0.418390  0.393427  0.748863  1
  Cl  Cl83  1  0.734051  0.138718  0.263386  1
  Cl  Cl84  1  0.186949  0.487683  0.085303  1
  Cl  Cl85  1  0.811206  0.758565  0.811274  1
  Cl  Cl86  1  0.540721  0.673807  0.474369  1
  Cl  Cl87  1  0.818140  0.924255  0.988833  1
  Cl  Cl88  1  0.340035  0.516490  0.455629  1
  Cl  Cl89  1  0.924958  0.409396  0.260790  1
  Cl  Cl90  1  0.700979  0.423250  0.019327  1
  Cl  Cl91  1  0.900775  0.938227  0.775710  1
  Cl  Cl92  1  0.075042  0.909396  0.239210  1
  Cl  Cl93  1  0.299021  0.576750  0.980673  1
  Cl  Cl94  1  0.746752  0.624610  0.707459  1
  Cl  Cl95  1  0.688109  0.283996  0.194871  1
  Cl  Cl96  1  0.401846  0.312959  0.195193  1
  Cl  Cl97  1  0.462890  0.534681  0.832442  1
  Cl  Cl98  1  0.659965  0.016490  0.044371  1
  Cl  Cl99  1  0.031768  0.656272  0.999526  1
  Cl  Cl100  1  0.813051  0.987683  0.414697  1
  Cl  Cl101  1  0.540721  0.826193  0.974369  1
  Cl  Cl102  1  0.253248  0.375390  0.292541  1
  Cl  Cl103  1  0.462890  0.965319  0.332442  1
  Cl  Cl104  1  0.598154  0.687041  0.804807  1
  Cl  Cl105  1  0.537110  0.034681  0.667558  1
  Cl  Cl106  1  0.459279  0.326193  0.525631  1
  Cl  Cl107  1  0.734051  0.361282  0.763386  1
  Cl  Cl108  1  0.811206  0.741435  0.311274  1
  Cl  Cl109  1  0.608681  0.229727  0.924349  1
  Cl  Cl110  1  0.265949  0.861282  0.736614  1
  Cl  Cl111  1  0.099225  0.438227  0.724290  1
  Cl  Cl112  1  0.659965  0.483510  0.544371  1
  Cl  Cl113  1  0.746752  0.875390  0.207459  1
  Cl  Cl114  1  0.700346  0.576166  0.041912  1
  Cl  Cl115  1  0.598154  0.812959  0.304807  1
  Cl  Cl116  1  0.581610  0.893427  0.751137  1
  Cl  Cl117  1  0.700979  0.076750  0.519327  1
  Cl  Cl118  1  0.924958  0.090604  0.760790  1
  Cl  Cl119  1  0.401846  0.187041  0.695193  1
  Cl  Cl120  1  0.299021  0.923250  0.480673  1
  Cl  Cl121  1  0.893291  0.764982  0.592034  1
  Cl  Cl122  1  0.311891  0.783996  0.305129  1
  Cl  Cl123  1  0.299654  0.076166  0.458088  1
  Cl  Cl124  1  0.299654  0.423834  0.958088  1
  Cl  Cl125  1  0.111074  0.790742  0.820996  1
  Cl  Cl126  1  0.688109  0.216004  0.694871  1
  Cl  Cl127  1  0.075042  0.590604  0.739210  1
  O  O128  1  0.006717  0.797488  0.985237  1
  O  O129  1  0.993283  0.202512  0.014763  1
  O  O130  1  0.087743  0.501347  0.249257  1
  O  O131  1  0.487169  0.186848  0.504330  1
  O  O132  1  0.087743  0.998653  0.749257  1
  O  O133  1  0.487169  0.313152  0.004330  1
  O  O134  1  0.547791  0.011319  0.194683  1
  O  O135  1  0.993283  0.297488  0.514763  1
  O  O136  1  0.912257  0.001347  0.250743  1
  O  O137  1  0.512831  0.686848  0.995670  1
  O  O138  1  0.912257  0.498653  0.750743  1
  O  O139  1  0.006717  0.702512  0.485237  1
  O  O140  1  0.547791  0.488681  0.694683  1
  O  O141  1  0.452209  0.511319  0.305317  1
  O  O142  1  0.452209  0.988681  0.805317  1
  O  O143  1  0.512831  0.813152  0.495670  1
