# generated using pymatgen
data_Na2YMoPO8
_symmetry_space_group_name_H-M   'P 1'
_cell_length_a   11.51575447
_cell_length_b   11.51575447
_cell_length_c   11.51575447
_cell_angle_alpha   144.77056662
_cell_angle_beta   115.77062809
_cell_angle_gamma   75.42671171
_symmetry_Int_Tables_number   1
_chemical_formula_structural   Na2YMoPO8
_chemical_formula_sum   'Na8 Y4 Mo4 P4 O32'
_cell_volume   777.40252561
_cell_formula_units_Z   4
loop_
 _symmetry_equiv_pos_site_id
 _symmetry_equiv_pos_as_xyz
  1  'x, y, z'
loop_
 _atom_site_type_symbol
 _atom_site_label
 _atom_site_symmetry_multiplicity
 _atom_site_fract_x
 _atom_site_fract_y
 _atom_site_fract_z
 _atom_site_occupancy
  Na  Na0  1  0.405073  0.857689  0.068609  1
  Na  Na1  1  0.905073  0.336464  0.047384  1
  Na  Na2  1  0.594927  0.142311  0.931391  1
  Na  Na3  1  0.789080  0.836464  0.431391  1
  Na  Na4  1  0.710920  0.642311  0.547384  1
  Na  Na5  1  0.094927  0.663536  0.952616  1
  Na  Na6  1  0.210920  0.163536  0.568609  1
  Na  Na7  1  0.289080  0.357689  0.452616  1
  Y  Y8  1  0.822127  0.250000  0.572127  1
  Y  Y9  1  0.177873  0.750000  0.427873  1
  Y  Y10  1  0.322127  0.250000  0.072127  1
  Y  Y11  1  0.677873  0.750000  0.927873  1
  Mo  Mo12  1  0.928099  0.178099  0.250000  1
  Mo  Mo13  1  0.571901  0.321901  0.750000  1
  Mo  Mo14  1  0.071901  0.821901  0.750000  1
  Mo  Mo15  1  0.428099  0.678099  0.250000  1
  P  P16  1  0.069105  0.250000  0.819105  1
  P  P17  1  0.569105  0.250000  0.319105  1
  P  P18  1  0.930895  0.750000  0.180895  1
  P  P19  1  0.430895  0.750000  0.680895  1
  O  O20  1  0.061663  0.331135  0.756819  1
  O  O21  1  0.895440  0.330853  0.483797  1
  O  O22  1  0.925684  0.168865  0.730528  1
  O  O23  1  0.137299  0.727315  0.828871  1
  O  O24  1  0.438337  0.695156  0.769472  1
  O  O25  1  0.362701  0.691572  0.090017  1
  O  O26  1  0.561663  0.304844  0.230528  1
  O  O27  1  0.156332  0.084007  0.724042  1
  O  O28  1  0.152944  0.088357  0.983797  1
  O  O29  1  0.640035  0.067711  0.224042  1
  O  O30  1  0.938337  0.668865  0.243181  1
  O  O31  1  0.898445  0.808428  0.671129  1
  O  O32  1  0.395440  0.411643  0.064587  1
  O  O33  1  0.843668  0.915993  0.275958  1
  O  O34  1  0.343668  0.567711  0.427676  1
  O  O35  1  0.425684  0.195156  0.256819  1
  O  O36  1  0.859965  0.584007  0.927676  1
  O  O37  1  0.604560  0.588357  0.935413  1
  O  O38  1  0.574316  0.804844  0.743181  1
  O  O39  1  0.637299  0.308428  0.909983  1
  O  O40  1  0.398445  0.227315  0.590017  1
  O  O41  1  0.074316  0.831135  0.269472  1
  O  O42  1  0.104560  0.669147  0.516203  1
  O  O43  1  0.656332  0.432289  0.572324  1
  O  O44  1  0.347056  0.830853  0.435413  1
  O  O45  1  0.847056  0.911643  0.016203  1
  O  O46  1  0.652944  0.169147  0.564587  1
  O  O47  1  0.101555  0.191572  0.328871  1
  O  O48  1  0.601555  0.772685  0.409983  1
  O  O49  1  0.140035  0.415993  0.072324  1
  O  O50  1  0.862701  0.272685  0.171129  1
  O  O51  1  0.359965  0.932289  0.775958  1
