# generated using pymatgen
data_Rb2ZnCl4
_symmetry_space_group_name_H-M   'P 1'
_cell_length_a   7.61299617
_cell_length_b   12.98280921
_cell_length_c   28.19181272
_cell_angle_alpha   90.00000000
_cell_angle_beta   90.00000000
_cell_angle_gamma   90.00000000
_symmetry_Int_Tables_number   1
_chemical_formula_structural   Rb2ZnCl4
_chemical_formula_sum   'Rb24 Zn12 Cl48'
_cell_volume   2786.42455051
_cell_formula_units_Z   12
loop_
 _symmetry_equiv_pos_site_id
 _symmetry_equiv_pos_as_xyz
  1  'x, y, z'
loop_
 _atom_site_type_symbol
 _atom_site_label
 _atom_site_symmetry_multiplicity
 _atom_site_fract_x
 _atom_site_fract_y
 _atom_site_fract_z
 _atom_site_occupancy
  Rb  Rb0  1  0.773916  0.919692  0.711801  1
  Rb  Rb1  1  0.261957  0.815317  0.833193  1
  Rb  Rb2  1  0.277023  0.689082  0.667414  1
  Rb  Rb3  1  0.777023  0.189082  0.832586  1
  Rb  Rb4  1  0.700376  0.309884  0.999994  1
  Rb  Rb5  1  0.777023  0.310918  0.332586  1
  Rb  Rb6  1  0.273916  0.080308  0.288199  1
  Rb  Rb7  1  0.729293  0.582952  0.881918  1
  Rb  Rb8  1  0.273916  0.419692  0.788199  1
  Rb  Rb9  1  0.200376  0.809884  0.500006  1
  Rb  Rb10  1  0.713041  0.916322  0.044238  1
  Rb  Rb11  1  0.229293  0.417048  0.118082  1
  Rb  Rb12  1  0.773916  0.580308  0.211801  1
  Rb  Rb13  1  0.229293  0.082952  0.618082  1
  Rb  Rb14  1  0.700376  0.190116  0.499994  1
  Rb  Rb15  1  0.761957  0.184683  0.166807  1
  Rb  Rb16  1  0.213041  0.083678  0.955762  1
  Rb  Rb17  1  0.213041  0.416322  0.455762  1
  Rb  Rb18  1  0.729293  0.917048  0.381918  1
  Rb  Rb19  1  0.761957  0.315317  0.666807  1
  Rb  Rb20  1  0.277023  0.810918  0.167414  1
  Rb  Rb21  1  0.713041  0.583678  0.544238  1
  Rb  Rb22  1  0.200376  0.690116  0.000006  1
  Rb  Rb23  1  0.261957  0.684683  0.333193  1
  Zn  Zn24  1  0.216630  0.416988  0.594889  1
  Zn  Zn25  1  0.760294  0.585480  0.741241  1
  Zn  Zn26  1  0.746200  0.919608  0.572716  1
  Zn  Zn27  1  0.746200  0.580392  0.072716  1
  Zn  Zn28  1  0.246200  0.080392  0.427284  1
  Zn  Zn29  1  0.260294  0.085480  0.758759  1
  Zn  Zn30  1  0.716630  0.916988  0.905111  1
  Zn  Zn31  1  0.716630  0.583012  0.405111  1
  Zn  Zn32  1  0.216630  0.083012  0.094889  1
  Zn  Zn33  1  0.260294  0.414520  0.258759  1
  Zn  Zn34  1  0.246200  0.419608  0.927284  1
  Zn  Zn35  1  0.760294  0.914520  0.241241  1
  Cl  Cl36  1  0.024354  0.302983  0.918048  1
  Cl  Cl37  1  0.330624  0.567302  0.221506  1
  Cl  Cl38  1  0.489437  0.361458  0.572182  1
  Cl  Cl39  1  0.323216  0.054586  0.504206  1
  Cl  Cl40  1  0.675464  0.070388  0.611369  1
  Cl  Cl41  1  0.330624  0.932698  0.721506  1
  Cl  Cl42  1  0.024354  0.197017  0.418048  1
  Cl  Cl43  1  0.178987  0.061392  0.173775  1
  Cl  Cl44  1  0.678987  0.561392  0.326225  1
  Cl  Cl45  1  0.518592  0.797441  0.932681  1
  Cl  Cl46  1  0.830624  0.067302  0.278494  1
  Cl  Cl47  1  0.175464  0.929612  0.388631  1
  Cl  Cl48  1  0.524354  0.697017  0.081952  1
  Cl  Cl49  1  0.496729  0.358640  0.889689  1
  Cl  Cl50  1  0.524354  0.802983  0.581952  1
  Cl  Cl51  1  0.474968  0.294954  0.245717  1
  Cl  Cl52  1  0.474968  0.205046  0.745717  1
  Cl  Cl53  1  0.166423  0.570626  0.555485  1
  Cl  Cl54  1  0.974968  0.705046  0.754283  1
  Cl  Cl55  1  0.666423  0.429374  0.444515  1
  Cl  Cl56  1  0.690016  0.567999  0.663332  1
  Cl  Cl57  1  0.989437  0.861458  0.927818  1
  Cl  Cl58  1  0.830624  0.432698  0.778494  1
  Cl  Cl59  1  0.996729  0.858640  0.610311  1
  Cl  Cl60  1  0.004260  0.138761  0.721593  1
  Cl  Cl61  1  0.678987  0.938608  0.826225  1
  Cl  Cl62  1  0.175464  0.570388  0.888631  1
  Cl  Cl63  1  0.690016  0.932001  0.163332  1
  Cl  Cl64  1  0.004260  0.361239  0.221593  1
  Cl  Cl65  1  0.989437  0.638542  0.427818  1
  Cl  Cl66  1  0.675464  0.429612  0.111369  1
  Cl  Cl67  1  0.018592  0.202559  0.067319  1
  Cl  Cl68  1  0.504260  0.861239  0.278407  1
  Cl  Cl69  1  0.823216  0.554586  0.995794  1
  Cl  Cl70  1  0.489437  0.138542  0.072182  1
  Cl  Cl71  1  0.996729  0.641360  0.110311  1
  Cl  Cl72  1  0.178987  0.438608  0.673775  1
  Cl  Cl73  1  0.666423  0.070626  0.944515  1
  Cl  Cl74  1  0.496729  0.141360  0.389689  1
  Cl  Cl75  1  0.018592  0.297441  0.567319  1
  Cl  Cl76  1  0.974968  0.794954  0.254283  1
  Cl  Cl77  1  0.190016  0.432001  0.336668  1
  Cl  Cl78  1  0.518592  0.702559  0.432681  1
  Cl  Cl79  1  0.823216  0.945414  0.495794  1
  Cl  Cl80  1  0.190016  0.067999  0.836668  1
  Cl  Cl81  1  0.323216  0.445414  0.004206  1
  Cl  Cl82  1  0.166423  0.929374  0.055485  1
  Cl  Cl83  1  0.504260  0.638761  0.778407  1
