# generated using pymatgen
data_Nd6Si4S17
_symmetry_space_group_name_H-M   'P 1'
_cell_length_a   8.99597344
_cell_length_b   10.01191983
_cell_length_c   14.30362321
_cell_angle_alpha   82.01086013
_cell_angle_beta   86.99543609
_cell_angle_gamma   89.22088141
_symmetry_Int_Tables_number   1
_chemical_formula_structural   Nd6Si4S17
_chemical_formula_sum   'Nd12 Si8 S34'
_cell_volume   1274.00070771
_cell_formula_units_Z   2
loop_
 _symmetry_equiv_pos_site_id
 _symmetry_equiv_pos_as_xyz
  1  'x, y, z'
loop_
 _atom_site_type_symbol
 _atom_site_label
 _atom_site_symmetry_multiplicity
 _atom_site_fract_x
 _atom_site_fract_y
 _atom_site_fract_z
 _atom_site_occupancy
  Nd  Nd0  1  0.631823  0.935806  0.323577  1
  Nd  Nd1  1  0.368177  0.064194  0.676423  1
  Nd  Nd2  1  0.551268  0.261749  0.998522  1
  Nd  Nd3  1  0.915401  0.919381  0.834367  1
  Nd  Nd4  1  0.448732  0.738251  0.001478  1
  Nd  Nd5  1  0.983126  0.231369  0.539526  1
  Nd  Nd6  1  0.893551  0.615366  0.184178  1
  Nd  Nd7  1  0.667364  0.589708  0.657638  1
  Nd  Nd8  1  0.016874  0.768631  0.460474  1
  Nd  Nd9  1  0.106449  0.384634  0.815822  1
  Nd  Nd10  1  0.084599  0.080619  0.165633  1
  Nd  Nd11  1  0.332636  0.410292  0.342362  1
  Si  Si12  1  0.276086  0.058006  0.393927  1
  Si  Si13  1  0.769004  0.561853  0.900921  1
  Si  Si14  1  0.723914  0.941994  0.606073  1
  Si  Si15  1  0.249273  0.499557  0.583742  1
  Si  Si16  1  0.750727  0.500443  0.416258  1
  Si  Si17  1  0.250213  0.059938  0.922775  1
  Si  Si18  1  0.230996  0.438147  0.099079  1
  Si  Si19  1  0.749787  0.940062  0.077225  1
  S  S20  1  0.355334  0.530270  0.706810  1
  S  S21  1  0.107707  0.201862  0.344921  1
  S  S22  1  0.304017  0.911762  0.301655  1
  S  S23  1  0.382337  0.213077  0.838579  1
  S  S24  1  0.040212  0.148812  0.952073  1
  S  S25  1  0.644666  0.469730  0.293190  1
  S  S26  1  0.321681  0.481850  0.956518  1
  S  S27  1  0.892293  0.798138  0.655079  1
  S  S28  1  0.297595  0.306627  0.540772  1
  S  S29  1  0.659305  0.999186  0.943015  1
  S  S30  1  0.305083  0.633180  0.460233  1
  S  S31  1  0.991143  0.627171  0.884590  1
  S  S32  1  0.742730  0.115554  0.148829  1
  S  S33  1  0.985369  0.508850  0.376781  1
  S  S34  1  0.751771  0.385920  0.832232  1
  S  S35  1  0.695983  0.088238  0.698345  1
  S  S36  1  0.815722  0.019312  0.467841  1
  S  S37  1  0.702405  0.693373  0.459228  1
  S  S38  1  0.067330  0.142573  0.721770  1
  S  S39  1  0.184278  0.980688  0.532159  1
  S  S40  1  0.617663  0.786923  0.161421  1
  S  S41  1  0.008857  0.372829  0.115410  1
  S  S42  1  0.340695  0.000814  0.056985  1
  S  S43  1  0.257270  0.884446  0.851171  1
  S  S44  1  0.367710  0.281538  0.166505  1
  S  S45  1  0.248229  0.614080  0.167768  1
  S  S46  1  0.959788  0.851188  0.047927  1
  S  S47  1  0.484233  0.153833  0.396559  1
  S  S48  1  0.694917  0.366820  0.539767  1
  S  S49  1  0.515767  0.846167  0.603441  1
  S  S50  1  0.014631  0.491150  0.623219  1
  S  S51  1  0.632290  0.718462  0.833495  1
  S  S52  1  0.678319  0.518150  0.043482  1
  S  S53  1  0.932670  0.857427  0.278230  1
