# generated using pymatgen
data_Al(HO)3
_symmetry_space_group_name_H-M   'P 1'
_cell_length_a   5.05972111
_cell_length_b   6.28533028
_cell_length_c   7.03810296
_cell_angle_alpha   83.38455521
_cell_angle_beta   80.88950920
_cell_angle_gamma   81.40865915
_symmetry_Int_Tables_number   1
_chemical_formula_structural   Al(HO)3
_chemical_formula_sum   'Al4 H12 O12'
_cell_volume   217.55950345
_cell_formula_units_Z   4
loop_
 _symmetry_equiv_pos_site_id
 _symmetry_equiv_pos_as_xyz
  1  'x, y, z'
loop_
 _atom_site_type_symbol
 _atom_site_label
 _atom_site_symmetry_multiplicity
 _atom_site_fract_x
 _atom_site_fract_y
 _atom_site_fract_z
 _atom_site_occupancy
  Al  Al0  1  0.019243  0.665077  0.336260  1
  Al  Al1  1  0.530261  0.835246  0.165803  1
  Al  Al2  1  0.980757  0.334923  0.663740  1
  Al  Al3  1  0.469739  0.164754  0.834197  1
  H  H4  1  0.880347  0.921062  0.878714  1
  H  H5  1  0.360026  0.520023  0.113261  1
  H  H6  1  0.119653  0.078938  0.121286  1
  H  H7  1  0.219158  0.267465  0.321933  1
  H  H8  1  0.234977  0.971687  0.621921  1
  H  H9  1  0.639974  0.479977  0.886739  1
  H  H10  1  0.404378  0.694085  0.498963  1
  H  H11  1  0.780842  0.732535  0.678067  1
  H  H12  1  0.765023  0.028313  0.378079  1
  H  H13  1  0.206220  0.540744  0.873334  1
  H  H14  1  0.595622  0.305915  0.501037  1
  H  H15  1  0.793780  0.459256  0.126666  1
  O  O16  1  0.699391  0.199127  0.583355  1
  O  O17  1  0.178161  0.378348  0.413975  1
  O  O18  1  0.754148  0.571173  0.217115  1
  O  O19  1  0.821839  0.621652  0.586025  1
  O  O20  1  0.270997  0.668392  0.094533  1
  O  O21  1  0.300609  0.800873  0.416645  1
  O  O22  1  0.729003  0.331608  0.905467  1
  O  O23  1  0.812509  0.937241  0.268576  1
  O  O24  1  0.187491  0.062759  0.731424  1
  O  O25  1  0.310820  0.102790  0.101395  1
  O  O26  1  0.689180  0.897210  0.898605  1
  O  O27  1  0.245852  0.428827  0.782885  1
