# generated using pymatgen
data_Na2Cd(SO4)2
_symmetry_space_group_name_H-M   'P 1'
_cell_length_a   6.59680146
_cell_length_b   6.59680146
_cell_length_c   8.82700741
_cell_angle_alpha   71.16311694
_cell_angle_beta   108.83688306
_cell_angle_gamma   101.60570279
_symmetry_Int_Tables_number   1
_chemical_formula_structural   Na2Cd(SO4)2
_chemical_formula_sum   'Na4 Cd2 S4 O16'
_cell_volume   342.06640018
_cell_formula_units_Z   2
loop_
 _symmetry_equiv_pos_site_id
 _symmetry_equiv_pos_as_xyz
  1  'x, y, z'
loop_
 _atom_site_type_symbol
 _atom_site_label
 _atom_site_symmetry_multiplicity
 _atom_site_fract_x
 _atom_site_fract_y
 _atom_site_fract_z
 _atom_site_occupancy
  Na  Na0  1  0.693773  0.418525  0.439249  1
  Na  Na1  1  0.306227  0.581475  0.560751  1
  Na  Na2  1  0.418525  0.693773  0.060751  1
  Na  Na3  1  0.581475  0.306227  0.939249  1
  Cd  Cd4  1  0.069690  0.069690  0.250000  1
  Cd  Cd5  1  0.930310  0.930310  0.750000  1
  S  S6  1  0.599248  0.976260  0.313690  1
  S  S7  1  0.976260  0.599248  0.186310  1
  S  S8  1  0.400752  0.023740  0.686310  1
  S  S9  1  0.023740  0.400752  0.813690  1
  O  O10  1  0.423176  0.119330  0.251996  1
  O  O11  1  0.228603  0.955026  0.549587  1
  O  O12  1  0.308111  0.990073  0.829288  1
  O  O13  1  0.576824  0.880670  0.748004  1
  O  O14  1  0.044974  0.771397  0.049587  1
  O  O15  1  0.745225  0.516342  0.134642  1
  O  O16  1  0.516342  0.745225  0.365358  1
  O  O17  1  0.483658  0.254775  0.634642  1
  O  O18  1  0.955026  0.228603  0.950413  1
  O  O19  1  0.990073  0.308111  0.670712  1
  O  O20  1  0.119330  0.423176  0.248004  1
  O  O21  1  0.691889  0.009927  0.170712  1
  O  O22  1  0.880670  0.576824  0.751996  1
  O  O23  1  0.009927  0.691889  0.329288  1
  O  O24  1  0.254775  0.483658  0.865358  1
  O  O25  1  0.771397  0.044974  0.450413  1
