# generated using pymatgen
data_SrFeP(O2F)2
_symmetry_space_group_name_H-M   'P 1'
_cell_length_a   5.26642379
_cell_length_b   12.44168429
_cell_length_c   7.83870131
_cell_angle_alpha   90.00000000
_cell_angle_beta   117.55947567
_cell_angle_gamma   90.00000000
_symmetry_Int_Tables_number   1
_chemical_formula_structural   SrFeP(O2F)2
_chemical_formula_sum   'Sr4 Fe4 P4 O16 F8'
_cell_volume   455.33710550
_cell_formula_units_Z   4
loop_
 _symmetry_equiv_pos_site_id
 _symmetry_equiv_pos_as_xyz
  1  'x, y, z'
loop_
 _atom_site_type_symbol
 _atom_site_label
 _atom_site_symmetry_multiplicity
 _atom_site_fract_x
 _atom_site_fract_y
 _atom_site_fract_z
 _atom_site_occupancy
  Sr  Sr0  1  0.854510  0.793772  0.312471  1
  Sr  Sr1  1  0.145490  0.206228  0.687529  1
  Sr  Sr2  1  0.145490  0.293772  0.187529  1
  Sr  Sr3  1  0.854510  0.706228  0.812471  1
  Fe  Fe4  1  0.000000  0.000000  0.000000  1
  Fe  Fe5  1  0.000000  0.500000  0.500000  1
  Fe  Fe6  1  0.500000  0.500000  0.000000  1
  Fe  Fe7  1  0.500000  0.000000  0.500000  1
  P  P8  1  0.370439  0.614773  0.304754  1
  P  P9  1  0.629561  0.114773  0.195246  1
  P  P10  1  0.629561  0.385227  0.695246  1
  P  P11  1  0.370439  0.885227  0.804754  1
  O  O12  1  0.704168  0.877241  0.942227  1
  O  O13  1  0.262702  0.718361  0.188643  1
  O  O14  1  0.737298  0.281639  0.811357  1
  O  O15  1  0.704168  0.622759  0.442227  1
  O  O16  1  0.776075  0.399356  0.564669  1
  O  O17  1  0.318034  0.515091  0.171783  1
  O  O18  1  0.681966  0.015091  0.328217  1
  O  O19  1  0.776075  0.100644  0.064669  1
  O  O20  1  0.262702  0.781639  0.688643  1
  O  O21  1  0.295832  0.122759  0.057773  1
  O  O22  1  0.318034  0.984909  0.671783  1
  O  O23  1  0.223925  0.600644  0.435331  1
  O  O24  1  0.681966  0.484909  0.828217  1
  O  O25  1  0.295832  0.377241  0.557773  1
  O  O26  1  0.737298  0.218361  0.311357  1
  O  O27  1  0.223925  0.899356  0.935331  1
  F  F28  1  0.669045  0.855265  0.550825  1
  F  F29  1  0.330955  0.355265  0.949175  1
  F  F30  1  0.839973  0.440635  0.228238  1
  F  F31  1  0.669045  0.644735  0.050825  1
  F  F32  1  0.330955  0.144735  0.449175  1
  F  F33  1  0.839973  0.059365  0.728238  1
  F  F34  1  0.160027  0.940635  0.271762  1
  F  F35  1  0.160027  0.559365  0.771762  1
