# generated using pymatgen
data_NaSb(PS3)2
_symmetry_space_group_name_H-M   'P 1'
_cell_length_a   11.42595524
_cell_length_b   7.41002176
_cell_length_c   11.93495572
_cell_angle_alpha   90.00000000
_cell_angle_beta   108.95876347
_cell_angle_gamma   90.00000000
_symmetry_Int_Tables_number   1
_chemical_formula_structural   NaSb(PS3)2
_chemical_formula_sum   'Na4 Sb4 P8 S24'
_cell_volume   955.67533880
_cell_formula_units_Z   4
loop_
 _symmetry_equiv_pos_site_id
 _symmetry_equiv_pos_as_xyz
  1  'x, y, z'
loop_
 _atom_site_type_symbol
 _atom_site_label
 _atom_site_symmetry_multiplicity
 _atom_site_fract_x
 _atom_site_fract_y
 _atom_site_fract_z
 _atom_site_occupancy
  Na  Na0  1  0.403092  0.111445  0.620352  1
  Na  Na1  1  0.596908  0.888555  0.379648  1
  Na  Na2  1  0.596908  0.611445  0.879648  1
  Na  Na3  1  0.403092  0.388555  0.120352  1
  Sb  Sb4  1  0.868014  0.160721  0.179056  1
  Sb  Sb5  1  0.131986  0.839279  0.820944  1
  Sb  Sb6  1  0.868014  0.339279  0.679056  1
  Sb  Sb7  1  0.131986  0.660721  0.320944  1
  P  P8  1  0.244048  0.899993  0.165289  1
  P  P9  1  0.755952  0.100007  0.834711  1
  P  P10  1  0.753803  0.878412  0.704096  1
  P  P11  1  0.755952  0.399993  0.334711  1
  P  P12  1  0.246197  0.378412  0.795904  1
  P  P13  1  0.753803  0.621588  0.204096  1
  P  P14  1  0.246197  0.121588  0.295904  1
  P  P15  1  0.244048  0.600007  0.665289  1
  S  S16  1  0.177206  0.509437  0.915242  1
  S  S17  1  0.342077  0.803617  0.775560  1
  S  S18  1  0.657923  0.303617  0.724440  1
  S  S19  1  0.124288  0.306507  0.195901  1
  S  S20  1  0.342077  0.696383  0.275560  1
  S  S21  1  0.420053  0.209983  0.366154  1
  S  S22  1  0.822794  0.009437  0.584758  1
  S  S23  1  0.687505  0.494181  0.456705  1
  S  S24  1  0.875712  0.693493  0.804099  1
  S  S25  1  0.312495  0.505819  0.543295  1
  S  S26  1  0.312495  0.994181  0.043295  1
  S  S27  1  0.064205  0.808730  0.110042  1
  S  S28  1  0.687505  0.005819  0.956705  1
  S  S29  1  0.579947  0.709983  0.133846  1
  S  S30  1  0.177206  0.990563  0.415242  1
  S  S31  1  0.822794  0.490563  0.084758  1
  S  S32  1  0.579947  0.790017  0.633846  1
  S  S33  1  0.064205  0.691270  0.610041  1
  S  S34  1  0.124288  0.193493  0.695901  1
  S  S35  1  0.875712  0.806507  0.304099  1
  S  S36  1  0.935795  0.308730  0.389958  1
  S  S37  1  0.657923  0.196383  0.224440  1
  S  S38  1  0.420053  0.290017  0.866154  1
  S  S39  1  0.935795  0.191270  0.889958  1
