# generated using pymatgen
data_MoP2PbO8
_symmetry_space_group_name_H-M   'P 1'
_cell_length_a   10.23213936
_cell_length_b   10.23213936
_cell_length_c   6.66840899
_cell_angle_alpha   81.70331297
_cell_angle_beta   98.29668703
_cell_angle_gamma   89.57564076
_symmetry_Int_Tables_number   1
_chemical_formula_structural   MoP2PbO8
_chemical_formula_sum   'Mo4 P8 Pb4 O32'
_cell_volume   683.33888513
_cell_formula_units_Z   4
loop_
 _symmetry_equiv_pos_site_id
 _symmetry_equiv_pos_as_xyz
  1  'x, y, z'
loop_
 _atom_site_type_symbol
 _atom_site_label
 _atom_site_symmetry_multiplicity
 _atom_site_fract_x
 _atom_site_fract_y
 _atom_site_fract_z
 _atom_site_occupancy
  Mo  Mo0  1  0.008434  0.275300  0.686575  1
  Mo  Mo1  1  0.724700  0.991566  0.186575  1
  Mo  Mo2  1  0.991566  0.724700  0.313425  1
  Mo  Mo3  1  0.275300  0.008434  0.813425  1
  P  P4  1  0.207868  0.984114  0.302526  1
  P  P5  1  0.237053  0.493637  0.536439  1
  P  P6  1  0.762947  0.506363  0.463561  1
  P  P7  1  0.984114  0.207868  0.197474  1
  P  P8  1  0.493637  0.237053  0.963561  1
  P  P9  1  0.506363  0.762947  0.036439  1
  P  P10  1  0.792132  0.015886  0.697474  1
  P  P11  1  0.015886  0.792132  0.802526  1
  Pb  Pb12  1  0.738101  0.490610  0.957955  1
  Pb  Pb13  1  0.490610  0.738101  0.542045  1
  Pb  Pb14  1  0.509390  0.261899  0.457955  1
  Pb  Pb15  1  0.261899  0.509390  0.042045  1
  O  O16  1  0.843489  0.155340  0.669769  1
  O  O17  1  0.868053  0.868053  0.250000  1
  O  O18  1  0.156511  0.844660  0.330231  1
  O  O19  1  0.844660  0.156511  0.169769  1
  O  O20  1  0.016820  0.291929  0.002216  1
  O  O21  1  0.326479  0.582756  0.662769  1
  O  O22  1  0.673521  0.417244  0.337231  1
  O  O23  1  0.417244  0.673521  0.162769  1
  O  O24  1  0.288822  0.011229  0.127161  1
  O  O25  1  0.582756  0.326479  0.837231  1
  O  O26  1  0.011229  0.288822  0.372839  1
  O  O27  1  0.573454  0.133475  0.133557  1
  O  O28  1  0.078429  0.078429  0.250000  1
  O  O29  1  0.131947  0.131947  0.750000  1
  O  O30  1  0.408341  0.162690  0.804925  1
  O  O31  1  0.681850  0.589234  0.582353  1
  O  O32  1  0.426546  0.866525  0.866443  1
  O  O33  1  0.410766  0.318150  0.082353  1
  O  O34  1  0.983180  0.708071  0.997784  1
  O  O35  1  0.318150  0.410766  0.417647  1
  O  O36  1  0.291929  0.016820  0.497784  1
  O  O37  1  0.133475  0.573454  0.366443  1
  O  O38  1  0.162690  0.408341  0.695075  1
  O  O39  1  0.155340  0.843489  0.830231  1
  O  O40  1  0.591659  0.837310  0.195075  1
  O  O41  1  0.837310  0.591659  0.304925  1
  O  O42  1  0.921571  0.921571  0.750000  1
  O  O43  1  0.711178  0.988771  0.872839  1
  O  O44  1  0.866525  0.426546  0.633557  1
  O  O45  1  0.708071  0.983180  0.502216  1
  O  O46  1  0.589234  0.681850  0.917647  1
  O  O47  1  0.988771  0.711178  0.627161  1
