# generated using pymatgen
data_KNaGeO3
_symmetry_space_group_name_H-M   'P 1'
_cell_length_a   4.87183329
_cell_length_b   6.98167335
_cell_length_c   10.80986325
_cell_angle_alpha   90.00000000
_cell_angle_beta   90.00000000
_cell_angle_gamma   90.00000000
_symmetry_Int_Tables_number   1
_chemical_formula_structural   KNaGeO3
_chemical_formula_sum   'K4 Na4 Ge4 O12'
_cell_volume   367.68180952
_cell_formula_units_Z   4
loop_
 _symmetry_equiv_pos_site_id
 _symmetry_equiv_pos_as_xyz
  1  'x, y, z'
loop_
 _atom_site_type_symbol
 _atom_site_label
 _atom_site_symmetry_multiplicity
 _atom_site_fract_x
 _atom_site_fract_y
 _atom_site_fract_z
 _atom_site_occupancy
  K  K0  1  0.520499  0.885290  0.734915  1
  K  K1  1  0.520499  0.385290  0.765085  1
  K  K2  1  0.020499  0.614710  0.234915  1
  K  K3  1  0.020499  0.114710  0.265085  1
  Na  Na4  1  0.536866  0.877653  0.415599  1
  Na  Na5  1  0.036866  0.622347  0.915599  1
  Na  Na6  1  0.536866  0.377653  0.084401  1
  Na  Na7  1  0.036866  0.122347  0.584401  1
  Ge  Ge8  1  0.501432  0.369498  0.450992  1
  Ge  Ge9  1  0.001432  0.630502  0.549008  1
  Ge  Ge10  1  0.001432  0.130502  0.950992  1
  Ge  Ge11  1  0.501432  0.869498  0.049008  1
  O  O12  1  0.129944  0.916236  0.030477  1
  O  O13  1  0.557600  0.163221  0.540072  1
  O  O14  1  0.568359  0.861906  0.205811  1
  O  O15  1  0.629944  0.583764  0.530477  1
  O  O16  1  0.129944  0.416236  0.469523  1
  O  O17  1  0.068359  0.638094  0.705811  1
  O  O18  1  0.629944  0.083764  0.969523  1
  O  O19  1  0.057600  0.336779  0.040072  1
  O  O20  1  0.557600  0.663221  0.959928  1
  O  O21  1  0.568359  0.361906  0.294189  1
  O  O22  1  0.057600  0.836779  0.459928  1
  O  O23  1  0.068359  0.138094  0.794189  1
