# generated using pymatgen
data_Ca3WCl2O5
_symmetry_space_group_name_H-M   'P 1'
_cell_length_a   5.68323029
_cell_length_b   11.29348654
_cell_length_c   11.94038930
_cell_angle_alpha   90.00000000
_cell_angle_beta   90.00000000
_cell_angle_gamma   90.00000000
_symmetry_Int_Tables_number   1
_chemical_formula_structural   Ca3WCl2O5
_chemical_formula_sum   'Ca12 W4 Cl8 O20'
_cell_volume   766.37579495
_cell_formula_units_Z   4
loop_
 _symmetry_equiv_pos_site_id
 _symmetry_equiv_pos_as_xyz
  1  'x, y, z'
loop_
 _atom_site_type_symbol
 _atom_site_label
 _atom_site_symmetry_multiplicity
 _atom_site_fract_x
 _atom_site_fract_y
 _atom_site_fract_z
 _atom_site_occupancy
  Ca  Ca0  1  0.750000  0.834782  0.860405  1
  Ca  Ca1  1  0.250000  0.165218  0.139595  1
  Ca  Ca2  1  0.750000  0.665218  0.360405  1
  Ca  Ca3  1  0.750000  0.329945  0.832816  1
  Ca  Ca4  1  0.250000  0.919778  0.340893  1
  Ca  Ca5  1  0.250000  0.829945  0.667184  1
  Ca  Ca6  1  0.750000  0.419778  0.159107  1
  Ca  Ca7  1  0.250000  0.580222  0.840893  1
  Ca  Ca8  1  0.250000  0.334782  0.639595  1
  Ca  Ca9  1  0.750000  0.080222  0.659107  1
  Ca  Ca10  1  0.750000  0.170055  0.332816  1
  Ca  Ca11  1  0.250000  0.670055  0.167184  1
  W  W12  1  0.250000  0.415014  0.307634  1
  W  W13  1  0.250000  0.084986  0.807634  1
  W  W14  1  0.750000  0.915014  0.192366  1
  W  W15  1  0.750000  0.584986  0.692366  1
  Cl  Cl16  1  0.250000  0.715510  0.466826  1
  Cl  Cl17  1  0.750000  0.284490  0.533174  1
  Cl  Cl18  1  0.250000  0.083936  0.522869  1
  Cl  Cl19  1  0.250000  0.416064  0.022869  1
  Cl  Cl20  1  0.750000  0.215510  0.033174  1
  Cl  Cl21  1  0.750000  0.916064  0.477131  1
  Cl  Cl22  1  0.250000  0.784490  0.966826  1
  Cl  Cl23  1  0.750000  0.583936  0.977131  1
  O  O24  1  0.750000  0.590854  0.543762  1
  O  O25  1  0.250000  0.090854  0.956238  1
  O  O26  1  0.983003  0.032711  0.236113  1
  O  O27  1  0.516997  0.032711  0.236113  1
  O  O28  1  0.478383  0.299862  0.258249  1
  O  O29  1  0.250000  0.409146  0.456238  1
  O  O30  1  0.516997  0.467289  0.736113  1
  O  O31  1  0.483003  0.967289  0.763887  1
  O  O32  1  0.750000  0.909146  0.043762  1
  O  O33  1  0.478383  0.200138  0.758249  1
  O  O34  1  0.016997  0.967289  0.763887  1
  O  O35  1  0.521617  0.700138  0.741751  1
  O  O36  1  0.021617  0.299862  0.258249  1
  O  O37  1  0.521617  0.799862  0.241751  1
  O  O38  1  0.021617  0.200138  0.758249  1
  O  O39  1  0.978383  0.700138  0.741751  1
  O  O40  1  0.983003  0.467289  0.736113  1
  O  O41  1  0.978383  0.799862  0.241751  1
  O  O42  1  0.016997  0.532711  0.263887  1
  O  O43  1  0.483003  0.532711  0.263887  1
