# generated using pymatgen
data_In2(SO4)3
_symmetry_space_group_name_H-M   'P 1'
_cell_length_a   9.26271185
_cell_length_b   9.26271185
_cell_length_c   9.26271185
_cell_angle_alpha   55.18624841
_cell_angle_beta   55.18624841
_cell_angle_gamma   55.18624841
_symmetry_Int_Tables_number   1
_chemical_formula_structural   In2(SO4)3
_chemical_formula_sum   'In4 S6 O24'
_cell_volume   499.06122168
_cell_formula_units_Z   2
loop_
 _symmetry_equiv_pos_site_id
 _symmetry_equiv_pos_as_xyz
  1  'x, y, z'
loop_
 _atom_site_type_symbol
 _atom_site_label
 _atom_site_symmetry_multiplicity
 _atom_site_fract_x
 _atom_site_fract_y
 _atom_site_fract_z
 _atom_site_occupancy
  In  In0  1  0.855442  0.855442  0.855442  1
  In  In1  1  0.144558  0.144558  0.144558  1
  In  In2  1  0.651307  0.651307  0.651307  1
  In  In3  1  0.348693  0.348693  0.348693  1
  S  S4  1  0.543687  0.248800  0.958516  1
  S  S5  1  0.958516  0.543687  0.248800  1
  S  S6  1  0.248800  0.958516  0.543687  1
  S  S7  1  0.456313  0.751200  0.041484  1
  S  S8  1  0.041484  0.456313  0.751200  1
  S  S9  1  0.751200  0.041484  0.456313  1
  O  O10  1  0.401830  0.202299  0.980566  1
  O  O11  1  0.980566  0.401830  0.202299  1
  O  O12  1  0.202299  0.980566  0.401830  1
  O  O13  1  0.598170  0.797701  0.019434  1
  O  O14  1  0.019434  0.598170  0.797701  1
  O  O15  1  0.797701  0.019434  0.598170  1
  O  O16  1  0.529012  0.210342  0.145026  1
  O  O17  1  0.145026  0.529012  0.210342  1
  O  O18  1  0.210342  0.145026  0.529012  1
  O  O19  1  0.470988  0.789658  0.854974  1
  O  O20  1  0.854974  0.470988  0.789658  1
  O  O21  1  0.789658  0.854974  0.470988  1
  O  O22  1  0.736413  0.130388  0.866975  1
  O  O23  1  0.866975  0.736413  0.130388  1
  O  O24  1  0.130388  0.866975  0.736413  1
  O  O25  1  0.263587  0.869612  0.133025  1
  O  O26  1  0.133025  0.263587  0.869612  1
  O  O27  1  0.869612  0.133025  0.263587  1
  O  O28  1  0.511230  0.451110  0.836290  1
  O  O29  1  0.836290  0.511230  0.451110  1
  O  O30  1  0.451110  0.836290  0.511230  1
  O  O31  1  0.488770  0.548890  0.163710  1
  O  O32  1  0.163710  0.488770  0.548890  1
  O  O33  1  0.548890  0.163710  0.488770  1
