# generated using pymatgen
data_CaCO3
_symmetry_space_group_name_H-M   'P 1'
_cell_length_a   4.54339549
_cell_length_b   6.66148824
_cell_length_c   8.53194496
_cell_angle_alpha   90.00000000
_cell_angle_beta   90.00000000
_cell_angle_gamma   90.00000000
_symmetry_Int_Tables_number   1
_chemical_formula_structural   CaCO3
_chemical_formula_sum   'Ca4 C4 O12'
_cell_volume   258.22593182
_cell_formula_units_Z   4
loop_
 _symmetry_equiv_pos_site_id
 _symmetry_equiv_pos_as_xyz
  1  'x, y, z'
loop_
 _atom_site_type_symbol
 _atom_site_label
 _atom_site_symmetry_multiplicity
 _atom_site_fract_x
 _atom_site_fract_y
 _atom_site_fract_z
 _atom_site_occupancy
  Ca  Ca0  1  0.500000  0.500000  0.000000  1
  Ca  Ca1  1  0.000000  0.000000  0.000000  1
  Ca  Ca2  1  0.000000  0.000000  0.500000  1
  Ca  Ca3  1  0.500000  0.500000  0.500000  1
  C  C4  1  0.027483  0.635568  0.250000  1
  C  C5  1  0.527483  0.864432  0.750000  1
  C  C6  1  0.472517  0.135568  0.250000  1
  C  C7  1  0.972517  0.364432  0.750000  1
  O  O8  1  0.218991  0.047454  0.250000  1
  O  O9  1  0.097339  0.319840  0.617060  1
  O  O10  1  0.281009  0.547454  0.250000  1
  O  O11  1  0.902661  0.680160  0.382940  1
  O  O12  1  0.402661  0.819840  0.617060  1
  O  O13  1  0.781009  0.952546  0.750000  1
  O  O14  1  0.597339  0.180160  0.382940  1
  O  O15  1  0.597339  0.180160  0.117060  1
  O  O16  1  0.402661  0.819840  0.882940  1
  O  O17  1  0.902661  0.680160  0.117060  1
  O  O18  1  0.097339  0.319840  0.882940  1
  O  O19  1  0.718991  0.452546  0.750000  1
