# generated using pymatgen
data_Li2Ca3Be3Si3(O6F)2
_symmetry_space_group_name_H-M   'P 1'
_cell_length_a   11.25927476
_cell_length_b   11.25927476
_cell_length_c   11.25927476
_cell_angle_alpha   109.47122063
_cell_angle_beta   109.47122063
_cell_angle_gamma   109.47122063
_symmetry_Int_Tables_number   1
_chemical_formula_structural   Li2Ca3Be3Si3(O6F)2
_chemical_formula_sum   'Li8 Ca12 Be12 Si12 O48 F8'
_cell_volume   1098.77649668
_cell_formula_units_Z   4
loop_
 _symmetry_equiv_pos_site_id
 _symmetry_equiv_pos_as_xyz
  1  'x, y, z'
loop_
 _atom_site_type_symbol
 _atom_site_label
 _atom_site_symmetry_multiplicity
 _atom_site_fract_x
 _atom_site_fract_y
 _atom_site_fract_z
 _atom_site_occupancy
  Li  Li0  1  0.500000  1.000000  0.039443  1
  Li  Li1  1  0.039443  0.500000  0.000000  1
  Li  Li2  1  1.000000  0.039443  0.500000  1
  Li  Li3  1  1.000000  0.542867  0.500000  1
  Li  Li4  1  0.542867  0.500000  0.000000  1
  Li  Li5  1  0.957133  0.957133  0.957133  1
  Li  Li6  1  0.460557  0.460557  0.460557  1
  Li  Li7  1  0.500000  1.000000  0.542867  1
  Ca  Ca8  1  0.750000  0.163982  0.413982  1
  Ca  Ca9  1  0.594144  0.844144  0.750000  1
  Ca  Ca10  1  0.250000  0.905856  0.655856  1
  Ca  Ca11  1  0.750000  0.594144  0.844144  1
  Ca  Ca12  1  0.163982  0.413982  0.750000  1
  Ca  Ca13  1  0.250000  0.336018  0.086018  1
  Ca  Ca14  1  0.844144  0.750000  0.594144  1
  Ca  Ca15  1  0.655856  0.250000  0.905856  1
  Ca  Ca16  1  0.086018  0.250000  0.336018  1
  Ca  Ca17  1  0.413982  0.750000  0.163982  1
  Ca  Ca18  1  0.905856  0.655856  0.250000  1
  Ca  Ca19  1  0.336018  0.086018  0.250000  1
  Be  Be20  1  0.424420  0.464741  0.701127  1
  Be  Be21  1  0.723294  0.798873  0.263614  1
  Be  Be22  1  0.776706  0.040320  0.075580  1
  Be  Be23  1  0.040320  0.075580  0.776706  1
  Be  Be24  1  0.701127  0.424420  0.464741  1
  Be  Be25  1  0.035259  0.459680  0.236386  1
  Be  Be26  1  0.464741  0.701127  0.424420  1
  Be  Be27  1  0.236386  0.035259  0.459680  1
  Be  Be28  1  0.798873  0.263614  0.723294  1
  Be  Be29  1  0.075580  0.776706  0.040320  1
  Be  Be30  1  0.263614  0.723294  0.798873  1
  Be  Be31  1  0.459680  0.236386  0.035259  1
  Si  Si32  1  0.735411  0.956063  0.531600  1
  Si  Si33  1  0.968400  0.924463  0.203811  1
  Si  Si34  1  0.203811  0.968400  0.924463  1
  Si  Si35  1  0.279348  0.575537  0.543937  1
  Si  Si36  1  0.575537  0.543937  0.279348  1
  Si  Si37  1  0.764589  0.296189  0.220652  1
  Si  Si38  1  0.956063  0.531600  0.735411  1
  Si  Si39  1  0.531600  0.735411  0.956063  1
  Si  Si40  1  0.296189  0.220652  0.764589  1
  Si  Si41  1  0.924463  0.203811  0.968400  1
  Si  Si42  1  0.220652  0.764589  0.296189  1
  Si  Si43  1  0.543937  0.279348  0.575537  1
  O  O44  1  0.548921  0.638658  0.824073  1
  O  O45  1  0.724847  0.675927  0.314585  1
  O  O46  1  0.910034  0.360163  0.685536  1
  O  O47  1  0.675927  0.314585  0.724847  1
  O  O48  1  0.951079  0.775153  0.089737  1
  O  O49  1  0.185415  0.861342  0.410263  1
  O  O50  1  0.685536  0.910034  0.360163  1
  O  O51  1  0.612877  0.903954  0.992197  1
  O  O52  1  0.903954  0.992197  0.612877  1
  O  O53  1  0.139837  0.049871  0.325373  1
  O  O54  1  0.790048  0.380558  0.384796  1
  O  O55  1  0.814464  0.174627  0.224498  1
  O  O56  1  0.824073  0.548921  0.638658  1
  O  O57  1  0.589966  0.275502  0.450129  1
  O  O58  1  0.360163  0.685536  0.910034  1
  O  O59  1  0.405252  0.115204  0.495762  1
  O  O60  1  0.115204  0.495762  0.405252  1
  O  O61  1  0.992197  0.612877  0.903954  1
  O  O62  1  0.208923  0.088242  0.596046  1
  O  O63  1  0.049871  0.325373  0.139837  1
  O  O64  1  0.119442  0.909490  0.004238  1
  O  O65  1  0.089737  0.951079  0.775153  1
  O  O66  1  0.507803  0.411758  0.620680  1
  O  O67  1  0.384796  0.790048  0.380558  1
  O  O68  1  0.380558  0.384796  0.790048  1
  O  O69  1  0.709952  0.094748  0.590510  1
  O  O70  1  0.596046  0.208923  0.088242  1
  O  O71  1  0.861342  0.410263  0.185415  1
  O  O72  1  0.275502  0.450129  0.589966  1
  O  O73  1  0.590510  0.709952  0.094748  1
  O  O74  1  0.410263  0.185415  0.861342  1
  O  O75  1  0.411758  0.620680  0.507803  1
  O  O76  1  0.887123  0.879320  0.291077  1
  O  O77  1  0.088242  0.596046  0.208923  1
  O  O78  1  0.775153  0.089737  0.951079  1
  O  O79  1  0.495762  0.405252  0.115204  1
  O  O80  1  0.620680  0.507803  0.411758  1
  O  O81  1  0.004238  0.119442  0.909490  1
  O  O82  1  0.174627  0.224498  0.814464  1
  O  O83  1  0.450129  0.589966  0.275502  1
  O  O84  1  0.879320  0.291077  0.887123  1
  O  O85  1  0.325373  0.139837  0.049871  1
  O  O86  1  0.094748  0.590510  0.709952  1
  O  O87  1  0.314585  0.724847  0.675927  1
  O  O88  1  0.638658  0.824073  0.548921  1
  O  O89  1  0.224498  0.814464  0.174627  1
  O  O90  1  0.909490  0.004238  0.119442  1
  O  O91  1  0.291077  0.887123  0.879320  1
  F  F92  1  0.500000  1.000000  0.210031  1
  F  F93  1  1.000000  0.710044  0.500000  1
  F  F94  1  0.710044  0.500000  0.000000  1
  F  F95  1  0.500000  1.000000  0.710044  1
  F  F96  1  1.000000  0.210031  0.500000  1
  F  F97  1  0.210031  0.500000  0.000000  1
  F  F98  1  0.289969  0.289969  0.289969  1
  F  F99  1  0.789956  0.789956  0.789956  1
