# generated using pymatgen
data_NaZnPO4
_symmetry_space_group_name_H-M   'P 1'
_cell_length_a   5.28175821
_cell_length_b   10.13877133
_cell_length_c   9.11233692
_cell_angle_alpha   90.00000000
_cell_angle_beta   125.12455719
_cell_angle_gamma   90.00000000
_symmetry_Int_Tables_number   1
_chemical_formula_structural   NaZnPO4
_chemical_formula_sum   'Na4 Zn4 P4 O16'
_cell_volume   399.11267150
_cell_formula_units_Z   4
loop_
 _symmetry_equiv_pos_site_id
 _symmetry_equiv_pos_as_xyz
  1  'x, y, z'
loop_
 _atom_site_type_symbol
 _atom_site_label
 _atom_site_symmetry_multiplicity
 _atom_site_fract_x
 _atom_site_fract_y
 _atom_site_fract_z
 _atom_site_occupancy
  Na  Na0  1  0.800301  0.882825  0.517487  1
  Na  Na1  1  0.800301  0.617175  0.017487  1
  Na  Na2  1  0.199699  0.382825  0.982513  1
  Na  Na3  1  0.199699  0.117175  0.482513  1
  Zn  Zn4  1  0.303706  0.831282  0.008774  1
  Zn  Zn5  1  0.303706  0.668718  0.508774  1
  Zn  Zn6  1  0.696294  0.168718  0.991226  1
  Zn  Zn7  1  0.696294  0.331282  0.491226  1
  P  P8  1  0.579472  0.599128  0.281398  1
  P  P9  1  0.420528  0.099128  0.218602  1
  P  P10  1  0.579472  0.900872  0.781398  1
  P  P11  1  0.420528  0.400872  0.718602  1
  O  O12  1  0.886014  0.626762  0.299685  1
  O  O13  1  0.306960  0.645590  0.088449  1
  O  O14  1  0.415861  0.325878  0.569296  1
  O  O15  1  0.113986  0.126762  0.200315  1
  O  O16  1  0.113986  0.373238  0.700315  1
  O  O17  1  0.584139  0.825878  0.930704  1
  O  O18  1  0.524274  0.449188  0.284248  1
  O  O19  1  0.886014  0.873238  0.799685  1
  O  O20  1  0.306960  0.854410  0.588449  1
  O  O21  1  0.693040  0.145590  0.411551  1
  O  O22  1  0.524274  0.050812  0.784248  1
  O  O23  1  0.415861  0.174122  0.069296  1
  O  O24  1  0.475726  0.550812  0.715752  1
  O  O25  1  0.693040  0.354410  0.911551  1
  O  O26  1  0.475726  0.949188  0.215752  1
  O  O27  1  0.584139  0.674122  0.430704  1
