# generated using pymatgen
data_GaSe
_symmetry_space_group_name_H-M   'P 1'
_cell_length_a   3.81260008
_cell_length_b   3.81260008
_cell_length_c   35.10467138
_cell_angle_alpha   90.00000000
_cell_angle_beta   90.00000000
_cell_angle_gamma   120.00000000
_symmetry_Int_Tables_number   1
_chemical_formula_structural   GaSe
_chemical_formula_sum   'Ga8 Se8'
_cell_volume   441.91429343
_cell_formula_units_Z   8
loop_
 _symmetry_equiv_pos_site_id
 _symmetry_equiv_pos_as_xyz
  1  'x, y, z'
loop_
 _atom_site_type_symbol
 _atom_site_label
 _atom_site_symmetry_multiplicity
 _atom_site_fract_x
 _atom_site_fract_y
 _atom_site_fract_z
 _atom_site_occupancy
  Ga  Ga0  1  0.333333  0.666667  0.216449  1
  Ga  Ga1  1  0.000000  0.000000  0.535497  1
  Ga  Ga2  1  0.666667  0.333333  0.716449  1
  Ga  Ga3  1  0.000000  0.000000  0.035497  1
  Ga  Ga4  1  0.333333  0.666667  0.286657  1
  Ga  Ga5  1  0.666667  0.333333  0.786657  1
  Ga  Ga6  1  0.000000  0.000000  0.965152  1
  Ga  Ga7  1  0.000000  0.000000  0.465152  1
  Se  Se8  1  0.000000  0.000000  0.683067  1
  Se  Se9  1  0.666667  0.333333  0.931698  1
  Se  Se10  1  0.666667  0.333333  0.068952  1
  Se  Se11  1  0.000000  0.000000  0.320029  1
  Se  Se12  1  0.000000  0.000000  0.183067  1
  Se  Se13  1  0.333333  0.666667  0.568952  1
  Se  Se14  1  0.000000  0.000000  0.820029  1
  Se  Se15  1  0.333333  0.666667  0.431698  1
