# generated using pymatgen
data_Na2B8O13
_symmetry_space_group_name_H-M   'P 1'
_cell_length_a   6.62301925
_cell_length_b   18.01312364
_cell_length_c   8.55123875
_cell_angle_alpha   90.00000000
_cell_angle_beta   95.03937016
_cell_angle_gamma   90.00000000
_symmetry_Int_Tables_number   1
_chemical_formula_structural   Na2B8O13
_chemical_formula_sum   'Na8 B32 O52'
_cell_volume   1016.23019262
_cell_formula_units_Z   4
loop_
 _symmetry_equiv_pos_site_id
 _symmetry_equiv_pos_as_xyz
  1  'x, y, z'
loop_
 _atom_site_type_symbol
 _atom_site_label
 _atom_site_symmetry_multiplicity
 _atom_site_fract_x
 _atom_site_fract_y
 _atom_site_fract_z
 _atom_site_occupancy
  Na  Na0  1  0.578295  0.361861  0.960526  1
  Na  Na1  1  0.921705  0.861861  0.039474  1
  Na  Na2  1  0.421705  0.638139  0.039474  1
  Na  Na3  1  0.078295  0.138139  0.960526  1
  Na  Na4  1  0.959706  0.400039  0.420967  1
  Na  Na5  1  0.540294  0.900039  0.579033  1
  Na  Na6  1  0.040294  0.599961  0.579033  1
  Na  Na7  1  0.459706  0.099961  0.420967  1
  B  B8  1  0.597287  0.511154  0.200162  1
  B  B9  1  0.902713  0.011154  0.799838  1
  B  B10  1  0.402713  0.488846  0.799838  1
  B  B11  1  0.097287  0.988846  0.200162  1
  B  B12  1  0.245365  0.494070  0.255900  1
  B  B13  1  0.254635  0.994070  0.744100  1
  B  B14  1  0.754635  0.505930  0.744100  1
  B  B15  1  0.745365  0.005930  0.255900  1
  B  B16  1  0.493595  0.392052  0.317196  1
  B  B17  1  0.006405  0.892052  0.682804  1
  B  B18  1  0.506405  0.607948  0.682804  1
  B  B19  1  0.993595  0.107948  0.317196  1
  B  B20  1  0.552572  0.297204  0.525033  1
  B  B21  1  0.947428  0.797204  0.474967  1
  B  B22  1  0.447428  0.702796  0.474967  1
  B  B23  1  0.052572  0.202796  0.525033  1
  B  B24  1  0.475722  0.255314  0.259962  1
  B  B25  1  0.024278  0.755314  0.740038  1
  B  B26  1  0.524278  0.744686  0.740038  1
  B  B27  1  0.975722  0.244686  0.259962  1
  B  B28  1  0.580054  0.215790  0.764443  1
  B  B29  1  0.919946  0.715790  0.235557  1
  B  B30  1  0.419946  0.784210  0.235557  1
  B  B31  1  0.080054  0.284210  0.764443  1
  B  B32  1  0.513658  0.173553  0.020073  1
  B  B33  1  0.986342  0.673553  0.979927  1
  B  B34  1  0.486342  0.826447  0.979927  1
  B  B35  1  0.013658  0.326447  0.020073  1
  B  B36  1  0.558233  0.081527  0.812474  1
  B  B37  1  0.941767  0.581527  0.187526  1
  B  B38  1  0.441767  0.918473  0.187526  1
  B  B39  1  0.058233  0.418473  0.812474  1
  O  O40  1  0.727142  0.562312  0.149601  1
  O  O41  1  0.772858  0.062312  0.850399  1
  O  O42  1  0.272858  0.437688  0.850399  1
  O  O43  1  0.227142  0.937688  0.149601  1
  O  O44  1  0.392273  0.533022  0.182277  1
  O  O45  1  0.107727  0.033022  0.817723  1
  O  O46  1  0.607727  0.466978  0.817723  1
  O  O47  1  0.892273  0.966978  0.182277  1
  O  O48  1  0.055610  0.521608  0.269001  1
  O  O49  1  0.444390  0.021608  0.730999  1
  O  O50  1  0.944390  0.478392  0.730999  1
  O  O51  1  0.555610  0.978392  0.269001  1
  O  O52  1  0.294342  0.426749  0.324991  1
  O  O53  1  0.205658  0.926749  0.675009  1
  O  O54  1  0.705658  0.573251  0.675009  1
  O  O55  1  0.794342  0.073251  0.324991  1
  O  O56  1  0.646179  0.442118  0.258585  1
  O  O57  1  0.853821  0.942118  0.741415  1
  O  O58  1  0.353821  0.557882  0.741415  1
  O  O59  1  0.146179  0.057882  0.258585  1
  O  O60  1  0.574412  0.367482  0.474678  1
  O  O61  1  0.925588  0.867482  0.525322  1
  O  O62  1  0.425588  0.632518  0.525322  1
  O  O63  1  0.074412  0.132518  0.474678  1
  O  O64  1  0.491025  0.239887  0.421017  1
  O  O65  1  0.008975  0.739887  0.578983  1
  O  O66  1  0.508975  0.760113  0.578983  1
  O  O67  1  0.991025  0.260113  0.421017  1
  O  O68  1  0.463381  0.191594  0.169014  1
  O  O69  1  0.036619  0.691594  0.830986  1
  O  O70  1  0.536619  0.808406  0.830986  1
  O  O71  1  0.963381  0.308406  0.169014  1
  O  O72  1  0.472230  0.325889  0.205652  1
  O  O73  1  0.027770  0.825889  0.794348  1
  O  O74  1  0.527770  0.674111  0.794348  1
  O  O75  1  0.972230  0.174111  0.205652  1
  O  O76  1  0.593725  0.281494  0.682422  1
  O  O77  1  0.906275  0.781494  0.317578  1
  O  O78  1  0.406275  0.718506  0.317578  1
  O  O79  1  0.093725  0.218506  0.682422  1
  O  O80  1  0.591461  0.228922  0.927482  1
  O  O81  1  0.908539  0.728922  0.072518  1
  O  O82  1  0.408539  0.771078  0.072518  1
  O  O83  1  0.091461  0.271078  0.927482  1
  O  O84  1  0.473334  0.104982  0.961168  1
  O  O85  1  0.026666  0.604982  0.038832  1
  O  O86  1  0.526666  0.895018  0.038832  1
  O  O87  1  0.973334  0.395018  0.961168  1
  O  O88  1  0.555555  0.147453  0.702094  1
  O  O89  1  0.944445  0.647453  0.297906  1
  O  O90  1  0.444445  0.852547  0.297906  1
  O  O91  1  0.055555  0.352547  0.702094  1
