# generated using pymatgen
data_SiO2
_symmetry_space_group_name_H-M   'P 1'
_cell_length_a   6.73737167
_cell_length_b   6.73737167
_cell_length_c   8.89197758
_cell_angle_alpha   90.00000000
_cell_angle_beta   90.00000000
_cell_angle_gamma   101.28941647
_symmetry_Int_Tables_number   1
_chemical_formula_structural   SiO2
_chemical_formula_sum   'Si8 O16'
_cell_volume   395.81639011
_cell_formula_units_Z   8
loop_
 _symmetry_equiv_pos_site_id
 _symmetry_equiv_pos_as_xyz
  1  'x, y, z'
loop_
 _atom_site_type_symbol
 _atom_site_label
 _atom_site_symmetry_multiplicity
 _atom_site_fract_x
 _atom_site_fract_y
 _atom_site_fract_z
 _atom_site_occupancy
  Si  Si0  1  0.453413  0.179778  0.418635  1
  Si  Si1  1  0.820222  0.546587  0.418635  1
  Si  Si2  1  0.179778  0.453413  0.918635  1
  Si  Si3  1  0.284808  0.081857  0.090846  1
  Si  Si4  1  0.715192  0.918143  0.590846  1
  Si  Si5  1  0.546587  0.820222  0.918635  1
  Si  Si6  1  0.081857  0.284808  0.590846  1
  Si  Si7  1  0.918143  0.715192  0.090846  1
  O  O8  1  0.930578  0.069422  0.559061  1
  O  O9  1  0.088803  0.329019  0.770076  1
  O  O10  1  0.329019  0.088803  0.270076  1
  O  O11  1  0.003762  0.466065  0.502347  1
  O  O12  1  0.466065  0.003762  0.002347  1
  O  O13  1  0.911197  0.670981  0.270076  1
  O  O14  1  0.996238  0.533935  0.002347  1
  O  O15  1  0.692953  0.726141  0.031925  1
  O  O16  1  0.533935  0.996238  0.502347  1
  O  O17  1  0.356674  0.643326  0.869867  1
  O  O18  1  0.726141  0.692953  0.531925  1
  O  O19  1  0.670981  0.911197  0.770076  1
  O  O20  1  0.069422  0.930578  0.059061  1
  O  O21  1  0.643326  0.356674  0.369867  1
  O  O22  1  0.307047  0.273859  0.531925  1
  O  O23  1  0.273859  0.307047  0.031925  1
