# generated using pymatgen
data_RbBe4(BO3)3
_symmetry_space_group_name_H-M   'P 1'
_cell_length_a   6.42971123
_cell_length_b   8.53028444
_cell_length_c   13.35319489
_cell_angle_alpha   90.00000000
_cell_angle_beta   90.00000000
_cell_angle_gamma   90.00000000
_symmetry_Int_Tables_number   1
_chemical_formula_structural   RbBe4(BO3)3
_chemical_formula_sum   'Rb4 Be16 B12 O36'
_cell_volume   732.38622753
_cell_formula_units_Z   4
loop_
 _symmetry_equiv_pos_site_id
 _symmetry_equiv_pos_as_xyz
  1  'x, y, z'
loop_
 _atom_site_type_symbol
 _atom_site_label
 _atom_site_symmetry_multiplicity
 _atom_site_fract_x
 _atom_site_fract_y
 _atom_site_fract_z
 _atom_site_occupancy
  Rb  Rb0  1  0.174176  0.933289  0.750000  1
  Rb  Rb1  1  0.825824  0.066711  0.250000  1
  Rb  Rb2  1  0.674176  0.566711  0.250000  1
  Rb  Rb3  1  0.325824  0.433289  0.750000  1
  Be  Be4  1  0.857219  0.276419  0.857138  1
  Be  Be5  1  0.093653  0.438181  0.057202  1
  Be  Be6  1  0.406347  0.938181  0.057202  1
  Be  Be7  1  0.593653  0.061819  0.942798  1
  Be  Be8  1  0.406347  0.938181  0.442798  1
  Be  Be9  1  0.906347  0.561819  0.942798  1
  Be  Be10  1  0.642781  0.776419  0.857138  1
  Be  Be11  1  0.142781  0.723581  0.357138  1
  Be  Be12  1  0.642781  0.776419  0.642862  1
  Be  Be13  1  0.093653  0.438181  0.442798  1
  Be  Be14  1  0.357219  0.223581  0.357138  1
  Be  Be15  1  0.593653  0.061819  0.557202  1
  Be  Be16  1  0.357219  0.223581  0.142862  1
  Be  Be17  1  0.906347  0.561819  0.557202  1
  Be  Be18  1  0.142781  0.723581  0.142862  1
  Be  Be19  1  0.857219  0.276419  0.642862  1
  B  B20  1  0.689478  0.047893  0.750000  1
  B  B21  1  0.310522  0.952107  0.250000  1
  B  B22  1  0.189478  0.452107  0.250000  1
  B  B23  1  0.197104  0.177175  0.964601  1
  B  B24  1  0.302896  0.677175  0.964601  1
  B  B25  1  0.197104  0.177175  0.535399  1
  B  B26  1  0.802896  0.822825  0.464601  1
  B  B27  1  0.302896  0.677175  0.535399  1
  B  B28  1  0.810522  0.547893  0.750000  1
  B  B29  1  0.802896  0.822825  0.035399  1
  B  B30  1  0.697104  0.322825  0.035399  1
  B  B31  1  0.697104  0.322825  0.464601  1
  O  O32  1  0.349745  0.028572  0.161169  1
  O  O33  1  0.340450  0.053328  0.536308  1
  O  O34  1  0.159550  0.553328  0.963692  1
  O  O35  1  0.849745  0.471428  0.838831  1
  O  O36  1  0.686221  0.236539  0.554144  1
  O  O37  1  0.582288  0.290412  0.117459  1
  O  O38  1  0.813779  0.736539  0.554144  1
  O  O39  1  0.840450  0.446672  0.463692  1
  O  O40  1  0.232618  0.801253  0.250000  1
  O  O41  1  0.267382  0.301253  0.250000  1
  O  O42  1  0.417712  0.709588  0.617459  1
  O  O43  1  0.186221  0.263461  0.445856  1
  O  O44  1  0.582288  0.290412  0.382541  1
  O  O45  1  0.659550  0.946672  0.036308  1
  O  O46  1  0.313779  0.763461  0.445856  1
  O  O47  1  0.840450  0.446672  0.036308  1
  O  O48  1  0.349745  0.028572  0.338831  1
  O  O49  1  0.082288  0.209588  0.617459  1
  O  O50  1  0.313779  0.763461  0.054144  1
  O  O51  1  0.659550  0.946672  0.463692  1
  O  O52  1  0.686221  0.236539  0.945856  1
  O  O53  1  0.186221  0.263461  0.054144  1
  O  O54  1  0.082288  0.209588  0.882541  1
  O  O55  1  0.767382  0.198747  0.750000  1
  O  O56  1  0.417712  0.709588  0.882541  1
  O  O57  1  0.917712  0.790412  0.117459  1
  O  O58  1  0.650255  0.971428  0.838831  1
  O  O59  1  0.340450  0.053328  0.963692  1
  O  O60  1  0.150255  0.528572  0.161169  1
  O  O61  1  0.150255  0.528572  0.338831  1
  O  O62  1  0.849745  0.471428  0.661169  1
  O  O63  1  0.917712  0.790412  0.382541  1
  O  O64  1  0.813779  0.736539  0.945856  1
  O  O65  1  0.650255  0.971428  0.661169  1
  O  O66  1  0.159550  0.553328  0.536308  1
  O  O67  1  0.732618  0.698747  0.750000  1
