# generated using pymatgen
data_CsNb2BiO7
_symmetry_space_group_name_H-M   'P 1'
_cell_length_a   5.49111193
_cell_length_b   5.58750362
_cell_length_c   11.66247731
_cell_angle_alpha   90.00000000
_cell_angle_beta   90.00000000
_cell_angle_gamma   90.00000000
_symmetry_Int_Tables_number   1
_chemical_formula_structural   CsNb2BiO7
_chemical_formula_sum   'Cs2 Nb4 Bi2 O14'
_cell_volume   357.82355465
_cell_formula_units_Z   2
loop_
 _symmetry_equiv_pos_site_id
 _symmetry_equiv_pos_as_xyz
  1  'x, y, z'
loop_
 _atom_site_type_symbol
 _atom_site_label
 _atom_site_symmetry_multiplicity
 _atom_site_fract_x
 _atom_site_fract_y
 _atom_site_fract_z
 _atom_site_occupancy
  Cs  Cs0  1  0.257167  0.247834  0.500000  1
  Cs  Cs1  1  0.742833  0.747834  0.500000  1
  Nb  Nb2  1  0.246120  0.753365  0.794575  1
  Nb  Nb3  1  0.753880  0.253365  0.205425  1
  Nb  Nb4  1  0.753880  0.253365  0.794575  1
  Nb  Nb5  1  0.246120  0.753365  0.205425  1
  Bi  Bi6  1  0.275252  0.187299  0.000000  1
  Bi  Bi7  1  0.724748  0.687299  0.000000  1
  O  O8  1  0.444944  0.074356  0.816277  1
  O  O9  1  0.967439  0.986643  0.843473  1
  O  O10  1  0.778265  0.249834  0.358936  1
  O  O11  1  0.967439  0.986643  0.156527  1
  O  O12  1  0.032561  0.486643  0.156527  1
  O  O13  1  0.674555  0.293472  0.000000  1
  O  O14  1  0.221735  0.749834  0.641064  1
  O  O15  1  0.555056  0.574356  0.816277  1
  O  O16  1  0.325445  0.793472  0.000000  1
  O  O17  1  0.555056  0.574356  0.183723  1
  O  O18  1  0.778265  0.249834  0.641064  1
  O  O19  1  0.221735  0.749834  0.358936  1
  O  O20  1  0.444944  0.074356  0.183723  1
  O  O21  1  0.032561  0.486643  0.843473  1
