# generated using pymatgen
data_K2Be2(SiO3)3
_symmetry_space_group_name_H-M   'P 1'
_cell_length_a   10.31488323
_cell_length_b   6.98091842
_cell_length_c   12.24735790
_cell_angle_alpha   90.00000000
_cell_angle_beta   106.71651919
_cell_angle_gamma   90.00000000
_symmetry_Int_Tables_number   1
_chemical_formula_structural   K2Be2(SiO3)3
_chemical_formula_sum   'K8 Be8 Si12 O36'
_cell_volume   844.63045171
_cell_formula_units_Z   4
loop_
 _symmetry_equiv_pos_site_id
 _symmetry_equiv_pos_as_xyz
  1  'x, y, z'
loop_
 _atom_site_type_symbol
 _atom_site_label
 _atom_site_symmetry_multiplicity
 _atom_site_fract_x
 _atom_site_fract_y
 _atom_site_fract_z
 _atom_site_occupancy
  K  K0  1  0.540234  0.373740  0.856086  1
  K  K1  1  0.062782  0.106720  0.647692  1
  K  K2  1  0.459766  0.873740  0.643914  1
  K  K3  1  0.459766  0.626260  0.143914  1
  K  K4  1  0.540234  0.126260  0.356086  1
  K  K5  1  0.062782  0.393280  0.147692  1
  K  K6  1  0.937218  0.893280  0.352308  1
  K  K7  1  0.937218  0.606720  0.852308  1
  Be  Be8  1  0.064771  0.071939  0.942481  1
  Be  Be9  1  0.935229  0.928061  0.057519  1
  Be  Be10  1  0.935229  0.571939  0.557519  1
  Be  Be11  1  0.428881  0.090575  0.041915  1
  Be  Be12  1  0.571119  0.590575  0.458085  1
  Be  Be13  1  0.064771  0.428061  0.442481  1
  Be  Be14  1  0.428881  0.409425  0.541915  1
  Be  Be15  1  0.571119  0.909425  0.958085  1
  Si  Si16  1  0.742378  0.318148  0.626580  1
  Si  Si17  1  0.762156  0.885092  0.580546  1
  Si  Si18  1  0.237844  0.114908  0.419454  1
  Si  Si19  1  0.762156  0.614908  0.080546  1
  Si  Si20  1  0.241860  0.968687  0.181481  1
  Si  Si21  1  0.742378  0.181852  0.126580  1
  Si  Si22  1  0.237844  0.385092  0.919454  1
  Si  Si23  1  0.257622  0.818148  0.873420  1
  Si  Si24  1  0.241860  0.531313  0.681481  1
  Si  Si25  1  0.758140  0.031313  0.818519  1
  Si  Si26  1  0.257622  0.681852  0.373420  1
  Si  Si27  1  0.758140  0.468687  0.318519  1
  O  O28  1  0.621951  0.800425  0.499996  1
  O  O29  1  0.378049  0.199575  0.500004  1
  O  O30  1  0.764650  0.873469  0.717948  1
  O  O31  1  0.378049  0.300425  0.000004  1
  O  O32  1  0.872723  0.450891  0.639965  1
  O  O33  1  0.235350  0.373469  0.782052  1
  O  O34  1  0.621951  0.699575  0.999996  1
  O  O35  1  0.235350  0.126531  0.282052  1
  O  O36  1  0.101114  0.981195  0.078061  1
  O  O37  1  0.127277  0.549109  0.360035  1
  O  O38  1  0.240528  0.878878  0.444913  1
  O  O39  1  0.258014  0.746046  0.743603  1
  O  O40  1  0.623511  0.506788  0.356382  1
  O  O41  1  0.898886  0.481195  0.421939  1
  O  O42  1  0.741986  0.253954  0.256397  1
  O  O43  1  0.376489  0.006788  0.143618  1
  O  O44  1  0.623511  0.993212  0.856382  1
  O  O45  1  0.759472  0.121122  0.555087  1
  O  O46  1  0.101127  0.202640  0.439582  1
  O  O47  1  0.240528  0.621122  0.944913  1
  O  O48  1  0.598662  0.425634  0.566374  1
  O  O49  1  0.898873  0.797360  0.560418  1
  O  O50  1  0.872723  0.049109  0.139965  1
  O  O51  1  0.401338  0.925634  0.933626  1
  O  O52  1  0.598662  0.074366  0.066374  1
  O  O53  1  0.376489  0.493212  0.643618  1
  O  O54  1  0.401338  0.574366  0.433626  1
  O  O55  1  0.759472  0.378878  0.055087  1
  O  O56  1  0.258014  0.753954  0.243603  1
  O  O57  1  0.101114  0.518805  0.578061  1
  O  O58  1  0.741986  0.246046  0.756397  1
  O  O59  1  0.898886  0.018805  0.921939  1
  O  O60  1  0.101127  0.297360  0.939582  1
  O  O61  1  0.127277  0.950891  0.860035  1
  O  O62  1  0.898873  0.702640  0.060418  1
  O  O63  1  0.764650  0.626531  0.217948  1
