# generated using pymatgen
data_Y2Te5O13
_symmetry_space_group_name_H-M   'P 1'
_cell_length_a   7.05509159
_cell_length_b   8.79793526
_cell_length_c   10.79483788
_cell_angle_alpha   89.46178961
_cell_angle_beta   92.57781974
_cell_angle_gamma   105.01879803
_symmetry_Int_Tables_number   1
_chemical_formula_structural   Y2Te5O13
_chemical_formula_sum   'Y4 Te10 O26'
_cell_volume   646.49358428
_cell_formula_units_Z   2
loop_
 _symmetry_equiv_pos_site_id
 _symmetry_equiv_pos_as_xyz
  1  'x, y, z'
loop_
 _atom_site_type_symbol
 _atom_site_label
 _atom_site_symmetry_multiplicity
 _atom_site_fract_x
 _atom_site_fract_y
 _atom_site_fract_z
 _atom_site_occupancy
  Y  Y0  1  0.998347  0.261118  0.760733  1
  Y  Y1  1  0.001653  0.738882  0.239267  1
  Y  Y2  1  0.553260  0.473281  0.821475  1
  Y  Y3  1  0.446740  0.526719  0.178525  1
  Te  Te4  1  0.273402  0.607698  0.511084  1
  Te  Te5  1  0.290249  0.124692  0.022447  1
  Te  Te6  1  0.844694  0.802543  0.641822  1
  Te  Te7  1  0.438722  0.099249  0.699110  1
  Te  Te8  1  0.155306  0.197457  0.358178  1
  Te  Te9  1  0.119823  0.649256  0.890199  1
  Te  Te10  1  0.561278  0.900751  0.300890  1
  Te  Te11  1  0.880177  0.350744  0.109801  1
  Te  Te12  1  0.709751  0.875308  0.977553  1
  Te  Te13  1  0.726598  0.392302  0.488916  1
  O  O14  1  0.461192  0.806180  0.478743  1
  O  O15  1  0.314342  0.264331  0.714796  1
  O  O16  1  0.045720  0.650617  0.433737  1
  O  O17  1  0.954280  0.349383  0.566263  1
  O  O18  1  0.327869  0.257943  0.225958  1
  O  O19  1  0.123393  0.510526  0.107305  1
  O  O20  1  0.764790  0.494590  0.188231  1
  O  O21  1  0.065625  0.734524  0.723036  1
  O  O22  1  0.652139  0.981667  0.125373  1
  O  O23  1  0.235210  0.505410  0.811769  1
  O  O24  1  0.328889  0.774672  0.222892  1
  O  O25  1  0.672131  0.742057  0.774042  1
  O  O26  1  0.464820  0.329801  0.000829  1
  O  O27  1  0.535180  0.670199  0.999171  1
  O  O28  1  0.685658  0.735669  0.285204  1
  O  O29  1  0.662642  0.513182  0.618478  1
  O  O30  1  0.934375  0.265476  0.276964  1
  O  O31  1  0.876607  0.489474  0.892695  1
  O  O32  1  0.064309  0.984095  0.312249  1
  O  O33  1  0.337358  0.486818  0.381522  1
  O  O34  1  0.059529  0.181768  0.961827  1
  O  O35  1  0.940471  0.818232  0.038173  1
  O  O36  1  0.671111  0.225328  0.777108  1
  O  O37  1  0.538808  0.193820  0.521257  1
  O  O38  1  0.935691  0.015905  0.687751  1
  O  O39  1  0.347861  0.018333  0.874627  1
