# generated using pymatgen
data_Nd4GeO8
_symmetry_space_group_name_H-M   'P 1'
_cell_length_a   5.78789849
_cell_length_b   7.52304212
_cell_length_c   18.26279478
_cell_angle_alpha   90.00000000
_cell_angle_beta   90.00000000
_cell_angle_gamma   90.00000000
_symmetry_Int_Tables_number   1
_chemical_formula_structural   Nd4GeO8
_chemical_formula_sum   'Nd16 Ge4 O32'
_cell_volume   795.20964335
_cell_formula_units_Z   4
loop_
 _symmetry_equiv_pos_site_id
 _symmetry_equiv_pos_as_xyz
  1  'x, y, z'
loop_
 _atom_site_type_symbol
 _atom_site_label
 _atom_site_symmetry_multiplicity
 _atom_site_fract_x
 _atom_site_fract_y
 _atom_site_fract_z
 _atom_site_occupancy
  Nd  Nd0  1  0.019715  0.490806  0.397750  1
  Nd  Nd1  1  0.458647  0.750000  0.717024  1
  Nd  Nd2  1  0.479415  0.750000  0.514293  1
  Nd  Nd3  1  0.519715  0.990806  0.102250  1
  Nd  Nd4  1  0.958647  0.250000  0.782976  1
  Nd  Nd5  1  0.980285  0.509194  0.602250  1
  Nd  Nd6  1  0.480285  0.009194  0.897750  1
  Nd  Nd7  1  0.980285  0.990806  0.602250  1
  Nd  Nd8  1  0.979415  0.250000  0.985707  1
  Nd  Nd9  1  0.480285  0.490806  0.897750  1
  Nd  Nd10  1  0.020585  0.750000  0.014293  1
  Nd  Nd11  1  0.541353  0.250000  0.282976  1
  Nd  Nd12  1  0.041353  0.750000  0.217024  1
  Nd  Nd13  1  0.019715  0.009194  0.397750  1
  Nd  Nd14  1  0.519715  0.509194  0.102250  1
  Nd  Nd15  1  0.520585  0.250000  0.485707  1
  Ge  Ge16  1  0.507792  0.750000  0.308970  1
  Ge  Ge17  1  0.492208  0.250000  0.691030  1
  Ge  Ge18  1  0.007792  0.250000  0.191030  1
  Ge  Ge19  1  0.992208  0.750000  0.808970  1
  O  O20  1  0.224753  0.250000  0.874810  1
  O  O21  1  0.195600  0.250000  0.661555  1
  O  O22  1  0.271572  0.750000  0.115941  1
  O  O23  1  0.426829  0.939443  0.256190  1
  O  O24  1  0.756216  0.981061  0.493957  1
  O  O25  1  0.228428  0.750000  0.615941  1
  O  O26  1  0.256216  0.018939  0.006043  1
  O  O27  1  0.692625  0.250000  0.615921  1
  O  O28  1  0.275247  0.250000  0.374810  1
  O  O29  1  0.243784  0.018939  0.506043  1
  O  O30  1  0.771572  0.250000  0.384059  1
  O  O31  1  0.073171  0.560557  0.756190  1
  O  O32  1  0.307375  0.750000  0.384079  1
  O  O33  1  0.724753  0.750000  0.625190  1
  O  O34  1  0.573171  0.439443  0.743810  1
  O  O35  1  0.743784  0.981061  0.993957  1
  O  O36  1  0.743784  0.518939  0.993957  1
  O  O37  1  0.426829  0.560557  0.256190  1
  O  O38  1  0.728428  0.250000  0.884059  1
  O  O39  1  0.073171  0.939443  0.756190  1
  O  O40  1  0.695600  0.750000  0.838445  1
  O  O41  1  0.243784  0.481061  0.506043  1
  O  O42  1  0.756216  0.518939  0.493957  1
  O  O43  1  0.926829  0.060557  0.243810  1
  O  O44  1  0.192625  0.750000  0.884079  1
  O  O45  1  0.775247  0.750000  0.125190  1
  O  O46  1  0.807375  0.250000  0.115921  1
  O  O47  1  0.926829  0.439443  0.243810  1
  O  O48  1  0.804400  0.750000  0.338445  1
  O  O49  1  0.256216  0.481061  0.006043  1
  O  O50  1  0.573171  0.060557  0.743810  1
  O  O51  1  0.304400  0.250000  0.161555  1
