# generated using pymatgen
data_NaSb(PS3)2
_symmetry_space_group_name_H-M   'P 1'
_cell_length_a   6.64295212
_cell_length_b   7.70283993
_cell_length_c   9.60378430
_cell_angle_alpha   90.00000000
_cell_angle_beta   93.38807873
_cell_angle_gamma   90.00000000
_symmetry_Int_Tables_number   1
_chemical_formula_structural   NaSb(PS3)2
_chemical_formula_sum   'Na2 Sb2 P4 S12'
_cell_volume   490.56283717
_cell_formula_units_Z   2
loop_
 _symmetry_equiv_pos_site_id
 _symmetry_equiv_pos_as_xyz
  1  'x, y, z'
loop_
 _atom_site_type_symbol
 _atom_site_label
 _atom_site_symmetry_multiplicity
 _atom_site_fract_x
 _atom_site_fract_y
 _atom_site_fract_z
 _atom_site_occupancy
  Na  Na0  1  0.302716  0.534808  0.492722  1
  Na  Na1  1  0.697284  0.034808  0.507278  1
  Sb  Sb2  1  0.187679  0.252356  0.016194  1
  Sb  Sb3  1  0.812321  0.752356  0.983806  1
  P  P4  1  0.310137  0.835466  0.181318  1
  P  P5  1  0.194251  0.050972  0.314165  1
  P  P6  1  0.805749  0.550972  0.685835  1
  P  P7  1  0.689863  0.335466  0.818682  1
  S  S8  1  0.342302  0.949903  0.986501  1
  S  S9  1  0.945120  0.128440  0.188475  1
  S  S10  1  0.134672  0.951879  0.496300  1
  S  S11  1  0.865328  0.451879  0.503700  1
  S  S12  1  0.407660  0.237099  0.299990  1
  S  S13  1  0.054880  0.628440  0.811525  1
  S  S14  1  0.091188  0.643945  0.173028  1
  S  S15  1  0.567880  0.741834  0.269133  1
  S  S16  1  0.908812  0.143945  0.826972  1
  S  S17  1  0.432120  0.241834  0.730867  1
  S  S18  1  0.657698  0.449903  0.013499  1
  S  S19  1  0.592340  0.737099  0.700010  1
