# generated using pymatgen
data_BaH4(CO3)2
_symmetry_space_group_name_H-M   'P 1'
_cell_length_a   7.18769486
_cell_length_b   11.16918761
_cell_length_c   7.56195134
_cell_angle_alpha   90.00000000
_cell_angle_beta   104.97226273
_cell_angle_gamma   90.00000000
_symmetry_Int_Tables_number   1
_chemical_formula_structural   BaH4(CO3)2
_chemical_formula_sum   'Ba4 H16 C8 O24'
_cell_volume   586.46912599
_cell_formula_units_Z   4
loop_
 _symmetry_equiv_pos_site_id
 _symmetry_equiv_pos_as_xyz
  1  'x, y, z'
loop_
 _atom_site_type_symbol
 _atom_site_label
 _atom_site_symmetry_multiplicity
 _atom_site_fract_x
 _atom_site_fract_y
 _atom_site_fract_z
 _atom_site_occupancy
  Ba  Ba0  1  0.792100  0.009575  0.198162  1
  Ba  Ba1  1  0.707900  0.509575  0.801838  1
  Ba  Ba2  1  0.292100  0.490425  0.198162  1
  Ba  Ba3  1  0.207900  0.990425  0.801838  1
  H  H4  1  0.223517  0.472919  0.636045  1
  H  H5  1  0.776483  0.527081  0.363955  1
  H  H6  1  0.739862  0.393319  0.403828  1
  H  H7  1  0.723517  0.027081  0.636045  1
  H  H8  1  0.760138  0.893319  0.596172  1
  H  H9  1  0.260138  0.606681  0.596172  1
  H  H10  1  0.962590  0.245634  0.458774  1
  H  H11  1  0.537410  0.745634  0.541226  1
  H  H12  1  0.239862  0.106681  0.403828  1
  H  H13  1  0.276483  0.972919  0.363955  1
  H  H14  1  0.402977  0.214868  0.248156  1
  H  H15  1  0.462590  0.254366  0.458774  1
  H  H16  1  0.902977  0.285132  0.248156  1
  H  H17  1  0.597023  0.785132  0.751844  1
  H  H18  1  0.037410  0.754366  0.541226  1
  H  H19  1  0.097023  0.714868  0.751844  1
  C  C20  1  0.492137  0.752919  0.041181  1
  C  C21  1  0.071628  0.298549  0.787249  1
  C  C22  1  0.992137  0.747081  0.041181  1
  C  C23  1  0.007863  0.252919  0.958819  1
  C  C24  1  0.571628  0.201451  0.787249  1
  C  C25  1  0.428372  0.798549  0.212751  1
  C  C26  1  0.507863  0.247081  0.958819  1
  C  C27  1  0.928372  0.701451  0.212751  1
  O  O28  1  0.148315  0.747999  0.650575  1
  O  O29  1  0.648315  0.752001  0.650575  1
  O  O30  1  0.501935  0.358442  0.985070  1
  O  O31  1  0.998065  0.858442  0.014930  1
  O  O32  1  0.498065  0.641558  0.014930  1
  O  O33  1  0.192649  0.024493  0.418849  1
  O  O34  1  0.070978  0.411130  0.765091  1
  O  O35  1  0.463597  0.165260  0.058835  1
  O  O36  1  0.616835  0.279328  0.683946  1
  O  O37  1  0.001935  0.141558  0.985070  1
  O  O38  1  0.383165  0.720672  0.316054  1
  O  O39  1  0.536403  0.834740  0.941165  1
  O  O40  1  0.883165  0.779328  0.316054  1
  O  O41  1  0.807351  0.975507  0.581151  1
  O  O42  1  0.692649  0.475507  0.418849  1
  O  O43  1  0.851685  0.252001  0.349425  1
  O  O44  1  0.307351  0.524493  0.581151  1
  O  O45  1  0.429022  0.911130  0.234909  1
  O  O46  1  0.036403  0.665260  0.941165  1
  O  O47  1  0.570978  0.088870  0.765091  1
  O  O48  1  0.116835  0.220672  0.683946  1
  O  O49  1  0.929022  0.588870  0.234909  1
  O  O50  1  0.963597  0.334740  0.058835  1
  O  O51  1  0.351685  0.247999  0.349425  1
