# generated using pymatgen
data_Na2P2PbO7
_symmetry_space_group_name_H-M   'P 1'
_cell_length_a   5.59383802
_cell_length_b   7.02270623
_cell_length_c   9.53670089
_cell_angle_alpha   106.21143220
_cell_angle_beta   96.90996534
_cell_angle_gamma   108.53863143
_symmetry_Int_Tables_number   1
_chemical_formula_structural   Na2P2PbO7
_chemical_formula_sum   'Na4 P4 Pb2 O14'
_cell_volume   331.95938495
_cell_formula_units_Z   2
loop_
 _symmetry_equiv_pos_site_id
 _symmetry_equiv_pos_as_xyz
  1  'x, y, z'
loop_
 _atom_site_type_symbol
 _atom_site_label
 _atom_site_symmetry_multiplicity
 _atom_site_fract_x
 _atom_site_fract_y
 _atom_site_fract_z
 _atom_site_occupancy
  Na  Na0  1  0.345283  0.635493  0.771722  1
  Na  Na1  1  0.098856  0.287147  0.992290  1
  Na  Na2  1  0.901144  0.712853  0.007710  1
  Na  Na3  1  0.654717  0.364507  0.228278  1
  P  P4  1  0.473731  0.860342  0.159361  1
  P  P5  1  0.750324  0.360863  0.640200  1
  P  P6  1  0.249676  0.639137  0.359800  1
  P  P7  1  0.526269  0.139658  0.840639  1
  Pb  Pb8  1  0.860357  0.865881  0.626339  1
  Pb  Pb9  1  0.139643  0.134119  0.373661  1
  O  O10  1  0.347298  0.681373  0.526135  1
  O  O11  1  0.509640  0.201782  0.686136  1
  O  O12  1  0.012979  0.695412  0.321105  1
  O  O13  1  0.241360  0.024889  0.837708  1
  O  O14  1  0.321090  0.011626  0.174471  1
  O  O15  1  0.652702  0.318627  0.473865  1
  O  O16  1  0.786968  0.590130  0.739131  1
  O  O17  1  0.333087  0.656935  0.025174  1
  O  O18  1  0.490360  0.798218  0.313864  1
  O  O19  1  0.666913  0.343065  0.974826  1
  O  O20  1  0.987021  0.304588  0.678895  1
  O  O21  1  0.758640  0.975111  0.162292  1
  O  O22  1  0.213032  0.409870  0.260869  1
  O  O23  1  0.678910  0.988374  0.825529  1
