# generated using pymatgen
data_Rb2Mo3O10
_symmetry_space_group_name_H-M   'P 1'
_cell_length_a   8.40982930
_cell_length_b   8.40982930
_cell_length_c   9.36844438
_cell_angle_alpha   83.14551484
_cell_angle_beta   96.85448516
_cell_angle_gamma   120.26864828
_symmetry_Int_Tables_number   1
_chemical_formula_structural   Rb2Mo3O10
_chemical_formula_sum   'Rb4 Mo6 O20'
_cell_volume   566.81070318
_cell_formula_units_Z   2
loop_
 _symmetry_equiv_pos_site_id
 _symmetry_equiv_pos_as_xyz
  1  'x, y, z'
loop_
 _atom_site_type_symbol
 _atom_site_label
 _atom_site_symmetry_multiplicity
 _atom_site_fract_x
 _atom_site_fract_y
 _atom_site_fract_z
 _atom_site_occupancy
  Rb  Rb0  1  0.406677  0.769648  0.341154  1
  Rb  Rb1  1  0.769648  0.406677  0.158846  1
  Rb  Rb2  1  0.593323  0.230352  0.658846  1
  Rb  Rb3  1  0.230352  0.593323  0.841154  1
  Mo  Mo4  1  0.178322  0.966397  0.021581  1
  Mo  Mo5  1  0.966397  0.178322  0.478419  1
  Mo  Mo6  1  0.821678  0.033603  0.978419  1
  Mo  Mo7  1  0.033603  0.821678  0.521581  1
  Mo  Mo8  1  0.285520  0.285520  0.250000  1
  Mo  Mo9  1  0.714480  0.714480  0.750000  1
  O  O10  1  0.343735  0.108389  0.179031  1
  O  O11  1  0.108389  0.343735  0.320969  1
  O  O12  1  0.656265  0.891611  0.820969  1
  O  O13  1  0.891611  0.656265  0.679031  1
  O  O14  1  0.943775  0.894599  0.907339  1
  O  O15  1  0.894599  0.943775  0.592661  1
  O  O16  1  0.056225  0.105401  0.092661  1
  O  O17  1  0.105401  0.056225  0.407339  1
  O  O18  1  0.327852  0.050235  0.883378  1
  O  O19  1  0.050235  0.327852  0.616622  1
  O  O20  1  0.672148  0.949765  0.116622  1
  O  O21  1  0.949765  0.672148  0.383378  1
  O  O22  1  0.142491  0.745081  0.080280  1
  O  O23  1  0.745081  0.142491  0.419720  1
  O  O24  1  0.857509  0.254919  0.919720  1
  O  O25  1  0.254919  0.857509  0.580280  1
  O  O26  1  0.468246  0.363882  0.382059  1
  O  O27  1  0.363882  0.468246  0.117941  1
  O  O28  1  0.531754  0.636118  0.617941  1
  O  O29  1  0.636118  0.531754  0.882059  1
