# generated using pymatgen
data_ZnS
_symmetry_space_group_name_H-M   'P 1'
_cell_length_a   3.84877458
_cell_length_b   3.84877458
_cell_length_c   81.84599706
_cell_angle_alpha   90.00000000
_cell_angle_beta   90.00000000
_cell_angle_gamma   120.00000000
_symmetry_Int_Tables_number   1
_chemical_formula_structural   ZnS
_chemical_formula_sum   'Zn26 S26'
_cell_volume   1049.96065797
_cell_formula_units_Z   26
loop_
 _symmetry_equiv_pos_site_id
 _symmetry_equiv_pos_as_xyz
  1  'x, y, z'
loop_
 _atom_site_type_symbol
 _atom_site_label
 _atom_site_symmetry_multiplicity
 _atom_site_fract_x
 _atom_site_fract_y
 _atom_site_fract_z
 _atom_site_occupancy
  Zn  Zn0  1  0.000000  0.000000  0.692292  1
  Zn  Zn1  1  0.333333  0.666667  0.115374  1
  Zn  Zn2  1  0.333333  0.666667  0.307700  1
  Zn  Zn3  1  0.333333  0.666667  0.923046  1
  Zn  Zn4  1  0.000000  0.000000  0.961522  1
  Zn  Zn5  1  0.666667  0.333333  0.884604  1
  Zn  Zn6  1  0.666667  0.333333  0.384601  1
  Zn  Zn7  1  0.666667  0.333333  0.269217  1
  Zn  Zn8  1  0.000000  0.000000  0.461522  1
  Zn  Zn9  1  0.333333  0.666667  0.807756  1
  Zn  Zn10  1  0.333333  0.666667  0.730938  1
  Zn  Zn11  1  0.000000  0.000000  0.076912  1
  Zn  Zn12  1  0.000000  0.000000  0.346147  1
  Zn  Zn13  1  0.000000  0.000000  0.846153  1
  Zn  Zn14  1  0.333333  0.666667  0.653813  1
  Zn  Zn15  1  0.333333  0.666667  0.000015  1
  Zn  Zn16  1  0.666667  0.333333  0.615392  1
  Zn  Zn17  1  0.666667  0.333333  0.153832  1
  Zn  Zn18  1  0.666667  0.333333  0.038455  1
  Zn  Zn19  1  0.000000  0.000000  0.576908  1
  Zn  Zn20  1  0.666667  0.333333  0.538435  1
  Zn  Zn21  1  0.333333  0.666667  0.230739  1
  Zn  Zn22  1  0.333333  0.666667  0.500012  1
  Zn  Zn23  1  0.000000  0.000000  0.192292  1
  Zn  Zn24  1  0.333333  0.666667  0.423046  1
  Zn  Zn25  1  0.000000  0.000000  0.769751  1
  S  S26  1  0.333333  0.666667  0.028874  1
  S  S27  1  0.333333  0.666667  0.759995  1
  S  S28  1  0.333333  0.666667  0.451898  1
  S  S29  1  0.666667  0.333333  0.644242  1
  S  S30  1  0.666667  0.333333  0.796897  1
  S  S31  1  0.000000  0.000000  0.221156  1
  S  S32  1  0.000000  0.000000  0.721219  1
  S  S33  1  0.666667  0.333333  0.067319  1
  S  S34  1  0.000000  0.000000  0.105782  1
  S  S35  1  0.000000  0.000000  0.375015  1
  S  S36  1  0.333333  0.666667  0.682668  1
  S  S37  1  0.000000  0.000000  0.990428  1
  S  S38  1  0.666667  0.333333  0.298114  1
  S  S39  1  0.333333  0.666667  0.144243  1
  S  S40  1  0.666667  0.333333  0.182700  1
  S  S41  1  0.000000  0.000000  0.875026  1
  S  S42  1  0.333333  0.666667  0.336557  1
  S  S43  1  0.333333  0.666667  0.836589  1
  S  S44  1  0.666667  0.333333  0.413464  1
  S  S45  1  0.333333  0.666667  0.528866  1
  S  S46  1  0.333333  0.666667  0.951899  1
  S  S47  1  0.666667  0.333333  0.567281  1
  S  S48  1  0.666667  0.333333  0.913466  1
  S  S49  1  0.000000  0.000000  0.490428  1
  S  S50  1  0.333333  0.666667  0.259591  1
  S  S51  1  0.000000  0.000000  0.605811  1
