# generated using pymatgen
data_H2O
_symmetry_space_group_name_H-M   'P 1'
_cell_length_a   3.97078367
_cell_length_b   8.19844026
_cell_length_c   8.26686516
_cell_angle_alpha   90.00000000
_cell_angle_beta   90.00000000
_cell_angle_gamma   90.00000000
_symmetry_Int_Tables_number   1
_chemical_formula_structural   H2O
_chemical_formula_sum   'H24 O12'
_cell_volume   269.12145195
_cell_formula_units_Z   12
loop_
 _symmetry_equiv_pos_site_id
 _symmetry_equiv_pos_as_xyz
  1  'x, y, z'
loop_
 _atom_site_type_symbol
 _atom_site_label
 _atom_site_symmetry_multiplicity
 _atom_site_fract_x
 _atom_site_fract_y
 _atom_site_fract_z
 _atom_site_occupancy
  H  H0  1  0.357175  0.919030  0.398926  1
  H  H1  1  0.733298  0.087816  0.695909  1
  H  H2  1  0.890671  0.156357  0.324795  1
  H  H3  1  0.560959  0.279887  0.978008  1
  H  H4  1  0.939041  0.720113  0.478008  1
  H  H5  1  0.109329  0.656357  0.175205  1
  H  H6  1  0.266702  0.587816  0.804091  1
  H  H7  1  0.642825  0.419030  0.101074  1
  H  H8  1  0.060959  0.220113  0.021992  1
  H  H9  1  0.016701  0.957601  0.651195  1
  H  H10  1  0.321924  0.225621  0.529817  1
  H  H11  1  0.483299  0.042399  0.151195  1
  H  H12  1  0.678076  0.725621  0.970183  1
  H  H13  1  0.178076  0.774379  0.029817  1
  H  H14  1  0.766702  0.912184  0.195909  1
  H  H15  1  0.983299  0.457601  0.848805  1
  H  H16  1  0.516701  0.542399  0.348805  1
  H  H17  1  0.233298  0.412184  0.304091  1
  H  H18  1  0.142825  0.080970  0.898926  1
  H  H19  1  0.857175  0.580970  0.601074  1
  H  H20  1  0.821924  0.274379  0.470183  1
  H  H21  1  0.609329  0.843643  0.824795  1
  H  H22  1  0.439041  0.779887  0.521992  1
  H  H23  1  0.390671  0.343643  0.675205  1
  O  O24  1  0.874506  0.998615  0.741594  1
  O  O25  1  0.374506  0.501385  0.258406  1
  O  O26  1  0.625494  0.001385  0.241594  1
  O  O27  1  0.503129  0.754392  0.889032  1
  O  O28  1  0.240812  0.139847  0.994005  1
  O  O29  1  0.003129  0.745608  0.110968  1
  O  O30  1  0.740812  0.360153  0.005995  1
  O  O31  1  0.496871  0.254392  0.610968  1
  O  O32  1  0.259188  0.860153  0.494005  1
  O  O33  1  0.125494  0.498615  0.758406  1
  O  O34  1  0.996871  0.245608  0.389032  1
  O  O35  1  0.759188  0.639847  0.505995  1
