# generated using pymatgen
data_SiO2
_symmetry_space_group_name_H-M   'P 1'
_cell_length_a   16.13070504
_cell_length_b   16.13070504
_cell_length_c   16.13070504
_cell_angle_alpha   51.12487727
_cell_angle_beta   51.12487727
_cell_angle_gamma   51.12487727
_symmetry_Int_Tables_number   1
_chemical_formula_structural   SiO2
_chemical_formula_sum   'Si40 O80'
_cell_volume   2347.13365681
_cell_formula_units_Z   40
loop_
 _symmetry_equiv_pos_site_id
 _symmetry_equiv_pos_as_xyz
  1  'x, y, z'
loop_
 _atom_site_type_symbol
 _atom_site_label
 _atom_site_symmetry_multiplicity
 _atom_site_fract_x
 _atom_site_fract_y
 _atom_site_fract_z
 _atom_site_occupancy
  Si  Si0  1  0.230043  0.227158  0.870418  1
  Si  Si1  1  0.186598  0.990412  0.615349  1
  Si  Si2  1  0.227175  0.599927  0.969953  1
  Si  Si3  1  0.969953  0.227176  0.599927  1
  Si  Si4  1  0.988501  0.234849  0.776951  1
  Si  Si5  1  0.772825  0.400073  0.030047  1
  Si  Si6  1  0.786406  0.786406  0.786406  1
  Si  Si7  1  0.384386  0.766187  0.352422  1
  Si  Si8  1  0.769957  0.772842  0.129582  1
  Si  Si9  1  0.384651  0.813402  0.009588  1
  Si  Si10  1  0.870418  0.230043  0.227158  1
  Si  Si11  1  0.776951  0.988501  0.234849  1
  Si  Si12  1  0.400073  0.030047  0.772825  1
  Si  Si13  1  0.233813  0.647578  0.615614  1
  Si  Si14  1  0.772842  0.129582  0.769957  1
  Si  Si15  1  0.990412  0.615349  0.186598  1
  Si  Si16  1  0.352422  0.384386  0.766187  1
  Si  Si17  1  0.973639  0.371080  0.352529  1
  Si  Si18  1  0.813402  0.009588  0.384651  1
  Si  Si19  1  0.234849  0.776951  0.988501  1
  Si  Si20  1  0.011499  0.765151  0.223049  1
  Si  Si21  1  0.628920  0.647471  0.026361  1
  Si  Si22  1  0.213594  0.213594  0.213594  1
  Si  Si23  1  0.227158  0.870418  0.230043  1
  Si  Si24  1  0.136848  0.136848  0.136848  1
  Si  Si25  1  0.223049  0.011499  0.765151  1
  Si  Si26  1  0.599927  0.969953  0.227176  1
  Si  Si27  1  0.647578  0.615614  0.233813  1
  Si  Si28  1  0.030047  0.772825  0.400073  1
  Si  Si29  1  0.615349  0.186598  0.990412  1
  Si  Si30  1  0.129582  0.769957  0.772842  1
  Si  Si31  1  0.009588  0.384651  0.813402  1
  Si  Si32  1  0.766187  0.352422  0.384386  1
  Si  Si33  1  0.647471  0.026361  0.628920  1
  Si  Si34  1  0.352529  0.973639  0.371080  1
  Si  Si35  1  0.026361  0.628920  0.647471  1
  Si  Si36  1  0.371080  0.352529  0.973639  1
  Si  Si37  1  0.765151  0.223049  0.011499  1
  Si  Si38  1  0.615614  0.233813  0.647578  1
  Si  Si39  1  0.863152  0.863152  0.863152  1
  O  O40  1  0.476108  0.967725  0.331903  1
  O  O41  1  0.032275  0.668097  0.523892  1
  O  O42  1  0.048602  0.493024  0.718141  1
  O  O43  1  0.247634  0.003042  0.655683  1
  O  O44  1  0.895375  0.879193  0.208456  1
  O  O45  1  0.668097  0.523892  0.032275  1
  O  O46  1  0.297286  0.281623  0.100156  1
  O  O47  1  0.277993  0.867852  0.106958  1
  O  O48  1  0.175186  0.175186  0.175186  1
  O  O49  1  0.824814  0.824814  0.824814  1
  O  O50  1  0.718141  0.048602  0.493024  1
  O  O51  1  0.219964  0.149264  0.003496  1
  O  O52  1  0.690953  0.480377  0.316058  1
  O  O53  1  0.184779  0.737291  0.666739  1
  O  O54  1  0.850736  0.996504  0.780036  1
  O  O55  1  0.112456  0.579344  0.083754  1
  O  O56  1  0.752366  0.996958  0.344317  1
  O  O57  1  0.083754  0.112456  0.579344  1
  O  O58  1  0.132148  0.893042  0.722007  1
  O  O59  1  0.203217  0.670072  0.853923  1
  O  O60  1  0.967725  0.331903  0.476108  1
  O  O61  1  0.722007  0.132148  0.893042  1
  O  O62  1  0.737291  0.666739  0.184779  1
  O  O63  1  0.887544  0.420656  0.916246  1
  O  O64  1  0.853923  0.203217  0.670072  1
  O  O65  1  0.523892  0.032275  0.668097  1
  O  O66  1  0.647754  0.628596  0.125552  1
  O  O67  1  0.733166  0.331069  0.027362  1
  O  O68  1  0.683942  0.309047  0.519623  1
  O  O69  1  0.125552  0.647754  0.628596  1
  O  O70  1  0.480377  0.316058  0.690953  1
  O  O71  1  0.104625  0.120807  0.791544  1
  O  O72  1  0.628596  0.125552  0.647754  1
  O  O73  1  0.316058  0.690953  0.480377  1
  O  O74  1  0.100156  0.297286  0.281623  1
  O  O75  1  0.262709  0.333261  0.815221  1
  O  O76  1  0.027362  0.733166  0.331069  1
  O  O77  1  0.718377  0.899844  0.702714  1
  O  O78  1  0.951398  0.506976  0.281859  1
  O  O79  1  0.506976  0.281859  0.951398  1
  O  O80  1  0.493024  0.718141  0.048602  1
  O  O81  1  0.352246  0.371404  0.874448  1
  O  O82  1  0.791544  0.104625  0.120807  1
  O  O83  1  0.668931  0.972638  0.266834  1
  O  O84  1  0.874448  0.352246  0.371404  1
  O  O85  1  0.796783  0.329928  0.146077  1
  O  O86  1  0.916246  0.887544  0.420656  1
  O  O87  1  0.003496  0.219964  0.149264  1
  O  O88  1  0.893042  0.722007  0.132148  1
  O  O89  1  0.266834  0.668931  0.972638  1
  O  O90  1  0.106958  0.277993  0.867852  1
  O  O91  1  0.146077  0.796783  0.329928  1
  O  O92  1  0.371404  0.874448  0.352246  1
  O  O93  1  0.333261  0.815221  0.262709  1
  O  O94  1  0.972638  0.266834  0.668931  1
  O  O95  1  0.329928  0.146077  0.796783  1
  O  O96  1  0.996958  0.344317  0.752366  1
  O  O97  1  0.867852  0.106958  0.277993  1
  O  O98  1  0.780036  0.850736  0.996504  1
  O  O99  1  0.879193  0.208456  0.895375  1
  O  O100  1  0.281623  0.100156  0.297286  1
  O  O101  1  0.815221  0.262709  0.333261  1
  O  O102  1  0.331903  0.476108  0.967725  1
  O  O103  1  0.281859  0.951398  0.506976  1
  O  O104  1  0.670072  0.853923  0.203217  1
  O  O105  1  0.309047  0.519623  0.683942  1
  O  O106  1  0.996504  0.780036  0.850736  1
  O  O107  1  0.344317  0.752366  0.996958  1
  O  O108  1  0.331069  0.027362  0.733166  1
  O  O109  1  0.420656  0.916246  0.887544  1
  O  O110  1  0.702714  0.718377  0.899844  1
  O  O111  1  0.666739  0.184779  0.737291  1
  O  O112  1  0.149264  0.003496  0.219964  1
  O  O113  1  0.579344  0.083754  0.112456  1
  O  O114  1  0.003042  0.655683  0.247634  1
  O  O115  1  0.655683  0.247634  0.003042  1
  O  O116  1  0.899844  0.702714  0.718377  1
  O  O117  1  0.120807  0.791544  0.104625  1
  O  O118  1  0.208456  0.895375  0.879193  1
  O  O119  1  0.519623  0.683942  0.309047  1
