# generated using pymatgen
data_K2Ca2(CO3)3
_symmetry_space_group_name_H-M   'P 1'
_cell_length_a   8.16572488
_cell_length_b   8.16572488
_cell_length_c   8.16572488
_cell_angle_alpha   108.01993253
_cell_angle_beta   108.01993253
_cell_angle_gamma   108.01993253
_symmetry_Int_Tables_number   1
_chemical_formula_structural   K2Ca2(CO3)3
_chemical_formula_sum   'K4 Ca4 C6 O18'
_cell_volume   440.22543497
_cell_formula_units_Z   2
loop_
 _symmetry_equiv_pos_site_id
 _symmetry_equiv_pos_as_xyz
  1  'x, y, z'
loop_
 _atom_site_type_symbol
 _atom_site_label
 _atom_site_symmetry_multiplicity
 _atom_site_fract_x
 _atom_site_fract_y
 _atom_site_fract_z
 _atom_site_occupancy
  K  K0  1  0.870617  0.870617  0.870617  1
  K  K1  1  0.097278  0.700474  0.555098  1
  K  K2  1  0.700474  0.555098  0.097278  1
  K  K3  1  0.555098  0.097278  0.700474  1
  Ca  Ca4  1  0.024732  0.171684  0.508075  1
  Ca  Ca5  1  0.508075  0.024732  0.171684  1
  Ca  Ca6  1  0.171684  0.508075  0.024732  1
  Ca  Ca7  1  0.447098  0.447098  0.447098  1
  C  C8  1  0.415668  0.614661  0.801837  1
  C  C9  1  0.934467  0.267093  0.179573  1
  C  C10  1  0.267093  0.179573  0.934467  1
  C  C11  1  0.179573  0.934467  0.267093  1
  C  C12  1  0.801837  0.415668  0.614661  1
  C  C13  1  0.614661  0.801837  0.415668  1
  O  O14  1  0.359751  0.330318  0.102185  1
  O  O15  1  0.104094  0.154407  0.812423  1
  O  O16  1  0.336798  0.058033  0.892807  1
  O  O17  1  0.474368  0.716484  0.719362  1
  O  O18  1  0.349861  0.428455  0.716762  1
  O  O19  1  0.424829  0.696677  0.971897  1
  O  O20  1  0.716484  0.719362  0.474368  1
  O  O21  1  0.892807  0.336798  0.058033  1
  O  O22  1  0.696677  0.971897  0.424829  1
  O  O23  1  0.428455  0.716762  0.349861  1
  O  O24  1  0.102185  0.359751  0.330318  1
  O  O25  1  0.719362  0.474368  0.716484  1
  O  O26  1  0.154407  0.812423  0.104094  1
  O  O27  1  0.330318  0.102185  0.359751  1
  O  O28  1  0.058033  0.892807  0.336798  1
  O  O29  1  0.971897  0.424829  0.696677  1
  O  O30  1  0.716762  0.349861  0.428455  1
  O  O31  1  0.812423  0.104094  0.154407  1
