# generated using pymatgen
data_K2MoAs2O9
_symmetry_space_group_name_H-M   'P 1'
_cell_length_a   7.60548370
_cell_length_b   14.20448594
_cell_length_c   9.71673496
_cell_angle_alpha   90.00000000
_cell_angle_beta   116.10160344
_cell_angle_gamma   90.00000000
_symmetry_Int_Tables_number   1
_chemical_formula_structural   K2MoAs2O9
_chemical_formula_sum   'K8 Mo4 As8 O36'
_cell_volume   942.66294664
_cell_formula_units_Z   4
loop_
 _symmetry_equiv_pos_site_id
 _symmetry_equiv_pos_as_xyz
  1  'x, y, z'
loop_
 _atom_site_type_symbol
 _atom_site_label
 _atom_site_symmetry_multiplicity
 _atom_site_fract_x
 _atom_site_fract_y
 _atom_site_fract_z
 _atom_site_occupancy
  K  K0  1  0.666260  0.952253  0.375189  1
  K  K1  1  0.333740  0.452253  0.124811  1
  K  K2  1  0.042023  0.910678  0.860369  1
  K  K3  1  0.333740  0.047747  0.624811  1
  K  K4  1  0.666260  0.547747  0.875189  1
  K  K5  1  0.957977  0.089322  0.139631  1
  K  K6  1  0.957977  0.410678  0.639631  1
  K  K7  1  0.042023  0.589322  0.360369  1
  Mo  Mo8  1  0.423649  0.783344  0.669238  1
  Mo  Mo9  1  0.576351  0.283344  0.830762  1
  Mo  Mo10  1  0.576351  0.216656  0.330762  1
  Mo  Mo11  1  0.423649  0.716656  0.169238  1
  As  As12  1  0.869552  0.341476  0.195592  1
  As  As13  1  0.286869  0.334453  0.467626  1
  As  As14  1  0.130448  0.841476  0.304408  1
  As  As15  1  0.286869  0.165547  0.967626  1
  As  As16  1  0.713131  0.834453  0.032374  1
  As  As17  1  0.869552  0.158524  0.695592  1
  As  As18  1  0.130448  0.658524  0.804408  1
  As  As19  1  0.713131  0.665547  0.532374  1
  O  O20  1  0.550291  0.636421  0.109367  1
  O  O21  1  0.702296  0.140255  0.264407  1
  O  O22  1  0.204881  0.762450  0.458140  1
  O  O23  1  0.447141  0.339464  0.387499  1
  O  O24  1  0.702296  0.359745  0.764407  1
  O  O25  1  0.219704  0.063598  0.014185  1
  O  O26  1  0.552859  0.839464  0.112501  1
  O  O27  1  0.289197  0.656266  0.722987  1
  O  O28  1  0.358411  0.246233  0.118589  1
  O  O29  1  0.795119  0.237550  0.541860  1
  O  O30  1  0.641589  0.746233  0.381411  1
  O  O31  1  0.219704  0.436402  0.514185  1
  O  O32  1  0.447141  0.160536  0.887499  1
  O  O33  1  0.923206  0.726702  0.674679  1
  O  O34  1  0.710803  0.343734  0.277013  1
  O  O35  1  0.289197  0.843734  0.222987  1
  O  O36  1  0.932105  0.054501  0.649329  1
  O  O37  1  0.552859  0.660536  0.612501  1
  O  O38  1  0.449709  0.136421  0.390633  1
  O  O39  1  0.780296  0.936402  0.985815  1
  O  O40  1  0.076794  0.226702  0.825321  1
  O  O41  1  0.795119  0.262450  0.041860  1
  O  O42  1  0.067895  0.945499  0.350671  1
  O  O43  1  0.204881  0.737550  0.958140  1
  O  O44  1  0.297704  0.640255  0.235593  1
  O  O45  1  0.358411  0.253767  0.618589  1
  O  O46  1  0.923206  0.773298  0.174679  1
  O  O47  1  0.067895  0.554501  0.850671  1
  O  O48  1  0.780296  0.563598  0.485815  1
  O  O49  1  0.550291  0.863579  0.609367  1
  O  O50  1  0.641589  0.753767  0.881411  1
  O  O51  1  0.449709  0.363579  0.890633  1
  O  O52  1  0.710803  0.156266  0.777013  1
  O  O53  1  0.076794  0.273298  0.325321  1
  O  O54  1  0.297704  0.859745  0.735593  1
  O  O55  1  0.932105  0.445499  0.149329  1
