# generated using pymatgen
data_NaFe3Si3O10
_symmetry_space_group_name_H-M   'P 1'
_cell_length_a   9.05203190
_cell_length_b   9.82090612
_cell_length_c   10.46176323
_cell_angle_alpha   114.87440799
_cell_angle_beta   83.53834512
_cell_angle_gamma   114.08619049
_symmetry_Int_Tables_number   1
_chemical_formula_structural   NaFe3Si3O10
_chemical_formula_sum   'Na4 Fe12 Si12 O40'
_cell_volume   768.33417068
_cell_formula_units_Z   4
loop_
 _symmetry_equiv_pos_site_id
 _symmetry_equiv_pos_as_xyz
  1  'x, y, z'
loop_
 _atom_site_type_symbol
 _atom_site_label
 _atom_site_symmetry_multiplicity
 _atom_site_fract_x
 _atom_site_fract_y
 _atom_site_fract_z
 _atom_site_occupancy
  Na  Na0  1  0.388242  0.634102  0.422337  1
  Na  Na1  1  0.369449  0.613034  0.951757  1
  Na  Na2  1  0.611758  0.365898  0.577663  1
  Na  Na3  1  0.630551  0.386966  0.048243  1
  Fe  Fe4  1  0.848199  0.180732  0.948512  1
  Fe  Fe5  1  0.181002  0.852269  0.532508  1
  Fe  Fe6  1  0.151801  0.819268  0.051488  1
  Fe  Fe7  1  0.735974  0.262762  0.256570  1
  Fe  Fe8  1  0.818998  0.147731  0.467492  1
  Fe  Fe9  1  0.058357  0.934485  0.841104  1
  Fe  Fe10  1  0.066475  0.941545  0.346340  1
  Fe  Fe11  1  0.933525  0.058455  0.653660  1
  Fe  Fe12  1  0.500000  0.000000  0.000000  1
  Fe  Fe13  1  0.264026  0.737238  0.743430  1
  Fe  Fe14  1  0.000000  0.500000  0.500000  1
  Fe  Fe15  1  0.941643  0.065515  0.158896  1
  Si  Si16  1  0.551205  0.053512  0.703309  1
  Si  Si17  1  0.776951  0.662995  0.938236  1
  Si  Si18  1  0.448795  0.946488  0.296691  1
  Si  Si19  1  0.657774  0.767189  0.751042  1
  Si  Si20  1  0.328806  0.234005  0.758072  1
  Si  Si21  1  0.953634  0.443730  0.794923  1
  Si  Si22  1  0.342226  0.232811  0.248958  1
  Si  Si23  1  0.760091  0.662608  0.452261  1
  Si  Si24  1  0.239909  0.337392  0.547739  1
  Si  Si25  1  0.223049  0.337005  0.061764  1
  Si  Si26  1  0.046366  0.556270  0.205077  1
  Si  Si27  1  0.671194  0.765995  0.241928  1
  O  O28  1  0.723243  0.068375  0.081748  1
  O  O29  1  0.627024  0.679005  0.576393  1
  O  O30  1  0.372976  0.320995  0.423607  1
  O  O31  1  0.176051  0.067594  0.208078  1
  O  O32  1  0.063069  0.167316  0.014059  1
  O  O33  1  0.333449  0.361256  0.690127  1
  O  O34  1  0.870321  0.398812  0.147296  1
  O  O35  1  0.074391  0.170265  0.507509  1
  O  O36  1  0.604064  0.124832  0.364169  1
  O  O37  1  0.835414  0.931510  0.285722  1
  O  O38  1  0.112288  0.604122  0.365705  1
  O  O39  1  0.070573  0.724702  0.657965  1
  O  O40  1  0.957962  0.287681  0.812398  1
  O  O41  1  0.823949  0.932406  0.791922  1
  O  O42  1  0.396228  0.882687  0.128280  1
  O  O43  1  0.929427  0.275298  0.342035  1
  O  O44  1  0.276757  0.931625  0.918252  1
  O  O45  1  0.320643  0.367019  0.201247  1
  O  O46  1  0.508723  0.803090  0.294737  1
  O  O47  1  0.814895  0.501370  0.899893  1
  O  O48  1  0.887712  0.395878  0.634295  1
  O  O49  1  0.936931  0.832684  0.985941  1
  O  O50  1  0.297738  0.951067  0.396745  1
  O  O51  1  0.042038  0.712319  0.187602  1
  O  O52  1  0.649869  0.661054  0.066877  1
  O  O53  1  0.603772  0.117313  0.871720  1
  O  O54  1  0.350131  0.338946  0.933123  1
  O  O55  1  0.492203  0.783340  0.825300  1
  O  O56  1  0.781625  0.495530  0.429017  1
  O  O57  1  0.925609  0.829735  0.492491  1
  O  O58  1  0.666551  0.638744  0.309873  1
  O  O59  1  0.395936  0.875168  0.635831  1
  O  O60  1  0.507797  0.216660  0.174700  1
  O  O61  1  0.164586  0.068490  0.714278  1
  O  O62  1  0.702262  0.048933  0.603255  1
  O  O63  1  0.185105  0.498630  0.100107  1
  O  O64  1  0.491277  0.196910  0.705263  1
  O  O65  1  0.218375  0.504470  0.570983  1
  O  O66  1  0.129679  0.601188  0.852704  1
  O  O67  1  0.679357  0.632981  0.798753  1
