# generated using pymatgen
data_Sr2HoSbO6
_symmetry_space_group_name_H-M   'P 1'
_cell_length_a   5.85920448
_cell_length_b   5.90807003
_cell_length_c   10.15173799
_cell_angle_alpha   90.00000000
_cell_angle_beta   125.06011621
_cell_angle_gamma   90.00000000
_symmetry_Int_Tables_number   1
_chemical_formula_structural   Sr2HoSbO6
_chemical_formula_sum   'Sr4 Ho2 Sb2 O12'
_cell_volume   287.65358221
_cell_formula_units_Z   2
loop_
 _symmetry_equiv_pos_site_id
 _symmetry_equiv_pos_as_xyz
  1  'x, y, z'
loop_
 _atom_site_type_symbol
 _atom_site_label
 _atom_site_symmetry_multiplicity
 _atom_site_fract_x
 _atom_site_fract_y
 _atom_site_fract_z
 _atom_site_occupancy
  Sr  Sr0  1  0.242427  0.468846  0.749640  1
  Sr  Sr1  1  0.757573  0.968846  0.750360  1
  Sr  Sr2  1  0.757573  0.531154  0.250360  1
  Sr  Sr3  1  0.242427  0.031154  0.249640  1
  Ho  Ho4  1  0.500000  0.500000  0.500000  1
  Ho  Ho5  1  0.500000  0.000000  0.000000  1
  Sb  Sb6  1  0.000000  0.000000  0.500000  1
  Sb  Sb7  1  0.000000  0.500000  0.000000  1
  O  O8  1  0.311291  0.019817  0.736415  1
  O  O9  1  0.688709  0.980183  0.263585  1
  O  O10  1  0.158910  0.226704  0.959410  1
  O  O11  1  0.766852  0.202388  0.538680  1
  O  O12  1  0.841090  0.726704  0.540590  1
  O  O13  1  0.311291  0.480183  0.236415  1
  O  O14  1  0.841090  0.773296  0.040590  1
  O  O15  1  0.766852  0.297612  0.038680  1
  O  O16  1  0.233148  0.702388  0.961320  1
  O  O17  1  0.688709  0.519817  0.763585  1
  O  O18  1  0.158910  0.273296  0.459410  1
  O  O19  1  0.233148  0.797612  0.461320  1
