# generated using pymatgen
data_K3Al2(PO4)3
_symmetry_space_group_name_H-M   'P 1'
_cell_length_a   8.57997387
_cell_length_b   8.81422754
_cell_length_c   17.13913095
_cell_angle_alpha   90.00000000
_cell_angle_beta   90.00000000
_cell_angle_gamma   90.00000000
_symmetry_Int_Tables_number   1
_chemical_formula_structural   K3Al2(PO4)3
_chemical_formula_sum   'K12 Al8 P12 O48'
_cell_volume   1296.16120886
_cell_formula_units_Z   4
loop_
 _symmetry_equiv_pos_site_id
 _symmetry_equiv_pos_as_xyz
  1  'x, y, z'
loop_
 _atom_site_type_symbol
 _atom_site_label
 _atom_site_symmetry_multiplicity
 _atom_site_fract_x
 _atom_site_fract_y
 _atom_site_fract_z
 _atom_site_occupancy
  K  K0  1  0.107979  0.013112  0.400016  1
  K  K1  1  0.330110  0.326841  0.508744  1
  K  K2  1  0.131756  0.543419  0.858953  1
  K  K3  1  0.330110  0.826841  0.991256  1
  K  K4  1  0.830110  0.173159  0.008744  1
  K  K5  1  0.631756  0.956581  0.358953  1
  K  K6  1  0.607979  0.986888  0.599984  1
  K  K7  1  0.631756  0.456581  0.141047  1
  K  K8  1  0.131756  0.043419  0.641047  1
  K  K9  1  0.107979  0.513112  0.099984  1
  K  K10  1  0.830110  0.673159  0.491256  1
  K  K11  1  0.607979  0.486888  0.900016  1
  Al  Al12  1  0.289715  0.131860  0.168544  1
  Al  Al13  1  0.299876  0.148960  0.838928  1
  Al  Al14  1  0.289715  0.631860  0.331456  1
  Al  Al15  1  0.799876  0.351040  0.338928  1
  Al  Al16  1  0.789715  0.868140  0.831456  1
  Al  Al17  1  0.799876  0.851040  0.161072  1
  Al  Al18  1  0.789715  0.368140  0.668544  1
  Al  Al19  1  0.299876  0.648960  0.661072  1
  P  P20  1  0.363235  0.761135  0.497491  1
  P  P21  1  0.434766  0.796464  0.188104  1
  P  P22  1  0.941895  0.160069  0.212766  1
  P  P23  1  0.934766  0.703536  0.688104  1
  P  P24  1  0.441895  0.839931  0.787234  1
  P  P25  1  0.934766  0.203536  0.811896  1
  P  P26  1  0.941895  0.660069  0.287234  1
  P  P27  1  0.363235  0.261135  0.002509  1
  P  P28  1  0.434766  0.296464  0.311896  1
  P  P29  1  0.863235  0.238865  0.502509  1
  P  P30  1  0.863235  0.738865  0.997491  1
  P  P31  1  0.441895  0.339931  0.712766  1
  O  O32  1  0.535961  0.763485  0.477055  1
  O  O33  1  0.397893  0.463136  0.335926  1
  O  O34  1  0.105915  0.084434  0.206729  1
  O  O35  1  0.297946  0.910796  0.527541  1
  O  O36  1  0.035961  0.736515  0.977055  1
  O  O37  1  0.605915  0.415566  0.706729  1
  O  O38  1  0.830696  0.869835  0.060402  1
  O  O39  1  0.913908  0.784241  0.346343  1
  O  O40  1  0.797946  0.089204  0.472459  1
  O  O41  1  0.297946  0.410796  0.972459  1
  O  O42  1  0.616167  0.283302  0.309649  1
  O  O43  1  0.397893  0.963136  0.164074  1
  O  O44  1  0.366186  0.181637  0.367222  1
  O  O45  1  0.616167  0.783302  0.190351  1
  O  O46  1  0.866186  0.318363  0.867222  1
  O  O47  1  0.330696  0.130165  0.939598  1
  O  O48  1  0.430317  0.283372  0.799273  1
  O  O49  1  0.897893  0.036864  0.835926  1
  O  O50  1  0.262683  0.207426  0.075225  1
  O  O51  1  0.830696  0.369835  0.439598  1
  O  O52  1  0.366186  0.681637  0.132778  1
  O  O53  1  0.105915  0.584434  0.293271  1
  O  O54  1  0.116167  0.216698  0.809649  1
  O  O55  1  0.930317  0.716628  0.200727  1
  O  O56  1  0.762683  0.292574  0.575225  1
  O  O57  1  0.330696  0.630165  0.560402  1
  O  O58  1  0.535961  0.263485  0.022945  1
  O  O59  1  0.913908  0.284241  0.153657  1
  O  O60  1  0.880920  0.725170  0.774795  1
  O  O61  1  0.262683  0.707426  0.424775  1
  O  O62  1  0.430317  0.783372  0.700727  1
  O  O63  1  0.605915  0.915566  0.793271  1
  O  O64  1  0.318836  0.469638  0.704364  1
  O  O65  1  0.380920  0.274830  0.225205  1
  O  O66  1  0.897893  0.536864  0.664074  1
  O  O67  1  0.318836  0.969638  0.795636  1
  O  O68  1  0.116167  0.716698  0.690351  1
  O  O69  1  0.413908  0.215759  0.653657  1
  O  O70  1  0.866186  0.818363  0.632778  1
  O  O71  1  0.380920  0.774830  0.274795  1
  O  O72  1  0.797946  0.589204  0.027541  1
  O  O73  1  0.880920  0.225170  0.725205  1
  O  O74  1  0.930317  0.216628  0.299273  1
  O  O75  1  0.818836  0.030362  0.204364  1
  O  O76  1  0.413908  0.715759  0.846343  1
  O  O77  1  0.035961  0.236515  0.522945  1
  O  O78  1  0.818836  0.530362  0.295636  1
  O  O79  1  0.762683  0.792574  0.924775  1
