# generated using pymatgen
data_HfNCl
_symmetry_space_group_name_H-M   'P 1'
_cell_length_a   10.08772820
_cell_length_b   10.08772820
_cell_length_c   10.08772820
_cell_angle_alpha   20.45521407
_cell_angle_beta   20.45521407
_cell_angle_gamma   20.45521407
_symmetry_Int_Tables_number   1
_chemical_formula_structural   HfNCl
_chemical_formula_sum   'Hf2 N2 Cl2'
_cell_volume   109.73125842
_cell_formula_units_Z   2
loop_
 _symmetry_equiv_pos_site_id
 _symmetry_equiv_pos_as_xyz
  1  'x, y, z'
loop_
 _atom_site_type_symbol
 _atom_site_label
 _atom_site_symmetry_multiplicity
 _atom_site_fract_x
 _atom_site_fract_y
 _atom_site_fract_z
 _atom_site_occupancy
  Hf  Hf0  1  0.877522  0.877522  0.877522  1
  Hf  Hf1  1  0.122478  0.122478  0.122478  1
  N  N2  1  0.803932  0.803932  0.803932  1
  N  N3  1  0.196068  0.196068  0.196068  1
  Cl  Cl4  1  0.605582  0.605582  0.605582  1
  Cl  Cl5  1  0.394418  0.394418  0.394418  1
