# generated using pymatgen
data_S
_symmetry_space_group_name_H-M   'P 1'
_cell_length_a   9.02143291
_cell_length_b   16.27005758
_cell_length_c   20.32062352
_cell_angle_alpha   90.00000000
_cell_angle_beta   90.00000000
_cell_angle_gamma   90.00000000
_symmetry_Int_Tables_number   1
_chemical_formula_structural   S
_chemical_formula_sum   S88
_cell_volume   2982.64553231
_cell_formula_units_Z   88
loop_
 _symmetry_equiv_pos_site_id
 _symmetry_equiv_pos_as_xyz
  1  'x, y, z'
loop_
 _atom_site_type_symbol
 _atom_site_label
 _atom_site_symmetry_multiplicity
 _atom_site_fract_x
 _atom_site_fract_y
 _atom_site_fract_z
 _atom_site_occupancy
  S  S0  1  0.982183  0.413864  0.392798  1
  S  S1  1  0.286720  0.258133  0.975883  1
  S  S2  1  0.660080  0.083584  0.094482  1
  S  S3  1  0.478349  0.161273  0.219390  1
  S  S4  1  0.904131  0.428256  0.986311  1
  S  S5  1  0.459411  0.855907  0.394415  1
  S  S6  1  0.586922  0.178572  0.627122  1
  S  S7  1  0.543724  0.582073  0.140759  1
  S  S8  1  0.644541  0.719694  0.884440  1
  S  S9  1  0.422342  0.221678  0.687826  1
  S  S10  1  0.929837  0.530931  0.425372  1
  S  S11  1  0.541788  0.449009  0.943673  1
  S  S12  1  0.456276  0.082073  0.140759  1
  S  S13  1  0.543724  0.917927  0.640759  1
  S  S14  1  0.269858  0.881562  0.929773  1
  S  S15  1  0.339920  0.583584  0.094482  1
  S  S16  1  0.143843  0.969502  0.728254  1
  S  S17  1  0.070163  0.469069  0.925372  1
  S  S18  1  0.521651  0.838727  0.719390  1
  S  S19  1  0.038407  0.391626  0.719511  1
  S  S20  1  0.577658  0.721678  0.687826  1
  S  S21  1  0.730142  0.381562  0.929773  1
  S  S22  1  0.760549  0.368823  0.183450  1
  S  S23  1  0.070163  0.030931  0.425372  1
  S  S24  1  0.269858  0.618438  0.429773  1
  S  S25  1  0.954892  0.333362  0.470320  1
  S  S26  1  0.760549  0.131177  0.683450  1
  S  S27  1  0.038407  0.108374  0.219511  1
  S  S28  1  0.495494  0.472411  0.362847  1
  S  S29  1  0.949646  0.302141  0.169415  1
  S  S30  1  0.904131  0.071744  0.486311  1
  S  S31  1  0.541788  0.050991  0.443673  1
  S  S32  1  0.856157  0.030498  0.228254  1
  S  S33  1  0.456276  0.417927  0.640759  1
  S  S34  1  0.355459  0.219694  0.884440  1
  S  S35  1  0.929837  0.969069  0.925372  1
  S  S36  1  0.961593  0.891626  0.719511  1
  S  S37  1  0.156976  0.167481  0.018007  1
  S  S38  1  0.495494  0.027589  0.862847  1
  S  S39  1  0.156976  0.332519  0.518007  1
  S  S40  1  0.459411  0.644093  0.894415  1
  S  S41  1  0.209593  0.007107  0.636148  1
  S  S42  1  0.504506  0.527589  0.862847  1
  S  S43  1  0.413078  0.821428  0.127122  1
  S  S44  1  0.987682  0.275686  0.750706  1
  S  S45  1  0.413078  0.678572  0.627122  1
  S  S46  1  0.012318  0.724314  0.250706  1
  S  S47  1  0.095869  0.571744  0.486311  1
  S  S48  1  0.017817  0.913864  0.392798  1
  S  S49  1  0.050354  0.697859  0.669415  1
  S  S50  1  0.045108  0.833362  0.470320  1
  S  S51  1  0.660080  0.416416  0.594482  1
  S  S52  1  0.504506  0.972411  0.362847  1
  S  S53  1  0.644541  0.780306  0.384440  1
  S  S54  1  0.017817  0.586136  0.892798  1
  S  S55  1  0.961593  0.608374  0.219511  1
  S  S56  1  0.521651  0.661273  0.219390  1
  S  S57  1  0.730142  0.118438  0.429773  1
  S  S58  1  0.843024  0.667481  0.018007  1
  S  S59  1  0.540589  0.144093  0.894415  1
  S  S60  1  0.856157  0.469502  0.728254  1
  S  S61  1  0.422342  0.278322  0.187826  1
  S  S62  1  0.586922  0.321428  0.127122  1
  S  S63  1  0.355459  0.280306  0.384440  1
  S  S64  1  0.713280  0.741867  0.475883  1
  S  S65  1  0.713280  0.758133  0.975883  1
  S  S66  1  0.949646  0.197859  0.669415  1
  S  S67  1  0.987682  0.224314  0.250706  1
  S  S68  1  0.458212  0.550991  0.443673  1
  S  S69  1  0.095869  0.928256  0.986311  1
  S  S70  1  0.339920  0.916416  0.594482  1
  S  S71  1  0.458212  0.949009  0.943673  1
  S  S72  1  0.790407  0.507107  0.636148  1
  S  S73  1  0.239451  0.868823  0.183450  1
  S  S74  1  0.012318  0.775686  0.750706  1
  S  S75  1  0.286720  0.241867  0.475883  1
  S  S76  1  0.790407  0.992893  0.136148  1
  S  S77  1  0.045108  0.666638  0.970320  1
  S  S78  1  0.143843  0.530498  0.228254  1
  S  S79  1  0.577658  0.778322  0.187826  1
  S  S80  1  0.209593  0.492893  0.136148  1
  S  S81  1  0.982183  0.086136  0.892798  1
  S  S82  1  0.478349  0.338727  0.719390  1
  S  S83  1  0.239451  0.631177  0.683450  1
  S  S84  1  0.050354  0.802141  0.169415  1
  S  S85  1  0.843024  0.832519  0.518007  1
  S  S86  1  0.954892  0.166638  0.970320  1
  S  S87  1  0.540589  0.355907  0.394415  1
