# generated using pymatgen
data_Nd6F17
_symmetry_space_group_name_H-M   'P 1'
_cell_length_a   7.08277032
_cell_length_b   7.08277032
_cell_length_c   21.81109678
_cell_angle_alpha   90.00000000
_cell_angle_beta   90.00000000
_cell_angle_gamma   120.00000000
_symmetry_Int_Tables_number   1
_chemical_formula_structural   Nd6F17
_chemical_formula_sum   'Nd18 F51'
_cell_volume   947.57687590
_cell_formula_units_Z   3
loop_
 _symmetry_equiv_pos_site_id
 _symmetry_equiv_pos_as_xyz
  1  'x, y, z'
loop_
 _atom_site_type_symbol
 _atom_site_label
 _atom_site_symmetry_multiplicity
 _atom_site_fract_x
 _atom_site_fract_y
 _atom_site_fract_z
 _atom_site_occupancy
  Nd  Nd0  1  0.998650  0.655018  0.250217  1
  Nd  Nd1  1  0.002350  0.657687  0.584095  1
  Nd  Nd2  1  0.999803  0.656573  0.916598  1
  Nd  Nd3  1  0.340479  0.999690  0.084042  1
  Nd  Nd4  1  0.656770  0.000197  0.249931  1
  Nd  Nd5  1  0.656368  0.001350  0.583551  1
  Nd  Nd6  1  0.342313  0.344663  0.250762  1
  Nd  Nd7  1  0.343427  0.343230  0.583264  1
  Nd  Nd8  1  0.344982  0.343632  0.916884  1
  Nd  Nd9  1  0.655806  0.656266  0.083833  1
  Nd  Nd10  1  0.659211  0.659521  0.417375  1
  Nd  Nd11  1  0.656596  0.655727  0.749772  1
  Nd  Nd12  1  0.344273  0.000869  0.416439  1
  Nd  Nd13  1  0.343734  0.999540  0.750500  1
  Nd  Nd14  1  0.655337  0.997650  0.917428  1
  Nd  Nd15  1  0.999131  0.343404  0.083105  1
  Nd  Nd16  1  0.000460  0.344194  0.417167  1
  Nd  Nd17  1  0.000310  0.340789  0.750708  1
  F  F18  1  0.994807  0.998871  0.081558  1
  F  F19  1  0.060259  0.689498  0.025878  1
  F  F20  1  0.060242  0.692495  0.359454  1
  F  F21  1  0.311745  0.937144  0.194596  1
  F  F22  1  0.310627  0.940536  0.526723  1
  F  F23  1  0.309466  0.937821  0.860827  1
  F  F24  1  0.059464  0.370091  0.193390  1
  F  F25  1  0.062179  0.371645  0.527494  1
  F  F26  1  0.062856  0.374601  0.861262  1
  F  F27  1  0.336313  0.669395  0.103554  1
  F  F28  1  0.333081  0.663687  0.436888  1
  F  F29  1  0.004064  0.005193  0.414892  1
  F  F30  1  0.998729  0.002153  0.583400  1
  F  F31  1  0.001129  0.995936  0.748225  1
  F  F32  1  0.330605  0.666919  0.770221  1
  F  F33  1  0.332834  0.667040  0.273136  1
  F  F34  1  0.334206  0.667166  0.606469  1
  F  F35  1  0.332960  0.665794  0.939802  1
  F  F36  1  0.307505  0.367747  0.026120  1
  F  F37  1  0.310502  0.370761  0.692545  1
  F  F38  1  0.629239  0.939741  0.359211  1
  F  F39  1  0.632253  0.939758  0.692787  1
  F  F40  1  0.367785  0.308922  0.140020  1
  F  F41  1  0.368065  0.312127  0.471237  1
  F  F42  1  0.366714  0.309559  0.806582  1
  F  F43  1  0.628355  0.690534  0.194161  1
  F  F44  1  0.625399  0.688255  0.527929  1
  F  F45  1  0.629909  0.689373  0.860056  1
  F  F46  1  0.371092  0.069387  0.307584  1
  F  F47  1  0.362336  0.053195  0.640095  1
  F  F48  1  0.380820  0.061638  0.973958  1
  F  F49  1  0.680818  0.619180  0.307291  1
  F  F50  1  0.698295  0.628908  0.640918  1
  F  F51  1  0.690859  0.637664  0.973429  1
  F  F52  1  0.665868  0.332909  0.061403  1
  F  F53  1  0.667041  0.334132  0.394736  1
  F  F54  1  0.667091  0.332959  0.728069  1
  F  F55  1  0.667311  0.332243  0.227960  1
  F  F56  1  0.664933  0.332689  0.561293  1
  F  F57  1  0.667757  0.335067  0.894626  1
  F  F58  1  0.944061  0.631935  0.804571  1
  F  F59  1  0.942845  0.633286  0.139915  1
  F  F60  1  0.941136  0.632215  0.473354  1
  F  F61  1  0.687873  0.055939  0.137904  1
  F  F62  1  0.690441  0.057155  0.473248  1
  F  F63  1  0.691078  0.058864  0.806687  1
  F  F64  1  0.946805  0.309141  0.306762  1
  F  F65  1  0.938362  0.319182  0.640624  1
  F  F66  1  0.930613  0.301705  0.974251  1
  F  F67  1  0.997847  0.996576  0.250067  1
  F  F68  1  0.003424  0.001271  0.916734  1
