# generated using pymatgen
data_CsSbS6(O3F)6
_symmetry_space_group_name_H-M   'P 1'
_cell_length_a   8.21255447
_cell_length_b   8.21255447
_cell_length_c   8.21255447
_cell_angle_alpha   97.21273769
_cell_angle_beta   97.21273769
_cell_angle_gamma   97.21273769
_symmetry_Int_Tables_number   1
_chemical_formula_structural   CsSbS6(O3F)6
_chemical_formula_sum   'Cs1 Sb1 S6 O18 F6'
_cell_volume   539.52399074
_cell_formula_units_Z   1
loop_
 _symmetry_equiv_pos_site_id
 _symmetry_equiv_pos_as_xyz
  1  'x, y, z'
loop_
 _atom_site_type_symbol
 _atom_site_label
 _atom_site_symmetry_multiplicity
 _atom_site_fract_x
 _atom_site_fract_y
 _atom_site_fract_z
 _atom_site_occupancy
  Cs  Cs0  1  0.000000  0.000000  0.000000  1
  Sb  Sb1  1  0.500000  0.500000  0.500000  1
  S  S2  1  0.560261  0.160873  0.263015  1
  S  S3  1  0.736985  0.439739  0.839127  1
  S  S4  1  0.263015  0.560261  0.160873  1
  S  S5  1  0.839127  0.736985  0.439739  1
  S  S6  1  0.439739  0.839127  0.736985  1
  S  S7  1  0.160873  0.263015  0.560261  1
  O  O8  1  0.313340  0.570264  0.352385  1
  O  O9  1  0.647615  0.686660  0.429736  1
  O  O10  1  0.151553  0.677519  0.137200  1
  O  O11  1  0.393597  0.079060  0.228837  1
  O  O12  1  0.228837  0.393597  0.079060  1
  O  O13  1  0.352385  0.313340  0.570264  1
  O  O14  1  0.606403  0.920940  0.771163  1
  O  O15  1  0.848447  0.322481  0.862800  1
  O  O16  1  0.686660  0.429736  0.647615  1
  O  O17  1  0.677519  0.137200  0.151553  1
  O  O18  1  0.137200  0.151553  0.677519  1
  O  O19  1  0.570264  0.352385  0.313340  1
  O  O20  1  0.079060  0.228837  0.393597  1
  O  O21  1  0.920940  0.771163  0.606403  1
  O  O22  1  0.862800  0.848447  0.322481  1
  O  O23  1  0.771163  0.606403  0.920940  1
  O  O24  1  0.322481  0.862800  0.848447  1
  O  O25  1  0.429736  0.647615  0.686660  1
  F  F26  1  0.363377  0.888695  0.565326  1
  F  F27  1  0.111305  0.434674  0.636623  1
  F  F28  1  0.434674  0.636623  0.111305  1
  F  F29  1  0.888695  0.565326  0.363377  1
  F  F30  1  0.636623  0.111305  0.434674  1
  F  F31  1  0.565326  0.363377  0.888695  1
