# generated using pymatgen
data_K3VSO3
_symmetry_space_group_name_H-M   'P 1'
_cell_length_a   6.70663809
_cell_length_b   5.99378388
_cell_length_c   8.86380984
_cell_angle_alpha   90.00000000
_cell_angle_beta   102.63858468
_cell_angle_gamma   90.00000000
_symmetry_Int_Tables_number   1
_chemical_formula_structural   K3VSO3
_chemical_formula_sum   'K6 V2 S2 O6'
_cell_volume   347.67517424
_cell_formula_units_Z   2
loop_
 _symmetry_equiv_pos_site_id
 _symmetry_equiv_pos_as_xyz
  1  'x, y, z'
loop_
 _atom_site_type_symbol
 _atom_site_label
 _atom_site_symmetry_multiplicity
 _atom_site_fract_x
 _atom_site_fract_y
 _atom_site_fract_z
 _atom_site_occupancy
  K  K0  1  0.687221  0.750000  0.531976  1
  K  K1  1  0.246717  0.250000  0.996826  1
  K  K2  1  0.312779  0.250000  0.468024  1
  K  K3  1  0.753283  0.750000  0.003174  1
  K  K4  1  0.780915  0.250000  0.278304  1
  K  K5  1  0.219085  0.750000  0.721696  1
  V  V6  1  0.303988  0.750000  0.209094  1
  V  V7  1  0.696012  0.250000  0.790906  1
  S  S8  1  0.058017  0.750000  0.347642  1
  S  S9  1  0.941983  0.250000  0.652358  1
  O  O10  1  0.807363  0.250000  0.985545  1
  O  O11  1  0.192637  0.750000  0.014455  1
  O  O12  1  0.454085  0.983895  0.257702  1
  O  O13  1  0.545915  0.016105  0.742298  1
  O  O14  1  0.454085  0.516105  0.257702  1
  O  O15  1  0.545915  0.483895  0.742298  1
