# generated using pymatgen
data_Ca3Al4ZnO10
_symmetry_space_group_name_H-M   'P 1'
_cell_length_a   5.18865557
_cell_length_b   10.81394544
_cell_length_c   16.92960634
_cell_angle_alpha   90.00000000
_cell_angle_beta   90.00000000
_cell_angle_gamma   90.00000000
_symmetry_Int_Tables_number   1
_chemical_formula_structural   Ca3Al4ZnO10
_chemical_formula_sum   'Ca12 Al16 Zn4 O40'
_cell_volume   949.91747322
_cell_formula_units_Z   4
loop_
 _symmetry_equiv_pos_site_id
 _symmetry_equiv_pos_as_xyz
  1  'x, y, z'
loop_
 _atom_site_type_symbol
 _atom_site_label
 _atom_site_symmetry_multiplicity
 _atom_site_fract_x
 _atom_site_fract_y
 _atom_site_fract_z
 _atom_site_occupancy
  Ca  Ca0  1  0.296171  0.077539  0.393473  1
  Ca  Ca1  1  0.703829  0.077539  0.893473  1
  Ca  Ca2  1  0.704046  0.930134  0.609539  1
  Ca  Ca3  1  0.727610  0.739794  0.790673  1
  Ca  Ca4  1  0.295954  0.930134  0.109539  1
  Ca  Ca5  1  0.296171  0.577539  0.106527  1
  Ca  Ca6  1  0.295954  0.430134  0.390461  1
  Ca  Ca7  1  0.727610  0.239794  0.709327  1
  Ca  Ca8  1  0.703829  0.577539  0.606527  1
  Ca  Ca9  1  0.272390  0.739794  0.290673  1
  Ca  Ca10  1  0.272390  0.239794  0.209327  1
  Ca  Ca11  1  0.704046  0.430134  0.890461  1
  Al  Al12  1  0.801678  0.000308  0.251355  1
  Al  Al13  1  0.368925  0.752584  0.469581  1
  Al  Al14  1  0.801678  0.500308  0.248645  1
  Al  Al15  1  0.631075  0.252584  0.530419  1
  Al  Al16  1  0.258520  0.250847  0.835691  1
  Al  Al17  1  0.368925  0.252584  0.030419  1
  Al  Al18  1  0.198322  0.000308  0.751355  1
  Al  Al19  1  0.258520  0.750847  0.664309  1
  Al  Al20  1  0.198322  0.500308  0.748645  1
  Al  Al21  1  0.128842  0.898542  0.923181  1
  Al  Al22  1  0.871158  0.898542  0.423181  1
  Al  Al23  1  0.741480  0.750847  0.164309  1
  Al  Al24  1  0.871158  0.398542  0.076819  1
  Al  Al25  1  0.631075  0.752584  0.969581  1
  Al  Al26  1  0.128842  0.398542  0.576819  1
  Al  Al27  1  0.741480  0.250847  0.335691  1
  Zn  Zn28  1  0.856969  0.100468  0.078970  1
  Zn  Zn29  1  0.856969  0.600468  0.421030  1
  Zn  Zn30  1  0.143031  0.600468  0.921030  1
  Zn  Zn31  1  0.143031  0.100468  0.578970  1
  O  O32  1  0.468300  0.883517  0.926681  1
  O  O33  1  0.405235  0.120245  0.787671  1
  O  O34  1  0.598896  0.380629  0.286549  1
  O  O35  1  0.991322  0.001959  0.493657  1
  O  O36  1  0.008678  0.501959  0.506343  1
  O  O37  1  0.401104  0.880629  0.713451  1
  O  O38  1  0.996396  0.941382  0.329352  1
  O  O39  1  0.531700  0.883517  0.426681  1
  O  O40  1  0.594765  0.620245  0.212329  1
  O  O41  1  0.996396  0.441382  0.170648  1
  O  O42  1  0.531700  0.383517  0.073319  1
  O  O43  1  0.510698  0.122303  0.582060  1
  O  O44  1  0.003604  0.441382  0.670648  1
  O  O45  1  0.573899  0.751362  0.071756  1
  O  O46  1  0.021420  0.558292  0.319218  1
  O  O47  1  0.978580  0.058292  0.680782  1
  O  O48  1  0.489302  0.622303  0.417940  1
  O  O49  1  0.077599  0.249591  0.334458  1
  O  O50  1  0.510698  0.622303  0.917940  1
  O  O51  1  0.489302  0.122303  0.082060  1
  O  O52  1  0.957715  0.759504  0.939533  1
  O  O53  1  0.426101  0.251362  0.928244  1
  O  O54  1  0.978580  0.558292  0.819218  1
  O  O55  1  0.991322  0.501959  0.006343  1
  O  O56  1  0.426101  0.751362  0.571756  1
  O  O57  1  0.003604  0.941382  0.829352  1
  O  O58  1  0.957715  0.259504  0.560467  1
  O  O59  1  0.468300  0.383517  0.573319  1
  O  O60  1  0.573899  0.251362  0.428244  1
  O  O61  1  0.401104  0.380629  0.786549  1
  O  O62  1  0.922401  0.749591  0.665542  1
  O  O63  1  0.042285  0.259504  0.060467  1
  O  O64  1  0.922401  0.249591  0.834458  1
  O  O65  1  0.598896  0.880629  0.213451  1
  O  O66  1  0.405235  0.620245  0.712329  1
  O  O67  1  0.021420  0.058292  0.180782  1
  O  O68  1  0.042285  0.759504  0.439533  1
  O  O69  1  0.008678  0.001959  0.993657  1
  O  O70  1  0.594765  0.120245  0.287671  1
  O  O71  1  0.077599  0.749591  0.165542  1
