# generated using pymatgen
data_Pr2SiTeO4
_symmetry_space_group_name_H-M   'P 1'
_cell_length_a   8.83588150
_cell_length_b   6.52553208
_cell_length_c   10.01812445
_cell_angle_alpha   90.00000000
_cell_angle_beta   94.80317712
_cell_angle_gamma   90.00000000
_symmetry_Int_Tables_number   1
_chemical_formula_structural   Pr2SiTeO4
_chemical_formula_sum   'Pr8 Si4 Te4 O16'
_cell_volume   575.60479375
_cell_formula_units_Z   4
loop_
 _symmetry_equiv_pos_site_id
 _symmetry_equiv_pos_as_xyz
  1  'x, y, z'
loop_
 _atom_site_type_symbol
 _atom_site_label
 _atom_site_symmetry_multiplicity
 _atom_site_fract_x
 _atom_site_fract_y
 _atom_site_fract_z
 _atom_site_occupancy
  Pr  Pr0  1  0.665355  0.695339  0.152607  1
  Pr  Pr1  1  0.834645  0.195339  0.847393  1
  Pr  Pr2  1  0.334645  0.304661  0.847393  1
  Pr  Pr3  1  0.165355  0.804661  0.152607  1
  Pr  Pr4  1  0.805967  0.152099  0.394906  1
  Pr  Pr5  1  0.694033  0.652099  0.605094  1
  Pr  Pr6  1  0.194033  0.847901  0.605094  1
  Pr  Pr7  1  0.305967  0.347901  0.394906  1
  Si  Si8  1  0.943462  0.690266  0.373837  1
  Si  Si9  1  0.556538  0.190266  0.626163  1
  Si  Si10  1  0.056538  0.309734  0.626163  1
  Si  Si11  1  0.443462  0.809734  0.373837  1
  Te  Te12  1  0.615778  0.212889  0.093893  1
  Te  Te13  1  0.884222  0.712889  0.906107  1
  Te  Te14  1  0.384222  0.787111  0.906107  1
  Te  Te15  1  0.115778  0.287111  0.093893  1
  O  O16  1  0.578361  0.306476  0.482852  1
  O  O17  1  0.921639  0.806476  0.517148  1
  O  O18  1  0.421639  0.693524  0.517148  1
  O  O19  1  0.078361  0.193524  0.482852  1
  O  O20  1  0.623853  0.866725  0.373873  1
  O  O21  1  0.876147  0.366725  0.626127  1
  O  O22  1  0.376147  0.133275  0.626127  1
  O  O23  1  0.123853  0.633275  0.373873  1
  O  O24  1  0.817175  0.510322  0.344428  1
  O  O25  1  0.682825  0.010322  0.655572  1
  O  O26  1  0.182825  0.489678  0.655572  1
  O  O27  1  0.317175  0.989678  0.344428  1
  O  O28  1  0.909830  0.858723  0.250972  1
  O  O29  1  0.590170  0.358723  0.749028  1
  O  O30  1  0.090170  0.141277  0.749028  1
  O  O31  1  0.409830  0.641277  0.250972  1
