# generated using pymatgen
data_SrMn(SeO3)2
_symmetry_space_group_name_H-M   'P 1'
_cell_length_a   4.50411112
_cell_length_b   15.09303399
_cell_length_c   10.47096444
_cell_angle_alpha   90.00000000
_cell_angle_beta   111.29475133
_cell_angle_gamma   90.00000000
_symmetry_Int_Tables_number   1
_chemical_formula_structural   SrMn(SeO3)2
_chemical_formula_sum   'Sr4 Mn4 Se8 O24'
_cell_volume   663.22340863
_cell_formula_units_Z   4
loop_
 _symmetry_equiv_pos_site_id
 _symmetry_equiv_pos_as_xyz
  1  'x, y, z'
loop_
 _atom_site_type_symbol
 _atom_site_label
 _atom_site_symmetry_multiplicity
 _atom_site_fract_x
 _atom_site_fract_y
 _atom_site_fract_z
 _atom_site_occupancy
  Sr  Sr0  1  0.707308  0.883326  0.464998  1
  Sr  Sr1  1  0.292692  0.383326  0.035002  1
  Sr  Sr2  1  0.292692  0.116674  0.535002  1
  Sr  Sr3  1  0.707308  0.616674  0.964998  1
  Mn  Mn4  1  0.485143  0.347058  0.708791  1
  Mn  Mn5  1  0.514857  0.652942  0.291209  1
  Mn  Mn6  1  0.485143  0.152942  0.208791  1
  Mn  Mn7  1  0.514857  0.847058  0.791209  1
  Se  Se8  1  0.356804  0.799001  0.077824  1
  Se  Se9  1  0.643196  0.200999  0.922176  1
  Se  Se10  1  0.956144  0.499837  0.719345  1
  Se  Se11  1  0.956144  0.000163  0.219345  1
  Se  Se12  1  0.356804  0.700999  0.577824  1
  Se  Se13  1  0.643196  0.299001  0.422176  1
  Se  Se14  1  0.043856  0.500163  0.280655  1
  Se  Se15  1  0.043856  0.999837  0.780655  1
  O  O16  1  0.370739  0.300212  0.503648  1
  O  O17  1  0.428937  0.990035  0.784701  1
  O  O18  1  0.726954  0.314831  0.933240  1
  O  O19  1  0.571063  0.490035  0.715299  1
  O  O20  1  0.037524  0.114511  0.229705  1
  O  O21  1  0.410181  0.296062  0.249722  1
  O  O22  1  0.273046  0.685169  0.066760  1
  O  O23  1  0.589819  0.703938  0.750278  1
  O  O24  1  0.153119  0.968267  0.388202  1
  O  O25  1  0.846881  0.468267  0.111798  1
  O  O26  1  0.410181  0.203938  0.749722  1
  O  O27  1  0.153119  0.531733  0.888202  1
  O  O28  1  0.846881  0.031733  0.611798  1
  O  O29  1  0.629261  0.699788  0.496352  1
  O  O30  1  0.370739  0.199788  0.003648  1
  O  O31  1  0.571063  0.009965  0.215299  1
  O  O32  1  0.962476  0.885489  0.770295  1
  O  O33  1  0.962476  0.614511  0.270295  1
  O  O34  1  0.629261  0.800212  0.996352  1
  O  O35  1  0.589819  0.796062  0.250278  1
  O  O36  1  0.037524  0.385489  0.729705  1
  O  O37  1  0.273046  0.814831  0.566760  1
  O  O38  1  0.726954  0.185169  0.433240  1
  O  O39  1  0.428937  0.509965  0.284701  1
