# generated using pymatgen
data_Sr10P6BrO24F
_symmetry_space_group_name_H-M   'P 1'
_cell_length_a   9.97497477
_cell_length_b   7.31866791
_cell_length_c   19.94409593
_cell_angle_alpha   90.00000000
_cell_angle_beta   120.01081631
_cell_angle_gamma   90.00000000
_symmetry_Int_Tables_number   1
_chemical_formula_structural   Sr10P6BrO24F
_chemical_formula_sum   'Sr20 P12 Br2 O48 F2'
_cell_volume   1260.78632061
_cell_formula_units_Z   2
loop_
 _symmetry_equiv_pos_site_id
 _symmetry_equiv_pos_as_xyz
  1  'x, y, z'
loop_
 _atom_site_type_symbol
 _atom_site_label
 _atom_site_symmetry_multiplicity
 _atom_site_fract_x
 _atom_site_fract_y
 _atom_site_fract_z
 _atom_site_occupancy
  Sr  Sr0  1  0.737391  0.750000  0.995872  1
  Sr  Sr1  1  0.239138  0.750000  0.623805  1
  Sr  Sr2  1  0.330896  0.999825  0.832296  1
  Sr  Sr3  1  0.330896  0.500175  0.832296  1
  Sr  Sr4  1  0.989187  0.250000  0.619259  1
  Sr  Sr5  1  0.747487  0.750000  0.495536  1
  Sr  Sr6  1  0.005157  0.750000  0.869739  1
  Sr  Sr7  1  0.259296  0.750000  0.133791  1
  Sr  Sr8  1  0.663902  0.499804  0.665455  1
  Sr  Sr9  1  0.336098  0.999804  0.334545  1
  Sr  Sr10  1  0.336098  0.500196  0.334545  1
  Sr  Sr11  1  0.663902  0.000196  0.665455  1
  Sr  Sr12  1  0.740704  0.250000  0.866209  1
  Sr  Sr13  1  0.994843  0.250000  0.130261  1
  Sr  Sr14  1  0.252513  0.250000  0.504464  1
  Sr  Sr15  1  0.010813  0.750000  0.380741  1
  Sr  Sr16  1  0.669104  0.499825  0.167704  1
  Sr  Sr17  1  0.669104  0.000175  0.167704  1
  Sr  Sr18  1  0.760862  0.250000  0.376195  1
  Sr  Sr19  1  0.262609  0.250000  0.004128  1
  P  P20  1  0.592659  0.250000  0.981792  1
  P  P21  1  0.365108  0.250000  0.697841  1
  P  P22  1  0.967890  0.750000  0.682445  1
  P  P23  1  0.033407  0.250000  0.812096  1
  P  P24  1  0.601008  0.250000  0.485153  1
  P  P25  1  0.375449  0.250000  0.205364  1
  P  P26  1  0.624551  0.750000  0.794636  1
  P  P27  1  0.398992  0.750000  0.514847  1
  P  P28  1  0.966593  0.750000  0.187904  1
  P  P29  1  0.032110  0.250000  0.317555  1
  P  P30  1  0.634892  0.750000  0.302159  1
  P  P31  1  0.407341  0.750000  0.018208  1
  Br  Br32  1  0.000000  0.000000  0.000000  1
  Br  Br33  1  0.000000  0.500000  0.000000  1
  O  O34  1  0.642061  0.422582  0.954113  1
  O  O35  1  0.642061  0.077418  0.954113  1
  O  O36  1  0.519258  0.750000  0.831711  1
  O  O37  1  0.455331  0.250000  0.788436  1
  O  O38  1  0.259595  0.421924  0.669645  1
  O  O39  1  0.259595  0.078076  0.669645  1
  O  O40  1  0.411712  0.250000  0.938536  1
  O  O41  1  0.337868  0.750000  0.928732  1
  O  O42  1  0.145446  0.750000  0.740712  1
  O  O43  1  0.116486  0.250000  0.763355  1
  O  O44  1  0.918553  0.921547  0.629454  1
  O  O45  1  0.918553  0.578453  0.629454  1
  O  O46  1  0.089625  0.422871  0.864604  1
  O  O47  1  0.089625  0.077129  0.864604  1
  O  O48  1  0.656680  0.078254  0.459781  1
  O  O49  1  0.656680  0.421746  0.459781  1
  O  O50  1  0.518871  0.750000  0.333021  1
  O  O51  1  0.876194  0.750000  0.727163  1
  O  O52  1  0.472727  0.250000  0.295602  1
  O  O53  1  0.853922  0.250000  0.759450  1
  O  O54  1  0.269847  0.077618  0.180910  1
  O  O55  1  0.269847  0.422382  0.180910  1
  O  O56  1  0.667383  0.250000  0.574374  1
  O  O57  1  0.420168  0.250000  0.441205  1
  O  O58  1  0.579832  0.750000  0.558795  1
  O  O59  1  0.332617  0.750000  0.425626  1
  O  O60  1  0.730153  0.922382  0.819090  1
  O  O61  1  0.730153  0.577618  0.819090  1
  O  O62  1  0.146078  0.750000  0.240550  1
  O  O63  1  0.527273  0.750000  0.704398  1
  O  O64  1  0.123806  0.250000  0.272837  1
  O  O65  1  0.481129  0.250000  0.666979  1
  O  O66  1  0.343320  0.921746  0.540219  1
  O  O67  1  0.343320  0.578254  0.540219  1
  O  O68  1  0.910375  0.922871  0.135396  1
  O  O69  1  0.910375  0.577129  0.135396  1
  O  O70  1  0.081447  0.078453  0.370546  1
  O  O71  1  0.081447  0.421547  0.370546  1
  O  O72  1  0.883514  0.750000  0.236645  1
  O  O73  1  0.854554  0.250000  0.259288  1
  O  O74  1  0.662132  0.250000  0.071268  1
  O  O75  1  0.588288  0.750000  0.061464  1
  O  O76  1  0.740405  0.921924  0.330355  1
  O  O77  1  0.740405  0.578076  0.330355  1
  O  O78  1  0.544669  0.750000  0.211564  1
  O  O79  1  0.480742  0.250000  0.168289  1
  O  O80  1  0.357939  0.577418  0.045887  1
  O  O81  1  0.357939  0.922582  0.045887  1
  F  F82  1  0.997381  0.750000  0.499822  1
  F  F83  1  0.002619  0.250000  0.500178  1
