# generated using pymatgen
data_KPO3
_symmetry_space_group_name_H-M   'P 1'
_cell_length_a   7.49784000
_cell_length_b   12.18313327
_cell_length_c   12.14350176
_cell_angle_alpha   90.00000000
_cell_angle_beta   114.94942406
_cell_angle_gamma   90.00000000
_symmetry_Int_Tables_number   1
_chemical_formula_structural   KPO3
_chemical_formula_sum   'K12 P12 O36'
_cell_volume   1005.75771364
_cell_formula_units_Z   12
loop_
 _symmetry_equiv_pos_site_id
 _symmetry_equiv_pos_as_xyz
  1  'x, y, z'
loop_
 _atom_site_type_symbol
 _atom_site_label
 _atom_site_symmetry_multiplicity
 _atom_site_fract_x
 _atom_site_fract_y
 _atom_site_fract_z
 _atom_site_occupancy
  K  K0  1  0.698457  0.756268  0.601096  1
  K  K1  1  0.231431  0.581345  0.378607  1
  K  K2  1  0.922488  0.358780  0.080551  1
  K  K3  1  0.231431  0.918655  0.878607  1
  K  K4  1  0.077512  0.641220  0.919449  1
  K  K5  1  0.922488  0.141220  0.580551  1
  K  K6  1  0.768569  0.081345  0.121393  1
  K  K7  1  0.301543  0.243732  0.398904  1
  K  K8  1  0.301543  0.256268  0.898904  1
  K  K9  1  0.768569  0.418655  0.621393  1
  K  K10  1  0.698457  0.743732  0.101096  1
  K  K11  1  0.077512  0.858780  0.419449  1
  P  P12  1  0.607486  0.554667  0.835363  1
  P  P13  1  0.281832  0.429986  0.654358  1
  P  P14  1  0.392514  0.445333  0.164637  1
  P  P15  1  0.747907  0.328750  0.324164  1
  P  P16  1  0.607486  0.945333  0.335363  1
  P  P17  1  0.392514  0.054667  0.664637  1
  P  P18  1  0.718168  0.929986  0.845642  1
  P  P19  1  0.718168  0.570014  0.345642  1
  P  P20  1  0.252093  0.828750  0.175836  1
  P  P21  1  0.281832  0.070014  0.154358  1
  P  P22  1  0.747907  0.171250  0.824164  1
  P  P23  1  0.252093  0.671250  0.675836  1
  O  O24  1  0.718574  0.572064  0.758836  1
  O  O25  1  0.108270  0.762461  0.204057  1
  O  O26  1  0.151846  0.342068  0.666232  1
  O  O27  1  0.317845  0.790180  0.081540  1
  O  O28  1  0.279260  0.451837  0.029625  1
  O  O29  1  0.848154  0.657932  0.333768  1
  O  O30  1  0.720740  0.951837  0.470375  1
  O  O31  1  0.108270  0.737539  0.704057  1
  O  O32  1  0.682155  0.290180  0.418460  1
  O  O33  1  0.891730  0.237539  0.795943  1
  O  O34  1  0.559273  0.150799  0.693188  1
  O  O35  1  0.720740  0.548163  0.970375  1
  O  O36  1  0.357552  0.077455  0.058430  1
  O  O37  1  0.559273  0.349201  0.193188  1
  O  O38  1  0.440727  0.650799  0.806812  1
  O  O39  1  0.281426  0.427936  0.241164  1
  O  O40  1  0.317845  0.709820  0.581540  1
  O  O41  1  0.718574  0.927936  0.258836  1
  O  O42  1  0.533456  0.554064  0.211277  1
  O  O43  1  0.163626  0.953627  0.143095  1
  O  O44  1  0.642448  0.577455  0.441570  1
  O  O45  1  0.466544  0.054064  0.288723  1
  O  O46  1  0.163626  0.546373  0.643095  1
  O  O47  1  0.440727  0.849201  0.306812  1
  O  O48  1  0.836374  0.046373  0.856905  1
  O  O49  1  0.642448  0.922545  0.941570  1
  O  O50  1  0.533456  0.945936  0.711277  1
  O  O51  1  0.466544  0.445936  0.788723  1
  O  O52  1  0.279260  0.048163  0.529625  1
  O  O53  1  0.848154  0.842068  0.833768  1
  O  O54  1  0.281426  0.072064  0.741164  1
  O  O55  1  0.891730  0.262461  0.295943  1
  O  O56  1  0.151846  0.157932  0.166232  1
  O  O57  1  0.357552  0.422545  0.558430  1
  O  O58  1  0.836374  0.453627  0.356905  1
  O  O59  1  0.682155  0.209820  0.918460  1
