# generated using pymatgen
data_MgP2H20C4(N2O3)4
_symmetry_space_group_name_H-M   'P 1'
_cell_length_a   5.42271228
_cell_length_b   21.79658428
_cell_length_c   9.07555395
_cell_angle_alpha   90.00000000
_cell_angle_beta   125.42496626
_cell_angle_gamma   90.00000000
_symmetry_Int_Tables_number   1
_chemical_formula_structural   MgP2H20C4(N2O3)4
_chemical_formula_sum   'Mg2 P4 H40 C8 N16 O24'
_cell_volume   874.11646353
_cell_formula_units_Z   2
loop_
 _symmetry_equiv_pos_site_id
 _symmetry_equiv_pos_as_xyz
  1  'x, y, z'
loop_
 _atom_site_type_symbol
 _atom_site_label
 _atom_site_symmetry_multiplicity
 _atom_site_fract_x
 _atom_site_fract_y
 _atom_site_fract_z
 _atom_site_occupancy
  Mg  Mg0  1  0.000000  0.000000  0.000000  1
  Mg  Mg1  1  0.000000  0.500000  0.500000  1
  P  P2  1  0.595021  0.915940  0.104157  1
  P  P3  1  0.404979  0.415940  0.395843  1
  P  P4  1  0.404979  0.084060  0.895843  1
  P  P5  1  0.595021  0.584060  0.604157  1
  H  H6  1  0.639569  0.827103  0.235577  1
  H  H7  1  0.360431  0.327103  0.264423  1
  H  H8  1  0.360431  0.172897  0.764423  1
  H  H9  1  0.639569  0.672897  0.735577  1
  H  H10  1  0.529016  0.905583  0.845021  1
  H  H11  1  0.470984  0.405583  0.654979  1
  H  H12  1  0.470984  0.094417  0.154979  1
  H  H13  1  0.529016  0.594417  0.345021  1
  H  H14  1  0.952122  0.988718  0.654038  1
  H  H15  1  0.047878  0.488718  0.845962  1
  H  H16  1  0.047878  0.011282  0.345962  1
  H  H17  1  0.952122  0.511282  0.154038  1
  H  H18  1  0.709067  0.955950  0.432892  1
  H  H19  1  0.290933  0.455950  0.067108  1
  H  H20  1  0.290933  0.044050  0.567108  1
  H  H21  1  0.709067  0.544050  0.932892  1
  H  H22  1  0.353924  0.886409  0.376856  1
  H  H23  1  0.646076  0.386409  0.123144  1
  H  H24  1  0.646076  0.113591  0.623144  1
  H  H25  1  0.353924  0.613591  0.876856  1
  H  H26  1  0.293422  0.868456  0.537347  1
  H  H27  1  0.706578  0.368456  0.962653  1
  H  H28  1  0.706578  0.131544  0.462653  1
  H  H29  1  0.293422  0.631544  0.037347  1
  H  H30  1  0.070641  0.843930  0.999169  1
  H  H31  1  0.929359  0.343930  0.500831  1
  H  H32  1  0.929359  0.156070  0.000831  1
  H  H33  1  0.070641  0.656070  0.499169  1
  H  H34  1  0.785258  0.787535  0.897793  1
  H  H35  1  0.214742  0.287535  0.602207  1
  H  H36  1  0.214742  0.212465  0.102207  1
  H  H37  1  0.785258  0.712465  0.397793  1
  H  H38  1  0.830030  0.702208  0.048622  1
  H  H39  1  0.169970  0.202208  0.451378  1
  H  H40  1  0.169970  0.297792  0.951378  1
  H  H41  1  0.830030  0.797792  0.548622  1
  H  H42  1  0.176220  0.681310  0.247830  1
  H  H43  1  0.823780  0.181310  0.252170  1
  H  H44  1  0.823780  0.318690  0.752170  1
  H  H45  1  0.176220  0.818690  0.747830  1
  C  C46  1  0.653778  0.925724  0.624218  1
  C  C47  1  0.346222  0.425724  0.875782  1
  C  C48  1  0.346222  0.074276  0.375782  1
  C  C49  1  0.653778  0.574276  0.124218  1
  C  C50  1  0.183068  0.762006  0.134024  1
  C  C51  1  0.816932  0.262006  0.365976  1
  C  C52  1  0.816932  0.237994  0.865976  1
  C  C53  1  0.183068  0.737994  0.634024  1
  N  N54  1  0.798311  0.956280  0.567215  1
  N  N55  1  0.201689  0.456280  0.932785  1
  N  N56  1  0.201689  0.043720  0.432785  1
  N  N57  1  0.798311  0.543720  0.067215  1
  N  N58  1  0.439434  0.884503  0.510531  1
  N  N59  1  0.560566  0.384503  0.989469  1
  N  N60  1  0.560566  0.115497  0.489469  1
  N  N61  1  0.439434  0.615497  0.010531  1
  N  N62  1  0.006320  0.799546  0.991321  1
  N  N63  1  0.993680  0.299546  0.508679  1
  N  N64  1  0.993680  0.200454  0.008679  1
  N  N65  1  0.006320  0.700454  0.491321  1
  N  N66  1  0.057687  0.708403  0.135524  1
  N  N67  1  0.942313  0.208403  0.364476  1
  N  N68  1  0.942313  0.291597  0.864476  1
  N  N69  1  0.057687  0.791597  0.635524  1
  O  O70  1  0.829436  0.962822  0.137393  1
  O  O71  1  0.170564  0.462822  0.362607  1
  O  O72  1  0.170564  0.037178  0.862607  1
  O  O73  1  0.829436  0.537178  0.637393  1
  O  O74  1  0.358298  0.936102  0.134425  1
  O  O75  1  0.641702  0.436102  0.365575  1
  O  O76  1  0.641702  0.063898  0.865575  1
  O  O77  1  0.358298  0.563898  0.634425  1
  O  O78  1  0.774818  0.859308  0.234449  1
  O  O79  1  0.225182  0.359308  0.265551  1
  O  O80  1  0.225182  0.140692  0.765551  1
  O  O81  1  0.774818  0.640692  0.734449  1
  O  O82  1  0.423162  0.890427  0.901569  1
  O  O83  1  0.576838  0.390427  0.598431  1
  O  O84  1  0.576838  0.109573  0.098431  1
  O  O85  1  0.423162  0.609573  0.401569  1
  O  O86  1  0.725578  0.933330  0.784930  1
  O  O87  1  0.274422  0.433330  0.715070  1
  O  O88  1  0.274422  0.066670  0.215070  1
  O  O89  1  0.725578  0.566670  0.284930  1
  O  O90  1  0.457751  0.774594  0.258430  1
  O  O91  1  0.542249  0.274594  0.241570  1
  O  O92  1  0.542249  0.225406  0.741570  1
  O  O93  1  0.457751  0.725406  0.758430  1
