# generated using pymatgen
data_Na3B5Se9
_symmetry_space_group_name_H-M   'P 1'
_cell_length_a   17.78339959
_cell_length_b   17.78339959
_cell_length_c   17.78339959
_cell_angle_alpha   128.71285206
_cell_angle_beta   128.71285206
_cell_angle_gamma   75.47304771
_symmetry_Int_Tables_number   1
_chemical_formula_structural   Na3B5Se9
_chemical_formula_sum   'Na24 B40 Se72'
_cell_volume   3332.01304688
_cell_formula_units_Z   8
loop_
 _symmetry_equiv_pos_site_id
 _symmetry_equiv_pos_as_xyz
  1  'x, y, z'
loop_
 _atom_site_type_symbol
 _atom_site_label
 _atom_site_symmetry_multiplicity
 _atom_site_fract_x
 _atom_site_fract_y
 _atom_site_fract_z
 _atom_site_occupancy
  Na  Na0  1  0.039948  0.460052  0.000000  1
  Na  Na1  1  0.210052  0.710052  0.920105  1
  Na  Na2  1  0.960052  0.960052  0.420105  1
  Na  Na3  1  0.289948  0.210052  0.500000  1
  Na  Na4  1  0.875000  0.125000  0.250000  1
  Na  Na5  1  0.375000  0.125000  0.750000  1
  Na  Na6  1  0.125000  0.299117  0.674117  1
  Na  Na7  1  0.875000  0.125000  0.750000  1
  Na  Na8  1  0.375000  0.125000  0.250000  1
  Na  Na9  1  0.625000  0.450883  0.325883  1
  Na  Na10  1  0.460052  0.039948  1.000000  1
  Na  Na11  1  0.200883  0.375000  0.325883  1
  Na  Na12  1  0.700883  0.375000  0.825883  1
  Na  Na13  1  0.789948  0.289948  0.079895  1
  Na  Na14  1  0.875000  0.625000  0.750000  1
  Na  Na15  1  0.375000  0.625000  0.250000  1
  Na  Na16  1  0.539948  0.539948  0.579895  1
  Na  Na17  1  0.710052  0.789948  0.500000  1
  Na  Na18  1  0.125000  0.799117  0.174117  1
  Na  Na19  1  0.875000  0.625000  0.250000  1
  Na  Na20  1  0.375000  0.625000  0.750000  1
  Na  Na21  1  0.625000  0.950883  0.825883  1
  Na  Na22  1  0.049117  0.875000  0.674117  1
  Na  Na23  1  0.549117  0.875000  0.174117  1
  B  B24  1  0.900941  0.228070  0.630625  1
  B  B25  1  0.834108  0.334108  0.500000  1
  B  B26  1  0.999697  0.459360  0.794073  1
  B  B27  1  0.349059  0.479684  0.827129  1
  B  B28  1  0.415892  0.415892  0.000000  1
  B  B29  1  0.097445  0.728070  0.327129  1
  B  B30  1  0.250303  0.544376  0.959663  1
  B  B31  1  0.165287  0.959360  0.459663  1
  B  B32  1  0.040640  0.500303  0.205927  1
  B  B33  1  0.271930  0.599059  0.369375  1
  B  B34  1  0.209360  0.915287  0.959663  1
  B  B35  1  0.978070  0.847445  0.827129  1
  B  B36  1  0.794376  0.000303  0.459663  1
  B  B37  1  0.729684  0.099059  0.327129  1
  B  B38  1  0.455624  0.415287  0.705927  1
  B  B39  1  0.520316  0.347445  0.869375  1
  B  B40  1  0.665287  0.205624  0.205927  1
  B  B41  1  0.165892  0.665892  0.500000  1
  B  B42  1  0.152555  0.979684  0.130625  1
  B  B43  1  0.084108  0.084108  0.000000  1
  B  B44  1  0.665892  0.165892  0.500000  1
  B  B45  1  0.597445  0.270316  0.369375  1
  B  B46  1  0.584108  0.584108  0.000000  1
  B  B47  1  0.084713  0.044376  0.294073  1
  B  B48  1  0.229684  0.902555  0.630625  1
  B  B49  1  0.294376  0.834713  0.794073  1
  B  B50  1  0.020316  0.150941  0.172871  1
  B  B51  1  0.955624  0.249697  0.040337  1
  B  B52  1  0.771930  0.402555  0.672871  1
  B  B53  1  0.540640  0.334713  0.540337  1
  B  B54  1  0.478070  0.650941  0.130625  1
  B  B55  1  0.709360  0.749697  0.294073  1
  B  B56  1  0.584713  0.290640  0.040337  1
  B  B57  1  0.499697  0.705624  0.540337  1
  B  B58  1  0.652555  0.521930  0.172871  1
  B  B59  1  0.334108  0.834108  0.500000  1
  B  B60  1  0.400941  0.770316  0.672871  1
  B  B61  1  0.750303  0.790640  0.705927  1
  B  B62  1  0.915892  0.915892  0.000000  1
  B  B63  1  0.849059  0.021930  0.869375  1
  Se  Se64  1  0.861886  0.203662  0.478101  1
  Se  Se65  1  0.032566  0.331943  0.782091  1
  Se  Se66  1  0.960330  0.443839  0.647456  1
  Se  Se67  1  0.898457  0.512322  0.830580  1
  Se  Se68  1  0.388114  0.366214  0.841776  1
  Se  Se69  1  0.225561  0.703662  0.341776  1
  Se  Se70  1  0.217434  0.499525  0.799376  1
  Se  Se71  1  0.289670  0.437126  0.983509  1
  Se  Se72  1  0.049851  0.831943  0.299376  1
  Se  Se73  1  0.296383  0.943839  0.483509  1
  Se  Se74  1  0.125000  0.579369  0.954369  1
  Se  Se75  1  0.920631  0.375000  0.045631  1
  Se  Se76  1  0.168057  0.467434  0.217909  1
  Se  Se77  1  0.351543  0.682123  0.113865  1
  Se  Se78  1  0.081943  0.799851  0.799376  1
  Se  Se79  1  0.181742  0.012322  0.613865  1
  Se  Se80  1  0.749525  0.967434  0.299376  1
  Se  Se81  1  0.681742  0.067877  0.169420  1
  Se  Se82  1  0.500475  0.299851  0.717909  1
  Se  Se83  1  0.420631  0.375000  0.545631  1
  Se  Se84  1  0.625000  0.170631  0.045631  1
  Se  Se85  1  0.987678  0.601543  0.169420  1
  Se  Se86  1  0.056161  0.539670  0.352544  1
  Se  Se87  1  0.296338  0.638114  0.521899  1
  Se  Se88  1  0.262322  0.931742  0.113865  1
  Se  Se89  1  0.024439  0.866214  0.978101  1
  Se  Se90  1  0.932123  0.101543  0.613865  1
  Se  Se91  1  0.687126  0.039670  0.483509  1
  Se  Se92  1  0.193839  0.046383  0.983509  1
  Se  Se93  1  0.953662  0.975561  0.841776  1
  Se  Se94  1  0.616214  0.138114  0.341776  1
  Se  Se95  1  0.317877  0.431742  0.669420  1
  Se  Se96  1  0.796383  0.312874  0.352544  1
  Se  Se97  1  0.549851  0.250475  0.217909  1
  Se  Se98  1  0.562874  0.546383  0.852544  1
  Se  Se99  1  0.633786  0.475561  0.021899  1
  Se  Se100  1  0.116214  0.774439  0.478101  1
  Se  Se101  1  0.187126  0.703617  0.647456  1
  Se  Se102  1  0.200149  0.999525  0.282091  1
  Se  Se103  1  0.953617  0.937126  0.147456  1
  Se  Se104  1  0.432123  0.818258  0.830580  1
  Se  Se105  1  0.133786  0.111886  0.158224  1
  Se  Se106  1  0.796338  0.274439  0.658224  1
  Se  Se107  1  0.556161  0.203617  0.516491  1
  Se  Se108  1  0.062874  0.210330  0.016491  1
  Se  Se109  1  0.817877  0.148457  0.886135  1
  Se  Se110  1  0.725561  0.383786  0.521899  1
  Se  Se111  1  0.487678  0.318258  0.386135  1
  Se  Se112  1  0.453662  0.611886  0.978101  1
  Se  Se113  1  0.693839  0.710330  0.147456  1
  Se  Se114  1  0.762322  0.648457  0.330580  1
  Se  Se115  1  0.125000  0.079369  0.454369  1
  Se  Se116  1  0.329369  0.875000  0.954369  1
  Se  Se117  1  0.249525  0.950149  0.782091  1
  Se  Se118  1  0.068258  0.182123  0.330580  1
  Se  Se119  1  0.000475  0.282566  0.200624  1
  Se  Se120  1  0.568258  0.237678  0.886135  1
  Se  Se121  1  0.668057  0.450149  0.700624  1
  Se  Se122  1  0.398457  0.567877  0.386135  1
  Se  Se123  1  0.581943  0.782566  0.282091  1
  Se  Se124  1  0.829369  0.875000  0.454369  1
  Se  Se125  1  0.625000  0.670631  0.545631  1
  Se  Se126  1  0.453617  0.306161  0.016491  1
  Se  Se127  1  0.700149  0.418057  0.200624  1
  Se  Se128  1  0.460330  0.812874  0.516491  1
  Se  Se129  1  0.532566  0.750475  0.700624  1
  Se  Se130  1  0.524439  0.546338  0.158224  1
  Se  Se131  1  0.361886  0.883786  0.658224  1
  Se  Se132  1  0.851543  0.737678  0.669420  1
  Se  Se133  1  0.789670  0.806161  0.852544  1
  Se  Se134  1  0.717434  0.918057  0.717909  1
  Se  Se135  1  0.888114  0.046338  0.021899  1
