# generated using pymatgen
data_As4S3
_symmetry_space_group_name_H-M   'P 1'
_cell_length_a   7.07680393
_cell_length_b   10.78810056
_cell_length_c   12.12424387
_cell_angle_alpha   90.00000000
_cell_angle_beta   90.00000000
_cell_angle_gamma   90.00000000
_symmetry_Int_Tables_number   1
_chemical_formula_structural   As4S3
_chemical_formula_sum   'As16 S12'
_cell_volume   925.62870139
_cell_formula_units_Z   4
loop_
 _symmetry_equiv_pos_site_id
 _symmetry_equiv_pos_as_xyz
  1  'x, y, z'
loop_
 _atom_site_type_symbol
 _atom_site_label
 _atom_site_symmetry_multiplicity
 _atom_site_fract_x
 _atom_site_fract_y
 _atom_site_fract_z
 _atom_site_occupancy
  As  As0  1  0.660453  0.750000  0.179577  1
  As  As1  1  0.839547  0.750000  0.679577  1
  As  As2  1  0.339547  0.250000  0.820423  1
  As  As3  1  0.160453  0.250000  0.320423  1
  As  As4  1  0.399361  0.750000  0.925387  1
  As  As5  1  0.100639  0.750000  0.425387  1
  As  As6  1  0.600639  0.250000  0.074613  1
  As  As7  1  0.899361  0.250000  0.574613  1
  As  As8  1  0.223701  0.867330  0.072439  1
  As  As9  1  0.276299  0.632670  0.572439  1
  As  As10  1  0.776299  0.367330  0.927561  1
  As  As11  1  0.723701  0.132670  0.427561  1
  As  As12  1  0.776299  0.132670  0.927561  1
  As  As13  1  0.723701  0.367330  0.427561  1
  As  As14  1  0.223701  0.632670  0.072439  1
  As  As15  1  0.276299  0.867330  0.572439  1
  S  S16  1  0.452225  0.908455  0.193824  1
  S  S17  1  0.047775  0.591545  0.693824  1
  S  S18  1  0.547775  0.408455  0.806176  1
  S  S19  1  0.952225  0.091545  0.306176  1
  S  S20  1  0.547775  0.091545  0.806176  1
  S  S21  1  0.952225  0.408455  0.306176  1
  S  S22  1  0.452225  0.591545  0.193824  1
  S  S23  1  0.047775  0.908455  0.693824  1
  S  S24  1  0.692738  0.750000  0.993538  1
  S  S25  1  0.807262  0.750000  0.493538  1
  S  S26  1  0.307262  0.250000  0.006462  1
  S  S27  1  0.192738  0.250000  0.506462  1
