# generated using pymatgen
data_CsNaTe
_symmetry_space_group_name_H-M   'P 1'
_cell_length_a   5.36076678
_cell_length_b   5.36076678
_cell_length_c   8.67694924
_cell_angle_alpha   90.00000000
_cell_angle_beta   90.00000000
_cell_angle_gamma   90.00000000
_symmetry_Int_Tables_number   1
_chemical_formula_structural   CsNaTe
_chemical_formula_sum   'Cs2 Na2 Te2'
_cell_volume   249.35660948
_cell_formula_units_Z   2
loop_
 _symmetry_equiv_pos_site_id
 _symmetry_equiv_pos_as_xyz
  1  'x, y, z'
loop_
 _atom_site_type_symbol
 _atom_site_label
 _atom_site_symmetry_multiplicity
 _atom_site_fract_x
 _atom_site_fract_y
 _atom_site_fract_z
 _atom_site_occupancy
  Cs  Cs0  1  0.500000  0.000000  0.657867  1
  Cs  Cs1  1  0.000000  0.500000  0.342133  1
  Na  Na2  1  0.500000  0.500000  0.000000  1
  Na  Na3  1  0.000000  0.000000  0.000000  1
  Te  Te4  1  0.500000  0.000000  0.200372  1
  Te  Te5  1  0.000000  0.500000  0.799628  1
