# generated using pymatgen
data_CdBr2
_symmetry_space_group_name_H-M   'P 1'
_cell_length_a   7.24640222
_cell_length_b   7.24640222
_cell_length_c   7.24640222
_cell_angle_alpha   32.67990125
_cell_angle_beta   32.67990125
_cell_angle_gamma   32.67990125
_symmetry_Int_Tables_number   1
_chemical_formula_structural   CdBr2
_chemical_formula_sum   'Cd1 Br2'
_cell_volume   98.67117723
_cell_formula_units_Z   1
loop_
 _symmetry_equiv_pos_site_id
 _symmetry_equiv_pos_as_xyz
  1  'x, y, z'
loop_
 _atom_site_type_symbol
 _atom_site_label
 _atom_site_symmetry_multiplicity
 _atom_site_fract_x
 _atom_site_fract_y
 _atom_site_fract_z
 _atom_site_occupancy
  Cd  Cd0  1  0.000000  0.000000  0.000000  1
  Br  Br1  1  0.257148  0.257148  0.257148  1
  Br  Br2  1  0.742852  0.742852  0.742852  1
