# generated using pymatgen
data_MoPO5
_symmetry_space_group_name_H-M   'P 1'
_cell_length_a   6.28262811
_cell_length_b   6.28262811
_cell_length_c   4.63142585
_cell_angle_alpha   90.00000000
_cell_angle_beta   90.00000000
_cell_angle_gamma   90.00000000
_symmetry_Int_Tables_number   1
_chemical_formula_structural   MoPO5
_chemical_formula_sum   'Mo2 P2 O10'
_cell_volume   182.80893625
_cell_formula_units_Z   2
loop_
 _symmetry_equiv_pos_site_id
 _symmetry_equiv_pos_as_xyz
  1  'x, y, z'
loop_
 _atom_site_type_symbol
 _atom_site_label
 _atom_site_symmetry_multiplicity
 _atom_site_fract_x
 _atom_site_fract_y
 _atom_site_fract_z
 _atom_site_occupancy
  Mo  Mo0  1  0.500000  0.000000  0.791070  1
  Mo  Mo1  1  0.000000  0.500000  0.208930  1
  P  P2  1  0.000000  0.000000  0.500000  1
  P  P3  1  0.500000  0.500000  0.500000  1
  O  O4  1  0.192274  0.054056  0.693615  1
  O  O5  1  0.554056  0.307726  0.693615  1
  O  O6  1  0.445944  0.692274  0.693615  1
  O  O7  1  0.807726  0.945944  0.693615  1
  O  O8  1  0.000000  0.500000  0.840936  1
  O  O9  1  0.500000  0.000000  0.159064  1
  O  O10  1  0.692274  0.554056  0.306385  1
  O  O11  1  0.054056  0.807726  0.306385  1
  O  O12  1  0.945944  0.192274  0.306385  1
  O  O13  1  0.307726  0.445944  0.306385  1
