# generated using pymatgen
data_Sn3Te3Ir2
_symmetry_space_group_name_H-M   'P 1'
_cell_length_a   9.47555944
_cell_length_b   9.47555944
_cell_length_c   9.47555944
_cell_angle_alpha   89.93265874
_cell_angle_beta   89.93265874
_cell_angle_gamma   89.93265874
_symmetry_Int_Tables_number   1
_chemical_formula_structural   Sn3Te3Ir2
_chemical_formula_sum   'Sn12 Te12 Ir8'
_cell_volume   850.77296623
_cell_formula_units_Z   4
loop_
 _symmetry_equiv_pos_site_id
 _symmetry_equiv_pos_as_xyz
  1  'x, y, z'
loop_
 _atom_site_type_symbol
 _atom_site_label
 _atom_site_symmetry_multiplicity
 _atom_site_fract_x
 _atom_site_fract_y
 _atom_site_fract_z
 _atom_site_occupancy
  Sn  Sn0  1  0.500313  0.174295  0.660598  1
  Sn  Sn1  1  0.499687  0.825705  0.339402  1
  Sn  Sn2  1  0.825705  0.339402  0.499687  1
  Sn  Sn3  1  0.339402  0.499687  0.825705  1
  Sn  Sn4  1  0.174295  0.660598  0.500313  1
  Sn  Sn5  1  0.660598  0.500313  0.174295  1
  Sn  Sn6  1  0.998597  0.325236  0.160006  1
  Sn  Sn7  1  0.325236  0.160006  0.998597  1
  Sn  Sn8  1  0.839994  0.001403  0.674764  1
  Sn  Sn9  1  0.674764  0.839994  0.001403  1
  Sn  Sn10  1  0.001403  0.674764  0.839994  1
  Sn  Sn11  1  0.160006  0.998597  0.325236  1
  Te  Te12  1  0.345325  0.849378  0.999894  1
  Te  Te13  1  0.999894  0.345325  0.849378  1
  Te  Te14  1  0.349889  0.498084  0.154586  1
  Te  Te15  1  0.154586  0.349889  0.498084  1
  Te  Te16  1  0.501916  0.845414  0.650111  1
  Te  Te17  1  0.498084  0.154586  0.349889  1
  Te  Te18  1  0.650111  0.501916  0.845414  1
  Te  Te19  1  0.845414  0.650111  0.501916  1
  Te  Te20  1  0.150622  0.000106  0.654675  1
  Te  Te21  1  0.654675  0.150622  0.000106  1
  Te  Te22  1  0.000106  0.654675  0.150622  1
  Te  Te23  1  0.849378  0.999894  0.345325  1
  Ir  Ir24  1  0.252351  0.751894  0.751670  1
  Ir  Ir25  1  0.751894  0.751670  0.252351  1
  Ir  Ir26  1  0.751670  0.252351  0.751894  1
  Ir  Ir27  1  0.747649  0.248106  0.248330  1
  Ir  Ir28  1  0.248106  0.248330  0.747649  1
  Ir  Ir29  1  0.248330  0.747649  0.248106  1
  Ir  Ir30  1  0.251090  0.251090  0.251090  1
  Ir  Ir31  1  0.748910  0.748910  0.748910  1
