# generated using pymatgen
data_CaH6C2O7
_symmetry_space_group_name_H-M   'P 1'
_cell_length_a   6.23017642
_cell_length_b   7.21848875
_cell_length_c   8.48109674
_cell_angle_alpha   75.04788162
_cell_angle_beta   69.90178890
_cell_angle_gamma   69.23114649
_symmetry_Int_Tables_number   1
_chemical_formula_structural   CaH6C2O7
_chemical_formula_sum   'Ca2 H12 C4 O14'
_cell_volume   330.86268644
_cell_formula_units_Z   2
loop_
 _symmetry_equiv_pos_site_id
 _symmetry_equiv_pos_as_xyz
  1  'x, y, z'
loop_
 _atom_site_type_symbol
 _atom_site_label
 _atom_site_symmetry_multiplicity
 _atom_site_fract_x
 _atom_site_fract_y
 _atom_site_fract_z
 _atom_site_occupancy
  Ca  Ca0  1  0.099823  0.271846  0.694061  1
  Ca  Ca1  1  0.900177  0.728154  0.305939  1
  H  H2  1  0.760335  0.012551  0.574963  1
  H  H3  1  0.307647  0.855032  0.872844  1
  H  H4  1  0.797236  0.995713  0.918184  1
  H  H5  1  0.146036  0.217606  0.338970  1
  H  H6  1  0.853964  0.782394  0.661030  1
  H  H7  1  0.477554  0.877207  0.686276  1
  H  H8  1  0.642461  0.187979  0.819622  1
  H  H9  1  0.692353  0.144968  0.127156  1
  H  H10  1  0.522446  0.122793  0.313724  1
  H  H11  1  0.202764  0.004287  0.081816  1
  H  H12  1  0.357539  0.812021  0.180378  1
  H  H13  1  0.239665  0.987449  0.425037  1
  C  C14  1  0.579728  0.427084  0.557181  1
  C  C15  1  0.056432  0.399333  0.051996  1
  C  C16  1  0.943568  0.600667  0.948004  1
  C  C17  1  0.420272  0.572916  0.442819  1
  O  O18  1  0.788282  0.873139  0.565431  1
  O  O19  1  0.764001  0.144473  0.883233  1
  O  O20  1  0.211718  0.126861  0.434569  1
  O  O21  1  0.307556  0.908158  0.753557  1
  O  O22  1  0.061331  0.409126  0.197813  1
  O  O23  1  0.234519  0.534149  0.449742  1
  O  O24  1  0.490825  0.721693  0.350533  1
  O  O25  1  0.938669  0.590874  0.802187  1
  O  O26  1  0.509175  0.278307  0.649467  1
  O  O27  1  0.866399  0.755976  0.017293  1
  O  O28  1  0.765481  0.465851  0.550258  1
  O  O29  1  0.133601  0.244024  0.982707  1
  O  O30  1  0.235999  0.855527  0.116767  1
  O  O31  1  0.692444  0.091842  0.246443  1
