# generated using pymatgen
data_PdSeO4
_symmetry_space_group_name_H-M   'P 1'
_cell_length_a   5.05386310
_cell_length_b   5.05386310
_cell_length_c   8.19994808
_cell_angle_alpha   85.86525351
_cell_angle_beta   94.13474649
_cell_angle_gamma   111.04258020
_symmetry_Int_Tables_number   1
_chemical_formula_structural   PdSeO4
_chemical_formula_sum   'Pd2 Se2 O8'
_cell_volume   194.72337373
_cell_formula_units_Z   2
loop_
 _symmetry_equiv_pos_site_id
 _symmetry_equiv_pos_as_xyz
  1  'x, y, z'
loop_
 _atom_site_type_symbol
 _atom_site_label
 _atom_site_symmetry_multiplicity
 _atom_site_fract_x
 _atom_site_fract_y
 _atom_site_fract_z
 _atom_site_occupancy
  Pd  Pd0  1  0.000000  0.500000  0.500000  1
  Pd  Pd1  1  0.500000  1.000000  0.000000  1
  Se  Se2  1  0.935070  0.935070  0.750000  1
  Se  Se3  1  0.064930  0.064930  0.250000  1
  O  O4  1  0.076247  0.733854  0.284136  1
  O  O5  1  0.791041  0.736220  0.584988  1
  O  O6  1  0.208959  0.263780  0.415012  1
  O  O7  1  0.266146  0.923753  0.784136  1
  O  O8  1  0.733854  0.076247  0.215864  1
  O  O9  1  0.736220  0.791041  0.915012  1
  O  O10  1  0.263780  0.208959  0.084988  1
  O  O11  1  0.923753  0.266146  0.715864  1
