# generated using pymatgen
data_P4S9
_symmetry_space_group_name_H-M   'P 1'
_cell_length_a   9.22527731
_cell_length_b   13.65792586
_cell_length_c   14.03219034
_cell_angle_alpha   90.00000000
_cell_angle_beta   114.12606282
_cell_angle_gamma   90.00000000
_symmetry_Int_Tables_number   1
_chemical_formula_structural   P4S9
_chemical_formula_sum   'P16 S36'
_cell_volume   1613.58971278
_cell_formula_units_Z   4
loop_
 _symmetry_equiv_pos_site_id
 _symmetry_equiv_pos_as_xyz
  1  'x, y, z'
loop_
 _atom_site_type_symbol
 _atom_site_label
 _atom_site_symmetry_multiplicity
 _atom_site_fract_x
 _atom_site_fract_y
 _atom_site_fract_z
 _atom_site_occupancy
  P  P0  1  0.086509  0.198272  0.972584  1
  P  P1  1  0.913491  0.698272  0.527416  1
  P  P2  1  0.913491  0.801728  0.027416  1
  P  P3  1  0.086509  0.301728  0.472584  1
  P  P4  1  0.479181  0.238423  0.008421  1
  P  P5  1  0.520819  0.738423  0.491579  1
  P  P6  1  0.520819  0.761577  0.991579  1
  P  P7  1  0.479181  0.261577  0.508421  1
  P  P8  1  0.294489  0.402987  0.111946  1
  P  P9  1  0.705511  0.902987  0.388054  1
  P  P10  1  0.705511  0.597013  0.888054  1
  P  P11  1  0.294489  0.097013  0.611946  1
  P  P12  1  0.180813  0.391171  0.843945  1
  P  P13  1  0.819187  0.891171  0.656055  1
  P  P14  1  0.819187  0.608829  0.156055  1
  P  P15  1  0.180813  0.108829  0.343945  1
  S  S16  1  0.511845  0.332812  0.135580  1
  S  S17  1  0.488155  0.832812  0.364420  1
  S  S18  1  0.488155  0.667188  0.864420  1
  S  S19  1  0.511845  0.167188  0.635580  1
  S  S20  1  0.011561  0.283577  0.833435  1
  S  S21  1  0.988439  0.783577  0.666565  1
  S  S22  1  0.988439  0.716423  0.166565  1
  S  S23  1  0.011561  0.216423  0.333435  1
  S  S24  1  0.114385  0.468030  0.718027  1
  S  S25  1  0.885615  0.968030  0.781973  1
  S  S26  1  0.885615  0.531970  0.281973  1
  S  S27  1  0.114385  0.031970  0.218027  1
  S  S28  1  0.123209  0.296087  0.098653  1
  S  S29  1  0.876791  0.796087  0.401347  1
  S  S30  1  0.876791  0.703913  0.901347  1
  S  S31  1  0.123209  0.203913  0.598653  1
  S  S32  1  0.215141  0.485184  0.971469  1
  S  S33  1  0.784859  0.985184  0.528531  1
  S  S34  1  0.784859  0.514816  0.028531  1
  S  S35  1  0.215141  0.014816  0.471469  1
  S  S36  1  0.328723  0.489812  0.226761  1
  S  S37  1  0.671277  0.989812  0.273239  1
  S  S38  1  0.671277  0.510188  0.773239  1
  S  S39  1  0.328723  0.010188  0.726761  1
  S  S40  1  0.399225  0.321827  0.869064  1
  S  S41  1  0.600775  0.821827  0.630936  1
  S  S42  1  0.600775  0.678173  0.130936  1
  S  S43  1  0.399225  0.178173  0.369064  1
  S  S44  1  0.308197  0.132108  0.997338  1
  S  S45  1  0.691803  0.632108  0.502662  1
  S  S46  1  0.691803  0.867892  0.002662  1
  S  S47  1  0.308197  0.367892  0.497338  1
  S  S48  1  0.679318  0.178669  0.030075  1
  S  S49  1  0.320682  0.678669  0.469925  1
  S  S50  1  0.320682  0.821331  0.969925  1
  S  S51  1  0.679318  0.321331  0.530075  1
