# generated using pymatgen
data_FeAs4F18
_symmetry_space_group_name_H-M   'P 1'
_cell_length_a   7.49771088
_cell_length_b   13.17393662
_cell_length_c   10.43165795
_cell_angle_alpha   90.00000000
_cell_angle_beta   133.91877439
_cell_angle_gamma   90.00000000
_symmetry_Int_Tables_number   1
_chemical_formula_structural   FeAs4F18
_chemical_formula_sum   'Fe2 As8 F36'
_cell_volume   742.20760450
_cell_formula_units_Z   2
loop_
 _symmetry_equiv_pos_site_id
 _symmetry_equiv_pos_as_xyz
  1  'x, y, z'
loop_
 _atom_site_type_symbol
 _atom_site_label
 _atom_site_symmetry_multiplicity
 _atom_site_fract_x
 _atom_site_fract_y
 _atom_site_fract_z
 _atom_site_occupancy
  Fe  Fe0  1  0.000000  0.000000  0.500000  1
  Fe  Fe1  1  0.000000  0.500000  0.000000  1
  As  As2  1  0.084140  0.218204  0.016156  1
  As  As3  1  0.915860  0.718204  0.483844  1
  As  As4  1  0.500000  0.500000  0.500000  1
  As  As5  1  0.500000  0.000000  0.000000  1
  As  As6  1  0.500000  0.500000  0.000000  1
  As  As7  1  0.500000  0.000000  0.500000  1
  As  As8  1  0.084140  0.281796  0.516156  1
  As  As9  1  0.915860  0.781796  0.983844  1
  F  F10  1  0.012381  0.743551  0.184525  1
  F  F11  1  0.987619  0.243551  0.315475  1
  F  F12  1  0.987619  0.256449  0.815475  1
  F  F13  1  0.012381  0.756449  0.684525  1
  F  F14  1  0.786538  0.969868  0.557001  1
  F  F15  1  0.213462  0.469868  0.942999  1
  F  F16  1  0.213462  0.030132  0.442999  1
  F  F17  1  0.786538  0.530132  0.057001  1
  F  F18  1  0.505093  0.878787  0.571242  1
  F  F19  1  0.494907  0.378787  0.928758  1
  F  F20  1  0.494907  0.121213  0.428758  1
  F  F21  1  0.505093  0.621213  0.071242  1
  F  F22  1  0.676022  0.045910  0.716728  1
  F  F23  1  0.323978  0.545910  0.783272  1
  F  F24  1  0.323978  0.954090  0.283272  1
  F  F25  1  0.676022  0.454090  0.216728  1
  F  F26  1  0.603936  0.751644  0.850046  1
  F  F27  1  0.396064  0.251644  0.649954  1
  F  F28  1  0.321541  0.969099  0.767835  1
  F  F29  1  0.678459  0.469099  0.732165  1
  F  F30  1  0.678459  0.030901  0.232165  1
  F  F31  1  0.321541  0.530901  0.267835  1
  F  F32  1  0.232670  0.051155  0.940241  1
  F  F33  1  0.767330  0.551155  0.559759  1
  F  F34  1  0.767330  0.948845  0.059759  1
  F  F35  1  0.232670  0.448845  0.440241  1
  F  F36  1  0.430281  0.881338  0.029887  1
  F  F37  1  0.569719  0.381338  0.470113  1
  F  F38  1  0.569719  0.118662  0.970113  1
  F  F39  1  0.430281  0.618662  0.529887  1
  F  F40  1  0.396064  0.248356  0.149954  1
  F  F41  1  0.603936  0.748356  0.350046  1
  F  F42  1  0.984508  0.654988  0.947541  1
  F  F43  1  0.015492  0.154988  0.552459  1
  F  F44  1  0.984508  0.845012  0.447541  1
  F  F45  1  0.015492  0.345012  0.052459  1
