# generated using pymatgen
data_K3Cr2(PS4)3
_symmetry_space_group_name_H-M   'P 1'
_cell_length_a   9.96996780
_cell_length_b   12.62221710
_cell_length_c   19.54456964
_cell_angle_alpha   90.00000000
_cell_angle_beta   113.68552622
_cell_angle_gamma   90.00000000
_symmetry_Int_Tables_number   1
_chemical_formula_structural   K3Cr2(PS4)3
_chemical_formula_sum   'K12 Cr8 P12 S48'
_cell_volume   2252.36685985
_cell_formula_units_Z   4
loop_
 _symmetry_equiv_pos_site_id
 _symmetry_equiv_pos_as_xyz
  1  'x, y, z'
loop_
 _atom_site_type_symbol
 _atom_site_label
 _atom_site_symmetry_multiplicity
 _atom_site_fract_x
 _atom_site_fract_y
 _atom_site_fract_z
 _atom_site_occupancy
  K  K0  1  0.803686  0.131597  0.796228  1
  K  K1  1  0.306563  0.579036  0.379124  1
  K  K2  1  0.723190  0.436841  0.954000  1
  K  K3  1  0.306563  0.920964  0.879124  1
  K  K4  1  0.693437  0.420964  0.620876  1
  K  K5  1  0.276810  0.563159  0.046000  1
  K  K6  1  0.803686  0.368403  0.296228  1
  K  K7  1  0.196314  0.631597  0.703772  1
  K  K8  1  0.693437  0.079036  0.120876  1
  K  K9  1  0.276810  0.936841  0.546000  1
  K  K10  1  0.196314  0.868403  0.203772  1
  K  K11  1  0.723190  0.063159  0.454000  1
  Cr  Cr12  1  0.764001  0.771157  0.710064  1
  Cr  Cr13  1  0.235999  0.228843  0.289936  1
  Cr  Cr14  1  0.235999  0.271157  0.789936  1
  Cr  Cr15  1  0.776642  0.782654  0.897715  1
  Cr  Cr16  1  0.764001  0.728843  0.210064  1
  Cr  Cr17  1  0.776642  0.717346  0.397715  1
  Cr  Cr18  1  0.223358  0.282654  0.602285  1
  Cr  Cr19  1  0.223358  0.217346  0.102285  1
  P  P20  1  0.521440  0.627429  0.253665  1
  P  P21  1  0.521440  0.872571  0.753665  1
  P  P22  1  0.025083  0.817068  0.353776  1
  P  P23  1  0.974917  0.182932  0.646224  1
  P  P24  1  0.478560  0.127429  0.246335  1
  P  P25  1  0.242744  0.260014  0.448146  1
  P  P26  1  0.757256  0.739986  0.551854  1
  P  P27  1  0.242744  0.239986  0.948146  1
  P  P28  1  0.478560  0.372571  0.746335  1
  P  P29  1  0.025083  0.682932  0.853776  1
  P  P30  1  0.757256  0.760014  0.051854  1
  P  P31  1  0.974917  0.317068  0.146224  1
  S  S32  1  0.387946  0.071094  0.317204  1
  S  S33  1  0.056943  0.366204  0.070364  1
  S  S34  1  0.116426  0.341482  0.865772  1
  S  S35  1  0.612054  0.928906  0.682796  1
  S  S36  1  0.612054  0.571094  0.182796  1
  S  S37  1  0.375666  0.060853  0.141350  1
  S  S38  1  0.621676  0.675195  0.597131  1
  S  S39  1  0.610509  0.782721  0.274633  1
  S  S40  1  0.758144  0.174517  0.610406  1
  S  S41  1  0.116426  0.158518  0.365772  1
  S  S42  1  0.375666  0.439147  0.641350  1
  S  S43  1  0.758144  0.325483  0.110406  1
  S  S44  1  0.120225  0.133665  0.978933  1
  S  S45  1  0.879775  0.866335  0.021067  1
  S  S46  1  0.883574  0.658518  0.134228  1
  S  S47  1  0.389491  0.282721  0.225367  1
  S  S48  1  0.084728  0.383677  0.249925  1
  S  S49  1  0.378324  0.175195  0.902869  1
  S  S50  1  0.241856  0.674517  0.889594  1
  S  S51  1  0.378324  0.324805  0.402869  1
  S  S52  1  0.064422  0.338760  0.666951  1
  S  S53  1  0.064422  0.161240  0.166951  1
  S  S54  1  0.241856  0.825483  0.389594  1
  S  S55  1  0.935578  0.838760  0.833049  1
  S  S56  1  0.943057  0.633796  0.929636  1
  S  S57  1  0.624334  0.939147  0.858650  1
  S  S58  1  0.915272  0.616323  0.750075  1
  S  S59  1  0.367135  0.190270  0.548703  1
  S  S60  1  0.084728  0.116323  0.749925  1
  S  S61  1  0.696289  0.121312  0.287388  1
  S  S62  1  0.624334  0.560853  0.358650  1
  S  S63  1  0.120225  0.366335  0.478933  1
  S  S64  1  0.621676  0.824805  0.097131  1
  S  S65  1  0.632865  0.809730  0.451297  1
  S  S66  1  0.303711  0.878688  0.712612  1
  S  S67  1  0.696289  0.378688  0.787388  1
  S  S68  1  0.387946  0.428906  0.817204  1
  S  S69  1  0.367135  0.309730  0.048703  1
  S  S70  1  0.943057  0.866204  0.429636  1
  S  S71  1  0.935578  0.661240  0.333049  1
  S  S72  1  0.303711  0.621312  0.212612  1
  S  S73  1  0.632865  0.690270  0.951297  1
  S  S74  1  0.610509  0.717279  0.774633  1
  S  S75  1  0.883574  0.841482  0.634228  1
  S  S76  1  0.879775  0.633665  0.521067  1
  S  S77  1  0.389491  0.217279  0.725367  1
  S  S78  1  0.915272  0.883677  0.250075  1
  S  S79  1  0.056943  0.133796  0.570364  1
