# generated using pymatgen
data_BaHo2CoO5
_symmetry_space_group_name_H-M   'P 1'
_cell_length_a   5.74116334
_cell_length_b   7.10775587
_cell_length_c   12.32996078
_cell_angle_alpha   90.00000000
_cell_angle_beta   90.00000000
_cell_angle_gamma   90.00000000
_symmetry_Int_Tables_number   1
_chemical_formula_structural   BaHo2CoO5
_chemical_formula_sum   'Ba4 Ho8 Co4 O20'
_cell_volume   503.14608858
_cell_formula_units_Z   4
loop_
 _symmetry_equiv_pos_site_id
 _symmetry_equiv_pos_as_xyz
  1  'x, y, z'
loop_
 _atom_site_type_symbol
 _atom_site_label
 _atom_site_symmetry_multiplicity
 _atom_site_fract_x
 _atom_site_fract_y
 _atom_site_fract_z
 _atom_site_occupancy
  Ba  Ba0  1  0.250000  0.921512  0.899947  1
  Ba  Ba1  1  0.750000  0.078488  0.100053  1
  Ba  Ba2  1  0.750000  0.421512  0.600053  1
  Ba  Ba3  1  0.250000  0.578488  0.399947  1
  Ho  Ho4  1  0.250000  0.118961  0.291545  1
  Ho  Ho5  1  0.750000  0.881039  0.708455  1
  Ho  Ho6  1  0.750000  0.618961  0.208455  1
  Ho  Ho7  1  0.250000  0.381039  0.791545  1
  Ho  Ho8  1  0.250000  0.401161  0.074474  1
  Ho  Ho9  1  0.750000  0.598839  0.925526  1
  Ho  Ho10  1  0.750000  0.901161  0.425526  1
  Ho  Ho11  1  0.250000  0.098839  0.574474  1
  Co  Co12  1  0.250000  0.692586  0.652481  1
  Co  Co13  1  0.750000  0.307414  0.347519  1
  Co  Co14  1  0.750000  0.192586  0.847519  1
  Co  Co15  1  0.250000  0.807414  0.152481  1
  O  O16  1  0.996732  0.165559  0.434231  1
  O  O17  1  0.496732  0.834441  0.565769  1
  O  O18  1  0.003268  0.665559  0.065769  1
  O  O19  1  0.503268  0.334441  0.934231  1
  O  O20  1  0.003268  0.834441  0.565769  1
  O  O21  1  0.503268  0.165559  0.434231  1
  O  O22  1  0.996732  0.334441  0.934231  1
  O  O23  1  0.496732  0.665559  0.065769  1
  O  O24  1  0.500786  0.360501  0.224657  1
  O  O25  1  0.000786  0.639499  0.775343  1
  O  O26  1  0.499214  0.860501  0.275343  1
  O  O27  1  0.999214  0.139499  0.724657  1
  O  O28  1  0.499214  0.639499  0.775343  1
  O  O29  1  0.999214  0.360501  0.224657  1
  O  O30  1  0.500786  0.139499  0.724657  1
  O  O31  1  0.000786  0.860501  0.275343  1
  O  O32  1  0.250000  0.076308  0.102487  1
  O  O33  1  0.750000  0.923692  0.897513  1
  O  O34  1  0.750000  0.576308  0.397513  1
  O  O35  1  0.250000  0.423692  0.602487  1
