# generated using pymatgen
data_TlSn2Br5
_symmetry_space_group_name_H-M   'P 1'
_cell_length_a   9.54454128
_cell_length_b   9.54454128
_cell_length_c   9.54454128
_cell_angle_alpha   127.41212046
_cell_angle_beta   127.41212046
_cell_angle_gamma   77.57932418
_symmetry_Int_Tables_number   1
_chemical_formula_structural   TlSn2Br5
_chemical_formula_sum   'Tl2 Sn4 Br10'
_cell_volume   531.95526280
_cell_formula_units_Z   2
loop_
 _symmetry_equiv_pos_site_id
 _symmetry_equiv_pos_as_xyz
  1  'x, y, z'
loop_
 _atom_site_type_symbol
 _atom_site_label
 _atom_site_symmetry_multiplicity
 _atom_site_fract_x
 _atom_site_fract_y
 _atom_site_fract_z
 _atom_site_occupancy
  Tl  Tl0  1  0.250000  0.250000  0.000000  1
  Tl  Tl1  1  0.750000  0.750000  0.000000  1
  Sn  Sn2  1  0.824395  0.675604  0.500000  1
  Sn  Sn3  1  0.324396  0.824395  0.148791  1
  Sn  Sn4  1  0.675605  0.175605  0.851209  1
  Sn  Sn5  1  0.175605  0.324396  0.500000  1
  Br  Br6  1  0.203784  0.026933  0.500000  1
  Br  Br7  1  0.703784  0.203784  0.176851  1
  Br  Br8  1  0.500000  0.500000  0.000000  1
  Br  Br9  1  0.026933  0.526933  0.823149  1
  Br  Br10  1  0.796216  0.973067  0.500000  1
  Br  Br11  1  0.526933  0.703784  0.500000  1
  Br  Br12  1  0.296216  0.796216  0.823149  1
  Br  Br13  1  0.973067  0.473067  0.176851  1
  Br  Br14  1  0.000000  0.000000  0.000000  1
  Br  Br15  1  0.473067  0.296216  0.500000  1
