# generated using pymatgen
data_VF4
_symmetry_space_group_name_H-M   'P 1'
_cell_length_a   5.42487382
_cell_length_b   5.24098061
_cell_length_c   5.70720372
_cell_angle_alpha   90.00000000
_cell_angle_beta   118.37504275
_cell_angle_gamma   90.00000000
_symmetry_Int_Tables_number   1
_chemical_formula_structural   VF4
_chemical_formula_sum   'V2 F8'
_cell_volume   142.77001448
_cell_formula_units_Z   2
loop_
 _symmetry_equiv_pos_site_id
 _symmetry_equiv_pos_as_xyz
  1  'x, y, z'
loop_
 _atom_site_type_symbol
 _atom_site_label
 _atom_site_symmetry_multiplicity
 _atom_site_fract_x
 _atom_site_fract_y
 _atom_site_fract_z
 _atom_site_occupancy
  V  V0  1  0.500000  0.500000  0.000000  1
  V  V1  1  0.000000  0.000000  0.000000  1
  F  F2  1  0.660189  0.192835  0.927144  1
  F  F3  1  0.839811  0.692835  0.072856  1
  F  F4  1  0.651323  0.412770  0.338913  1
  F  F5  1  0.848677  0.912770  0.661087  1
  F  F6  1  0.348677  0.587230  0.661087  1
  F  F7  1  0.151323  0.087230  0.338913  1
  F  F8  1  0.160189  0.307165  0.927144  1
  F  F9  1  0.339811  0.807165  0.072856  1
