# generated using pymatgen
data_Y3BrO4
_symmetry_space_group_name_H-M   'P 1'
_cell_length_a   6.25514022
_cell_length_b   6.25514022
_cell_length_c   11.71879290
_cell_angle_alpha   90.00000000
_cell_angle_beta   90.00000000
_cell_angle_gamma   141.69543114
_symmetry_Int_Tables_number   1
_chemical_formula_structural   Y3BrO4
_chemical_formula_sum   'Y6 Br2 O8'
_cell_volume   284.20892014
_cell_formula_units_Z   2
loop_
 _symmetry_equiv_pos_site_id
 _symmetry_equiv_pos_as_xyz
  1  'x, y, z'
loop_
 _atom_site_type_symbol
 _atom_site_label
 _atom_site_symmetry_multiplicity
 _atom_site_fract_x
 _atom_site_fract_y
 _atom_site_fract_z
 _atom_site_occupancy
  Y  Y0  1  0.314272  0.685728  0.103097  1
  Y  Y1  1  0.685728  0.314272  0.896903  1
  Y  Y2  1  0.685728  0.314272  0.603097  1
  Y  Y3  1  0.314272  0.685728  0.396903  1
  Y  Y4  1  0.618653  0.381347  0.250000  1
  Y  Y5  1  0.381347  0.618653  0.750000  1
  Br  Br6  1  0.000000  0.000000  0.000000  1
  Br  Br7  1  0.000000  0.000000  0.500000  1
  O  O8  1  0.191011  0.808989  0.250000  1
  O  O9  1  0.269803  0.730197  0.589526  1
  O  O10  1  0.269803  0.730197  0.910474  1
  O  O11  1  0.808989  0.191011  0.750000  1
  O  O12  1  0.730197  0.269803  0.410474  1
  O  O13  1  0.433916  0.566084  0.250000  1
  O  O14  1  0.566084  0.433916  0.750000  1
  O  O15  1  0.730197  0.269803  0.089526  1
