# generated using pymatgen
data_CsSbS2
_symmetry_space_group_name_H-M   'P 1'
_cell_length_a   7.18810747
_cell_length_b   9.95511001
_cell_length_c   7.99826952
_cell_angle_alpha   90.00000000
_cell_angle_beta   102.28645409
_cell_angle_gamma   90.00000000
_symmetry_Int_Tables_number   1
_chemical_formula_structural   CsSbS2
_chemical_formula_sum   'Cs4 Sb4 S8'
_cell_volume   559.23437141
_cell_formula_units_Z   4
loop_
 _symmetry_equiv_pos_site_id
 _symmetry_equiv_pos_as_xyz
  1  'x, y, z'
loop_
 _atom_site_type_symbol
 _atom_site_label
 _atom_site_symmetry_multiplicity
 _atom_site_fract_x
 _atom_site_fract_y
 _atom_site_fract_z
 _atom_site_occupancy
  Cs  Cs0  1  0.787586  0.571836  0.653819  1
  Cs  Cs1  1  0.287586  0.928164  0.653819  1
  Cs  Cs2  1  0.212414  0.428164  0.346181  1
  Cs  Cs3  1  0.712414  0.071836  0.346181  1
  Sb  Sb4  1  0.145269  0.836572  0.101262  1
  Sb  Sb5  1  0.854731  0.163428  0.898738  1
  Sb  Sb6  1  0.645269  0.663428  0.101262  1
  Sb  Sb7  1  0.354731  0.336572  0.898738  1
  S  S8  1  0.544966  0.254617  0.692011  1
  S  S9  1  0.955034  0.754617  0.307989  1
  S  S10  1  0.695083  0.432547  0.186755  1
  S  S11  1  0.804917  0.932547  0.813245  1
  S  S12  1  0.044966  0.245383  0.692011  1
  S  S13  1  0.455034  0.745383  0.307989  1
  S  S14  1  0.195083  0.067453  0.186755  1
  S  S15  1  0.304917  0.567453  0.813245  1
