# generated using pymatgen
data_ZrHg3(SeBr3)2
_symmetry_space_group_name_H-M   'P 1'
_cell_length_a   7.18728515
_cell_length_b   7.79328310
_cell_length_c   13.89566741
_cell_angle_alpha   90.00000000
_cell_angle_beta   91.99816461
_cell_angle_gamma   90.00000000
_symmetry_Int_Tables_number   1
_chemical_formula_structural   ZrHg3(SeBr3)2
_chemical_formula_sum   'Zr2 Hg6 Se4 Br12'
_cell_volume   777.85846684
_cell_formula_units_Z   2
loop_
 _symmetry_equiv_pos_site_id
 _symmetry_equiv_pos_as_xyz
  1  'x, y, z'
loop_
 _atom_site_type_symbol
 _atom_site_label
 _atom_site_symmetry_multiplicity
 _atom_site_fract_x
 _atom_site_fract_y
 _atom_site_fract_z
 _atom_site_occupancy
  Zr  Zr0  1  0.500000  0.000000  0.000000  1
  Zr  Zr1  1  0.500000  0.500000  0.500000  1
  Hg  Hg2  1  0.007114  0.199859  0.761398  1
  Hg  Hg3  1  0.992886  0.800141  0.238602  1
  Hg  Hg4  1  0.007114  0.300141  0.261398  1
  Hg  Hg5  1  0.992886  0.699859  0.738602  1
  Hg  Hg6  1  0.000000  0.500000  0.000000  1
  Hg  Hg7  1  0.000000  0.000000  0.500000  1
  Se  Se8  1  0.162208  0.541903  0.168091  1
  Se  Se9  1  0.162208  0.958097  0.668091  1
  Se  Se10  1  0.837792  0.458097  0.831909  1
  Se  Se11  1  0.837792  0.041903  0.331909  1
  Br  Br12  1  0.369078  0.202425  0.436313  1
  Br  Br13  1  0.356441  0.050187  0.170695  1
  Br  Br14  1  0.356441  0.449813  0.670695  1
  Br  Br15  1  0.630922  0.702425  0.063687  1
  Br  Br16  1  0.369078  0.297575  0.936313  1
  Br  Br17  1  0.817977  0.146510  0.061220  1
  Br  Br18  1  0.643559  0.550187  0.329305  1
  Br  Br19  1  0.182023  0.853490  0.938780  1
  Br  Br20  1  0.630922  0.797575  0.563687  1
  Br  Br21  1  0.182023  0.646510  0.438780  1
  Br  Br22  1  0.643559  0.949813  0.829305  1
  Br  Br23  1  0.817977  0.353490  0.561220  1
