# generated using pymatgen
data_ZrSCl6O
_symmetry_space_group_name_H-M   'P 1'
_cell_length_a   7.20825183
_cell_length_b   23.99233876
_cell_length_c   7.56793844
_cell_angle_alpha   90.00000000
_cell_angle_beta   113.66406028
_cell_angle_gamma   90.00000000
_symmetry_Int_Tables_number   1
_chemical_formula_structural   ZrSCl6O
_chemical_formula_sum   'Zr4 S4 Cl24 O4'
_cell_volume   1198.76783265
_cell_formula_units_Z   4
loop_
 _symmetry_equiv_pos_site_id
 _symmetry_equiv_pos_as_xyz
  1  'x, y, z'
loop_
 _atom_site_type_symbol
 _atom_site_label
 _atom_site_symmetry_multiplicity
 _atom_site_fract_x
 _atom_site_fract_y
 _atom_site_fract_z
 _atom_site_occupancy
  Zr  Zr0  1  0.992193  0.929584  0.846552  1
  Zr  Zr1  1  0.007807  0.070416  0.153448  1
  Zr  Zr2  1  0.507807  0.429584  0.153448  1
  Zr  Zr3  1  0.492193  0.570416  0.846552  1
  S  S4  1  0.126882  0.371015  0.678640  1
  S  S5  1  0.626882  0.128985  0.678640  1
  S  S6  1  0.873118  0.628985  0.321360  1
  S  S7  1  0.373118  0.871015  0.321360  1
  Cl  Cl8  1  0.255542  0.294730  0.664159  1
  Cl  Cl9  1  0.763285  0.967427  0.551503  1
  Cl  Cl10  1  0.753450  0.102277  0.253636  1
  Cl  Cl11  1  0.808338  0.976587  0.043347  1
  Cl  Cl12  1  0.263285  0.532573  0.551503  1
  Cl  Cl13  1  0.691662  0.476587  0.956653  1
  Cl  Cl14  1  0.820409  0.844493  0.841963  1
  Cl  Cl15  1  0.746550  0.602277  0.746364  1
  Cl  Cl16  1  0.744458  0.705270  0.335841  1
  Cl  Cl17  1  0.584687  0.843773  0.220300  1
  Cl  Cl18  1  0.415313  0.156227  0.779700  1
  Cl  Cl19  1  0.179591  0.155507  0.158037  1
  Cl  Cl20  1  0.308338  0.523413  0.043347  1
  Cl  Cl21  1  0.084687  0.656227  0.220300  1
  Cl  Cl22  1  0.236715  0.032573  0.448497  1
  Cl  Cl23  1  0.191662  0.023413  0.956653  1
  Cl  Cl24  1  0.736715  0.467427  0.448497  1
  Cl  Cl25  1  0.253450  0.397723  0.253636  1
  Cl  Cl26  1  0.246550  0.897723  0.746364  1
  Cl  Cl27  1  0.679591  0.344493  0.158037  1
  Cl  Cl28  1  0.320409  0.655507  0.841963  1
  Cl  Cl29  1  0.915313  0.343773  0.779700  1
  Cl  Cl30  1  0.244458  0.794730  0.335841  1
  Cl  Cl31  1  0.755542  0.205270  0.664159  1
  O  O32  1  0.219394  0.902779  0.164506  1
  O  O33  1  0.719394  0.597221  0.164506  1
  O  O34  1  0.780606  0.097221  0.835494  1
  O  O35  1  0.280606  0.402779  0.835494  1
