# generated using pymatgen
data_Be(BC)2
_symmetry_space_group_name_H-M   'P 1'
_cell_length_a   4.70149561
_cell_length_b   5.43396802
_cell_length_c   6.13303419
_cell_angle_alpha   90.00000000
_cell_angle_beta   90.00000000
_cell_angle_gamma   90.00000000
_symmetry_Int_Tables_number   1
_chemical_formula_structural   Be(BC)2
_chemical_formula_sum   'Be4 B8 C8'
_cell_volume   156.68538854
_cell_formula_units_Z   4
loop_
 _symmetry_equiv_pos_site_id
 _symmetry_equiv_pos_as_xyz
  1  'x, y, z'
loop_
 _atom_site_type_symbol
 _atom_site_label
 _atom_site_symmetry_multiplicity
 _atom_site_fract_x
 _atom_site_fract_y
 _atom_site_fract_z
 _atom_site_occupancy
  Be  Be0  1  0.183627  0.500000  0.796684  1
  Be  Be1  1  0.183627  0.500000  0.203316  1
  Be  Be2  1  0.816373  0.000000  0.703316  1
  Be  Be3  1  0.816373  0.000000  0.296684  1
  B  B4  1  0.478564  0.000000  0.500000  1
  B  B5  1  0.991772  0.748331  0.500000  1
  B  B6  1  0.499284  0.000000  0.000000  1
  B  B7  1  0.521436  0.500000  0.000000  1
  B  B8  1  0.991772  0.251669  0.500000  1
  B  B9  1  0.008228  0.248331  0.000000  1
  B  B10  1  0.500716  0.500000  0.500000  1
  B  B11  1  0.008228  0.751669  0.000000  1
  C  C12  1  0.339829  0.256823  0.000000  1
  C  C13  1  0.339829  0.743177  0.000000  1
  C  C14  1  0.660171  0.756823  0.500000  1
  C  C15  1  0.166000  0.500000  0.500000  1
  C  C16  1  0.834000  0.000000  0.000000  1
  C  C17  1  0.855331  0.500000  0.000000  1
  C  C18  1  0.660171  0.243177  0.500000  1
  C  C19  1  0.144669  0.000000  0.500000  1
