# generated using pymatgen
data_NdSbMo2O9
_symmetry_space_group_name_H-M   'P 1'
_cell_length_a   9.90151319
_cell_length_b   9.90151319
_cell_length_c   11.06000221
_cell_angle_alpha   68.32887265
_cell_angle_beta   111.67112735
_cell_angle_gamma   84.13612523
_symmetry_Int_Tables_number   1
_chemical_formula_structural   NdSbMo2O9
_chemical_formula_sum   'Nd4 Sb4 Mo8 O36'
_cell_volume   900.02998288
_cell_formula_units_Z   4
loop_
 _symmetry_equiv_pos_site_id
 _symmetry_equiv_pos_as_xyz
  1  'x, y, z'
loop_
 _atom_site_type_symbol
 _atom_site_label
 _atom_site_symmetry_multiplicity
 _atom_site_fract_x
 _atom_site_fract_y
 _atom_site_fract_z
 _atom_site_occupancy
  Nd  Nd0  1  0.875540  0.875540  0.250000  1
  Nd  Nd1  1  0.674492  0.674492  0.750000  1
  Nd  Nd2  1  0.124460  0.124460  0.750000  1
  Nd  Nd3  1  0.325508  0.325508  0.250000  1
  Sb  Sb4  1  0.378130  0.646856  0.962362  1
  Sb  Sb5  1  0.353144  0.621870  0.462362  1
  Sb  Sb6  1  0.646856  0.378130  0.537638  1
  Sb  Sb7  1  0.621870  0.353144  0.037638  1
  Mo  Mo8  1  0.259085  0.951028  0.526397  1
  Mo  Mo9  1  0.048972  0.740915  0.026397  1
  Mo  Mo10  1  0.740915  0.048972  0.473603  1
  Mo  Mo11  1  0.434769  0.939361  0.195261  1
  Mo  Mo12  1  0.939361  0.434769  0.304739  1
  Mo  Mo13  1  0.060639  0.565231  0.695261  1
  Mo  Mo14  1  0.565231  0.060639  0.804739  1
  Mo  Mo15  1  0.951028  0.259085  0.973603  1
  O  O16  1  0.124101  0.297196  0.061811  1
  O  O17  1  0.627159  0.212886  0.698940  1
  O  O18  1  0.212886  0.627160  0.801060  1
  O  O19  1  0.575792  0.540707  0.597978  1
  O  O20  1  0.559221  0.911658  0.750689  1
  O  O21  1  0.693108  0.985082  0.991102  1
  O  O22  1  0.618124  0.859650  0.222953  1
  O  O23  1  0.596519  0.219248  0.424108  1
  O  O24  1  0.140350  0.381876  0.722953  1
  O  O25  1  0.440779  0.088342  0.249311  1
  O  O26  1  0.780752  0.403481  0.924108  1
  O  O27  1  0.985082  0.693108  0.508898  1
  O  O28  1  0.063769  0.904389  0.900216  1
  O  O29  1  0.424208  0.459293  0.402022  1
  O  O30  1  0.095611  0.936231  0.400216  1
  O  O31  1  0.936231  0.095611  0.099784  1
  O  O32  1  0.859650  0.618124  0.277047  1
  O  O33  1  0.381876  0.140350  0.777047  1
  O  O34  1  0.540707  0.575792  0.902022  1
  O  O35  1  0.949175  0.226377  0.823709  1
  O  O36  1  0.403481  0.780752  0.575892  1
  O  O37  1  0.088342  0.440779  0.250689  1
  O  O38  1  0.219248  0.596519  0.075892  1
  O  O39  1  0.306892  0.014918  0.008898  1
  O  O40  1  0.226377  0.949175  0.676291  1
  O  O41  1  0.787114  0.372841  0.198940  1
  O  O42  1  0.459293  0.424208  0.097978  1
  O  O43  1  0.911658  0.559221  0.749311  1
  O  O44  1  0.773623  0.050825  0.323709  1
  O  O45  1  0.014918  0.306892  0.491102  1
  O  O46  1  0.297196  0.124101  0.438189  1
  O  O47  1  0.702804  0.875899  0.561811  1
  O  O48  1  0.050825  0.773623  0.176291  1
  O  O49  1  0.904389  0.063769  0.599784  1
  O  O50  1  0.372840  0.787114  0.301060  1
  O  O51  1  0.875899  0.702804  0.938189  1
