# generated using pymatgen
data_Bi14PdBr16
_symmetry_space_group_name_H-M   'P 1'
_cell_length_a   11.11881740
_cell_length_b   11.26508658
_cell_length_c   11.32049327
_cell_angle_alpha   118.50548382
_cell_angle_beta   108.53276225
_cell_angle_gamma   92.00914528
_symmetry_Int_Tables_number   1
_chemical_formula_structural   Bi14PdBr16
_chemical_formula_sum   'Bi14 Pd1 Br16'
_cell_volume   1151.37179794
_cell_formula_units_Z   1
loop_
 _symmetry_equiv_pos_site_id
 _symmetry_equiv_pos_as_xyz
  1  'x, y, z'
loop_
 _atom_site_type_symbol
 _atom_site_label
 _atom_site_symmetry_multiplicity
 _atom_site_fract_x
 _atom_site_fract_y
 _atom_site_fract_z
 _atom_site_occupancy
  Bi  Bi0  1  0.247849  0.896702  0.994415  1
  Bi  Bi1  1  0.752151  0.103298  0.005585  1
  Bi  Bi2  1  0.167660  0.116391  0.899092  1
  Bi  Bi3  1  0.832340  0.883609  0.100908  1
  Bi  Bi4  1  0.012877  0.301639  0.091478  1
  Bi  Bi5  1  0.987123  0.698361  0.908522  1
  Bi  Bi6  1  0.993712  0.190326  0.295474  1
  Bi  Bi7  1  0.006288  0.809674  0.704527  1
  Bi  Bi8  1  0.135454  0.936745  0.234253  1
  Bi  Bi9  1  0.864546  0.063255  0.765747  1
  Bi  Bi10  1  0.618167  0.337610  0.470089  1
  Bi  Bi11  1  0.381833  0.662390  0.529911  1
  Bi  Bi12  1  0.654598  0.602956  0.215508  1
  Bi  Bi13  1  0.345402  0.397044  0.784492  1
  Pd  Pd14  1  0.000000  0.000000  0.000000  1
  Br  Br15  1  0.573819  0.079568  0.217156  1
  Br  Br16  1  0.426181  0.920432  0.782844  1
  Br  Br17  1  0.856773  0.324229  0.633532  1
  Br  Br18  1  0.143227  0.675771  0.366468  1
  Br  Br19  1  0.479869  0.216047  0.566592  1
  Br  Br20  1  0.520131  0.783953  0.433408  1
  Br  Br21  1  0.373784  0.385598  0.296580  1
  Br  Br22  1  0.626216  0.614402  0.703420  1
  Br  Br23  1  0.791819  0.487965  0.387927  1
  Br  Br24  1  0.208181  0.512035  0.612073  1
  Br  Br25  1  0.802673  0.526532  0.048815  1
  Br  Br26  1  0.197327  0.473468  0.951185  1
  Br  Br27  1  0.506939  0.690009  0.019943  1
  Br  Br28  1  0.493061  0.309991  0.980057  1
  Br  Br29  1  0.833000  0.856772  0.398591  1
  Br  Br30  1  0.167000  0.143228  0.601409  1
