# generated using pymatgen
data_TlIn5S7
_symmetry_space_group_name_H-M   'P 1'
_cell_length_a   9.24582384
_cell_length_b   3.94942468
_cell_length_c   17.69433420
_cell_angle_alpha   90.00000000
_cell_angle_beta   102.24555598
_cell_angle_gamma   90.00000000
_symmetry_Int_Tables_number   1
_chemical_formula_structural   TlIn5S7
_chemical_formula_sum   'Tl2 In10 S14'
_cell_volume   631.41990865
_cell_formula_units_Z   2
loop_
 _symmetry_equiv_pos_site_id
 _symmetry_equiv_pos_as_xyz
  1  'x, y, z'
loop_
 _atom_site_type_symbol
 _atom_site_label
 _atom_site_symmetry_multiplicity
 _atom_site_fract_x
 _atom_site_fract_y
 _atom_site_fract_z
 _atom_site_occupancy
  Tl  Tl0  1  0.973728  0.250000  0.274715  1
  Tl  Tl1  1  0.026272  0.750000  0.725285  1
  In  In2  1  0.145217  0.250000  0.954618  1
  In  In3  1  0.522821  0.250000  0.601897  1
  In  In4  1  0.854783  0.750000  0.045382  1
  In  In5  1  0.433750  0.750000  0.881213  1
  In  In6  1  0.171950  0.750000  0.532278  1
  In  In7  1  0.319318  0.250000  0.188468  1
  In  In8  1  0.680682  0.750000  0.811532  1
  In  In9  1  0.828050  0.250000  0.467722  1
  In  In10  1  0.477179  0.750000  0.398103  1
  In  In11  1  0.566250  0.250000  0.118787  1
  S  S12  1  0.964014  0.750000  0.412033  1
  S  S13  1  0.331483  0.250000  0.467783  1
  S  S14  1  0.664945  0.250000  0.994235  1
  S  S15  1  0.057197  0.250000  0.089242  1
  S  S16  1  0.668517  0.750000  0.532217  1
  S  S17  1  0.263240  0.750000  0.271299  1
  S  S18  1  0.743059  0.750000  0.170587  1
  S  S19  1  0.736760  0.250000  0.728701  1
  S  S20  1  0.035986  0.250000  0.587967  1
  S  S21  1  0.385539  0.750000  0.650862  1
  S  S22  1  0.614461  0.250000  0.349138  1
  S  S23  1  0.335055  0.750000  0.005765  1
  S  S24  1  0.256941  0.250000  0.829413  1
  S  S25  1  0.942803  0.750000  0.910758  1
