# generated using pymatgen
data_In3SnI5
_symmetry_space_group_name_H-M   'P 1'
_cell_length_a   9.04269524
_cell_length_b   9.13032105
_cell_length_c   19.05851234
_cell_angle_alpha   90.00000000
_cell_angle_beta   113.19951915
_cell_angle_gamma   90.00000000
_symmetry_Int_Tables_number   1
_chemical_formula_structural   In3SnI5
_chemical_formula_sum   'In12 Sn4 I20'
_cell_volume   1446.28528448
_cell_formula_units_Z   4
loop_
 _symmetry_equiv_pos_site_id
 _symmetry_equiv_pos_as_xyz
  1  'x, y, z'
loop_
 _atom_site_type_symbol
 _atom_site_label
 _atom_site_symmetry_multiplicity
 _atom_site_fract_x
 _atom_site_fract_y
 _atom_site_fract_z
 _atom_site_occupancy
  In  In0  1  0.930455  0.213685  0.972135  1
  In  In1  1  0.069545  0.786315  0.027865  1
  In  In2  1  0.108423  0.310973  0.749198  1
  In  In3  1  0.891577  0.810973  0.750802  1
  In  In4  1  0.069545  0.713685  0.527865  1
  In  In5  1  0.388964  0.467071  0.249408  1
  In  In6  1  0.891577  0.689027  0.250802  1
  In  In7  1  0.388964  0.032929  0.749408  1
  In  In8  1  0.108423  0.189027  0.249198  1
  In  In9  1  0.611036  0.532929  0.750592  1
  In  In10  1  0.611036  0.967071  0.250592  1
  In  In11  1  0.930455  0.286315  0.472135  1
  Sn  Sn12  1  0.391188  0.677575  0.914203  1
  Sn  Sn13  1  0.608812  0.322425  0.085797  1
  Sn  Sn14  1  0.391188  0.822425  0.414203  1
  Sn  Sn15  1  0.608812  0.177575  0.585797  1
  I  I16  1  0.239826  0.667172  0.738745  1
  I  I17  1  0.799435  0.030233  0.105502  1
  I  I18  1  0.682120  0.668282  0.386799  1
  I  I19  1  0.466229  0.648796  0.104536  1
  I  I20  1  0.466229  0.851204  0.604536  1
  I  I21  1  0.060955  0.986199  0.396900  1
  I  I22  1  0.760174  0.332828  0.261255  1
  I  I23  1  0.317880  0.168282  0.113201  1
  I  I24  1  0.533771  0.351204  0.895464  1
  I  I25  1  0.760174  0.167172  0.761255  1
  I  I26  1  0.060955  0.513801  0.896900  1
  I  I27  1  0.533771  0.148796  0.395464  1
  I  I28  1  0.939045  0.486199  0.103100  1
  I  I29  1  0.239826  0.832828  0.238745  1
  I  I30  1  0.799435  0.469767  0.605502  1
  I  I31  1  0.200565  0.969767  0.894498  1
  I  I32  1  0.317880  0.331718  0.613201  1
  I  I33  1  0.939045  0.013801  0.603100  1
  I  I34  1  0.200565  0.530233  0.394498  1
  I  I35  1  0.682120  0.831718  0.886799  1
