# generated using pymatgen
data_CsAs3O8
_symmetry_space_group_name_H-M   'P 1'
_cell_length_a   7.39539840
_cell_length_b   7.39539840
_cell_length_c   7.77673316
_cell_angle_alpha   76.83434927
_cell_angle_beta   103.16565073
_cell_angle_gamma   72.16009419
_symmetry_Int_Tables_number   1
_chemical_formula_structural   CsAs3O8
_chemical_formula_sum   'Cs2 As6 O16'
_cell_volume   373.36663744
_cell_formula_units_Z   2
loop_
 _symmetry_equiv_pos_site_id
 _symmetry_equiv_pos_as_xyz
  1  'x, y, z'
loop_
 _atom_site_type_symbol
 _atom_site_label
 _atom_site_symmetry_multiplicity
 _atom_site_fract_x
 _atom_site_fract_y
 _atom_site_fract_z
 _atom_site_occupancy
  Cs  Cs0  1  0.424221  0.424221  0.750000  1
  Cs  Cs1  1  0.575779  0.575779  0.250000  1
  As  As2  1  0.948947  0.704896  0.927777  1
  As  As3  1  0.704896  0.948947  0.572223  1
  As  As4  1  0.068450  0.068450  0.750000  1
  As  As5  1  0.295104  0.051053  0.427777  1
  As  As6  1  0.051053  0.295104  0.072223  1
  As  As7  1  0.931550  0.931550  0.250000  1
  O  O8  1  0.523551  0.823246  0.529152  1
  O  O9  1  0.847744  0.132227  0.571753  1
  O  O10  1  0.867773  0.152256  0.071753  1
  O  O11  1  0.271997  0.045697  0.670995  1
  O  O12  1  0.476449  0.176754  0.470848  1
  O  O13  1  0.132227  0.847744  0.928247  1
  O  O14  1  0.954303  0.728003  0.170995  1
  O  O15  1  0.720464  0.928932  0.819590  1
  O  O16  1  0.176754  0.476449  0.029152  1
  O  O17  1  0.728003  0.954303  0.329005  1
  O  O18  1  0.045697  0.271997  0.829005  1
  O  O19  1  0.279536  0.071068  0.180410  1
  O  O20  1  0.152256  0.867773  0.428247  1
  O  O21  1  0.071068  0.279536  0.319590  1
  O  O22  1  0.928932  0.720464  0.680410  1
  O  O23  1  0.823246  0.523551  0.970848  1
