# generated using pymatgen
data_ZrNCl
_symmetry_space_group_name_H-M   'P 1'
_cell_length_a   9.89271390
_cell_length_b   9.89271390
_cell_length_c   9.89271390
_cell_angle_alpha   21.23697124
_cell_angle_beta   21.23697124
_cell_angle_gamma   21.23697124
_symmetry_Int_Tables_number   1
_chemical_formula_structural   ZrNCl
_chemical_formula_sum   'Zr2 N2 Cl2'
_cell_volume   111.27013089
_cell_formula_units_Z   2
loop_
 _symmetry_equiv_pos_site_id
 _symmetry_equiv_pos_as_xyz
  1  'x, y, z'
loop_
 _atom_site_type_symbol
 _atom_site_label
 _atom_site_symmetry_multiplicity
 _atom_site_fract_x
 _atom_site_fract_y
 _atom_site_fract_z
 _atom_site_occupancy
  Zr  Zr0  1  0.212130  0.212130  0.212130  1
  Zr  Zr1  1  0.787870  0.787870  0.787870  1
  N  N2  1  0.136749  0.136749  0.136749  1
  N  N3  1  0.863251  0.863251  0.863251  1
  Cl  Cl4  1  0.608078  0.608078  0.608078  1
  Cl  Cl5  1  0.391922  0.391922  0.391922  1
