# generated using pymatgen
data_K5V3O10
_symmetry_space_group_name_H-M   'P 1'
_cell_length_a   8.32561729
_cell_length_b   8.32561729
_cell_length_c   19.15875668
_cell_angle_alpha   90.00000000
_cell_angle_beta   90.00000000
_cell_angle_gamma   90.00000000
_symmetry_Int_Tables_number   1
_chemical_formula_structural   K5V3O10
_chemical_formula_sum   'K20 V12 O40'
_cell_volume   1328.00652460
_cell_formula_units_Z   4
loop_
 _symmetry_equiv_pos_site_id
 _symmetry_equiv_pos_as_xyz
  1  'x, y, z'
loop_
 _atom_site_type_symbol
 _atom_site_label
 _atom_site_symmetry_multiplicity
 _atom_site_fract_x
 _atom_site_fract_y
 _atom_site_fract_z
 _atom_site_occupancy
  K  K0  1  0.235951  0.235951  0.000000  1
  K  K1  1  0.264049  0.735951  0.250000  1
  K  K2  1  0.735951  0.264049  0.750000  1
  K  K3  1  0.764049  0.764049  0.500000  1
  K  K4  1  0.001341  0.972742  0.108614  1
  K  K5  1  0.527258  0.501341  0.358614  1
  K  K6  1  0.472742  0.498659  0.858614  1
  K  K7  1  0.501341  0.527258  0.641386  1
  K  K8  1  0.498659  0.472742  0.141386  1
  K  K9  1  0.998659  0.027258  0.608614  1
  K  K10  1  0.972742  0.001341  0.891386  1
  K  K11  1  0.027258  0.998659  0.391386  1
  K  K12  1  0.508973  0.024063  0.382891  1
  K  K13  1  0.491027  0.975937  0.882891  1
  K  K14  1  0.024063  0.508973  0.617109  1
  K  K15  1  0.524063  0.991027  0.132891  1
  K  K16  1  0.475937  0.008973  0.632891  1
  K  K17  1  0.991027  0.524063  0.867109  1
  K  K18  1  0.008973  0.475937  0.367109  1
  K  K19  1  0.975937  0.491027  0.117109  1
  V  V20  1  0.808489  0.191511  0.250000  1
  V  V21  1  0.308489  0.308489  0.500000  1
  V  V22  1  0.691511  0.691511  0.000000  1
  V  V23  1  0.191511  0.808489  0.750000  1
  V  V24  1  0.233767  0.228614  0.232270  1
  V  V25  1  0.271386  0.733767  0.482270  1
  V  V26  1  0.728614  0.266233  0.982270  1
  V  V27  1  0.733767  0.271386  0.517730  1
  V  V28  1  0.266233  0.728614  0.017730  1
  V  V29  1  0.766233  0.771386  0.732270  1
  V  V30  1  0.228614  0.233767  0.767730  1
  V  V31  1  0.771386  0.766233  0.267730  1
  O  O32  1  0.596419  0.684381  0.237649  1
  O  O33  1  0.403581  0.315619  0.737649  1
  O  O34  1  0.684381  0.596419  0.762351  1
  O  O35  1  0.184381  0.903581  0.987649  1
  O  O36  1  0.815619  0.096419  0.487649  1
  O  O37  1  0.903581  0.184381  0.012351  1
  O  O38  1  0.096419  0.815619  0.512351  1
  O  O39  1  0.315619  0.403581  0.262351  1
  O  O40  1  0.939754  0.668608  0.238723  1
  O  O41  1  0.060246  0.331392  0.738723  1
  O  O42  1  0.668608  0.939754  0.761277  1
  O  O43  1  0.168608  0.560246  0.988723  1
  O  O44  1  0.831392  0.439754  0.488723  1
  O  O45  1  0.560246  0.168608  0.011277  1
  O  O46  1  0.439754  0.831392  0.511277  1
  O  O47  1  0.331392  0.060246  0.261277  1
  O  O48  1  0.768722  0.762106  0.357685  1
  O  O49  1  0.715994  0.257111  0.322820  1
  O  O50  1  0.231278  0.237894  0.857685  1
  O  O51  1  0.262106  0.731278  0.107685  1
  O  O52  1  0.737894  0.268722  0.607685  1
  O  O53  1  0.731278  0.262106  0.892315  1
  O  O54  1  0.268722  0.737894  0.392315  1
  O  O55  1  0.237894  0.231278  0.142315  1
  O  O56  1  0.778297  0.978863  0.236965  1
  O  O57  1  0.221703  0.021137  0.736965  1
  O  O58  1  0.978863  0.778297  0.763035  1
  O  O59  1  0.478863  0.721703  0.986965  1
  O  O60  1  0.521137  0.278297  0.486965  1
  O  O61  1  0.721703  0.478863  0.013035  1
  O  O62  1  0.278297  0.521137  0.513035  1
  O  O63  1  0.021137  0.221703  0.263035  1
  O  O64  1  0.742889  0.284006  0.177180  1
  O  O65  1  0.215994  0.242889  0.427180  1
  O  O66  1  0.784006  0.757111  0.927180  1
  O  O67  1  0.242889  0.215994  0.572820  1
  O  O68  1  0.757111  0.784006  0.072820  1
  O  O69  1  0.257111  0.715994  0.677180  1
  O  O70  1  0.284006  0.742889  0.822820  1
  O  O71  1  0.762106  0.768722  0.642315  1
