# generated using pymatgen
data_SiO2
_symmetry_space_group_name_H-M   'P 1'
_cell_length_a   7.48264744
_cell_length_b   19.72797130
_cell_length_c   9.80114686
_cell_angle_alpha   90.00000000
_cell_angle_beta   98.66103346
_cell_angle_gamma   90.00000000
_symmetry_Int_Tables_number   1
_chemical_formula_structural   SiO2
_chemical_formula_sum   'Si24 O48'
_cell_volume   1430.32157254
_cell_formula_units_Z   24
loop_
 _symmetry_equiv_pos_site_id
 _symmetry_equiv_pos_as_xyz
  1  'x, y, z'
loop_
 _atom_site_type_symbol
 _atom_site_label
 _atom_site_symmetry_multiplicity
 _atom_site_fract_x
 _atom_site_fract_y
 _atom_site_fract_z
 _atom_site_occupancy
  Si  Si0  1  0.464748  0.670832  0.115554  1
  Si  Si1  1  0.691678  0.557653  0.654456  1
  Si  Si2  1  0.922145  0.107336  0.975074  1
  Si  Si3  1  0.407357  0.055079  0.669684  1
  Si  Si4  1  0.308322  0.057653  0.345544  1
  Si  Si5  1  0.708845  0.828916  0.879851  1
  Si  Si6  1  0.407357  0.444921  0.669684  1
  Si  Si7  1  0.938787  0.001888  0.215514  1
  Si  Si8  1  0.592643  0.555079  0.330316  1
  Si  Si9  1  0.535252  0.170832  0.884446  1
  Si  Si10  1  0.922145  0.392664  0.975074  1
  Si  Si11  1  0.077855  0.892664  0.024926  1
  Si  Si12  1  0.291155  0.171084  0.120149  1
  Si  Si13  1  0.938787  0.498112  0.215514  1
  Si  Si14  1  0.077855  0.607336  0.024926  1
  Si  Si15  1  0.592643  0.944921  0.330316  1
  Si  Si16  1  0.308322  0.442347  0.345544  1
  Si  Si17  1  0.061213  0.998112  0.784486  1
  Si  Si18  1  0.708845  0.671084  0.879851  1
  Si  Si19  1  0.535252  0.329168  0.884446  1
  Si  Si20  1  0.061213  0.501888  0.784486  1
  Si  Si21  1  0.691678  0.942347  0.654456  1
  Si  Si22  1  0.464748  0.829168  0.115554  1
  Si  Si23  1  0.291155  0.328916  0.120149  1
  O  O24  1  0.580809  0.005241  0.710042  1
  O  O25  1  0.695840  0.750000  0.833492  1
  O  O26  1  0.557452  0.874799  0.244719  1
  O  O27  1  0.131411  0.553724  0.910946  1
  O  O28  1  0.492416  0.750000  0.159514  1
  O  O29  1  0.749810  0.154863  0.921258  1
  O  O30  1  0.338464  0.374613  0.258184  1
  O  O31  1  0.087566  0.344342  0.042609  1
  O  O32  1  0.419191  0.994759  0.289958  1
  O  O33  1  0.771965  0.516856  0.295357  1
  O  O34  1  0.661536  0.874613  0.741816  1
  O  O35  1  0.981319  0.066824  0.844434  1
  O  O36  1  0.018681  0.933176  0.155566  1
  O  O37  1  0.905571  0.961953  0.674388  1
  O  O38  1  0.381339  0.073171  0.506403  1
  O  O39  1  0.868589  0.446276  0.089054  1
  O  O40  1  0.618661  0.926829  0.493597  1
  O  O41  1  0.250190  0.845137  0.078742  1
  O  O42  1  0.018681  0.566824  0.155566  1
  O  O43  1  0.580809  0.494759  0.710042  1
  O  O44  1  0.438259  0.154231  0.018516  1
  O  O45  1  0.381339  0.426829  0.506403  1
  O  O46  1  0.442548  0.374799  0.755281  1
  O  O47  1  0.557452  0.625201  0.244719  1
  O  O48  1  0.561741  0.654231  0.981484  1
  O  O49  1  0.094429  0.038047  0.325612  1
  O  O50  1  0.981319  0.433176  0.844434  1
  O  O51  1  0.250190  0.654863  0.078742  1
  O  O52  1  0.618661  0.573171  0.493597  1
  O  O53  1  0.438259  0.345769  0.018516  1
  O  O54  1  0.442548  0.125201  0.755281  1
  O  O55  1  0.905571  0.538047  0.674388  1
  O  O56  1  0.228035  0.483144  0.704643  1
  O  O57  1  0.771965  0.983144  0.295357  1
  O  O58  1  0.661536  0.625387  0.741816  1
  O  O59  1  0.561741  0.845769  0.981484  1
  O  O60  1  0.419191  0.505241  0.289958  1
  O  O61  1  0.749810  0.345137  0.921258  1
  O  O62  1  0.338464  0.125387  0.258184  1
  O  O63  1  0.868589  0.053724  0.089054  1
  O  O64  1  0.094429  0.461953  0.325612  1
  O  O65  1  0.507584  0.250000  0.840486  1
  O  O66  1  0.087566  0.155658  0.042609  1
  O  O67  1  0.912434  0.655658  0.957391  1
  O  O68  1  0.131411  0.946276  0.910946  1
  O  O69  1  0.304160  0.250000  0.166508  1
  O  O70  1  0.228035  0.016856  0.704643  1
  O  O71  1  0.912434  0.844342  0.957391  1
