# generated using pymatgen
data_Na2FeNiF7
_symmetry_space_group_name_H-M   'P 1'
_cell_length_a   7.39679476
_cell_length_b   7.39679476
_cell_length_c   7.39679476
_cell_angle_alpha   120.92135439
_cell_angle_beta   118.60241393
_cell_angle_gamma   90.42457313
_symmetry_Int_Tables_number   1
_chemical_formula_structural   Na2FeNiF7
_chemical_formula_sum   'Na4 Fe2 Ni2 F14'
_cell_volume   287.04017776
_cell_formula_units_Z   2
loop_
 _symmetry_equiv_pos_site_id
 _symmetry_equiv_pos_as_xyz
  1  'x, y, z'
loop_
 _atom_site_type_symbol
 _atom_site_label
 _atom_site_symmetry_multiplicity
 _atom_site_fract_x
 _atom_site_fract_y
 _atom_site_fract_z
 _atom_site_occupancy
  Na  Na0  1  0.000000  0.500000  0.500000  1
  Na  Na1  1  0.500000  0.000000  0.500000  1
  Na  Na2  1  0.000000  0.500000  0.000000  1
  Na  Na3  1  0.000000  0.000000  0.500000  1
  Fe  Fe4  1  0.500000  0.500000  0.000000  1
  Fe  Fe5  1  0.000000  0.000000  0.000000  1
  Ni  Ni6  1  0.500000  0.500000  0.500000  1
  Ni  Ni7  1  0.500000  0.000000  0.000000  1
  F  F8  1  0.552880  0.815792  0.136839  1
  F  F9  1  0.447120  0.583959  0.262912  1
  F  F10  1  0.821046  0.684208  0.737088  1
  F  F11  1  0.178954  0.916041  0.863161  1
  F  F12  1  0.447120  0.184208  0.863161  1
  F  F13  1  0.552880  0.416041  0.737088  1
  F  F14  1  0.178954  0.315792  0.262912  1
  F  F15  1  0.821046  0.083959  0.136839  1
  F  F16  1  0.397105  0.750000  0.647105  1
  F  F17  1  0.602895  0.250000  0.352895  1
  F  F18  1  0.138862  0.908714  0.230149  1
  F  F19  1  0.861138  0.091286  0.769851  1
  F  F20  1  0.821435  0.591286  0.230149  1
  F  F21  1  0.178565  0.408714  0.769851  1
