# generated using pymatgen
data_CuBi2(SeO3)4
_symmetry_space_group_name_H-M   'P 1'
_cell_length_a   8.18020917
_cell_length_b   7.46305325
_cell_length_c   10.83381132
_cell_angle_alpha   90.00000000
_cell_angle_beta   110.60962827
_cell_angle_gamma   90.00000000
_symmetry_Int_Tables_number   1
_chemical_formula_structural   CuBi2(SeO3)4
_chemical_formula_sum   'Cu2 Bi4 Se8 O24'
_cell_volume   619.06784921
_cell_formula_units_Z   2
loop_
 _symmetry_equiv_pos_site_id
 _symmetry_equiv_pos_as_xyz
  1  'x, y, z'
loop_
 _atom_site_type_symbol
 _atom_site_label
 _atom_site_symmetry_multiplicity
 _atom_site_fract_x
 _atom_site_fract_y
 _atom_site_fract_z
 _atom_site_occupancy
  Cu  Cu0  1  0.500000  0.000000  0.000000  1
  Cu  Cu1  1  0.000000  0.500000  0.000000  1
  Bi  Bi2  1  0.247932  0.884841  0.601124  1
  Bi  Bi3  1  0.252068  0.384841  0.398876  1
  Bi  Bi4  1  0.752068  0.115159  0.398876  1
  Bi  Bi5  1  0.747932  0.615159  0.601124  1
  Se  Se6  1  0.355434  0.827918  0.313334  1
  Se  Se7  1  0.889122  0.165828  0.130964  1
  Se  Se8  1  0.855434  0.672082  0.313334  1
  Se  Se9  1  0.389122  0.334172  0.130964  1
  Se  Se10  1  0.144566  0.327918  0.686666  1
  Se  Se11  1  0.644566  0.172082  0.686666  1
  Se  Se12  1  0.110878  0.834172  0.869036  1
  Se  Se13  1  0.610878  0.665828  0.869036  1
  O  O14  1  0.521594  0.725811  0.705069  1
  O  O15  1  0.920382  0.855199  0.423079  1
  O  O16  1  0.079618  0.144801  0.576921  1
  O  O17  1  0.805685  0.516780  0.412405  1
  O  O18  1  0.978406  0.225811  0.294931  1
  O  O19  1  0.021594  0.774189  0.705069  1
  O  O20  1  0.420382  0.644801  0.423079  1
  O  O21  1  0.312660  0.890295  0.853267  1
  O  O22  1  0.440387  0.114976  0.688516  1
  O  O23  1  0.478406  0.274189  0.294931  1
  O  O24  1  0.325489  0.137811  0.042530  1
  O  O25  1  0.825489  0.362189  0.042530  1
  O  O26  1  0.559613  0.885024  0.311484  1
  O  O27  1  0.687340  0.109705  0.146733  1
  O  O28  1  0.187340  0.390295  0.146733  1
  O  O29  1  0.579618  0.355199  0.576921  1
  O  O30  1  0.812660  0.609705  0.853267  1
  O  O31  1  0.194315  0.483220  0.587595  1
  O  O32  1  0.694315  0.016780  0.587595  1
  O  O33  1  0.305685  0.983220  0.412405  1
  O  O34  1  0.059613  0.614976  0.311484  1
  O  O35  1  0.174511  0.637811  0.957470  1
  O  O36  1  0.674511  0.862189  0.957470  1
  O  O37  1  0.940387  0.385024  0.688516  1
