# generated using pymatgen
data_LuMoClO4
_symmetry_space_group_name_H-M   'P 1'
_cell_length_a   5.93998109
_cell_length_b   6.50067135
_cell_length_c   6.94009230
_cell_angle_alpha   73.47456426
_cell_angle_beta   77.85245210
_cell_angle_gamma   71.09816775
_symmetry_Int_Tables_number   1
_chemical_formula_structural   LuMoClO4
_chemical_formula_sum   'Lu2 Mo2 Cl2 O8'
_cell_volume   240.98436508
_cell_formula_units_Z   2
loop_
 _symmetry_equiv_pos_site_id
 _symmetry_equiv_pos_as_xyz
  1  'x, y, z'
loop_
 _atom_site_type_symbol
 _atom_site_label
 _atom_site_symmetry_multiplicity
 _atom_site_fract_x
 _atom_site_fract_y
 _atom_site_fract_z
 _atom_site_occupancy
  Lu  Lu0  1  0.757583  0.801623  0.131194  1
  Lu  Lu1  1  0.242417  0.198377  0.868806  1
  Mo  Mo2  1  0.623770  0.644164  0.732551  1
  Mo  Mo3  1  0.376230  0.355836  0.267449  1
  Cl  Cl4  1  0.010070  0.025015  0.225512  1
  Cl  Cl5  1  0.989930  0.974985  0.774488  1
  O  O6  1  0.091194  0.522921  0.190230  1
  O  O7  1  0.908806  0.477079  0.809770  1
  O  O8  1  0.344101  0.250071  0.534211  1
  O  O9  1  0.576732  0.525580  0.201713  1
  O  O10  1  0.655899  0.749929  0.465789  1
  O  O11  1  0.477664  0.129697  0.129383  1
  O  O12  1  0.522336  0.870303  0.870617  1
  O  O13  1  0.423268  0.474420  0.798287  1
