# generated using pymatgen
data_K4W2Cl10O
_symmetry_space_group_name_H-M   'P 1'
_cell_length_a   10.40973715
_cell_length_b   10.40973715
_cell_length_c   10.40973715
_cell_angle_alpha   138.65388408
_cell_angle_beta   138.65388408
_cell_angle_gamma   59.90300622
_symmetry_Int_Tables_number   1
_chemical_formula_structural   K4W2Cl10O
_chemical_formula_sum   'K4 W2 Cl10 O1'
_cell_volume   487.25612045
_cell_formula_units_Z   1
loop_
 _symmetry_equiv_pos_site_id
 _symmetry_equiv_pos_as_xyz
  1  'x, y, z'
loop_
 _atom_site_type_symbol
 _atom_site_label
 _atom_site_symmetry_multiplicity
 _atom_site_fract_x
 _atom_site_fract_y
 _atom_site_fract_z
 _atom_site_occupancy
  K  K0  1  0.250000  0.750000  0.500000  1
  K  K1  1  0.500000  0.000000  0.500000  1
  K  K2  1  0.750000  0.250000  0.500000  1
  K  K3  1  1.000000  0.500000  0.500000  1
  W  W4  1  0.106588  0.106588  0.000000  1
  W  W5  1  0.893412  0.893412  0.000000  1
  Cl  Cl6  1  0.650545  0.125601  1.000000  1
  Cl  Cl7  1  0.349455  0.349455  0.475056  1
  Cl  Cl8  1  0.757938  0.757938  0.000000  1
  Cl  Cl9  1  0.242062  0.242062  0.000000  1
  Cl  Cl10  1  0.125601  0.650545  0.000000  1
  Cl  Cl11  1  0.874399  0.349455  0.000000  1
  Cl  Cl12  1  0.650545  0.650545  0.524944  1
  Cl  Cl13  1  0.874399  0.874399  0.524944  1
  Cl  Cl14  1  0.125601  0.125601  0.475056  1
  Cl  Cl15  1  0.349455  0.874399  1.000000  1
  O  O16  1  0.000000  0.000000  0.000000  1
