# generated using pymatgen
data_SiPb4(ClO)4
_symmetry_space_group_name_H-M   'P 1'
_cell_length_a   8.43866852
_cell_length_b   15.89886600
_cell_length_c   8.91091421
_cell_angle_alpha   90.00000000
_cell_angle_beta   92.10353927
_cell_angle_gamma   90.00000000
_symmetry_Int_Tables_number   1
_chemical_formula_structural   SiPb4(ClO)4
_chemical_formula_sum   'Si4 Pb16 Cl16 O16'
_cell_volume   1194.72948437
_cell_formula_units_Z   4
loop_
 _symmetry_equiv_pos_site_id
 _symmetry_equiv_pos_as_xyz
  1  'x, y, z'
loop_
 _atom_site_type_symbol
 _atom_site_label
 _atom_site_symmetry_multiplicity
 _atom_site_fract_x
 _atom_site_fract_y
 _atom_site_fract_z
 _atom_site_occupancy
  Si  Si0  1  0.648353  0.351537  0.633668  1
  Si  Si1  1  0.148353  0.148463  0.633668  1
  Si  Si2  1  0.351647  0.648463  0.366332  1
  Si  Si3  1  0.851647  0.851537  0.366332  1
  Pb  Pb4  1  0.495853  0.202070  0.430378  1
  Pb  Pb5  1  0.295555  0.008356  0.844282  1
  Pb  Pb6  1  0.204445  0.508356  0.155718  1
  Pb  Pb7  1  0.070498  0.756331  0.107532  1
  Pb  Pb8  1  0.429502  0.256331  0.892468  1
  Pb  Pb9  1  0.153916  0.030242  0.345266  1
  Pb  Pb10  1  0.846084  0.969758  0.654734  1
  Pb  Pb11  1  0.995853  0.297930  0.430378  1
  Pb  Pb12  1  0.004147  0.702070  0.569622  1
  Pb  Pb13  1  0.795555  0.491644  0.844282  1
  Pb  Pb14  1  0.504147  0.797930  0.569622  1
  Pb  Pb15  1  0.704445  0.991644  0.155718  1
  Pb  Pb16  1  0.346084  0.530242  0.654734  1
  Pb  Pb17  1  0.653916  0.469758  0.345266  1
  Pb  Pb18  1  0.570498  0.743669  0.107532  1
  Pb  Pb19  1  0.929502  0.243669  0.892468  1
  Cl  Cl20  1  0.169081  0.375833  0.838817  1
  Cl  Cl21  1  0.116654  0.608862  0.871610  1
  Cl  Cl22  1  0.619532  0.653669  0.727188  1
  Cl  Cl23  1  0.883346  0.391138  0.128390  1
  Cl  Cl24  1  0.880468  0.153669  0.272812  1
  Cl  Cl25  1  0.380468  0.346331  0.272812  1
  Cl  Cl26  1  0.000000  0.000000  0.000000  1
  Cl  Cl27  1  0.383346  0.108862  0.128390  1
  Cl  Cl28  1  0.669081  0.124167  0.838817  1
  Cl  Cl29  1  0.500000  0.000000  0.500000  1
  Cl  Cl30  1  0.330919  0.875833  0.161183  1
  Cl  Cl31  1  0.830919  0.624167  0.161183  1
  Cl  Cl32  1  0.119532  0.846331  0.727188  1
  Cl  Cl33  1  0.616654  0.891138  0.871610  1
  Cl  Cl34  1  0.000000  0.500000  0.500000  1
  Cl  Cl35  1  0.500000  0.500000  0.000000  1
  O  O36  1  0.769049  0.828792  0.526013  1
  O  O37  1  0.895661  0.953329  0.375171  1
  O  O38  1  0.604339  0.453329  0.624829  1
  O  O39  1  0.395661  0.546671  0.375171  1
  O  O40  1  0.993445  0.210524  0.647036  1
  O  O41  1  0.269049  0.671208  0.526013  1
  O  O42  1  0.493445  0.289476  0.647036  1
  O  O43  1  0.763312  0.344105  0.787178  1
  O  O44  1  0.230951  0.171208  0.473987  1
  O  O45  1  0.506555  0.710524  0.352964  1
  O  O46  1  0.104339  0.046671  0.624829  1
  O  O47  1  0.006555  0.789476  0.352964  1
  O  O48  1  0.736688  0.844105  0.212822  1
  O  O49  1  0.263312  0.155895  0.787178  1
  O  O50  1  0.236688  0.655895  0.212822  1
  O  O51  1  0.730951  0.328792  0.473987  1
