# generated using pymatgen
data_Ba5Si(Cl3O2)2
_symmetry_space_group_name_H-M   'P 1'
_cell_length_a   8.92860367
_cell_length_b   8.92860367
_cell_length_c   11.85388582
_cell_angle_alpha   82.31749684
_cell_angle_beta   97.68250316
_cell_angle_gamma   65.54829631
_symmetry_Int_Tables_number   1
_chemical_formula_structural   Ba5Si(Cl3O2)2
_chemical_formula_sum   'Ba10 Si2 Cl12 O8'
_cell_volume   833.59155940
_cell_formula_units_Z   2
loop_
 _symmetry_equiv_pos_site_id
 _symmetry_equiv_pos_as_xyz
  1  'x, y, z'
loop_
 _atom_site_type_symbol
 _atom_site_label
 _atom_site_symmetry_multiplicity
 _atom_site_fract_x
 _atom_site_fract_y
 _atom_site_fract_z
 _atom_site_occupancy
  Ba  Ba0  1  0.683971  0.570965  0.479721  1
  Ba  Ba1  1  0.798363  0.798363  0.750000  1
  Ba  Ba2  1  0.766341  0.077422  0.366150  1
  Ba  Ba3  1  0.077422  0.766341  0.133850  1
  Ba  Ba4  1  0.316029  0.429035  0.520279  1
  Ba  Ba5  1  0.201637  0.201637  0.250000  1
  Ba  Ba6  1  0.922578  0.233659  0.866150  1
  Ba  Ba7  1  0.233659  0.922578  0.633850  1
  Ba  Ba8  1  0.429035  0.316029  0.979721  1
  Ba  Ba9  1  0.570965  0.683971  0.020279  1
  Si  Si10  1  0.422565  0.422565  0.250000  1
  Si  Si11  1  0.577435  0.577435  0.750000  1
  Cl  Cl12  1  0.201821  0.856527  0.366166  1
  Cl  Cl13  1  0.019234  0.279982  0.451295  1
  Cl  Cl14  1  0.720018  0.980766  0.951295  1
  Cl  Cl15  1  0.798179  0.143473  0.633834  1
  Cl  Cl16  1  0.856527  0.201821  0.133834  1
  Cl  Cl17  1  0.758222  0.758222  0.250000  1
  Cl  Cl18  1  0.980766  0.720018  0.548705  1
  Cl  Cl19  1  0.143473  0.798179  0.866166  1
  Cl  Cl20  1  0.241778  0.241778  0.750000  1
  Cl  Cl21  1  0.000000  0.500000  0.000000  1
  Cl  Cl22  1  0.279982  0.019234  0.048705  1
  Cl  Cl23  1  0.500000  0.000000  0.500000  1
  O  O24  1  0.402115  0.557162  0.132449  1
  O  O25  1  0.236254  0.476747  0.286023  1
  O  O26  1  0.557162  0.402115  0.367551  1
  O  O27  1  0.523253  0.763746  0.786023  1
  O  O28  1  0.476747  0.236254  0.213977  1
  O  O29  1  0.442838  0.597885  0.632449  1
  O  O30  1  0.763746  0.523253  0.713977  1
  O  O31  1  0.597885  0.442838  0.867551  1
