# generated using pymatgen
data_Li7Mo4P9O32
_symmetry_space_group_name_H-M   'P 1'
_cell_length_a   14.13153635
_cell_length_b   14.13153635
_cell_length_c   6.60343416
_cell_angle_alpha   90.00000000
_cell_angle_beta   90.00000000
_cell_angle_gamma   90.00000000
_symmetry_Int_Tables_number   1
_chemical_formula_structural   Li7Mo4P9O32
_chemical_formula_sum   'Li14 Mo8 P18 O64'
_cell_volume   1318.70791228
_cell_formula_units_Z   2
loop_
 _symmetry_equiv_pos_site_id
 _symmetry_equiv_pos_as_xyz
  1  'x, y, z'
loop_
 _atom_site_type_symbol
 _atom_site_label
 _atom_site_symmetry_multiplicity
 _atom_site_fract_x
 _atom_site_fract_y
 _atom_site_fract_z
 _atom_site_occupancy
  Li  Li0  1  0.000000  0.000000  0.000000  1
  Li  Li1  1  0.000000  0.500000  0.132136  1
  Li  Li2  1  0.000000  0.500000  0.632136  1
  Li  Li3  1  0.111832  0.254424  0.797061  1
  Li  Li4  1  0.245576  0.388168  0.297061  1
  Li  Li5  1  0.254424  0.888168  0.202939  1
  Li  Li6  1  0.388168  0.754424  0.702939  1
  Li  Li7  1  0.500000  0.000000  0.367864  1
  Li  Li8  1  0.500000  0.000000  0.867864  1
  Li  Li9  1  0.500000  0.500000  0.500000  1
  Li  Li10  1  0.611832  0.245576  0.702939  1
  Li  Li11  1  0.745576  0.111832  0.202939  1
  Li  Li12  1  0.754424  0.611832  0.297061  1
  Li  Li13  1  0.888168  0.745576  0.797061  1
  Mo  Mo14  1  0.120981  0.801256  0.618561  1
  Mo  Mo15  1  0.198744  0.120981  0.381439  1
  Mo  Mo16  1  0.301256  0.620981  0.118561  1
  Mo  Mo17  1  0.379019  0.301256  0.881439  1
  Mo  Mo18  1  0.620981  0.698744  0.881439  1
  Mo  Mo19  1  0.698744  0.379019  0.118561  1
  Mo  Mo20  1  0.801256  0.879019  0.381439  1
  Mo  Mo21  1  0.879019  0.198744  0.618561  1
  P  P22  1  0.939610  0.690259  0.383257  1
  P  P23  1  0.897826  0.247824  0.128450  1
  P  P24  1  0.809741  0.560390  0.883257  1
  P  P25  1  0.752176  0.897826  0.871550  1
  P  P26  1  0.747824  0.397826  0.628450  1
  P  P27  1  0.690259  0.060390  0.616743  1
  P  P28  1  0.602174  0.747824  0.371550  1
  P  P29  1  0.560390  0.190259  0.116743  1
  P  P30  1  0.000000  0.000000  0.500000  1
  P  P31  1  0.060390  0.309741  0.383257  1
  P  P32  1  0.102174  0.752176  0.128450  1
  P  P33  1  0.190259  0.439610  0.883257  1
  P  P34  1  0.247824  0.102174  0.871550  1
  P  P35  1  0.500000  0.500000  0.000000  1
  P  P36  1  0.309741  0.939610  0.616743  1
  P  P37  1  0.397826  0.252176  0.371550  1
  P  P38  1  0.439610  0.809741  0.116743  1
  P  P39  1  0.252176  0.602174  0.628450  1
  O  O40  1  0.554173  0.083557  0.114895  1
  O  O41  1  0.981366  0.740365  0.571244  1
  O  O42  1  0.940358  0.937064  0.354818  1
  O  O43  1  0.945827  0.583557  0.385105  1
  O  O44  1  0.937064  0.059642  0.645182  1
  O  O45  1  0.916443  0.554173  0.885105  1
  O  O46  1  0.904784  0.189487  0.935486  1
  O  O47  1  0.846605  0.341884  0.109555  1
  O  O48  1  0.007014  0.270593  0.181592  1
  O  O49  1  0.018634  0.259635  0.571244  1
  O  O50  1  0.059642  0.062936  0.354818  1
  O  O51  1  0.054173  0.416443  0.385105  1
  O  O52  1  0.062936  0.940358  0.645182  1
  O  O53  1  0.083557  0.445827  0.885105  1
  O  O54  1  0.095216  0.810513  0.935486  1
  O  O55  1  0.141833  0.816105  0.297446  1
  O  O56  1  0.153395  0.658116  0.109555  1
  O  O57  1  0.158116  0.653395  0.609555  1
  O  O58  1  0.162853  0.273707  0.350617  1
  O  O59  1  0.183895  0.141833  0.702554  1
  O  O60  1  0.189487  0.095216  0.064514  1
  O  O61  1  0.226293  0.337147  0.850617  1
  O  O62  1  0.229407  0.492986  0.681592  1
  O  O63  1  0.240365  0.481366  0.071244  1
  O  O64  1  0.259635  0.981366  0.428756  1
  O  O65  1  0.270593  0.992986  0.818408  1
  O  O66  1  0.273707  0.837147  0.649383  1
  O  O67  1  0.310513  0.595216  0.435486  1
  O  O68  1  0.316105  0.641833  0.797446  1
  O  O69  1  0.337147  0.773707  0.149383  1
  O  O70  1  0.341884  0.153395  0.890445  1
  O  O71  1  0.346605  0.158116  0.390445  1
  O  O72  1  0.358167  0.316105  0.202554  1
  O  O73  1  0.404784  0.310513  0.564514  1
  O  O74  1  0.416443  0.945827  0.614895  1
  O  O75  1  0.437064  0.440358  0.854818  1
  O  O76  1  0.445827  0.916443  0.114895  1
  O  O77  1  0.440358  0.562936  0.145182  1
  O  O78  1  0.481366  0.759635  0.928756  1
  O  O79  1  0.492986  0.770593  0.318408  1
  O  O80  1  0.507014  0.229407  0.318408  1
  O  O81  1  0.518634  0.240365  0.928756  1
  O  O82  1  0.559642  0.437064  0.145182  1
  O  O83  1  0.992986  0.729407  0.181592  1
  O  O84  1  0.562936  0.559642  0.854818  1
  O  O85  1  0.583557  0.054173  0.614895  1
  O  O86  1  0.595216  0.689487  0.564514  1
  O  O87  1  0.641833  0.683895  0.202554  1
  O  O88  1  0.653395  0.841884  0.390445  1
  O  O89  1  0.658116  0.846605  0.890445  1
  O  O90  1  0.662853  0.226293  0.149383  1
  O  O91  1  0.683895  0.358167  0.797446  1
  O  O92  1  0.689487  0.404784  0.435486  1
  O  O93  1  0.726293  0.162853  0.649383  1
  O  O94  1  0.729407  0.007014  0.818408  1
  O  O95  1  0.740365  0.018634  0.428756  1
  O  O96  1  0.759635  0.518634  0.071244  1
  O  O97  1  0.770593  0.507014  0.681592  1
  O  O98  1  0.773707  0.662853  0.850617  1
  O  O99  1  0.810513  0.904784  0.064514  1
  O  O100  1  0.816105  0.858167  0.702554  1
  O  O101  1  0.837147  0.726293  0.350617  1
  O  O102  1  0.841884  0.346605  0.609555  1
  O  O103  1  0.858167  0.183895  0.297446  1
