# generated using pymatgen
data_ZnS
_symmetry_space_group_name_H-M   'P 1'
_cell_length_a   3.85036482
_cell_length_b   3.85036482
_cell_length_c   75.56650545
_cell_angle_alpha   90.00000000
_cell_angle_beta   90.00000000
_cell_angle_gamma   120.00000000
_symmetry_Int_Tables_number   1
_chemical_formula_structural   ZnS
_chemical_formula_sum   'Zn24 S24'
_cell_volume   970.20549835
_cell_formula_units_Z   24
loop_
 _symmetry_equiv_pos_site_id
 _symmetry_equiv_pos_as_xyz
  1  'x, y, z'
loop_
 _atom_site_type_symbol
 _atom_site_label
 _atom_site_symmetry_multiplicity
 _atom_site_fract_x
 _atom_site_fract_y
 _atom_site_fract_z
 _atom_site_occupancy
  Zn  Zn0  1  0.000000  0.000000  0.833321  1
  Zn  Zn1  1  0.666667  0.333333  0.791694  1
  Zn  Zn2  1  0.000000  0.000000  0.333338  1
  Zn  Zn3  1  0.666667  0.333333  0.291696  1
  Zn  Zn4  1  0.333333  0.666667  0.374986  1
  Zn  Zn5  1  0.666667  0.333333  0.208321  1
  Zn  Zn6  1  0.666667  0.333333  0.708320  1
  Zn  Zn7  1  0.000000  0.000000  0.083321  1
  Zn  Zn8  1  0.333333  0.666667  0.541677  1
  Zn  Zn9  1  0.000000  0.000000  0.916694  1
  Zn  Zn10  1  0.333333  0.666667  0.125005  1
  Zn  Zn11  1  0.000000  0.000000  0.166694  1
  Zn  Zn12  1  0.666667  0.333333  0.041694  1
  Zn  Zn13  1  0.333333  0.666667  0.875005  1
  Zn  Zn14  1  0.666667  0.333333  0.416671  1
  Zn  Zn15  1  0.333333  0.666667  0.625028  1
  Zn  Zn16  1  0.666667  0.333333  0.958321  1
  Zn  Zn17  1  0.333333  0.666667  0.458343  1
  Zn  Zn18  1  0.666667  0.333333  0.583340  1
  Zn  Zn19  1  0.333333  0.666667  0.250005  1
  Zn  Zn20  1  0.000000  0.000000  0.666672  1
  Zn  Zn21  1  0.000000  0.000000  0.500005  1
  Zn  Zn22  1  0.333333  0.666667  0.000005  1
  Zn  Zn23  1  0.333333  0.666667  0.750005  1
  S  S24  1  0.000000  0.000000  0.947910  1
  S  S25  1  0.333333  0.666667  0.489546  1
  S  S26  1  0.333333  0.666667  0.406205  1
  S  S27  1  0.333333  0.666667  0.656249  1
  S  S28  1  0.000000  0.000000  0.697904  1
  S  S29  1  0.666667  0.333333  0.447942  1
  S  S30  1  0.333333  0.666667  0.031280  1
  S  S31  1  0.000000  0.000000  0.531275  1
  S  S32  1  0.666667  0.333333  0.989539  1
  S  S33  1  0.333333  0.666667  0.781280  1
  S  S34  1  0.333333  0.666667  0.572880  1
  S  S35  1  0.333333  0.666667  0.906280  1
  S  S36  1  0.666667  0.333333  0.739539  1
  S  S37  1  0.333333  0.666667  0.281281  1
  S  S38  1  0.000000  0.000000  0.364568  1
  S  S39  1  0.666667  0.333333  0.072910  1
  S  S40  1  0.000000  0.000000  0.114539  1
  S  S41  1  0.000000  0.000000  0.864539  1
  S  S42  1  0.666667  0.333333  0.822910  1
  S  S43  1  0.333333  0.666667  0.156280  1
  S  S44  1  0.666667  0.333333  0.239539  1
  S  S45  1  0.666667  0.333333  0.614614  1
  S  S46  1  0.666667  0.333333  0.322916  1
  S  S47  1  0.000000  0.000000  0.197910  1
