# generated using pymatgen
data_Ho2Cu(BO2)8
_symmetry_space_group_name_H-M   'P 1'
_cell_length_a   6.22914889
_cell_length_b   8.49928214
_cell_length_c   10.24786628
_cell_angle_alpha   90.00000000
_cell_angle_beta   90.00000000
_cell_angle_gamma   90.00000000
_symmetry_Int_Tables_number   1
_chemical_formula_structural   Ho2Cu(BO2)8
_chemical_formula_sum   'Ho4 Cu2 B16 O32'
_cell_volume   542.55579639
_cell_formula_units_Z   2
loop_
 _symmetry_equiv_pos_site_id
 _symmetry_equiv_pos_as_xyz
  1  'x, y, z'
loop_
 _atom_site_type_symbol
 _atom_site_label
 _atom_site_symmetry_multiplicity
 _atom_site_fract_x
 _atom_site_fract_y
 _atom_site_fract_z
 _atom_site_occupancy
  Ho  Ho0  1  0.500000  0.500000  0.817930  1
  Ho  Ho1  1  0.500000  0.500000  0.182070  1
  Ho  Ho2  1  0.000000  0.000000  0.182070  1
  Ho  Ho3  1  0.000000  0.000000  0.817930  1
  Cu  Cu4  1  0.500000  0.500000  0.500000  1
  Cu  Cu5  1  0.000000  0.000000  0.500000  1
  B  B6  1  0.881135  0.692971  0.622903  1
  B  B7  1  0.118865  0.307029  0.622903  1
  B  B8  1  0.381135  0.807029  0.622903  1
  B  B9  1  0.618865  0.192971  0.377097  1
  B  B10  1  0.881135  0.692971  0.377097  1
  B  B11  1  0.381135  0.807029  0.377097  1
  B  B12  1  0.500000  0.000000  0.806302  1
  B  B13  1  0.118865  0.307029  0.377097  1
  B  B14  1  0.000000  0.500000  0.193698  1
  B  B15  1  0.114359  0.682763  0.000000  1
  B  B16  1  0.500000  0.000000  0.193698  1
  B  B17  1  0.385641  0.182763  0.000000  1
  B  B18  1  0.885641  0.317237  0.000000  1
  B  B19  1  0.614359  0.817237  0.000000  1
  B  B20  1  0.000000  0.500000  0.806302  1
  B  B21  1  0.618865  0.192971  0.622903  1
  O  O22  1  0.062396  0.837283  0.000000  1
  O  O23  1  0.937191  0.844851  0.359086  1
  O  O24  1  0.148588  0.599206  0.116116  1
  O  O25  1  0.648588  0.900794  0.883884  1
  O  O26  1  0.437604  0.337283  0.000000  1
  O  O27  1  0.153339  0.406136  0.270225  1
  O  O28  1  0.649367  0.126752  0.500000  1
  O  O29  1  0.153339  0.406136  0.729775  1
  O  O30  1  0.653339  0.093864  0.729775  1
  O  O31  1  0.937191  0.844851  0.640914  1
  O  O32  1  0.148588  0.599206  0.883884  1
  O  O33  1  0.562809  0.344851  0.640914  1
  O  O34  1  0.648588  0.900794  0.116116  1
  O  O35  1  0.437191  0.655149  0.359086  1
  O  O36  1  0.351412  0.099206  0.883884  1
  O  O37  1  0.062809  0.155149  0.359086  1
  O  O38  1  0.149367  0.373248  0.500000  1
  O  O39  1  0.937604  0.162717  0.000000  1
  O  O40  1  0.846661  0.593864  0.729775  1
  O  O41  1  0.851412  0.400794  0.883884  1
  O  O42  1  0.846661  0.593864  0.270225  1
  O  O43  1  0.562809  0.344851  0.359086  1
  O  O44  1  0.350633  0.873248  0.500000  1
  O  O45  1  0.562396  0.662717  0.000000  1
  O  O46  1  0.346661  0.906136  0.270225  1
  O  O47  1  0.351412  0.099206  0.116116  1
  O  O48  1  0.653339  0.093864  0.270225  1
  O  O49  1  0.437191  0.655149  0.640914  1
  O  O50  1  0.851412  0.400794  0.116116  1
  O  O51  1  0.062809  0.155149  0.640914  1
  O  O52  1  0.346661  0.906136  0.729775  1
  O  O53  1  0.850633  0.626752  0.500000  1
