# generated using pymatgen
data_Na2HoMoPO8
_symmetry_space_group_name_H-M   'P 1'
_cell_length_a   11.48085862
_cell_length_b   11.48085862
_cell_length_c   11.48085862
_cell_angle_alpha   144.85696962
_cell_angle_beta   115.88014241
_cell_angle_gamma   75.27336091
_symmetry_Int_Tables_number   1
_chemical_formula_structural   Na2HoMoPO8
_chemical_formula_sum   'Na8 Ho4 Mo4 P4 O32'
_cell_volume   768.14986168
_cell_formula_units_Z   4
loop_
 _symmetry_equiv_pos_site_id
 _symmetry_equiv_pos_as_xyz
  1  'x, y, z'
loop_
 _atom_site_type_symbol
 _atom_site_label
 _atom_site_symmetry_multiplicity
 _atom_site_fract_x
 _atom_site_fract_y
 _atom_site_fract_z
 _atom_site_occupancy
  Na  Na0  1  0.709392  0.164025  0.067126  1
  Na  Na1  1  0.596899  0.664025  0.454634  1
  Na  Na2  1  0.209392  0.642266  0.045366  1
  Na  Na3  1  0.290608  0.835975  0.932874  1
  Na  Na4  1  0.903101  0.857734  0.567126  1
  Na  Na5  1  0.096899  0.142266  0.432874  1
  Na  Na6  1  0.403101  0.335975  0.545366  1
  Na  Na7  1  0.790608  0.357734  0.954634  1
  Ho  Ho8  1  0.822014  0.250000  0.572014  1
  Ho  Ho9  1  0.177986  0.750000  0.427986  1
  Ho  Ho10  1  0.322014  0.250000  0.072014  1
  Ho  Ho11  1  0.677986  0.750000  0.927986  1
  Mo  Mo12  1  0.072145  0.322145  0.250000  1
  Mo  Mo13  1  0.572145  0.822145  0.250000  1
  Mo  Mo14  1  0.927855  0.677855  0.750000  1
  Mo  Mo15  1  0.427855  0.177855  0.750000  1
  P  P16  1  0.569072  0.250000  0.319072  1
  P  P17  1  0.430928  0.750000  0.680928  1
  P  P18  1  0.930928  0.750000  0.180928  1
  P  P19  1  0.069072  0.250000  0.819072  1
  O  O20  1  0.938917  0.694784  0.269773  1
  O  O21  1  0.395628  0.330837  0.985019  1
  O  O22  1  0.138035  0.310368  0.412067  1
  O  O23  1  0.640605  0.416860  0.573532  1
  O  O24  1  0.925011  0.194784  0.755867  1
  O  O25  1  0.425011  0.169144  0.230227  1
  O  O26  1  0.861965  0.689632  0.587933  1
  O  O27  1  0.574989  0.830856  0.769773  1
  O  O28  1  0.061083  0.305216  0.730227  1
  O  O29  1  0.104372  0.589391  0.435208  1
  O  O30  1  0.859395  0.932927  0.276255  1
  O  O31  1  0.656672  0.083140  0.223745  1
  O  O32  1  0.398300  0.810368  0.172333  1
  O  O33  1  0.654183  0.089391  0.485019  1
  O  O34  1  0.343328  0.916860  0.776255  1
  O  O35  1  0.361965  0.274033  0.672333  1
  O  O36  1  0.638035  0.725967  0.327667  1
  O  O37  1  0.561083  0.330856  0.255867  1
  O  O38  1  0.843328  0.567073  0.926468  1
  O  O39  1  0.601700  0.189632  0.827667  1
  O  O40  1  0.074989  0.805216  0.244133  1
  O  O41  1  0.845817  0.830837  0.935208  1
  O  O42  1  0.140605  0.067073  0.723745  1
  O  O43  1  0.156672  0.432927  0.073532  1
  O  O44  1  0.895628  0.410609  0.564792  1
  O  O45  1  0.604372  0.669163  0.014981  1
  O  O46  1  0.438917  0.669144  0.744133  1
  O  O47  1  0.345817  0.910609  0.514981  1
  O  O48  1  0.898300  0.225967  0.087933  1
  O  O49  1  0.154183  0.169163  0.064792  1
  O  O50  1  0.359395  0.583140  0.426468  1
  O  O51  1  0.101700  0.774033  0.912067  1
