# generated using pymatgen
data_GePbO3
_symmetry_space_group_name_H-M   'P 1'
_cell_length_a   11.68848929
_cell_length_b   7.35633119
_cell_length_c   13.60193460
_cell_angle_alpha   90.00000000
_cell_angle_beta   118.83166522
_cell_angle_gamma   90.00000000
_symmetry_Int_Tables_number   1
_chemical_formula_structural   GePbO3
_chemical_formula_sum   'Ge12 Pb12 O36'
_cell_volume   1024.57657850
_cell_formula_units_Z   12
loop_
 _symmetry_equiv_pos_site_id
 _symmetry_equiv_pos_as_xyz
  1  'x, y, z'
loop_
 _atom_site_type_symbol
 _atom_site_label
 _atom_site_symmetry_multiplicity
 _atom_site_fract_x
 _atom_site_fract_y
 _atom_site_fract_z
 _atom_site_occupancy
  Ge  Ge0  1  0.858305  0.405978  0.386677  1
  Ge  Ge1  1  0.141695  0.594022  0.613323  1
  Ge  Ge2  1  0.141695  0.405978  0.113323  1
  Ge  Ge3  1  0.249105  0.825378  0.462176  1
  Ge  Ge4  1  0.458368  0.877648  0.846713  1
  Ge  Ge5  1  0.249105  0.174622  0.962176  1
  Ge  Ge6  1  0.541632  0.122352  0.153287  1
  Ge  Ge7  1  0.750895  0.174622  0.537824  1
  Ge  Ge8  1  0.858305  0.594022  0.886677  1
  Ge  Ge9  1  0.541632  0.877648  0.653287  1
  Ge  Ge10  1  0.750895  0.825378  0.037824  1
  Ge  Ge11  1  0.458368  0.122352  0.346713  1
  Pb  Pb12  1  0.572416  0.386175  0.655813  1
  Pb  Pb13  1  0.196948  0.696478  0.900125  1
  Pb  Pb14  1  0.803052  0.303522  0.099875  1
  Pb  Pb15  1  0.572416  0.613825  0.155813  1
  Pb  Pb16  1  0.427584  0.613825  0.344187  1
  Pb  Pb17  1  0.872651  0.951456  0.322372  1
  Pb  Pb18  1  0.127349  0.048544  0.677628  1
  Pb  Pb19  1  0.803052  0.696478  0.599875  1
  Pb  Pb20  1  0.427584  0.386175  0.844187  1
  Pb  Pb21  1  0.127349  0.951456  0.177628  1
  Pb  Pb22  1  0.872651  0.048544  0.822372  1
  Pb  Pb23  1  0.196948  0.303522  0.400125  1
  O  O24  1  0.098256  0.281717  0.202570  1
  O  O25  1  0.645833  0.935925  0.212010  1
  O  O26  1  0.901744  0.281717  0.297430  1
  O  O27  1  0.818472  0.788726  0.945528  1
  O  O28  1  0.393595  0.700421  0.892175  1
  O  O29  1  0.606405  0.700421  0.607825  1
  O  O30  1  0.719818  0.378631  0.586909  1
  O  O31  1  0.393595  0.299579  0.392175  1
  O  O32  1  0.747651  0.583507  0.332397  1
  O  O33  1  0.280182  0.621369  0.413091  1
  O  O34  1  0.252349  0.583507  0.167603  1
  O  O35  1  0.136026  0.967148  0.354292  1
  O  O36  1  0.863974  0.032852  0.645708  1
  O  O37  1  0.181528  0.788726  0.554472  1
  O  O38  1  0.608857  0.962854  0.959841  1
  O  O39  1  0.747651  0.416493  0.832397  1
  O  O40  1  0.606405  0.299579  0.107825  1
  O  O41  1  0.280182  0.378631  0.913091  1
  O  O42  1  0.818472  0.211274  0.445528  1
  O  O43  1  0.181528  0.211274  0.054472  1
  O  O44  1  0.500000  0.766235  0.750000  1
  O  O45  1  0.391143  0.962854  0.540159  1
  O  O46  1  0.136026  0.032852  0.854292  1
  O  O47  1  0.354167  0.935925  0.287990  1
  O  O48  1  0.098256  0.718283  0.702570  1
  O  O49  1  0.000000  0.500000  0.000000  1
  O  O50  1  0.500000  0.233765  0.250000  1
  O  O51  1  0.863974  0.967148  0.145708  1
  O  O52  1  0.252349  0.416493  0.667603  1
  O  O53  1  0.645833  0.064075  0.712010  1
  O  O54  1  0.719818  0.621369  0.086909  1
  O  O55  1  0.608857  0.037146  0.459841  1
  O  O56  1  0.391143  0.037146  0.040159  1
  O  O57  1  0.000000  0.500000  0.500000  1
  O  O58  1  0.354167  0.064075  0.787990  1
  O  O59  1  0.901744  0.718283  0.797430  1
