# generated using pymatgen
data_KCaAl2F9
_symmetry_space_group_name_H-M   'P 1'
_cell_length_a   7.24723455
_cell_length_b   7.24723455
_cell_length_c   23.00917665
_cell_angle_alpha   90.00000000
_cell_angle_beta   90.00000000
_cell_angle_gamma   119.80701015
_symmetry_Int_Tables_number   1
_chemical_formula_structural   KCaAl2F9
_chemical_formula_sum   'K6 Ca6 Al12 F54'
_cell_volume   1048.61878362
_cell_formula_units_Z   6
loop_
 _symmetry_equiv_pos_site_id
 _symmetry_equiv_pos_as_xyz
  1  'x, y, z'
loop_
 _atom_site_type_symbol
 _atom_site_label
 _atom_site_symmetry_multiplicity
 _atom_site_fract_x
 _atom_site_fract_y
 _atom_site_fract_z
 _atom_site_occupancy
  K  K0  1  0.989541  0.010459  0.750000  1
  K  K1  1  0.007044  0.964170  0.916518  1
  K  K2  1  0.010459  0.989541  0.250000  1
  K  K3  1  0.964170  0.007044  0.083482  1
  K  K4  1  0.035830  0.992956  0.583482  1
  K  K5  1  0.992956  0.035830  0.416518  1
  Ca  Ca6  1  0.988275  0.500835  0.166524  1
  Ca  Ca7  1  0.515324  0.515324  0.500000  1
  Ca  Ca8  1  0.500835  0.988275  0.833476  1
  Ca  Ca9  1  0.484676  0.484676  1.000000  1
  Ca  Ca10  1  0.499165  0.011725  0.333476  1
  Ca  Ca11  1  0.011725  0.499165  0.666524  1
  Al  Al12  1  0.484519  0.001679  0.163731  1
  Al  Al13  1  0.017596  0.520618  0.496774  1
  Al  Al14  1  0.479382  0.982404  0.003226  1
  Al  Al15  1  0.001679  0.484519  0.836269  1
  Al  Al16  1  0.512559  0.496857  0.669887  1
  Al  Al17  1  0.515481  0.998321  0.663731  1
  Al  Al18  1  0.982404  0.479382  0.996774  1
  Al  Al19  1  0.520618  0.017596  0.503226  1
  Al  Al20  1  0.503143  0.487441  0.830113  1
  Al  Al21  1  0.496857  0.512559  0.330113  1
  Al  Al22  1  0.487441  0.503143  0.169887  1
  Al  Al23  1  0.998321  0.515481  0.336269  1
  F  F24  1  0.520849  0.459771  0.906802  1
  F  F25  1  0.334874  0.226524  0.334553  1
  F  F26  1  0.660111  0.797579  0.322078  1
  F  F27  1  0.459771  0.520849  0.093198  1
  F  F28  1  0.713045  0.247732  0.988645  1
  F  F29  1  0.966315  0.415000  0.073158  1
  F  F30  1  0.514072  0.485928  0.250000  1
  F  F31  1  0.672116  0.886332  0.517400  1
  F  F32  1  0.540229  0.479151  0.593198  1
  F  F33  1  0.339889  0.202421  0.822078  1
  F  F34  1  0.130708  0.795580  0.352990  1
  F  F35  1  0.479151  0.540229  0.406802  1
  F  F36  1  0.286955  0.752268  0.488645  1
  F  F37  1  0.859497  0.641084  0.007200  1
  F  F38  1  0.520500  0.270079  0.155783  1
  F  F39  1  0.460718  0.005505  0.583526  1
  F  F40  1  0.479500  0.729921  0.655783  1
  F  F41  1  0.033685  0.585000  0.573158  1
  F  F42  1  0.873496  0.232792  0.323793  1
  F  F43  1  0.485928  0.514072  0.750000  1
  F  F44  1  0.270079  0.520500  0.844217  1
  F  F45  1  0.886332  0.672116  0.482600  1
  F  F46  1  0.767208  0.126504  0.176207  1
  F  F47  1  0.573530  0.988391  0.739716  1
  F  F48  1  0.454655  0.737871  0.178284  1
  F  F49  1  0.204420  0.869292  0.147010  1
  F  F50  1  0.729921  0.479500  0.344217  1
  F  F51  1  0.797579  0.660111  0.677922  1
  F  F52  1  0.665126  0.773476  0.834553  1
  F  F53  1  0.232792  0.873496  0.676207  1
  F  F54  1  0.262129  0.545345  0.321716  1
  F  F55  1  0.752268  0.286955  0.511355  1
  F  F56  1  0.247732  0.713045  0.011355  1
  F  F57  1  0.795580  0.130708  0.647010  1
  F  F58  1  0.415000  0.966315  0.926842  1
  F  F59  1  0.539282  0.994495  0.083526  1
  F  F60  1  0.113668  0.327884  0.982600  1
  F  F61  1  0.005505  0.460718  0.416474  1
  F  F62  1  0.585000  0.033685  0.426842  1
  F  F63  1  0.426470  0.011609  0.239716  1
  F  F64  1  0.126504  0.767208  0.823793  1
  F  F65  1  0.773476  0.665126  0.165447  1
  F  F66  1  0.140503  0.358916  0.507200  1
  F  F67  1  0.226524  0.334874  0.665447  1
  F  F68  1  0.641084  0.859497  0.992800  1
  F  F69  1  0.737871  0.454655  0.821716  1
  F  F70  1  0.202421  0.339889  0.177922  1
  F  F71  1  0.327884  0.113668  0.017400  1
  F  F72  1  0.358916  0.140503  0.492800  1
  F  F73  1  0.869292  0.204420  0.852990  1
  F  F74  1  0.011609  0.426470  0.760284  1
  F  F75  1  0.988391  0.573530  0.260284  1
  F  F76  1  0.994495  0.539282  0.916474  1
  F  F77  1  0.545345  0.262129  0.678284  1
