# generated using pymatgen
data_K2TeClF5
_symmetry_space_group_name_H-M   'P 1'
_cell_length_a   4.69917407
_cell_length_b   10.75689789
_cell_length_c   15.64411452
_cell_angle_alpha   90.00000000
_cell_angle_beta   106.50963544
_cell_angle_gamma   90.00000000
_symmetry_Int_Tables_number   1
_chemical_formula_structural   K2TeClF5
_chemical_formula_sum   'K8 Te4 Cl4 F20'
_cell_volume   758.18447778
_cell_formula_units_Z   4
loop_
 _symmetry_equiv_pos_site_id
 _symmetry_equiv_pos_as_xyz
  1  'x, y, z'
loop_
 _atom_site_type_symbol
 _atom_site_label
 _atom_site_symmetry_multiplicity
 _atom_site_fract_x
 _atom_site_fract_y
 _atom_site_fract_z
 _atom_site_occupancy
  K  K0  1  0.652416  0.076397  0.894381  1
  K  K1  1  0.314984  0.339315  0.079208  1
  K  K2  1  0.314984  0.160685  0.579208  1
  K  K3  1  0.347584  0.576397  0.605619  1
  K  K4  1  0.652416  0.423603  0.394381  1
  K  K5  1  0.685016  0.660685  0.920792  1
  K  K6  1  0.347584  0.923603  0.105619  1
  K  K7  1  0.685016  0.839315  0.420792  1
  Te  Te8  1  0.822196  0.629758  0.182094  1
  Te  Te9  1  0.822196  0.870242  0.682094  1
  Te  Te10  1  0.177804  0.129758  0.317906  1
  Te  Te11  1  0.177804  0.370242  0.817906  1
  Cl  Cl12  1  0.828944  0.127799  0.098755  1
  Cl  Cl13  1  0.828944  0.372201  0.598755  1
  Cl  Cl14  1  0.171056  0.872201  0.901245  1
  Cl  Cl15  1  0.171056  0.627799  0.401245  1
  F  F16  1  0.374025  0.244971  0.758870  1
  F  F17  1  0.875660  0.728357  0.601354  1
  F  F18  1  0.133996  0.002836  0.409840  1
  F  F19  1  0.124340  0.271643  0.398646  1
  F  F20  1  0.385417  0.506188  0.772052  1
  F  F21  1  0.434424  0.637666  0.096573  1
  F  F22  1  0.374025  0.255029  0.258870  1
  F  F23  1  0.866004  0.502836  0.090160  1
  F  F24  1  0.565576  0.137666  0.403427  1
  F  F25  1  0.875660  0.771643  0.101354  1
  F  F26  1  0.385417  0.993812  0.272052  1
  F  F27  1  0.625975  0.755029  0.241130  1
  F  F28  1  0.434424  0.862334  0.596573  1
  F  F29  1  0.565576  0.362334  0.903427  1
  F  F30  1  0.133996  0.497164  0.909840  1
  F  F31  1  0.124340  0.228357  0.898646  1
  F  F32  1  0.614583  0.006188  0.727948  1
  F  F33  1  0.614583  0.493812  0.227948  1
  F  F34  1  0.625975  0.744971  0.741130  1
  F  F35  1  0.866004  0.997164  0.590160  1
