# generated using pymatgen
data_Na2CaPO4F
_symmetry_space_group_name_H-M   'P 1'
_cell_length_a   10.77983182
_cell_length_b   7.16915124
_cell_length_c   13.45175831
_cell_angle_alpha   90.00000000
_cell_angle_beta   113.57347328
_cell_angle_gamma   90.00000000
_symmetry_Int_Tables_number   1
_chemical_formula_structural   Na2CaPO4F
_chemical_formula_sum   'Na16 Ca8 P8 O32 F8'
_cell_volume   952.82685695
_cell_formula_units_Z   8
loop_
 _symmetry_equiv_pos_site_id
 _symmetry_equiv_pos_as_xyz
  1  'x, y, z'
loop_
 _atom_site_type_symbol
 _atom_site_label
 _atom_site_symmetry_multiplicity
 _atom_site_fract_x
 _atom_site_fract_y
 _atom_site_fract_z
 _atom_site_occupancy
  Na  Na0  1  0.913099  0.746112  0.089965  1
  Na  Na1  1  0.823528  0.727256  0.412396  1
  Na  Na2  1  0.432182  0.018847  0.669452  1
  Na  Na3  1  0.323528  0.772744  0.412396  1
  Na  Na4  1  0.067818  0.518847  0.330548  1
  Na  Na5  1  0.413099  0.753888  0.089965  1
  Na  Na6  1  0.586901  0.246112  0.910035  1
  Na  Na7  1  0.790274  0.476584  0.835969  1
  Na  Na8  1  0.209726  0.523416  0.164031  1
  Na  Na9  1  0.176472  0.272744  0.587604  1
  Na  Na10  1  0.932182  0.481153  0.669452  1
  Na  Na11  1  0.567818  0.981153  0.330548  1
  Na  Na12  1  0.676472  0.227256  0.587604  1
  Na  Na13  1  0.290274  0.023416  0.835969  1
  Na  Na14  1  0.709726  0.976584  0.164031  1
  Na  Na15  1  0.086901  0.253888  0.910035  1
  Ca  Ca16  1  0.028890  0.987718  0.330973  1
  Ca  Ca17  1  0.722888  0.506044  0.172750  1
  Ca  Ca18  1  0.222888  0.993956  0.172750  1
  Ca  Ca19  1  0.528890  0.512282  0.330973  1
  Ca  Ca20  1  0.777112  0.006044  0.827250  1
  Ca  Ca21  1  0.277112  0.493956  0.827250  1
  Ca  Ca22  1  0.971110  0.012282  0.669027  1
  Ca  Ca23  1  0.471110  0.487718  0.669027  1
  P  P24  1  0.645299  0.740587  0.586689  1
  P  P25  1  0.854701  0.240587  0.413311  1
  P  P26  1  0.439322  0.256189  0.084206  1
  P  P27  1  0.939322  0.243811  0.084206  1
  P  P28  1  0.145299  0.759413  0.586689  1
  P  P29  1  0.060678  0.756189  0.915794  1
  P  P30  1  0.560678  0.743811  0.915794  1
  P  P31  1  0.354701  0.259413  0.413311  1
  O  O32  1  0.636241  0.731815  0.468578  1
  O  O33  1  0.694451  0.550102  0.645410  1
  O  O34  1  0.305549  0.449898  0.354590  1
  O  O35  1  0.416397  0.077613  0.140419  1
  O  O36  1  0.805549  0.050102  0.354590  1
  O  O37  1  0.863759  0.231815  0.531422  1
  O  O38  1  0.083603  0.577613  0.859581  1
  O  O39  1  0.072304  0.932522  0.852106  1
  O  O40  1  0.194451  0.949898  0.645410  1
  O  O41  1  0.755091  0.400122  0.350400  1
  O  O42  1  0.927696  0.067478  0.147894  1
  O  O43  1  0.136241  0.768185  0.468578  1
  O  O44  1  0.498465  0.224749  0.413827  1
  O  O45  1  0.572304  0.567478  0.852106  1
  O  O46  1  0.166684  0.767600  0.035122  1
  O  O47  1  0.501535  0.775251  0.586173  1
  O  O48  1  0.244909  0.599878  0.649600  1
  O  O49  1  0.916397  0.422387  0.140419  1
  O  O50  1  0.001535  0.724749  0.586173  1
  O  O51  1  0.583603  0.922387  0.859581  1
  O  O52  1  0.744909  0.900122  0.649600  1
  O  O53  1  0.833316  0.232400  0.964878  1
  O  O54  1  0.255091  0.099878  0.350400  1
  O  O55  1  0.085080  0.248841  0.084763  1
  O  O56  1  0.427696  0.432522  0.147894  1
  O  O57  1  0.363759  0.268185  0.531422  1
  O  O58  1  0.333316  0.267600  0.964878  1
  O  O59  1  0.998465  0.275251  0.413827  1
  O  O60  1  0.666684  0.732400  0.035122  1
  O  O61  1  0.414920  0.748841  0.915237  1
  O  O62  1  0.585080  0.251159  0.084763  1
  O  O63  1  0.914920  0.751159  0.915237  1
  F  F64  1  0.384240  0.769678  0.263552  1
  F  F65  1  0.378471  0.273807  0.758618  1
  F  F66  1  0.621529  0.726193  0.241382  1
  F  F67  1  0.615760  0.230322  0.736448  1
  F  F68  1  0.884240  0.730322  0.263552  1
  F  F69  1  0.121529  0.773807  0.241382  1
  F  F70  1  0.115760  0.269678  0.736448  1
  F  F71  1  0.878471  0.226193  0.758618  1
