# generated using pymatgen
data_AlPO4
_symmetry_space_group_name_H-M   'P 1'
_cell_length_a   5.10648652
_cell_length_b   8.46243015
_cell_length_c   5.13272951
_cell_angle_alpha   90.00000000
_cell_angle_beta   118.80529206
_cell_angle_gamma   90.00000000
_symmetry_Int_Tables_number   1
_chemical_formula_structural   AlPO4
_chemical_formula_sum   'Al2 P2 O8'
_cell_volume   194.35679688
_cell_formula_units_Z   2
loop_
 _symmetry_equiv_pos_site_id
 _symmetry_equiv_pos_as_xyz
  1  'x, y, z'
loop_
 _atom_site_type_symbol
 _atom_site_label
 _atom_site_symmetry_multiplicity
 _atom_site_fract_x
 _atom_site_fract_y
 _atom_site_fract_z
 _atom_site_occupancy
  Al  Al0  1  0.602531  0.067308  0.352787  1
  Al  Al1  1  0.397469  0.567308  0.647213  1
  P  P2  1  0.725601  0.441802  0.305497  1
  P  P3  1  0.274399  0.941802  0.694503  1
  O  O4  1  0.537546  0.547045  0.397203  1
  O  O5  1  0.462454  0.047045  0.602797  1
  O  O6  1  0.059860  0.465770  0.519806  1
  O  O7  1  0.940140  0.965770  0.480194  1
  O  O8  1  0.648455  0.267886  0.314024  1
  O  O9  1  0.351545  0.767886  0.685976  1
  O  O10  1  0.341351  0.986890  0.010744  1
  O  O11  1  0.658649  0.486890  0.989256  1
