# generated using pymatgen
data_Sr5B3O9F
_symmetry_space_group_name_H-M   'P 1'
_cell_length_a   7.30809418
_cell_length_b   9.89328936
_cell_length_c   14.29770716
_cell_angle_alpha   90.00000000
_cell_angle_beta   90.00000000
_cell_angle_gamma   90.00000000
_symmetry_Int_Tables_number   1
_chemical_formula_structural   Sr5B3O9F
_chemical_formula_sum   'Sr20 B12 O36 F4'
_cell_volume   1033.73981779
_cell_formula_units_Z   4
loop_
 _symmetry_equiv_pos_site_id
 _symmetry_equiv_pos_as_xyz
  1  'x, y, z'
loop_
 _atom_site_type_symbol
 _atom_site_label
 _atom_site_symmetry_multiplicity
 _atom_site_fract_x
 _atom_site_fract_y
 _atom_site_fract_z
 _atom_site_occupancy
  Sr  Sr0  1  0.288942  0.481471  0.750000  1
  Sr  Sr1  1  0.254937  0.625774  0.119764  1
  Sr  Sr2  1  0.471852  0.245878  0.387773  1
  Sr  Sr3  1  0.245063  0.125774  0.619764  1
  Sr  Sr4  1  0.971852  0.254122  0.387773  1
  Sr  Sr5  1  0.028148  0.745878  0.887773  1
  Sr  Sr6  1  0.745063  0.374226  0.880236  1
  Sr  Sr7  1  0.528148  0.754122  0.612227  1
  Sr  Sr8  1  0.754937  0.874226  0.380236  1
  Sr  Sr9  1  0.245063  0.125774  0.880236  1
  Sr  Sr10  1  0.754937  0.874226  0.119764  1
  Sr  Sr11  1  0.788942  0.018529  0.750000  1
  Sr  Sr12  1  0.028148  0.745878  0.612227  1
  Sr  Sr13  1  0.211058  0.981471  0.250000  1
  Sr  Sr14  1  0.745063  0.374226  0.619764  1
  Sr  Sr15  1  0.528148  0.754122  0.887773  1
  Sr  Sr16  1  0.971852  0.254122  0.112227  1
  Sr  Sr17  1  0.471852  0.245878  0.112227  1
  Sr  Sr18  1  0.254937  0.625774  0.380236  1
  Sr  Sr19  1  0.711058  0.518529  0.250000  1
  B  B20  1  0.199626  0.938183  0.461279  1
  B  B21  1  0.217727  0.389860  0.250000  1
  B  B22  1  0.717727  0.110140  0.250000  1
  B  B23  1  0.300374  0.438183  0.961279  1
  B  B24  1  0.800374  0.061817  0.538721  1
  B  B25  1  0.199626  0.938183  0.038721  1
  B  B26  1  0.699626  0.561817  0.038721  1
  B  B27  1  0.699626  0.561817  0.461279  1
  B  B28  1  0.300374  0.438183  0.538721  1
  B  B29  1  0.782273  0.610140  0.750000  1
  B  B30  1  0.800374  0.061817  0.961279  1
  B  B31  1  0.282273  0.889860  0.750000  1
  O  O32  1  0.215004  0.248560  0.250000  1
  O  O33  1  0.223953  0.070906  0.069833  1
  O  O34  1  0.776047  0.929094  0.930167  1
  O  O35  1  0.723953  0.429094  0.430167  1
  O  O36  1  0.593102  0.652622  0.410485  1
  O  O37  1  0.906898  0.152622  0.910485  1
  O  O38  1  0.556486  0.036740  0.250000  1
  O  O39  1  0.779364  0.603641  0.955134  1
  O  O40  1  0.276047  0.570906  0.569833  1
  O  O41  1  0.220636  0.396359  0.455134  1
  O  O42  1  0.884855  0.044047  0.250000  1
  O  O43  1  0.715004  0.251440  0.250000  1
  O  O44  1  0.279364  0.896359  0.544866  1
  O  O45  1  0.406898  0.347378  0.589515  1
  O  O46  1  0.779364  0.603641  0.544866  1
  O  O47  1  0.443514  0.963260  0.750000  1
  O  O48  1  0.279364  0.896359  0.955134  1
  O  O49  1  0.784996  0.751440  0.750000  1
  O  O50  1  0.056486  0.463260  0.250000  1
  O  O51  1  0.093102  0.847378  0.089515  1
  O  O52  1  0.406898  0.347378  0.910485  1
  O  O53  1  0.384855  0.455953  0.250000  1
  O  O54  1  0.720636  0.103641  0.455134  1
  O  O55  1  0.615145  0.544047  0.750000  1
  O  O56  1  0.276047  0.570906  0.930167  1
  O  O57  1  0.115145  0.955953  0.750000  1
  O  O58  1  0.593102  0.652622  0.089515  1
  O  O59  1  0.220636  0.396359  0.044866  1
  O  O60  1  0.284996  0.748560  0.750000  1
  O  O61  1  0.720636  0.103641  0.044866  1
  O  O62  1  0.776047  0.929094  0.569833  1
  O  O63  1  0.723953  0.429094  0.069833  1
  O  O64  1  0.223953  0.070906  0.430167  1
  O  O65  1  0.906898  0.152622  0.589515  1
  O  O66  1  0.943514  0.536740  0.750000  1
  O  O67  1  0.093102  0.847378  0.410485  1
  F  F68  1  0.360035  0.763869  0.250000  1
  F  F69  1  0.860035  0.736131  0.250000  1
  F  F70  1  0.639965  0.236131  0.750000  1
  F  F71  1  0.139965  0.263869  0.750000  1
