# generated using pymatgen
data_KCa10V7O28
_symmetry_space_group_name_H-M   'P 1'
_cell_length_a   14.23949847
_cell_length_b   14.23949847
_cell_length_c   14.23949847
_cell_angle_alpha   45.55360662
_cell_angle_beta   45.55360662
_cell_angle_gamma   45.55360662
_symmetry_Int_Tables_number   1
_chemical_formula_structural   KCa10V7O28
_chemical_formula_sum   'K2 Ca20 V14 O56'
_cell_volume   1340.92576999
_cell_formula_units_Z   2
loop_
 _symmetry_equiv_pos_site_id
 _symmetry_equiv_pos_as_xyz
  1  'x, y, z'
loop_
 _atom_site_type_symbol
 _atom_site_label
 _atom_site_symmetry_multiplicity
 _atom_site_fract_x
 _atom_site_fract_y
 _atom_site_fract_z
 _atom_site_occupancy
  K  K0  1  0.703114  0.703114  0.703114  1
  K  K1  1  0.203114  0.203114  0.203114  1
  Ca  Ca2  1  0.519723  0.519723  0.519723  1
  Ca  Ca3  1  0.362941  0.972713  0.925222  1
  Ca  Ca4  1  0.088757  0.085479  0.675593  1
  Ca  Ca5  1  0.972713  0.925222  0.362941  1
  Ca  Ca6  1  0.085479  0.675593  0.088757  1
  Ca  Ca7  1  0.580802  0.955261  0.997742  1
  Ca  Ca8  1  0.175593  0.585479  0.588757  1
  Ca  Ca9  1  0.588757  0.175593  0.585479  1
  Ca  Ca10  1  0.925222  0.362941  0.972713  1
  Ca  Ca11  1  0.675593  0.088757  0.085479  1
  Ca  Ca12  1  0.019723  0.019723  0.019723  1
  Ca  Ca13  1  0.425222  0.472713  0.862941  1
  Ca  Ca14  1  0.472713  0.862941  0.425222  1
  Ca  Ca15  1  0.862941  0.425222  0.472713  1
  Ca  Ca16  1  0.080802  0.497742  0.455261  1
  Ca  Ca17  1  0.997742  0.580802  0.955261  1
  Ca  Ca18  1  0.497742  0.455261  0.080802  1
  Ca  Ca19  1  0.585479  0.588757  0.175593  1
  Ca  Ca20  1  0.955261  0.997742  0.580802  1
  Ca  Ca21  1  0.455261  0.080802  0.497742  1
  V  V22  1  0.330436  0.842471  0.288836  1
  V  V23  1  0.788836  0.342471  0.830436  1
  V  V24  1  0.698025  0.203172  0.752378  1
  V  V25  1  0.842471  0.288836  0.330436  1
  V  V26  1  0.252378  0.703172  0.198025  1
  V  V27  1  0.198025  0.252378  0.703172  1
  V  V28  1  0.203172  0.752378  0.698025  1
  V  V29  1  0.288152  0.288152  0.288152  1
  V  V30  1  0.752378  0.698025  0.203172  1
  V  V31  1  0.342471  0.830436  0.788836  1
  V  V32  1  0.830436  0.788836  0.342471  1
  V  V33  1  0.703172  0.198025  0.252378  1
  V  V34  1  0.288836  0.330436  0.842471  1
  V  V35  1  0.788152  0.788152  0.788152  1
  O  O36  1  0.379106  0.196779  0.640144  1
  O  O37  1  0.927950  0.357641  0.143414  1
  O  O38  1  0.916867  0.274623  0.399350  1
  O  O39  1  0.896135  0.156762  0.883916  1
  O  O40  1  0.938076  0.595632  0.149729  1
  O  O41  1  0.118162  0.284564  0.420686  1
  O  O42  1  0.833802  0.833802  0.833802  1
  O  O43  1  0.891733  0.129190  0.167618  1
  O  O44  1  0.899350  0.774623  0.416867  1
  O  O45  1  0.416867  0.899350  0.774623  1
  O  O46  1  0.156762  0.883916  0.896135  1
  O  O47  1  0.643414  0.857641  0.427950  1
  O  O48  1  0.357641  0.143414  0.927950  1
  O  O49  1  0.396135  0.383916  0.656762  1
  O  O50  1  0.632659  0.187898  0.199740  1
  O  O51  1  0.667618  0.629190  0.391733  1
  O  O52  1  0.351783  0.923232  0.614859  1
  O  O53  1  0.614859  0.351783  0.923232  1
  O  O54  1  0.140144  0.696779  0.879106  1
  O  O55  1  0.333802  0.333802  0.333802  1
  O  O56  1  0.399350  0.916867  0.274623  1
  O  O57  1  0.629190  0.391733  0.667618  1
  O  O58  1  0.284564  0.420686  0.118162  1
  O  O59  1  0.640144  0.379106  0.196779  1
  O  O60  1  0.149729  0.938076  0.595632  1
  O  O61  1  0.274623  0.399350  0.916867  1
  O  O62  1  0.879106  0.140144  0.696779  1
  O  O63  1  0.196779  0.640144  0.379106  1
  O  O64  1  0.420686  0.118162  0.284564  1
  O  O65  1  0.649729  0.095632  0.438076  1
  O  O66  1  0.618162  0.920686  0.784564  1
  O  O67  1  0.167618  0.891733  0.129190  1
  O  O68  1  0.199740  0.632659  0.187898  1
  O  O69  1  0.391733  0.667618  0.629190  1
  O  O70  1  0.132659  0.699740  0.687898  1
  O  O71  1  0.187898  0.199740  0.632659  1
  O  O72  1  0.857641  0.427950  0.643414  1
  O  O73  1  0.656762  0.396135  0.383916  1
  O  O74  1  0.595632  0.149729  0.938076  1
  O  O75  1  0.851783  0.114859  0.423232  1
  O  O76  1  0.383916  0.656762  0.396135  1
  O  O77  1  0.114859  0.423232  0.851783  1
  O  O78  1  0.143414  0.927950  0.357641  1
  O  O79  1  0.438076  0.649729  0.095632  1
  O  O80  1  0.423232  0.851783  0.114859  1
  O  O81  1  0.784564  0.618162  0.920686  1
  O  O82  1  0.696779  0.879106  0.140144  1
  O  O83  1  0.699740  0.687898  0.132659  1
  O  O84  1  0.774623  0.416867  0.899350  1
  O  O85  1  0.129190  0.167618  0.891733  1
  O  O86  1  0.687898  0.132659  0.699740  1
  O  O87  1  0.920686  0.784564  0.618162  1
  O  O88  1  0.923232  0.614859  0.351783  1
  O  O89  1  0.883916  0.896135  0.156762  1
  O  O90  1  0.427950  0.643414  0.857641  1
  O  O91  1  0.095632  0.438076  0.649729  1
