# generated using pymatgen
data_Na5SiP3
_symmetry_space_group_name_H-M   'P 1'
_cell_length_a   7.95656251
_cell_length_b   7.35209466
_cell_length_c   15.29188295
_cell_angle_alpha   90.00000000
_cell_angle_beta   120.59323137
_cell_angle_gamma   90.00000000
_symmetry_Int_Tables_number   1
_chemical_formula_structural   Na5SiP3
_chemical_formula_sum   'Na20 Si4 P12'
_cell_volume   770.01800540
_cell_formula_units_Z   4
loop_
 _symmetry_equiv_pos_site_id
 _symmetry_equiv_pos_as_xyz
  1  'x, y, z'
loop_
 _atom_site_type_symbol
 _atom_site_label
 _atom_site_symmetry_multiplicity
 _atom_site_fract_x
 _atom_site_fract_y
 _atom_site_fract_z
 _atom_site_occupancy
  Na  Na0  1  0.057171  0.508750  0.243189  1
  Na  Na1  1  0.942829  0.008750  0.256811  1
  Na  Na2  1  0.942829  0.491250  0.756811  1
  Na  Na3  1  0.057171  0.991250  0.743189  1
  Na  Na4  1  0.413429  0.982588  0.087098  1
  Na  Na5  1  0.586571  0.482588  0.412902  1
  Na  Na6  1  0.586571  0.017412  0.912902  1
  Na  Na7  1  0.413429  0.517412  0.587098  1
  Na  Na8  1  0.756571  0.528999  0.918228  1
  Na  Na9  1  0.243429  0.028999  0.581772  1
  Na  Na10  1  0.243429  0.471001  0.081772  1
  Na  Na11  1  0.756571  0.971001  0.418228  1
  Na  Na12  1  0.336799  0.154293  0.258546  1
  Na  Na13  1  0.663201  0.654294  0.241454  1
  Na  Na14  1  0.663201  0.845707  0.741454  1
  Na  Na15  1  0.336799  0.345707  0.758546  1
  Na  Na16  1  0.659201  0.336977  0.081732  1
  Na  Na17  1  0.340799  0.836977  0.418268  1
  Na  Na18  1  0.340799  0.663023  0.918268  1
  Na  Na19  1  0.659201  0.163023  0.581732  1
  Si  Si20  1  0.011389  0.638193  0.582970  1
  Si  Si21  1  0.988611  0.138193  0.917030  1
  Si  Si22  1  0.988611  0.361807  0.417030  1
  Si  Si23  1  0.011389  0.861807  0.082970  1
  P  P24  1  0.741947  0.741860  0.079110  1
  P  P25  1  0.258053  0.241860  0.420890  1
  P  P26  1  0.258053  0.258140  0.920890  1
  P  P27  1  0.741947  0.758140  0.579110  1
  P  P28  1  0.297061  0.770799  0.220093  1
  P  P29  1  0.702939  0.270799  0.279907  1
  P  P30  1  0.702939  0.229201  0.779907  1
  P  P31  1  0.297061  0.729201  0.720093  1
  P  P32  1  0.980307  0.320674  0.565330  1
  P  P33  1  0.019693  0.820674  0.934670  1
  P  P34  1  0.019693  0.679326  0.434670  1
  P  P35  1  0.980307  0.179326  0.065330  1
