# generated using pymatgen
data_CuAs2S4(O2F3)4
_symmetry_space_group_name_H-M   'P 1'
_cell_length_a   7.69045960
_cell_length_b   13.21465667
_cell_length_c   9.19780023
_cell_angle_alpha   90.00000000
_cell_angle_beta   105.15202992
_cell_angle_gamma   90.00000000
_symmetry_Int_Tables_number   1
_chemical_formula_structural   CuAs2S4(O2F3)4
_chemical_formula_sum   'Cu2 As4 S8 O16 F24'
_cell_volume   902.24714230
_cell_formula_units_Z   2
loop_
 _symmetry_equiv_pos_site_id
 _symmetry_equiv_pos_as_xyz
  1  'x, y, z'
loop_
 _atom_site_type_symbol
 _atom_site_label
 _atom_site_symmetry_multiplicity
 _atom_site_fract_x
 _atom_site_fract_y
 _atom_site_fract_z
 _atom_site_occupancy
  Cu  Cu0  1  0.000000  0.500000  0.500000  1
  Cu  Cu1  1  0.000000  0.000000  0.000000  1
  As  As2  1  0.685926  0.864967  0.215118  1
  As  As3  1  0.685926  0.635033  0.715118  1
  As  As4  1  0.314074  0.135033  0.784882  1
  As  As5  1  0.314074  0.364967  0.284882  1
  S  S6  1  0.204128  0.707066  0.451478  1
  S  S7  1  0.272347  0.457754  0.831197  1
  S  S8  1  0.727653  0.957754  0.668803  1
  S  S9  1  0.204128  0.792934  0.951478  1
  S  S10  1  0.795872  0.207066  0.048522  1
  S  S11  1  0.727653  0.542246  0.168803  1
  S  S12  1  0.272347  0.042246  0.331197  1
  S  S13  1  0.795872  0.292934  0.548522  1
  O  O14  1  0.819614  0.936495  0.828046  1
  O  O15  1  0.829010  0.309020  0.707786  1
  O  O16  1  0.819614  0.563505  0.328046  1
  O  O17  1  0.180386  0.063505  0.171954  1
  O  O18  1  0.180386  0.436495  0.671954  1
  O  O19  1  0.227013  0.550539  0.893904  1
  O  O20  1  0.772987  0.449461  0.106096  1
  O  O21  1  0.829010  0.190980  0.207786  1
  O  O22  1  0.130187  0.868721  0.037736  1
  O  O23  1  0.772987  0.050539  0.606096  1
  O  O24  1  0.170990  0.690980  0.292214  1
  O  O25  1  0.869813  0.368721  0.462264  1
  O  O26  1  0.130187  0.631279  0.537736  1
  O  O27  1  0.227013  0.949461  0.393904  1
  O  O28  1  0.170990  0.809020  0.792214  1
  O  O29  1  0.869813  0.131279  0.962264  1
  F  F30  1  0.826072  0.539836  0.662803  1
  F  F31  1  0.542992  0.774252  0.263987  1
  F  F32  1  0.846243  0.647564  0.891207  1
  F  F33  1  0.153757  0.147564  0.608793  1
  F  F34  1  0.846243  0.852436  0.391207  1
  F  F35  1  0.577888  0.536509  0.792138  1
  F  F36  1  0.472692  0.382409  0.463129  1
  F  F37  1  0.422112  0.036509  0.707862  1
  F  F38  1  0.153757  0.352436  0.108793  1
  F  F39  1  0.542992  0.725748  0.763987  1
  F  F40  1  0.472692  0.117591  0.963129  1
  F  F41  1  0.457008  0.225748  0.736013  1
  F  F42  1  0.826072  0.960164  0.162803  1
  F  F43  1  0.577888  0.963491  0.292138  1
  F  F44  1  0.203024  0.228942  0.862780  1
  F  F45  1  0.457008  0.274252  0.236013  1
  F  F46  1  0.173928  0.460164  0.337197  1
  F  F47  1  0.796976  0.771058  0.137220  1
  F  F48  1  0.173928  0.039836  0.837197  1
  F  F49  1  0.527308  0.617591  0.536871  1
  F  F50  1  0.527308  0.882409  0.036871  1
  F  F51  1  0.796976  0.728942  0.637220  1
  F  F52  1  0.203024  0.271058  0.362780  1
  F  F53  1  0.422112  0.463491  0.207862  1
