# generated using pymatgen
data_KV(SO4)2
_symmetry_space_group_name_H-M   'P 1'
_cell_length_a   8.67762516
_cell_length_b   8.67762516
_cell_length_c   8.67762516
_cell_angle_alpha   32.72308674
_cell_angle_beta   32.72308674
_cell_angle_gamma   32.72308674
_symmetry_Int_Tables_number   1
_chemical_formula_structural   KV(SO4)2
_chemical_formula_sum   'K1 V1 S2 O8'
_cell_volume   169.85388782
_cell_formula_units_Z   1
loop_
 _symmetry_equiv_pos_site_id
 _symmetry_equiv_pos_as_xyz
  1  'x, y, z'
loop_
 _atom_site_type_symbol
 _atom_site_label
 _atom_site_symmetry_multiplicity
 _atom_site_fract_x
 _atom_site_fract_y
 _atom_site_fract_z
 _atom_site_occupancy
  K  K0  1  0.000000  0.000000  1.000000  1
  V  V1  1  0.500000  0.500000  0.500000  1
  S  S2  1  0.763425  0.763425  0.763425  1
  S  S3  1  0.236575  0.236575  0.236575  1
  O  O4  1  0.486012  0.250027  0.911919  1
  O  O5  1  0.749973  0.088081  0.513988  1
  O  O6  1  0.911919  0.486012  0.250027  1
  O  O7  1  0.513988  0.749973  0.088081  1
  O  O8  1  0.704134  0.704134  0.704134  1
  O  O9  1  0.088081  0.513988  0.749973  1
  O  O10  1  0.250027  0.911919  0.486012  1
  O  O11  1  0.295866  0.295866  0.295866  1
