# generated using pymatgen
data_PH6CNO3
_symmetry_space_group_name_H-M   'P 1'
_cell_length_a   7.32624965
_cell_length_b   15.56384464
_cell_length_c   13.49092762
_cell_angle_alpha   90.00000000
_cell_angle_beta   115.26957714
_cell_angle_gamma   90.00000000
_symmetry_Int_Tables_number   1
_chemical_formula_structural   PH6CNO3
_chemical_formula_sum   'P12 H72 C12 N12 O36'
_cell_volume   1391.09704867
_cell_formula_units_Z   12
loop_
 _symmetry_equiv_pos_site_id
 _symmetry_equiv_pos_as_xyz
  1  'x, y, z'
loop_
 _atom_site_type_symbol
 _atom_site_label
 _atom_site_symmetry_multiplicity
 _atom_site_fract_x
 _atom_site_fract_y
 _atom_site_fract_z
 _atom_site_occupancy
  P  P0  1  0.671200  0.690206  0.868804  1
  P  P1  1  0.671200  0.809794  0.368804  1
  P  P2  1  0.328800  0.190206  0.631196  1
  P  P3  1  0.431035  0.018093  0.726382  1
  P  P4  1  0.326958  0.836008  0.155515  1
  P  P5  1  0.326958  0.663992  0.655515  1
  P  P6  1  0.673042  0.163992  0.844485  1
  P  P7  1  0.568965  0.981907  0.273618  1
  P  P8  1  0.568965  0.518093  0.773618  1
  P  P9  1  0.328800  0.309794  0.131196  1
  P  P10  1  0.673042  0.336008  0.344485  1
  P  P11  1  0.431035  0.481907  0.226382  1
  H  H12  1  0.110139  0.471300  0.453708  1
  H  H13  1  0.810326  0.606253  0.437517  1
  H  H14  1  0.794418  0.297633  0.721993  1
  H  H15  1  0.899028  0.571931  0.265549  1
  H  H16  1  0.087387  0.328443  0.383024  1
  H  H17  1  0.912613  0.828443  0.116976  1
  H  H18  1  0.666414  0.808705  0.032891  1
  H  H19  1  0.083505  0.129027  0.344959  1
  H  H20  1  0.145279  0.315002  0.746924  1
  H  H21  1  0.333586  0.308705  0.467109  1
  H  H22  1  0.100972  0.428069  0.734451  1
  H  H23  1  0.096087  0.527904  0.937972  1
  H  H24  1  0.338131  0.875990  0.566340  1
  H  H25  1  0.916495  0.870973  0.655041  1
  H  H26  1  0.903913  0.027904  0.562028  1
  H  H27  1  0.861875  0.319161  0.030135  1
  H  H28  1  0.122901  0.583260  0.828871  1
  H  H29  1  0.100972  0.071931  0.234451  1
  H  H30  1  0.757364  0.094532  0.194702  1
  H  H31  1  0.804653  0.159493  0.108518  1
  H  H32  1  0.916495  0.629027  0.155041  1
  H  H33  1  0.854721  0.815002  0.753076  1
  H  H34  1  0.083505  0.370973  0.844959  1
  H  H35  1  0.668282  0.025268  0.571893  1
  H  H36  1  0.372471  0.044256  0.037582  1
  H  H37  1  0.899028  0.928069  0.765549  1
  H  H38  1  0.666414  0.691295  0.532891  1
  H  H39  1  0.333586  0.191295  0.967109  1
  H  H40  1  0.272443  0.385378  0.366258  1
  H  H41  1  0.145279  0.184998  0.246924  1
  H  H42  1  0.810326  0.893747  0.937517  1
  H  H43  1  0.627529  0.544256  0.462418  1
  H  H44  1  0.195347  0.659493  0.391482  1
  H  H45  1  0.903913  0.472096  0.062028  1
  H  H46  1  0.331718  0.525268  0.928107  1
  H  H47  1  0.366744  0.821860  0.464601  1
  H  H48  1  0.794418  0.202367  0.221993  1
  H  H49  1  0.854721  0.684998  0.253076  1
  H  H50  1  0.189674  0.393747  0.562483  1
  H  H51  1  0.633256  0.178140  0.535399  1
  H  H52  1  0.242636  0.594532  0.305298  1
  H  H53  1  0.331718  0.974732  0.428107  1
  H  H54  1  0.661869  0.375990  0.933660  1
  H  H55  1  0.195347  0.840507  0.891482  1
  H  H56  1  0.110139  0.028700  0.953708  1
  H  H57  1  0.861875  0.180839  0.530135  1
  H  H58  1  0.877099  0.416740  0.171129  1
  H  H59  1  0.242636  0.905468  0.805298  1
  H  H60  1  0.338131  0.624010  0.066340  1
  H  H61  1  0.138125  0.819161  0.469865  1
  H  H62  1  0.366744  0.678140  0.964601  1
  H  H63  1  0.877099  0.083260  0.671129  1
  H  H64  1  0.889861  0.528700  0.546292  1
  H  H65  1  0.804653  0.340507  0.608518  1
  H  H66  1  0.189674  0.106253  0.062483  1
  H  H67  1  0.757364  0.405468  0.694702  1
  H  H68  1  0.889861  0.971300  0.046292  1
  H  H69  1  0.627529  0.955744  0.962418  1
  H  H70  1  0.727557  0.614622  0.633742  1
  H  H71  1  0.138125  0.680839  0.969865  1
  H  H72  1  0.668282  0.474732  0.071893  1
  H  H73  1  0.661869  0.124010  0.433660  1
  H  H74  1  0.205582  0.702367  0.278007  1
  H  H75  1  0.096087  0.972096  0.437972  1
  H  H76  1  0.205582  0.797633  0.778007  1
  H  H77  1  0.122901  0.916740  0.328871  1
  H  H78  1  0.272443  0.114622  0.866258  1
  H  H79  1  0.727557  0.885378  0.133742  1
  H  H80  1  0.087387  0.171557  0.883024  1
  H  H81  1  0.633256  0.321860  0.035399  1
  H  H82  1  0.372471  0.455744  0.537582  1
  H  H83  1  0.912613  0.671557  0.616976  1
  C  C84  1  0.057167  0.367294  0.758829  1
  C  C85  1  0.225585  0.423862  0.499717  1
  C  C86  1  0.800467  0.435432  0.084984  1
  C  C87  1  0.942833  0.867294  0.741171  1
  C  C88  1  0.800467  0.064568  0.584984  1
  C  C89  1  0.774415  0.923862  0.000283  1
  C  C90  1  0.199533  0.935432  0.415016  1
  C  C91  1  0.225585  0.076138  0.999717  1
  C  C92  1  0.199533  0.564568  0.915016  1
  C  C93  1  0.774415  0.576138  0.500283  1
  C  C94  1  0.057167  0.132706  0.258829  1
  C  C95  1  0.942833  0.632706  0.241171  1
  N  N96  1  0.838508  0.351098  0.690983  1
  N  N97  1  0.231062  0.356517  0.423139  1
  N  N98  1  0.264428  0.642950  0.983916  1
  N  N99  1  0.161492  0.851098  0.809017  1
  N  N100  1  0.264428  0.857050  0.483916  1
  N  N101  1  0.768938  0.856517  0.076861  1
  N  N102  1  0.735572  0.142950  0.516084  1
  N  N103  1  0.768938  0.643483  0.576861  1
  N  N104  1  0.735572  0.357050  0.016084  1
  N  N105  1  0.161492  0.648902  0.309017  1
  N  N106  1  0.231062  0.143483  0.923139  1
  N  N107  1  0.838508  0.148902  0.190983  1
  O  O108  1  0.691934  0.983612  0.207842  1
  O  O109  1  0.352454  0.934861  0.202478  1
  O  O110  1  0.528472  0.435589  0.816847  1
  O  O111  1  0.308066  0.016388  0.792158  1
  O  O112  1  0.835650  0.205285  0.820267  1
  O  O113  1  0.352454  0.565139  0.702478  1
  O  O114  1  0.550778  0.775595  0.427161  1
  O  O115  1  0.881203  0.778309  0.401202  1
  O  O116  1  0.835650  0.294715  0.320267  1
  O  O117  1  0.308066  0.483612  0.292158  1
  O  O118  1  0.449222  0.224405  0.572839  1
  O  O119  1  0.164350  0.705285  0.679733  1
  O  O120  1  0.471528  0.564411  0.183153  1
  O  O121  1  0.685930  0.164171  0.957870  1
  O  O122  1  0.546634  0.795167  0.236199  1
  O  O123  1  0.647546  0.065139  0.797522  1
  O  O124  1  0.881203  0.721691  0.901202  1
  O  O125  1  0.329540  0.085053  0.623930  1
  O  O126  1  0.685930  0.335829  0.457870  1
  O  O127  1  0.118797  0.221691  0.598798  1
  O  O128  1  0.449222  0.275595  0.072839  1
  O  O129  1  0.691934  0.516388  0.707842  1
  O  O130  1  0.314070  0.664171  0.542130  1
  O  O131  1  0.670460  0.585053  0.876070  1
  O  O132  1  0.471528  0.935589  0.683153  1
  O  O133  1  0.164350  0.794715  0.179733  1
  O  O134  1  0.329540  0.414947  0.123930  1
  O  O135  1  0.314070  0.835829  0.042130  1
  O  O136  1  0.670460  0.914947  0.376070  1
  O  O137  1  0.528472  0.064411  0.316847  1
  O  O138  1  0.546634  0.704833  0.736199  1
  O  O139  1  0.647546  0.434861  0.297522  1
  O  O140  1  0.453366  0.204833  0.763801  1
  O  O141  1  0.550778  0.724405  0.927161  1
  O  O142  1  0.118797  0.278309  0.098798  1
  O  O143  1  0.453366  0.295167  0.263801  1
