# generated using pymatgen
data_V2O5
_symmetry_space_group_name_H-M   'P 1'
_cell_length_a   3.61667696
_cell_length_b   9.68871788
_cell_length_c   11.57819198
_cell_angle_alpha   90.00000000
_cell_angle_beta   90.00000000
_cell_angle_gamma   90.00000000
_symmetry_Int_Tables_number   1
_chemical_formula_structural   V2O5
_chemical_formula_sum   'V8 O20'
_cell_volume   405.71099364
_cell_formula_units_Z   4
loop_
 _symmetry_equiv_pos_site_id
 _symmetry_equiv_pos_as_xyz
  1  'x, y, z'
loop_
 _atom_site_type_symbol
 _atom_site_label
 _atom_site_symmetry_multiplicity
 _atom_site_fract_x
 _atom_site_fract_y
 _atom_site_fract_z
 _atom_site_occupancy
  V  V0  1  0.344654  0.299251  0.602901  1
  V  V1  1  0.155346  0.799251  0.602901  1
  V  V2  1  0.655346  0.700749  0.397099  1
  V  V3  1  0.844654  0.200749  0.397099  1
  V  V4  1  0.655346  0.700749  0.102901  1
  V  V5  1  0.844654  0.200749  0.102901  1
  V  V6  1  0.344654  0.299251  0.897099  1
  V  V7  1  0.155346  0.799251  0.897099  1
  O  O8  1  0.148860  0.735090  0.750000  1
  O  O9  1  0.351140  0.235090  0.750000  1
  O  O10  1  0.851140  0.264910  0.250000  1
  O  O11  1  0.648860  0.764910  0.250000  1
  O  O12  1  0.340459  0.464135  0.615522  1
  O  O13  1  0.159541  0.964135  0.615522  1
  O  O14  1  0.840459  0.035865  0.384478  1
  O  O15  1  0.659541  0.535865  0.384478  1
  O  O16  1  0.659541  0.535865  0.115522  1
  O  O17  1  0.840459  0.035865  0.115522  1
  O  O18  1  0.340459  0.464135  0.884478  1
  O  O19  1  0.159541  0.964135  0.884478  1
  O  O20  1  0.654893  0.751486  0.568166  1
  O  O21  1  0.845107  0.251486  0.568166  1
  O  O22  1  0.154893  0.748514  0.431834  1
  O  O23  1  0.345107  0.248514  0.431834  1
  O  O24  1  0.345107  0.248514  0.068166  1
  O  O25  1  0.154893  0.748514  0.068166  1
  O  O26  1  0.654893  0.751486  0.931834  1
  O  O27  1  0.845107  0.251486  0.931834  1
