# generated using pymatgen
data_Sr3P6(N4O3)2
_symmetry_space_group_name_H-M   'P 1'
_cell_length_a   7.36394427
_cell_length_b   7.36394427
_cell_length_c   6.11565771
_cell_angle_alpha   90.00000000
_cell_angle_beta   90.00000000
_cell_angle_gamma   120.00000000
_symmetry_Int_Tables_number   1
_chemical_formula_structural   Sr3P6(N4O3)2
_chemical_formula_sum   'Sr3 P6 N8 O6'
_cell_volume   287.20684656
_cell_formula_units_Z   1
loop_
 _symmetry_equiv_pos_site_id
 _symmetry_equiv_pos_as_xyz
  1  'x, y, z'
loop_
 _atom_site_type_symbol
 _atom_site_label
 _atom_site_symmetry_multiplicity
 _atom_site_fract_x
 _atom_site_fract_y
 _atom_site_fract_z
 _atom_site_occupancy
  Sr  Sr0  1  0.666667  0.333333  0.383073  1
  Sr  Sr1  1  0.000000  0.000000  0.500000  1
  Sr  Sr2  1  0.333333  0.666667  0.616927  1
  P  P3  1  0.823918  0.601843  0.890186  1
  P  P4  1  0.601843  0.777926  0.109814  1
  P  P5  1  0.398157  0.222074  0.890186  1
  P  P6  1  0.176082  0.398157  0.109814  1
  P  P7  1  0.777926  0.176082  0.890186  1
  P  P8  1  0.222074  0.823918  0.109814  1
  N  N9  1  0.330782  0.303497  0.104278  1
  N  N10  1  0.669218  0.696503  0.895722  1
  N  N11  1  0.696503  0.027285  0.104278  1
  N  N12  1  0.972715  0.669218  0.104278  1
  N  N13  1  0.303497  0.972715  0.895722  1
  N  N14  1  0.333333  0.666667  0.079883  1
  N  N15  1  0.666667  0.333333  0.920117  1
  N  N16  1  0.027285  0.330782  0.895722  1
  O  O17  1  0.074754  0.363135  0.337785  1
  O  O18  1  0.363135  0.288381  0.662215  1
  O  O19  1  0.288381  0.925246  0.337785  1
  O  O20  1  0.711619  0.074754  0.662215  1
  O  O21  1  0.925246  0.636865  0.662215  1
  O  O22  1  0.636865  0.711619  0.337785  1
