# generated using pymatgen
data_Mn2PClO4
_symmetry_space_group_name_H-M   'P 1'
_cell_length_a   4.98726277
_cell_length_b   8.18690098
_cell_length_c   11.54403089
_cell_angle_alpha   90.00000000
_cell_angle_beta   90.00000000
_cell_angle_gamma   90.00000000
_symmetry_Int_Tables_number   1
_chemical_formula_structural   Mn2PClO4
_chemical_formula_sum   'Mn8 P4 Cl4 O16'
_cell_volume   471.34539549
_cell_formula_units_Z   4
loop_
 _symmetry_equiv_pos_site_id
 _symmetry_equiv_pos_as_xyz
  1  'x, y, z'
loop_
 _atom_site_type_symbol
 _atom_site_label
 _atom_site_symmetry_multiplicity
 _atom_site_fract_x
 _atom_site_fract_y
 _atom_site_fract_z
 _atom_site_occupancy
  Mn  Mn0  1  0.999222  0.895723  0.120179  1
  Mn  Mn1  1  0.995941  0.345571  0.124018  1
  Mn  Mn2  1  0.495941  0.845571  0.375982  1
  Mn  Mn3  1  0.499222  0.104277  0.879821  1
  Mn  Mn4  1  0.999222  0.604277  0.620179  1
  Mn  Mn5  1  0.995941  0.154429  0.624018  1
  Mn  Mn6  1  0.495941  0.654429  0.875982  1
  Mn  Mn7  1  0.499222  0.395723  0.379821  1
  P  P8  1  0.546109  0.378165  0.663763  1
  P  P9  1  0.046109  0.878165  0.836237  1
  P  P10  1  0.546109  0.121835  0.163763  1
  P  P11  1  0.046109  0.621835  0.336237  1
  Cl  Cl12  1  0.738754  0.620493  0.064661  1
  Cl  Cl13  1  0.238754  0.120493  0.435339  1
  Cl  Cl14  1  0.238754  0.379507  0.935339  1
  Cl  Cl15  1  0.738754  0.879507  0.564661  1
  O  O16  1  0.645902  0.223504  0.728892  1
  O  O17  1  0.145129  0.035907  0.774615  1
  O  O18  1  0.145902  0.723504  0.771108  1
  O  O19  1  0.198497  0.624874  0.455375  1
  O  O20  1  0.645129  0.535907  0.725385  1
  O  O21  1  0.645129  0.964093  0.225385  1
  O  O22  1  0.737646  0.878602  0.850371  1
  O  O23  1  0.145129  0.464093  0.274615  1
  O  O24  1  0.145902  0.776496  0.271108  1
  O  O25  1  0.237646  0.121398  0.149629  1
  O  O26  1  0.198497  0.875126  0.955375  1
  O  O27  1  0.237646  0.378602  0.649629  1
  O  O28  1  0.737646  0.621398  0.350371  1
  O  O29  1  0.698497  0.375126  0.544625  1
  O  O30  1  0.645902  0.276496  0.228892  1
  O  O31  1  0.698497  0.124874  0.044625  1
