# generated using pymatgen
data_SrV2ZnO7
_symmetry_space_group_name_H-M   'P 1'
_cell_length_a   7.59732826
_cell_length_b   6.77283272
_cell_length_c   13.62432446
_cell_angle_alpha   90.00000000
_cell_angle_beta   117.62546133
_cell_angle_gamma   90.00000000
_symmetry_Int_Tables_number   1
_chemical_formula_structural   SrV2ZnO7
_chemical_formula_sum   'Sr4 V8 Zn4 O28'
_cell_volume   621.12465553
_cell_formula_units_Z   4
loop_
 _symmetry_equiv_pos_site_id
 _symmetry_equiv_pos_as_xyz
  1  'x, y, z'
loop_
 _atom_site_type_symbol
 _atom_site_label
 _atom_site_symmetry_multiplicity
 _atom_site_fract_x
 _atom_site_fract_y
 _atom_site_fract_z
 _atom_site_occupancy
  Sr  Sr0  1  0.268848  0.350593  0.023662  1
  Sr  Sr1  1  0.268848  0.149407  0.523662  1
  Sr  Sr2  1  0.731152  0.850593  0.476338  1
  Sr  Sr3  1  0.731152  0.649407  0.976338  1
  V  V4  1  0.806035  0.411278  0.720402  1
  V  V5  1  0.282585  0.843771  0.038460  1
  V  V6  1  0.193965  0.588722  0.279598  1
  V  V7  1  0.282585  0.656229  0.538460  1
  V  V8  1  0.193965  0.911278  0.779598  1
  V  V9  1  0.717415  0.156229  0.961540  1
  V  V10  1  0.717415  0.343771  0.461540  1
  V  V11  1  0.806035  0.088722  0.220402  1
  Zn  Zn12  1  0.289644  0.392216  0.767098  1
  Zn  Zn13  1  0.710356  0.607784  0.232902  1
  Zn  Zn14  1  0.289644  0.107784  0.267098  1
  Zn  Zn15  1  0.710356  0.892216  0.732902  1
  O  O16  1  0.728394  0.910882  0.281949  1
  O  O17  1  0.271606  0.410882  0.218051  1
  O  O18  1  0.669872  0.302424  0.194190  1
  O  O19  1  0.702453  0.971494  0.871026  1
  O  O20  1  0.517722  0.176053  0.419995  1
  O  O21  1  0.941126  0.868964  0.699417  1
  O  O22  1  0.669872  0.197576  0.694190  1
  O  O23  1  0.330128  0.697576  0.805810  1
  O  O24  1  0.752490  0.493251  0.580206  1
  O  O25  1  0.058874  0.131036  0.300583  1
  O  O26  1  0.271606  0.089118  0.718051  1
  O  O27  1  0.482278  0.676053  0.080005  1
  O  O28  1  0.702453  0.528506  0.371026  1
  O  O29  1  0.517722  0.323947  0.919995  1
  O  O30  1  0.752490  0.006749  0.080206  1
  O  O31  1  0.084879  0.696038  0.005581  1
  O  O32  1  0.247510  0.993251  0.919794  1
  O  O33  1  0.330128  0.802424  0.305810  1
  O  O34  1  0.084879  0.803962  0.505581  1
  O  O35  1  0.941126  0.631036  0.199417  1
  O  O36  1  0.297547  0.028506  0.128974  1
  O  O37  1  0.297547  0.471494  0.628974  1
  O  O38  1  0.058874  0.368964  0.800583  1
  O  O39  1  0.915121  0.303962  0.994419  1
  O  O40  1  0.915121  0.196038  0.494419  1
  O  O41  1  0.247510  0.506749  0.419794  1
  O  O42  1  0.728394  0.589118  0.781949  1
  O  O43  1  0.482278  0.823947  0.580005  1
