# generated using pymatgen
data_Ba2Zn3(PO3)10
_symmetry_space_group_name_H-M   'P 1'
_cell_length_a   10.89607399
_cell_length_b   5.43476507
_cell_length_c   22.88097294
_cell_angle_alpha   90.00000000
_cell_angle_beta   108.39850264
_cell_angle_gamma   90.00000000
_symmetry_Int_Tables_number   1
_chemical_formula_structural   Ba2Zn3(PO3)10
_chemical_formula_sum   'Ba4 Zn6 P20 O60'
_cell_volume   1285.69676000
_cell_formula_units_Z   2
loop_
 _symmetry_equiv_pos_site_id
 _symmetry_equiv_pos_as_xyz
  1  'x, y, z'
loop_
 _atom_site_type_symbol
 _atom_site_label
 _atom_site_symmetry_multiplicity
 _atom_site_fract_x
 _atom_site_fract_y
 _atom_site_fract_z
 _atom_site_occupancy
  Ba  Ba0  1  0.610245  0.504697  0.924408  1
  Ba  Ba1  1  0.389755  0.495303  0.075592  1
  Ba  Ba2  1  0.610245  0.495303  0.424408  1
  Ba  Ba3  1  0.389755  0.504697  0.575592  1
  Zn  Zn4  1  0.500000  0.550741  0.250000  1
  Zn  Zn5  1  0.000000  0.500000  0.000000  1
  Zn  Zn6  1  0.500000  0.449259  0.750000  1
  Zn  Zn7  1  0.000000  0.471565  0.250000  1
  Zn  Zn8  1  0.000000  0.500000  0.500000  1
  Zn  Zn9  1  0.000000  0.528435  0.750000  1
  P  P10  1  0.317826  0.956137  0.695678  1
  P  P11  1  0.371014  0.906390  0.425656  1
  P  P12  1  0.275118  0.776955  0.295680  1
  P  P13  1  0.839100  0.015413  0.022169  1
  P  P14  1  0.682174  0.043863  0.304322  1
  P  P15  1  0.839100  0.984587  0.522169  1
  P  P16  1  0.371014  0.093610  0.925656  1
  P  P17  1  0.724882  0.223045  0.704320  1
  P  P18  1  0.160900  0.015413  0.477831  1
  P  P19  1  0.682174  0.956137  0.804322  1
  P  P20  1  0.724882  0.776955  0.204320  1
  P  P21  1  0.160900  0.984587  0.977831  1
  P  P22  1  0.042820  0.215726  0.129543  1
  P  P23  1  0.957180  0.215726  0.370457  1
  P  P24  1  0.317826  0.043863  0.195678  1
  P  P25  1  0.957180  0.784274  0.870457  1
  P  P26  1  0.628986  0.906390  0.074344  1
  P  P27  1  0.628986  0.093610  0.574344  1
  P  P28  1  0.275118  0.223045  0.795680  1
  P  P29  1  0.042820  0.784274  0.629543  1
  O  O30  1  0.603838  0.344736  0.545509  1
  O  O31  1  0.515433  0.950032  0.579248  1
  O  O32  1  0.944705  0.562400  0.907202  1
  O  O33  1  0.953337  0.992130  0.586069  1
  O  O34  1  0.850913  0.765566  0.483710  1
  O  O35  1  0.994366  0.752905  0.683406  1
  O  O36  1  0.609621  0.606018  0.190450  1
  O  O37  1  0.303341  0.970292  0.763670  1
  O  O38  1  0.831823  0.237679  0.494825  1
  O  O39  1  0.994366  0.247095  0.183406  1
  O  O40  1  0.146397  0.683311  0.256707  1
  O  O41  1  0.696659  0.029708  0.236330  1
  O  O42  1  0.853603  0.316689  0.743293  1
  O  O43  1  0.173488  0.055582  0.149058  1
  O  O44  1  0.046663  0.007870  0.413931  1
  O  O45  1  0.005634  0.752905  0.816594  1
  O  O46  1  0.853603  0.683311  0.243293  1
  O  O47  1  0.710639  0.925349  0.540981  1
  O  O48  1  0.149087  0.765566  0.016290  1
  O  O49  1  0.484567  0.049968  0.420752  1
  O  O50  1  0.826512  0.944418  0.850942  1
  O  O51  1  0.396162  0.344736  0.954491  1
  O  O52  1  0.615144  0.717654  0.809271  1
  O  O53  1  0.953337  0.007870  0.086069  1
  O  O54  1  0.738964  0.884374  0.141893  1
  O  O55  1  0.603838  0.655264  0.045509  1
  O  O56  1  0.609621  0.393982  0.690450  1
  O  O57  1  0.944705  0.437600  0.407202  1
  O  O58  1  0.055295  0.437600  0.092798  1
  O  O59  1  0.384856  0.282346  0.190729  1
  O  O60  1  0.390379  0.606018  0.309550  1
  O  O61  1  0.261036  0.884374  0.358107  1
  O  O62  1  0.289361  0.925349  0.959019  1
  O  O63  1  0.831823  0.762321  0.994825  1
  O  O64  1  0.396162  0.655264  0.454491  1
  O  O65  1  0.515433  0.049968  0.079248  1
  O  O66  1  0.710639  0.074651  0.040981  1
  O  O67  1  0.168177  0.237679  0.005175  1
  O  O68  1  0.850913  0.234434  0.983710  1
  O  O69  1  0.373824  0.194508  0.682297  1
  O  O70  1  0.384856  0.717654  0.690729  1
  O  O71  1  0.149087  0.234434  0.516290  1
  O  O72  1  0.626176  0.194508  0.817703  1
  O  O73  1  0.168177  0.762321  0.505175  1
  O  O74  1  0.615144  0.282346  0.309271  1
  O  O75  1  0.303341  0.029708  0.263670  1
  O  O76  1  0.484567  0.950032  0.920752  1
  O  O77  1  0.146397  0.316689  0.756707  1
  O  O78  1  0.261036  0.115626  0.858107  1
  O  O79  1  0.626176  0.805492  0.317703  1
  O  O80  1  0.173488  0.944418  0.649058  1
  O  O81  1  0.046663  0.992130  0.913931  1
  O  O82  1  0.738964  0.115626  0.641893  1
  O  O83  1  0.696659  0.970292  0.736330  1
  O  O84  1  0.055295  0.562400  0.592798  1
  O  O85  1  0.373824  0.805492  0.182297  1
  O  O86  1  0.289361  0.074651  0.459019  1
  O  O87  1  0.826512  0.055582  0.350942  1
  O  O88  1  0.005634  0.247095  0.316594  1
  O  O89  1  0.390379  0.393982  0.809550  1
