# generated using pymatgen
data_CsK2AuO2
_symmetry_space_group_name_H-M   'P 1'
_cell_length_a   6.36480640
_cell_length_b   7.46010049
_cell_length_c   12.71218689
_cell_angle_alpha   90.00000000
_cell_angle_beta   90.00000000
_cell_angle_gamma   90.00000000
_symmetry_Int_Tables_number   1
_chemical_formula_structural   CsK2AuO2
_chemical_formula_sum   'Cs4 K8 Au4 O8'
_cell_volume   603.60126993
_cell_formula_units_Z   4
loop_
 _symmetry_equiv_pos_site_id
 _symmetry_equiv_pos_as_xyz
  1  'x, y, z'
loop_
 _atom_site_type_symbol
 _atom_site_label
 _atom_site_symmetry_multiplicity
 _atom_site_fract_x
 _atom_site_fract_y
 _atom_site_fract_z
 _atom_site_occupancy
  Cs  Cs0  1  0.182738  0.750000  0.905790  1
  Cs  Cs1  1  0.817262  0.250000  0.094210  1
  Cs  Cs2  1  0.682738  0.250000  0.594210  1
  Cs  Cs3  1  0.317262  0.750000  0.405790  1
  K  K4  1  0.138873  0.997694  0.639377  1
  K  K5  1  0.638873  0.497694  0.860623  1
  K  K6  1  0.361127  0.997694  0.139377  1
  K  K7  1  0.638873  0.002306  0.860623  1
  K  K8  1  0.138873  0.502306  0.639377  1
  K  K9  1  0.361127  0.502306  0.139377  1
  K  K10  1  0.861127  0.002306  0.360623  1
  K  K11  1  0.861127  0.497694  0.360623  1
  Au  Au12  1  0.672523  0.750000  0.622887  1
  Au  Au13  1  0.172523  0.250000  0.877113  1
  Au  Au14  1  0.327477  0.250000  0.377113  1
  Au  Au15  1  0.827477  0.750000  0.122887  1
  O  O16  1  0.584808  0.750000  0.018157  1
  O  O17  1  0.084808  0.250000  0.481843  1
  O  O18  1  0.572194  0.250000  0.273861  1
  O  O19  1  0.415192  0.250000  0.981843  1
  O  O20  1  0.915192  0.750000  0.518157  1
  O  O21  1  0.427806  0.750000  0.726139  1
  O  O22  1  0.927806  0.250000  0.773861  1
  O  O23  1  0.072194  0.750000  0.226139  1
