# generated using pymatgen
data_Ba5B4(O5F)2
_symmetry_space_group_name_H-M   'P 1'
_cell_length_a   11.11509302
_cell_length_b   11.11509302
_cell_length_c   8.73350880
_cell_angle_alpha   85.02128430
_cell_angle_beta   94.97871570
_cell_angle_gamma   142.20948523
_symmetry_Int_Tables_number   1
_chemical_formula_structural   Ba5B4(O5F)2
_chemical_formula_sum   'Ba10 B8 O20 F4'
_cell_volume   658.38819917
_cell_formula_units_Z   2
loop_
 _symmetry_equiv_pos_site_id
 _symmetry_equiv_pos_as_xyz
  1  'x, y, z'
loop_
 _atom_site_type_symbol
 _atom_site_label
 _atom_site_symmetry_multiplicity
 _atom_site_fract_x
 _atom_site_fract_y
 _atom_site_fract_z
 _atom_site_occupancy
  Ba  Ba0  1  0.444981  0.444981  0.250000  1
  Ba  Ba1  1  0.031085  0.201786  0.891864  1
  Ba  Ba2  1  0.555019  0.555019  0.750000  1
  Ba  Ba3  1  0.587322  0.186426  0.305468  1
  Ba  Ba4  1  0.412678  0.813574  0.694532  1
  Ba  Ba5  1  0.201786  0.031085  0.608136  1
  Ba  Ba6  1  0.186426  0.587322  0.194532  1
  Ba  Ba7  1  0.798214  0.968915  0.391864  1
  Ba  Ba8  1  0.968915  0.798214  0.108136  1
  Ba  Ba9  1  0.813574  0.412678  0.805468  1
  B  B10  1  0.319335  0.943696  0.916613  1
  B  B11  1  0.587553  0.775677  0.005580  1
  B  B12  1  0.943696  0.319335  0.583387  1
  B  B13  1  0.680665  0.056304  0.083387  1
  B  B14  1  0.775677  0.587553  0.494420  1
  B  B15  1  0.412447  0.224323  0.994420  1
  B  B16  1  0.056304  0.680665  0.416613  1
  B  B17  1  0.224323  0.412447  0.505580  1
  O  O18  1  0.051997  0.351421  0.466316  1
  O  O19  1  0.648579  0.948003  0.966316  1
  O  O20  1  0.276063  0.193141  0.919386  1
  O  O21  1  0.193141  0.276063  0.580614  1
  O  O22  1  0.951367  0.576684  0.285381  1
  O  O23  1  0.595429  0.402875  0.042041  1
  O  O24  1  0.806859  0.723937  0.419386  1
  O  O25  1  0.811039  0.250579  0.056589  1
  O  O26  1  0.423316  0.048633  0.785381  1
  O  O27  1  0.404571  0.597125  0.957959  1
  O  O28  1  0.597125  0.404571  0.542041  1
  O  O29  1  0.749421  0.188961  0.556589  1
  O  O30  1  0.250579  0.811039  0.443411  1
  O  O31  1  0.188961  0.749421  0.943411  1
  O  O32  1  0.723937  0.806859  0.080614  1
  O  O33  1  0.576684  0.951367  0.214619  1
  O  O34  1  0.948003  0.648579  0.533684  1
  O  O35  1  0.402875  0.595429  0.457959  1
  O  O36  1  0.351421  0.051997  0.033684  1
  O  O37  1  0.048633  0.423316  0.714619  1
  F  F38  1  0.095308  0.255411  0.194517  1
  F  F39  1  0.744589  0.904692  0.694517  1
  F  F40  1  0.904692  0.744589  0.805483  1
  F  F41  1  0.255411  0.095308  0.305483  1
