# generated using pymatgen
data_SrAl2O4
_symmetry_space_group_name_H-M   'P 1'
_cell_length_a   9.00102136
_cell_length_b   9.00102136
_cell_length_c   8.50146679
_cell_angle_alpha   90.00000000
_cell_angle_beta   90.00000000
_cell_angle_gamma   120.00000000
_symmetry_Int_Tables_number   1
_chemical_formula_structural   SrAl2O4
_chemical_formula_sum   'Sr6 Al12 O24'
_cell_volume   596.49674634
_cell_formula_units_Z   6
loop_
 _symmetry_equiv_pos_site_id
 _symmetry_equiv_pos_as_xyz
  1  'x, y, z'
loop_
 _atom_site_type_symbol
 _atom_site_label
 _atom_site_symmetry_multiplicity
 _atom_site_fract_x
 _atom_site_fract_y
 _atom_site_fract_z
 _atom_site_occupancy
  Sr  Sr0  1  0.666667  0.333333  0.286855  1
  Sr  Sr1  1  0.333333  0.666667  0.786855  1
  Sr  Sr2  1  0.666667  0.333333  0.745103  1
  Sr  Sr3  1  0.333333  0.666667  0.245103  1
  Sr  Sr4  1  0.000000  0.000000  0.752796  1
  Sr  Sr5  1  0.000000  0.000000  0.252796  1
  Al  Al6  1  0.677624  0.661525  0.446447  1
  Al  Al7  1  0.016099  0.677624  0.946447  1
  Al  Al8  1  0.661525  0.983901  0.946447  1
  Al  Al9  1  0.338475  0.016099  0.446447  1
  Al  Al10  1  0.983901  0.322376  0.446447  1
  Al  Al11  1  0.322376  0.338475  0.946447  1
  Al  Al12  1  0.682515  0.661882  0.054724  1
  Al  Al13  1  0.020633  0.682515  0.554724  1
  Al  Al14  1  0.661882  0.979367  0.554724  1
  Al  Al15  1  0.338118  0.020633  0.054724  1
  Al  Al16  1  0.979367  0.317485  0.054724  1
  Al  Al17  1  0.317485  0.338118  0.554724  1
  O  O18  1  0.543017  0.450002  0.520150  1
  O  O19  1  0.093014  0.543017  0.020150  1
  O  O20  1  0.450002  0.906986  0.020150  1
  O  O21  1  0.549998  0.093014  0.520150  1
  O  O22  1  0.906986  0.456983  0.520150  1
  O  O23  1  0.456983  0.549998  0.020150  1
  O  O24  1  0.207678  0.790472  0.437485  1
  O  O25  1  0.417206  0.207678  0.937485  1
  O  O26  1  0.790472  0.582794  0.937485  1
  O  O27  1  0.209528  0.417206  0.437485  1
  O  O28  1  0.582794  0.792322  0.437485  1
  O  O29  1  0.792322  0.209528  0.937485  1
  O  O30  1  0.886890  0.119210  0.538296  1
  O  O31  1  0.767680  0.886890  0.038296  1
  O  O32  1  0.119210  0.232320  0.038296  1
  O  O33  1  0.880790  0.767680  0.538296  1
  O  O34  1  0.232320  0.113110  0.538296  1
  O  O35  1  0.113110  0.880790  0.038296  1
  O  O36  1  0.274671  0.369523  0.750980  1
  O  O37  1  0.905148  0.274671  0.250980  1
  O  O38  1  0.369523  0.094852  0.250980  1
  O  O39  1  0.630477  0.905148  0.750980  1
  O  O40  1  0.094852  0.725329  0.750980  1
  O  O41  1  0.725329  0.630477  0.250980  1
