# generated using pymatgen
data_Ag3AsS3
_symmetry_space_group_name_H-M   'P 1'
_cell_length_a   6.88608485
_cell_length_b   6.88608485
_cell_length_c   17.21505671
_cell_angle_alpha   72.21621378
_cell_angle_beta   107.78378622
_cell_angle_gamma   124.53316750
_symmetry_Int_Tables_number   1
_chemical_formula_structural   Ag3AsS3
_chemical_formula_sum   'Ag12 As4 S12'
_cell_volume   631.16737653
_cell_formula_units_Z   4
loop_
 _symmetry_equiv_pos_site_id
 _symmetry_equiv_pos_as_xyz
  1  'x, y, z'
loop_
 _atom_site_type_symbol
 _atom_site_label
 _atom_site_symmetry_multiplicity
 _atom_site_fract_x
 _atom_site_fract_y
 _atom_site_fract_z
 _atom_site_occupancy
  Ag  Ag0  1  0.169716  0.894939  0.715375  1
  Ag  Ag1  1  0.894939  0.169716  0.784625  1
  Ag  Ag2  1  0.401420  0.683331  0.634259  1
  Ag  Ag3  1  0.598580  0.316669  0.365741  1
  Ag  Ag4  1  0.141286  0.011210  0.437615  1
  Ag  Ag5  1  0.988790  0.858714  0.937615  1
  Ag  Ag6  1  0.830284  0.105061  0.284625  1
  Ag  Ag7  1  0.011210  0.141286  0.062385  1
  Ag  Ag8  1  0.683331  0.401420  0.865741  1
  Ag  Ag9  1  0.858714  0.988790  0.562385  1
  Ag  Ag10  1  0.105061  0.830284  0.215375  1
  Ag  Ag11  1  0.316669  0.598580  0.134259  1
  As  As12  1  0.697666  0.410222  0.571990  1
  As  As13  1  0.410222  0.697666  0.928010  1
  As  As14  1  0.589778  0.302334  0.071990  1
  As  As15  1  0.302334  0.589778  0.428010  1
  S  S16  1  0.036566  0.345872  0.914203  1
  S  S17  1  0.717092  0.574217  0.673291  1
  S  S18  1  0.308969  0.978030  0.859212  1
  S  S19  1  0.978030  0.308969  0.640788  1
  S  S20  1  0.574217  0.717092  0.826709  1
  S  S21  1  0.691031  0.021970  0.140788  1
  S  S22  1  0.021970  0.691031  0.359212  1
  S  S23  1  0.282908  0.425783  0.326709  1
  S  S24  1  0.654128  0.963434  0.414203  1
  S  S25  1  0.345872  0.036566  0.585797  1
  S  S26  1  0.963434  0.654128  0.085797  1
  S  S27  1  0.425783  0.282908  0.173291  1
