# generated using pymatgen
data_K3B12H12Br
_symmetry_space_group_name_H-M   'P 1'
_cell_length_a   6.95620581
_cell_length_b   6.95620581
_cell_length_c   6.95620581
_cell_angle_alpha   94.26620459
_cell_angle_beta   94.26620459
_cell_angle_gamma   94.26620459
_symmetry_Int_Tables_number   1
_chemical_formula_structural   K3B12H12Br
_chemical_formula_sum   'K3 B12 H12 Br1'
_cell_volume   333.65687598
_cell_formula_units_Z   1
loop_
 _symmetry_equiv_pos_site_id
 _symmetry_equiv_pos_as_xyz
  1  'x, y, z'
loop_
 _atom_site_type_symbol
 _atom_site_label
 _atom_site_symmetry_multiplicity
 _atom_site_fract_x
 _atom_site_fract_y
 _atom_site_fract_z
 _atom_site_occupancy
  K  K0  1  0.000000  0.500000  0.500000  1
  K  K1  1  0.500000  0.500000  0.000000  1
  K  K2  1  0.500000  0.000000  0.500000  1
  B  B3  1  0.937049  0.763173  0.937049  1
  B  B4  1  0.763173  0.937049  0.937049  1
  B  B5  1  0.937049  0.937049  0.763173  1
  B  B6  1  0.062951  0.062951  0.236827  1
  B  B7  1  0.062951  0.236827  0.062951  1
  B  B8  1  0.236827  0.062951  0.062951  1
  B  B9  1  0.122806  0.840651  0.122806  1
  B  B10  1  0.840651  0.122806  0.122806  1
  B  B11  1  0.122806  0.122806  0.840651  1
  B  B12  1  0.877194  0.877194  0.159349  1
  B  B13  1  0.877194  0.159349  0.877194  1
  B  B14  1  0.159349  0.877194  0.877194  1
  H  H15  1  0.108479  0.404882  0.108479  1
  H  H16  1  0.404882  0.108479  0.108479  1
  H  H17  1  0.108479  0.108479  0.404882  1
  H  H18  1  0.891521  0.891521  0.595118  1
  H  H19  1  0.891521  0.595118  0.891521  1
  H  H20  1  0.595118  0.891521  0.891521  1
  H  H21  1  0.211502  0.728771  0.211502  1
  H  H22  1  0.728771  0.211502  0.211502  1
  H  H23  1  0.211502  0.211502  0.728771  1
  H  H24  1  0.788498  0.788498  0.271229  1
  H  H25  1  0.788498  0.271229  0.788498  1
  H  H26  1  0.271229  0.788498  0.788498  1
  Br  Br27  1  0.500000  0.500000  0.500000  1
