# generated using pymatgen
data_Mn3V6(FeO6)4
_symmetry_space_group_name_H-M   'P 1'
_cell_length_a   6.78847727
_cell_length_b   8.30979059
_cell_length_c   10.01128096
_cell_angle_alpha   105.87908206
_cell_angle_beta   105.48435908
_cell_angle_gamma   102.76739016
_symmetry_Int_Tables_number   1
_chemical_formula_structural   Mn3V6(FeO6)4
_chemical_formula_sum   'Mn3 V6 Fe4 O24'
_cell_volume   496.44201297
_cell_formula_units_Z   1
loop_
 _symmetry_equiv_pos_site_id
 _symmetry_equiv_pos_as_xyz
  1  'x, y, z'
loop_
 _atom_site_type_symbol
 _atom_site_label
 _atom_site_symmetry_multiplicity
 _atom_site_fract_x
 _atom_site_fract_y
 _atom_site_fract_z
 _atom_site_occupancy
  Mn  Mn0  1  0.783441  0.795774  0.297026  1
  Mn  Mn1  1  0.500000  0.000000  0.000000  1
  Mn  Mn2  1  0.216559  0.204226  0.702974  1
  V  V3  1  0.609289  0.598272  0.834116  1
  V  V4  1  0.900372  0.234923  0.368236  1
  V  V5  1  0.099628  0.765077  0.631764  1
  V  V6  1  0.718670  0.157957  0.766196  1
  V  V7  1  0.281330  0.842043  0.233804  1
  V  V8  1  0.390711  0.401728  0.165884  1
  Fe  Fe9  1  0.542957  0.706426  0.518285  1
  Fe  Fe10  1  0.123035  0.546408  0.895504  1
  Fe  Fe11  1  0.457043  0.293574  0.481715  1
  Fe  Fe12  1  0.876965  0.453592  0.104496  1
  O  O13  1  0.029485  0.723771  0.229553  1
  O  O14  1  0.063530  0.635765  0.737978  1
  O  O15  1  0.321236  0.059128  0.318188  1
  O  O16  1  0.936470  0.364235  0.262022  1
  O  O17  1  0.638834  0.810652  0.916540  1
  O  O18  1  0.150586  0.250311  0.497147  1
  O  O19  1  0.678764  0.940872  0.681812  1
  O  O20  1  0.970515  0.276229  0.770447  1
  O  O21  1  0.710325  0.203328  0.949014  1
  O  O22  1  0.513920  0.217635  0.658856  1
  O  O23  1  0.261903  0.704622  0.534743  1
  O  O24  1  0.486080  0.782366  0.341144  1
  O  O25  1  0.373648  0.477395  0.849431  1
  O  O26  1  0.738097  0.295378  0.465257  1
  O  O27  1  0.423866  0.445827  0.356078  1
  O  O28  1  0.626352  0.522605  0.150569  1
  O  O29  1  0.849414  0.749689  0.502853  1
  O  O30  1  0.289675  0.796672  0.050986  1
  O  O31  1  0.234581  0.980366  0.756081  1
  O  O32  1  0.361166  0.189348  0.083460  1
  O  O33  1  0.576134  0.554173  0.643922  1
  O  O34  1  0.834680  0.540049  0.926067  1
  O  O35  1  0.765419  0.019634  0.243919  1
  O  O36  1  0.165320  0.459951  0.073933  1
