# generated using pymatgen
data_MnCu(Te2O5)2
_symmetry_space_group_name_H-M   'P 1'
_cell_length_a   8.96855261
_cell_length_b   8.96855261
_cell_length_c   12.88854714
_cell_angle_alpha   90.00000000
_cell_angle_beta   90.00000000
_cell_angle_gamma   90.00000000
_symmetry_Int_Tables_number   1
_chemical_formula_structural   MnCu(Te2O5)2
_chemical_formula_sum   'Mn4 Cu4 Te16 O40'
_cell_volume   1036.68946329
_cell_formula_units_Z   4
loop_
 _symmetry_equiv_pos_site_id
 _symmetry_equiv_pos_as_xyz
  1  'x, y, z'
loop_
 _atom_site_type_symbol
 _atom_site_label
 _atom_site_symmetry_multiplicity
 _atom_site_fract_x
 _atom_site_fract_y
 _atom_site_fract_z
 _atom_site_occupancy
  Mn  Mn0  1  0.500000  0.000000  0.750000  1
  Mn  Mn1  1  0.500000  0.000000  0.250000  1
  Mn  Mn2  1  0.000000  0.500000  0.750000  1
  Mn  Mn3  1  0.000000  0.500000  0.250000  1
  Cu  Cu4  1  0.500000  0.000000  0.000000  1
  Cu  Cu5  1  0.500000  0.000000  0.500000  1
  Cu  Cu6  1  0.000000  0.500000  0.500000  1
  Cu  Cu7  1  0.000000  0.500000  0.000000  1
  Te  Te8  1  0.284241  0.679715  0.366739  1
  Te  Te9  1  0.820285  0.784241  0.866739  1
  Te  Te10  1  0.715759  0.679715  0.133261  1
  Te  Te11  1  0.715759  0.320285  0.366739  1
  Te  Te12  1  0.179715  0.215759  0.866739  1
  Te  Te13  1  0.820285  0.215759  0.633261  1
  Te  Te14  1  0.179715  0.784241  0.633261  1
  Te  Te15  1  0.284241  0.320285  0.133261  1
  Te  Te16  1  0.215759  0.179715  0.366739  1
  Te  Te17  1  0.320285  0.715759  0.866739  1
  Te  Te18  1  0.679715  0.284241  0.866739  1
  Te  Te19  1  0.215759  0.820285  0.133261  1
  Te  Te20  1  0.784241  0.179715  0.133261  1
  Te  Te21  1  0.784241  0.820285  0.366739  1
  Te  Te22  1  0.679715  0.715759  0.633261  1
  Te  Te23  1  0.320285  0.284241  0.633261  1
  O  O24  1  0.293964  0.793964  0.500000  1
  O  O25  1  0.706036  0.793964  0.000000  1
  O  O26  1  0.293964  0.206036  0.000000  1
  O  O27  1  0.706036  0.206036  0.500000  1
  O  O28  1  0.206036  0.706036  0.000000  1
  O  O29  1  0.793964  0.706036  0.500000  1
  O  O30  1  0.206036  0.293964  0.500000  1
  O  O31  1  0.793964  0.293964  0.000000  1
  O  O32  1  0.128484  0.266759  0.700857  1
  O  O33  1  0.871516  0.733241  0.700857  1
  O  O34  1  0.766759  0.628484  0.299143  1
  O  O35  1  0.766759  0.371516  0.200857  1
  O  O36  1  0.233241  0.628484  0.200857  1
  O  O37  1  0.871516  0.266759  0.799143  1
  O  O38  1  0.128484  0.733241  0.799143  1
  O  O39  1  0.866944  0.423244  0.613640  1
  O  O40  1  0.371516  0.233241  0.799143  1
  O  O41  1  0.628484  0.766759  0.799143  1
  O  O42  1  0.733241  0.871516  0.200857  1
  O  O43  1  0.733241  0.128484  0.299143  1
  O  O44  1  0.266759  0.871516  0.299143  1
  O  O45  1  0.628484  0.233241  0.700857  1
  O  O46  1  0.371516  0.766759  0.700857  1
  O  O47  1  0.266759  0.128484  0.200857  1
  O  O48  1  0.423244  0.866944  0.113640  1
  O  O49  1  0.633056  0.923244  0.613640  1
  O  O50  1  0.366944  0.076756  0.613640  1
  O  O51  1  0.423244  0.133056  0.386360  1
  O  O52  1  0.576756  0.866944  0.386360  1
  O  O53  1  0.576756  0.133056  0.113640  1
  O  O54  1  0.366944  0.923244  0.886360  1
  O  O55  1  0.633056  0.076756  0.886360  1
  O  O56  1  0.076756  0.633056  0.386360  1
  O  O57  1  0.866944  0.576756  0.886360  1
  O  O58  1  0.133056  0.423244  0.886360  1
  O  O59  1  0.076756  0.366944  0.113640  1
  O  O60  1  0.923244  0.633056  0.113640  1
  O  O61  1  0.923244  0.366944  0.386360  1
  O  O62  1  0.133056  0.576756  0.613640  1
  O  O63  1  0.233241  0.371516  0.299143  1
