# generated using pymatgen
data_TbVO3
_symmetry_space_group_name_H-M   'P 1'
_cell_length_a   5.35105393
_cell_length_b   5.75067188
_cell_length_c   7.66421097
_cell_angle_alpha   90.00000000
_cell_angle_beta   90.00000000
_cell_angle_gamma   90.00000000
_symmetry_Int_Tables_number   1
_chemical_formula_structural   TbVO3
_chemical_formula_sum   'Tb4 V4 O12'
_cell_volume   235.84429071
_cell_formula_units_Z   4
loop_
 _symmetry_equiv_pos_site_id
 _symmetry_equiv_pos_as_xyz
  1  'x, y, z'
loop_
 _atom_site_type_symbol
 _atom_site_label
 _atom_site_symmetry_multiplicity
 _atom_site_fract_x
 _atom_site_fract_y
 _atom_site_fract_z
 _atom_site_occupancy
  Tb  Tb0  1  0.519679  0.568963  0.750000  1
  Tb  Tb1  1  0.980321  0.068963  0.750000  1
  Tb  Tb2  1  0.480321  0.431037  0.250000  1
  Tb  Tb3  1  0.019679  0.931037  0.250000  1
  V  V4  1  0.000000  0.500000  0.000000  1
  V  V5  1  0.500000  0.000000  0.500000  1
  V  V6  1  0.000000  0.500000  0.500000  1
  V  V7  1  0.500000  0.000000  0.000000  1
  O  O8  1  0.695756  0.310424  0.941939  1
  O  O9  1  0.304244  0.689576  0.441939  1
  O  O10  1  0.804244  0.810424  0.558061  1
  O  O11  1  0.195756  0.189576  0.441939  1
  O  O12  1  0.695756  0.310424  0.558061  1
  O  O13  1  0.884228  0.544964  0.250000  1
  O  O14  1  0.195756  0.189576  0.058061  1
  O  O15  1  0.384228  0.955036  0.750000  1
  O  O16  1  0.804244  0.810424  0.941939  1
  O  O17  1  0.615772  0.044964  0.250000  1
  O  O18  1  0.304244  0.689576  0.058061  1
  O  O19  1  0.115772  0.455036  0.750000  1
