# generated using pymatgen
data_FeP(H2O3)2
_symmetry_space_group_name_H-M   'P 1'
_cell_length_a   5.36373390
_cell_length_b   9.92119999
_cell_length_c   10.30067886
_cell_angle_alpha   90.00000000
_cell_angle_beta   120.93722017
_cell_angle_gamma   90.00000000
_symmetry_Int_Tables_number   1
_chemical_formula_structural   FeP(H2O3)2
_chemical_formula_sum   'Fe4 P4 H16 O24'
_cell_volume   470.16299372
_cell_formula_units_Z   4
loop_
 _symmetry_equiv_pos_site_id
 _symmetry_equiv_pos_as_xyz
  1  'x, y, z'
loop_
 _atom_site_type_symbol
 _atom_site_label
 _atom_site_symmetry_multiplicity
 _atom_site_fract_x
 _atom_site_fract_y
 _atom_site_fract_z
 _atom_site_occupancy
  Fe  Fe0  1  0.901618  0.826387  0.809260  1
  Fe  Fe1  1  0.098382  0.326387  0.690740  1
  Fe  Fe2  1  0.098382  0.173613  0.190740  1
  Fe  Fe3  1  0.901618  0.673613  0.309260  1
  P  P4  1  0.727133  0.149096  0.815503  1
  P  P5  1  0.272867  0.649096  0.684497  1
  P  P6  1  0.272867  0.850904  0.184497  1
  P  P7  1  0.727133  0.350904  0.315503  1
  H  H8  1  0.597704  0.449409  0.672095  1
  H  H9  1  0.402296  0.949409  0.827905  1
  H  H10  1  0.402296  0.550591  0.327905  1
  H  H11  1  0.597704  0.050591  0.172095  1
  H  H12  1  0.255933  0.331370  0.987781  1
  H  H13  1  0.744067  0.831370  0.512219  1
  H  H14  1  0.744067  0.668630  0.012219  1
  H  H15  1  0.255933  0.168630  0.487781  1
  H  H16  1  0.877145  0.544270  0.717511  1
  H  H17  1  0.122855  0.044270  0.782489  1
  H  H18  1  0.122855  0.455730  0.282489  1
  H  H19  1  0.877145  0.955730  0.217511  1
  H  H20  1  0.542252  0.347638  0.982383  1
  H  H21  1  0.457748  0.847638  0.517617  1
  H  H22  1  0.457748  0.652362  0.017617  1
  H  H23  1  0.542252  0.152362  0.482383  1
  O  O24  1  0.583314  0.706290  0.783503  1
  O  O25  1  0.416686  0.206290  0.716497  1
  O  O26  1  0.416686  0.293710  0.216497  1
  O  O27  1  0.583314  0.793710  0.283503  1
  O  O28  1  0.709097  0.993801  0.831394  1
  O  O29  1  0.290903  0.493801  0.668606  1
  O  O30  1  0.290903  0.006199  0.168606  1
  O  O31  1  0.709097  0.506199  0.331394  1
  O  O32  1  0.100217  0.674124  0.766568  1
  O  O33  1  0.899783  0.174124  0.733432  1
  O  O34  1  0.899783  0.325876  0.233432  1
  O  O35  1  0.100217  0.825876  0.266568  1
  O  O36  1  0.119361  0.779619  0.028505  1
  O  O37  1  0.880639  0.279619  0.471495  1
  O  O38  1  0.880639  0.220381  0.971495  1
  O  O39  1  0.119361  0.720381  0.528505  1
  O  O40  1  0.332535  0.366170  0.925508  1
  O  O41  1  0.667465  0.866170  0.574492  1
  O  O42  1  0.667465  0.633830  0.074492  1
  O  O43  1  0.332535  0.133830  0.425508  1
  O  O44  1  0.209703  0.953149  0.821071  1
  O  O45  1  0.790297  0.453149  0.678929  1
  O  O46  1  0.790297  0.046851  0.178929  1
  O  O47  1  0.209703  0.546851  0.321071  1
