# generated using pymatgen
data_Li2V(PO4)2
_symmetry_space_group_name_H-M   'P 1'
_cell_length_a   5.04674889
_cell_length_b   8.34251345
_cell_length_c   7.00399319
_cell_angle_alpha   90.00000000
_cell_angle_beta   98.20454290
_cell_angle_gamma   90.00000000
_symmetry_Int_Tables_number   1
_chemical_formula_structural   Li2V(PO4)2
_chemical_formula_sum   'Li4 V2 P4 O16'
_cell_volume   291.86793358
_cell_formula_units_Z   2
loop_
 _symmetry_equiv_pos_site_id
 _symmetry_equiv_pos_as_xyz
  1  'x, y, z'
loop_
 _atom_site_type_symbol
 _atom_site_label
 _atom_site_symmetry_multiplicity
 _atom_site_fract_x
 _atom_site_fract_y
 _atom_site_fract_z
 _atom_site_occupancy
  Li  Li0  1  0.250092  0.488274  0.250278  1
  Li  Li1  1  0.749908  0.988274  0.749722  1
  Li  Li2  1  0.764257  0.648494  0.390724  1
  Li  Li3  1  0.235743  0.148494  0.609276  1
  V  V4  1  0.741138  0.001452  0.237590  1
  V  V5  1  0.258862  0.501452  0.762410  1
  P  P6  1  0.705282  0.322401  0.522145  1
  P  P7  1  0.187538  0.180236  0.020536  1
  P  P8  1  0.294718  0.822401  0.477855  1
  P  P9  1  0.812462  0.680236  0.979464  1
  O  O10  1  0.395564  0.929062  0.646390  1
  O  O11  1  0.962318  0.646362  0.803980  1
  O  O12  1  0.530278  0.335565  0.688916  1
  O  O13  1  0.469722  0.835565  0.311084  1
  O  O14  1  0.937059  0.603972  0.165136  1
  O  O15  1  0.062941  0.103972  0.834864  1
  O  O16  1  0.604436  0.429062  0.353610  1
  O  O17  1  0.213852  0.364446  0.995230  1
  O  O18  1  0.037682  0.146362  0.196020  1
  O  O19  1  0.786148  0.864446  0.004770  1
  O  O20  1  0.704525  0.139840  0.470416  1
  O  O21  1  0.295475  0.639840  0.529584  1
  O  O22  1  0.518313  0.614383  0.916261  1
  O  O23  1  0.481687  0.114383  0.083739  1
  O  O24  1  0.006959  0.367672  0.595420  1
  O  O25  1  0.993041  0.867672  0.404580  1
