# generated using pymatgen
data_NaLiTi3O7
_symmetry_space_group_name_H-M   'P 1'
_cell_length_a   10.06311706
_cell_length_b   10.06311706
_cell_length_c   11.54493017
_cell_angle_alpha   90.00000000
_cell_angle_beta   90.00000000
_cell_angle_gamma   111.43827863
_symmetry_Int_Tables_number   1
_chemical_formula_structural   NaLiTi3O7
_chemical_formula_sum   'Na8 Li8 Ti24 O56'
_cell_volume   1088.22389491
_cell_formula_units_Z   8
loop_
 _symmetry_equiv_pos_site_id
 _symmetry_equiv_pos_as_xyz
  1  'x, y, z'
loop_
 _atom_site_type_symbol
 _atom_site_label
 _atom_site_symmetry_multiplicity
 _atom_site_fract_x
 _atom_site_fract_y
 _atom_site_fract_z
 _atom_site_occupancy
  Na  Na0  1  0.380403  0.380403  0.624786  1
  Na  Na1  1  0.881071  0.881071  0.370576  1
  Na  Na2  1  0.618929  0.618929  0.870576  1
  Na  Na3  1  0.119597  0.119597  0.124786  1
  Na  Na4  1  0.619597  0.619597  0.375214  1
  Na  Na5  1  0.880403  0.880403  0.875214  1
  Na  Na6  1  0.118929  0.118929  0.629424  1
  Na  Na7  1  0.381071  0.381071  0.129424  1
  Li  Li8  1  0.566328  0.933463  0.374842  1
  Li  Li9  1  0.433463  0.066328  0.125158  1
  Li  Li10  1  0.566537  0.933672  0.874841  1
  Li  Li11  1  0.933672  0.566537  0.874842  1
  Li  Li12  1  0.433672  0.066537  0.625158  1
  Li  Li13  1  0.066537  0.433672  0.625158  1
  Li  Li14  1  0.066328  0.433463  0.125158  1
  Li  Li15  1  0.933463  0.566328  0.374842  1
  Ti  Ti16  1  0.250652  0.749348  0.500000  1
  Ti  Ti17  1  0.768088  0.986117  0.125810  1
  Ti  Ti18  1  0.731912  0.513883  0.625810  1
  Ti  Ti19  1  0.485841  0.268103  0.876233  1
  Ti  Ti20  1  0.268103  0.485841  0.876233  1
  Ti  Ti21  1  0.249348  0.750652  0.000000  1
  Ti  Ti22  1  0.768103  0.985841  0.623767  1
  Ti  Ti23  1  0.750652  0.249348  0.000000  1
  Ti  Ti24  1  0.731897  0.514159  0.123767  1
  Ti  Ti25  1  0.513883  0.731912  0.625810  1
  Ti  Ti26  1  0.250101  0.750101  0.250000  1
  Ti  Ti27  1  0.750101  0.250101  0.250000  1
  Ti  Ti28  1  0.486117  0.268088  0.374190  1
  Ti  Ti29  1  0.749899  0.249899  0.750000  1
  Ti  Ti30  1  0.013883  0.231912  0.874190  1
  Ti  Ti31  1  0.249899  0.749899  0.750000  1
  Ti  Ti32  1  0.268088  0.486117  0.374190  1
  Ti  Ti33  1  0.749348  0.250652  0.500000  1
  Ti  Ti34  1  0.985841  0.768103  0.623767  1
  Ti  Ti35  1  0.231897  0.014159  0.376233  1
  Ti  Ti36  1  0.514159  0.731897  0.123767  1
  Ti  Ti37  1  0.014159  0.231897  0.376233  1
  Ti  Ti38  1  0.231912  0.013883  0.874190  1
  Ti  Ti39  1  0.986117  0.768088  0.125810  1
  O  O40  1  0.379934  0.851850  0.625024  1
  O  O41  1  0.367728  0.630977  0.249562  1
  O  O42  1  0.356617  0.144089  0.763437  1
  O  O43  1  0.620525  0.148089  0.874992  1
  O  O44  1  0.648150  0.120066  0.125024  1
  O  O45  1  0.631931  0.368069  0.000000  1
  O  O46  1  0.879475  0.351911  0.374992  1
  O  O47  1  0.379475  0.851911  0.125008  1
  O  O48  1  0.132272  0.869023  0.749562  1
  O  O49  1  0.143472  0.356651  0.486752  1
  O  O50  1  0.143349  0.356528  0.986752  1
  O  O51  1  0.084501  0.084501  0.874272  1
  O  O52  1  0.856617  0.644089  0.736563  1
  O  O53  1  0.355911  0.143383  0.263437  1
  O  O54  1  0.630977  0.367728  0.249562  1
  O  O55  1  0.148150  0.620066  0.374976  1
  O  O56  1  0.415499  0.415499  0.374272  1
  O  O57  1  0.869023  0.132272  0.749562  1
  O  O58  1  0.148089  0.620525  0.874992  1
  O  O59  1  0.856651  0.643472  0.013248  1
  O  O60  1  0.632272  0.369023  0.750438  1
  O  O61  1  0.368069  0.631931  0.000000  1
  O  O62  1  0.915499  0.915499  0.125728  1
  O  O63  1  0.131441  0.868559  0.000000  1
  O  O64  1  0.369023  0.632272  0.750438  1
  O  O65  1  0.131931  0.868069  0.500000  1
  O  O66  1  0.643383  0.855911  0.236563  1
  O  O67  1  0.368559  0.631441  0.500000  1
  O  O68  1  0.856528  0.643349  0.513248  1
  O  O69  1  0.084502  0.084502  0.375695  1
  O  O70  1  0.851850  0.379934  0.625024  1
  O  O71  1  0.143383  0.355911  0.263437  1
  O  O72  1  0.879934  0.351850  0.874976  1
  O  O73  1  0.120066  0.648150  0.125024  1
  O  O74  1  0.351850  0.879934  0.874976  1
  O  O75  1  0.120525  0.648089  0.625008  1
  O  O76  1  0.356528  0.143349  0.986752  1
  O  O77  1  0.415498  0.415498  0.875695  1
  O  O78  1  0.868559  0.131441  0.000000  1
  O  O79  1  0.867728  0.130977  0.250438  1
  O  O80  1  0.584501  0.584501  0.625728  1
  O  O81  1  0.144089  0.356617  0.763437  1
  O  O82  1  0.643349  0.856528  0.513248  1
  O  O83  1  0.644089  0.856617  0.736563  1
  O  O84  1  0.356651  0.143472  0.486752  1
  O  O85  1  0.851911  0.379475  0.125008  1
  O  O86  1  0.584502  0.584502  0.124305  1
  O  O87  1  0.631441  0.368559  0.500000  1
  O  O88  1  0.868069  0.131931  0.500000  1
  O  O89  1  0.855911  0.643383  0.236563  1
  O  O90  1  0.648089  0.120525  0.625008  1
  O  O91  1  0.130977  0.867728  0.250438  1
  O  O92  1  0.351911  0.879475  0.374992  1
  O  O93  1  0.915498  0.915498  0.624305  1
  O  O94  1  0.643472  0.856651  0.013248  1
  O  O95  1  0.620066  0.148150  0.374976  1
