# generated using pymatgen
data_K4Ti2PO4F9
_symmetry_space_group_name_H-M   'P 1'
_cell_length_a   5.93705187
_cell_length_b   11.16271521
_cell_length_c   20.49010517
_cell_angle_alpha   90.00000000
_cell_angle_beta   105.85796465
_cell_angle_gamma   90.00000000
_symmetry_Int_Tables_number   1
_chemical_formula_structural   K4Ti2PO4F9
_chemical_formula_sum   'K16 Ti8 P4 O16 F36'
_cell_volume   1306.27249457
_cell_formula_units_Z   4
loop_
 _symmetry_equiv_pos_site_id
 _symmetry_equiv_pos_as_xyz
  1  'x, y, z'
loop_
 _atom_site_type_symbol
 _atom_site_label
 _atom_site_symmetry_multiplicity
 _atom_site_fract_x
 _atom_site_fract_y
 _atom_site_fract_z
 _atom_site_occupancy
  K  K0  1  0.657075  0.046270  0.167282  1
  K  K1  1  0.657075  0.453730  0.667282  1
  K  K2  1  0.456377  0.268918  0.484244  1
  K  K3  1  0.543623  0.731082  0.515756  1
  K  K4  1  0.127950  0.756020  0.140190  1
  K  K5  1  0.543623  0.768918  0.015756  1
  K  K6  1  0.640697  0.455888  0.151489  1
  K  K7  1  0.640697  0.044112  0.651489  1
  K  K8  1  0.872050  0.243980  0.859810  1
  K  K9  1  0.359303  0.955888  0.348511  1
  K  K10  1  0.359303  0.544112  0.848511  1
  K  K11  1  0.342925  0.546270  0.332718  1
  K  K12  1  0.872050  0.256020  0.359810  1
  K  K13  1  0.456377  0.231082  0.984244  1
  K  K14  1  0.127950  0.743980  0.640190  1
  K  K15  1  0.342925  0.953730  0.832718  1
  Ti  Ti16  1  0.000000  0.000000  0.500000  1
  Ti  Ti17  1  0.719270  0.746158  0.245082  1
  Ti  Ti18  1  0.280730  0.253842  0.754918  1
  Ti  Ti19  1  0.280730  0.246158  0.254918  1
  Ti  Ti20  1  0.000000  0.500000  0.000000  1
  Ti  Ti21  1  0.000000  0.000000  0.000000  1
  Ti  Ti22  1  0.719270  0.753842  0.745082  1
  Ti  Ti23  1  0.000000  0.500000  0.500000  1
  P  P24  1  0.955269  0.752497  0.408442  1
  P  P25  1  0.044731  0.252497  0.091558  1
  P  P26  1  0.955269  0.747503  0.908442  1
  P  P27  1  0.044731  0.247503  0.591558  1
  O  O28  1  0.077925  0.161219  0.036700  1
  O  O29  1  0.120409  0.377048  0.069390  1
  O  O30  1  0.200212  0.749188  0.900165  1
  O  O31  1  0.879591  0.622952  0.930610  1
  O  O32  1  0.922075  0.838781  0.963300  1
  O  O33  1  0.799788  0.249188  0.599835  1
  O  O34  1  0.077925  0.338781  0.536700  1
  O  O35  1  0.236047  0.219783  0.158958  1
  O  O36  1  0.763953  0.719783  0.341042  1
  O  O37  1  0.236047  0.280217  0.658958  1
  O  O38  1  0.120409  0.122952  0.569390  1
  O  O39  1  0.799788  0.250812  0.099835  1
  O  O40  1  0.922075  0.661219  0.463300  1
  O  O41  1  0.200212  0.750812  0.400165  1
  O  O42  1  0.879591  0.877048  0.430610  1
  O  O43  1  0.763953  0.780217  0.841042  1
  F  F44  1  0.852056  0.960755  0.068332  1
  F  F45  1  0.712549  0.441771  0.442183  1
  F  F46  1  0.663917  0.770387  0.148800  1
  F  F47  1  0.055541  0.132086  0.742278  1
  F  F48  1  0.520400  0.127122  0.276067  1
  F  F49  1  0.520878  0.138010  0.760053  1
  F  F50  1  0.147944  0.039245  0.931668  1
  F  F51  1  0.055541  0.367914  0.242278  1
  F  F52  1  0.257872  0.901840  0.543760  1
  F  F53  1  0.287451  0.941771  0.057817  1
  F  F54  1  0.147944  0.460755  0.431668  1
  F  F55  1  0.944459  0.867914  0.257722  1
  F  F56  1  0.520400  0.372878  0.776067  1
  F  F57  1  0.520878  0.361990  0.260053  1
  F  F58  1  0.827432  0.928362  0.555955  1
  F  F59  1  0.944476  0.868900  0.737764  1
  F  F60  1  0.663917  0.729613  0.648800  1
  F  F61  1  0.742128  0.098160  0.456240  1
  F  F62  1  0.172568  0.071638  0.444045  1
  F  F63  1  0.742128  0.401840  0.956240  1
  F  F64  1  0.852056  0.539245  0.568332  1
  F  F65  1  0.287451  0.558229  0.557817  1
  F  F66  1  0.944459  0.632086  0.757722  1
  F  F67  1  0.336083  0.270387  0.351200  1
  F  F68  1  0.172568  0.428362  0.944045  1
  F  F69  1  0.479122  0.861990  0.239947  1
  F  F70  1  0.055524  0.131100  0.262236  1
  F  F71  1  0.712549  0.058229  0.942183  1
  F  F72  1  0.336083  0.229613  0.851200  1
  F  F73  1  0.479600  0.872878  0.723933  1
  F  F74  1  0.944476  0.631100  0.237764  1
  F  F75  1  0.479122  0.638010  0.739947  1
  F  F76  1  0.257872  0.598160  0.043760  1
  F  F77  1  0.055524  0.368900  0.762236  1
  F  F78  1  0.827432  0.571638  0.055955  1
  F  F79  1  0.479600  0.627122  0.223933  1
