# generated using pymatgen
data_Ca9In(PO4)7
_symmetry_space_group_name_H-M   'P 1'
_cell_length_a   13.93474487
_cell_length_b   13.93474487
_cell_length_c   13.93474487
_cell_angle_alpha   44.30900229
_cell_angle_beta   44.30900229
_cell_angle_gamma   44.30900229
_symmetry_Int_Tables_number   1
_chemical_formula_structural   Ca9In(PO4)7
_chemical_formula_sum   'Ca18 In2 P14 O56'
_cell_volume   1199.94112030
_cell_formula_units_Z   2
loop_
 _symmetry_equiv_pos_site_id
 _symmetry_equiv_pos_as_xyz
  1  'x, y, z'
loop_
 _atom_site_type_symbol
 _atom_site_label
 _atom_site_symmetry_multiplicity
 _atom_site_fract_x
 _atom_site_fract_y
 _atom_site_fract_z
 _atom_site_occupancy
  Ca  Ca0  1  0.568068  0.593233  0.144358  1
  Ca  Ca1  1  0.847744  0.435918  0.422401  1
  Ca  Ca2  1  0.593233  0.144358  0.568068  1
  Ca  Ca3  1  0.422401  0.847744  0.435918  1
  Ca  Ca4  1  0.644358  0.093233  0.068068  1
  Ca  Ca5  1  0.093233  0.068068  0.644358  1
  Ca  Ca6  1  0.949731  0.546818  0.528111  1
  Ca  Ca7  1  0.528111  0.949731  0.546818  1
  Ca  Ca8  1  0.046818  0.449731  0.028111  1
  Ca  Ca9  1  0.144358  0.568068  0.593233  1
  Ca  Ca10  1  0.449731  0.028111  0.046818  1
  Ca  Ca11  1  0.028111  0.046818  0.449731  1
  Ca  Ca12  1  0.068068  0.644358  0.093233  1
  Ca  Ca13  1  0.935918  0.347744  0.922401  1
  Ca  Ca14  1  0.435918  0.422401  0.847744  1
  Ca  Ca15  1  0.347744  0.922401  0.935918  1
  Ca  Ca16  1  0.922401  0.935918  0.347744  1
  Ca  Ca17  1  0.546818  0.528111  0.949731  1
  In  In18  1  0.000523  0.000523  0.000523  1
  In  In19  1  0.500523  0.500523  0.500523  1
  P  P20  1  0.231068  0.231068  0.231068  1
  P  P21  1  0.731068  0.731068  0.731068  1
  P  P22  1  0.813263  0.314783  0.779352  1
  P  P23  1  0.691423  0.725598  0.180083  1
  P  P24  1  0.180083  0.691423  0.725598  1
  P  P25  1  0.725598  0.180083  0.691423  1
  P  P26  1  0.279352  0.814783  0.313263  1
  P  P27  1  0.779352  0.813263  0.314783  1
  P  P28  1  0.191423  0.680083  0.225598  1
  P  P29  1  0.814783  0.313263  0.279352  1
  P  P30  1  0.313263  0.279352  0.814783  1
  P  P31  1  0.680083  0.225598  0.191423  1
  P  P32  1  0.225598  0.191423  0.680083  1
  P  P33  1  0.314783  0.779352  0.813263  1
  O  O34  1  0.229128  0.143282  0.607196  1
  O  O35  1  0.107196  0.643282  0.729128  1
  O  O36  1  0.315569  0.881424  0.331422  1
  O  O37  1  0.608096  0.733873  0.889631  1
  O  O38  1  0.611727  0.889231  0.161186  1
  O  O39  1  0.131421  0.124194  0.860441  1
  O  O40  1  0.360441  0.624194  0.631421  1
  O  O41  1  0.404583  0.107639  0.855682  1
  O  O42  1  0.111727  0.661186  0.389231  1
  O  O43  1  0.729128  0.107196  0.643282  1
  O  O44  1  0.889631  0.608096  0.733873  1
  O  O45  1  0.733873  0.889631  0.608096  1
  O  O46  1  0.643282  0.729128  0.107196  1
  O  O47  1  0.831422  0.381424  0.815569  1
  O  O48  1  0.143840  0.337579  0.870282  1
  O  O49  1  0.815569  0.831422  0.381424  1
  O  O50  1  0.636176  0.382058  0.364187  1
  O  O51  1  0.364187  0.636176  0.382058  1
  O  O52  1  0.864187  0.882058  0.136176  1
  O  O53  1  0.337579  0.870282  0.143840  1
  O  O54  1  0.370282  0.837579  0.643840  1
  O  O55  1  0.607196  0.229128  0.143282  1
  O  O56  1  0.233873  0.108096  0.389631  1
  O  O57  1  0.136176  0.864187  0.882058  1
  O  O58  1  0.389631  0.233873  0.108096  1
  O  O59  1  0.863707  0.649377  0.127433  1
  O  O60  1  0.331422  0.315569  0.881424  1
  O  O61  1  0.381424  0.815569  0.831422  1
  O  O62  1  0.904583  0.355682  0.607639  1
  O  O63  1  0.643840  0.370282  0.837579  1
  O  O64  1  0.631421  0.360441  0.624194  1
  O  O65  1  0.882058  0.136176  0.864187  1
  O  O66  1  0.649377  0.127433  0.863707  1
  O  O67  1  0.108096  0.389631  0.233873  1
  O  O68  1  0.661186  0.389231  0.111727  1
  O  O69  1  0.870282  0.143840  0.337579  1
  O  O70  1  0.624194  0.631421  0.360441  1
  O  O71  1  0.363707  0.627433  0.149377  1
  O  O72  1  0.382058  0.364187  0.636176  1
  O  O73  1  0.149377  0.363707  0.627433  1
  O  O74  1  0.355682  0.607639  0.904583  1
  O  O75  1  0.127433  0.863707  0.649377  1
  O  O76  1  0.189663  0.189663  0.189663  1
  O  O77  1  0.389231  0.111727  0.661186  1
  O  O78  1  0.689663  0.689663  0.689663  1
  O  O79  1  0.607639  0.904583  0.355682  1
  O  O80  1  0.837579  0.643840  0.370282  1
  O  O81  1  0.107639  0.855682  0.404583  1
  O  O82  1  0.143282  0.607196  0.229128  1
  O  O83  1  0.855682  0.404583  0.107639  1
  O  O84  1  0.161186  0.611727  0.889231  1
  O  O85  1  0.889231  0.161186  0.611727  1
  O  O86  1  0.860441  0.131421  0.124194  1
  O  O87  1  0.124194  0.860441  0.131421  1
  O  O88  1  0.627433  0.149377  0.363707  1
  O  O89  1  0.881424  0.331422  0.315569  1
