# generated using pymatgen
data_CdHg6(As2Br3)2
_symmetry_space_group_name_H-M   'P 1'
_cell_length_a   12.70259004
_cell_length_b   12.70259004
_cell_length_c   12.70259004
_cell_angle_alpha   90.00000000
_cell_angle_beta   90.00000000
_cell_angle_gamma   90.00000000
_symmetry_Int_Tables_number   1
_chemical_formula_structural   CdHg6(As2Br3)2
_chemical_formula_sum   'Cd4 Hg24 As16 Br24'
_cell_volume   2049.63649826
_cell_formula_units_Z   4
loop_
 _symmetry_equiv_pos_site_id
 _symmetry_equiv_pos_as_xyz
  1  'x, y, z'
loop_
 _atom_site_type_symbol
 _atom_site_label
 _atom_site_symmetry_multiplicity
 _atom_site_fract_x
 _atom_site_fract_y
 _atom_site_fract_z
 _atom_site_occupancy
  Cd  Cd0  1  0.500000  0.000000  0.500000  1
  Cd  Cd1  1  0.000000  0.000000  0.000000  1
  Cd  Cd2  1  0.000000  0.500000  0.500000  1
  Cd  Cd3  1  0.500000  0.500000  0.000000  1
  Hg  Hg4  1  0.714215  0.717806  0.475993  1
  Hg  Hg5  1  0.217806  0.024007  0.285785  1
  Hg  Hg6  1  0.975993  0.714215  0.782194  1
  Hg  Hg7  1  0.785785  0.282194  0.975993  1
  Hg  Hg8  1  0.524007  0.285785  0.282194  1
  Hg  Hg9  1  0.782194  0.975993  0.714215  1
  Hg  Hg10  1  0.024007  0.214215  0.717806  1
  Hg  Hg11  1  0.475993  0.785785  0.217806  1
  Hg  Hg12  1  0.217806  0.475993  0.785785  1
  Hg  Hg13  1  0.475993  0.714215  0.717806  1
  Hg  Hg14  1  0.785785  0.217806  0.475993  1
  Hg  Hg15  1  0.285785  0.282194  0.524007  1
  Hg  Hg16  1  0.024007  0.285785  0.217806  1
  Hg  Hg17  1  0.975993  0.785785  0.282194  1
  Hg  Hg18  1  0.782194  0.524007  0.214215  1
  Hg  Hg19  1  0.282194  0.524007  0.285785  1
  Hg  Hg20  1  0.285785  0.217806  0.024007  1
  Hg  Hg21  1  0.282194  0.975993  0.785785  1
  Hg  Hg22  1  0.524007  0.214215  0.782194  1
  Hg  Hg23  1  0.214215  0.717806  0.024007  1
  Hg  Hg24  1  0.717806  0.475993  0.714215  1
  Hg  Hg25  1  0.714215  0.782194  0.975993  1
  Hg  Hg26  1  0.214215  0.782194  0.524007  1
  Hg  Hg27  1  0.717806  0.024007  0.214215  1
  As  As28  1  0.829089  0.170911  0.670911  1
  As  As29  1  0.782698  0.717302  0.282698  1
  As  As30  1  0.829089  0.329089  0.170911  1
  As  As31  1  0.170911  0.670911  0.829089  1
  As  As32  1  0.329089  0.170911  0.829089  1
  As  As33  1  0.329089  0.329089  0.329089  1
  As  As34  1  0.217302  0.282698  0.717302  1
  As  As35  1  0.717302  0.217302  0.282698  1
  As  As36  1  0.170911  0.829089  0.329089  1
  As  As37  1  0.670911  0.829089  0.170911  1
  As  As38  1  0.782698  0.782698  0.782698  1
  As  As39  1  0.217302  0.217302  0.217302  1
  As  As40  1  0.282698  0.782698  0.717302  1
  As  As41  1  0.717302  0.282698  0.782698  1
  As  As42  1  0.670911  0.670911  0.670911  1
  As  As43  1  0.282698  0.717302  0.217302  1
  Br  Br44  1  0.031742  0.217815  0.962188  1
  Br  Br45  1  0.782185  0.462188  0.468258  1
  Br  Br46  1  0.968258  0.782185  0.037812  1
  Br  Br47  1  0.531742  0.282185  0.037812  1
  Br  Br48  1  0.968258  0.717815  0.537812  1
  Br  Br49  1  0.282185  0.462188  0.031742  1
  Br  Br50  1  0.037812  0.531742  0.282185  1
  Br  Br51  1  0.462188  0.031742  0.282185  1
  Br  Br52  1  0.782185  0.037812  0.968258  1
  Br  Br53  1  0.537812  0.531742  0.217815  1
  Br  Br54  1  0.717815  0.962188  0.468258  1
  Br  Br55  1  0.217815  0.962188  0.031742  1
  Br  Br56  1  0.462188  0.468258  0.782185  1
  Br  Br57  1  0.282185  0.037812  0.531742  1
  Br  Br58  1  0.962188  0.031742  0.217815  1
  Br  Br59  1  0.031742  0.282185  0.462188  1
  Br  Br60  1  0.537812  0.968258  0.717815  1
  Br  Br61  1  0.717815  0.537812  0.968258  1
  Br  Br62  1  0.217815  0.537812  0.531742  1
  Br  Br63  1  0.531742  0.217815  0.537812  1
  Br  Br64  1  0.962188  0.468258  0.717815  1
  Br  Br65  1  0.037812  0.968258  0.782185  1
  Br  Br66  1  0.468258  0.782185  0.462188  1
  Br  Br67  1  0.468258  0.717815  0.962188  1
