# generated using pymatgen
data_CsYP2O7
_symmetry_space_group_name_H-M   'P 1'
_cell_length_a   8.02774141
_cell_length_b   11.05068588
_cell_length_c   8.89866113
_cell_angle_alpha   90.00000000
_cell_angle_beta   104.31599208
_cell_angle_gamma   90.00000000
_symmetry_Int_Tables_number   1
_chemical_formula_structural   CsYP2O7
_chemical_formula_sum   'Cs4 Y4 P8 O28'
_cell_volume   764.90445270
_cell_formula_units_Z   4
loop_
 _symmetry_equiv_pos_site_id
 _symmetry_equiv_pos_as_xyz
  1  'x, y, z'
loop_
 _atom_site_type_symbol
 _atom_site_label
 _atom_site_symmetry_multiplicity
 _atom_site_fract_x
 _atom_site_fract_y
 _atom_site_fract_z
 _atom_site_occupancy
  Cs  Cs0  1  0.199920  0.690845  0.052228  1
  Cs  Cs1  1  0.800080  0.190845  0.447772  1
  Cs  Cs2  1  0.800080  0.309155  0.947772  1
  Cs  Cs3  1  0.199920  0.809155  0.552228  1
  Y  Y4  1  0.236669  0.400530  0.752600  1
  Y  Y5  1  0.763331  0.900530  0.747400  1
  Y  Y6  1  0.763331  0.599470  0.247400  1
  Y  Y7  1  0.236669  0.099470  0.252600  1
  P  P8  1  0.427341  0.370336  0.182701  1
  P  P9  1  0.572659  0.870336  0.317299  1
  P  P10  1  0.572659  0.629664  0.817299  1
  P  P11  1  0.427341  0.129664  0.682701  1
  P  P12  1  0.131210  0.096387  0.821589  1
  P  P13  1  0.868790  0.596387  0.678411  1
  P  P14  1  0.868790  0.903613  0.178411  1
  P  P15  1  0.131210  0.403613  0.321589  1
  O  O16  1  0.317241  0.061341  0.789999  1
  O  O17  1  0.682759  0.561341  0.710001  1
  O  O18  1  0.682759  0.938659  0.210001  1
  O  O19  1  0.317241  0.438659  0.289999  1
  O  O20  1  0.084913  0.274349  0.261375  1
  O  O21  1  0.915087  0.774349  0.238625  1
  O  O22  1  0.915087  0.725651  0.738625  1
  O  O23  1  0.084913  0.225651  0.761375  1
  O  O24  1  0.605621  0.428507  0.231326  1
  O  O25  1  0.394379  0.928507  0.268674  1
  O  O26  1  0.394379  0.571493  0.768674  1
  O  O27  1  0.605621  0.071493  0.731326  1
  O  O28  1  0.153616  0.414739  0.495498  1
  O  O29  1  0.846384  0.914739  0.004502  1
  O  O30  1  0.846384  0.585261  0.504502  1
  O  O31  1  0.153616  0.085261  0.995498  1
  O  O32  1  0.334111  0.396305  0.014470  1
  O  O33  1  0.665889  0.896305  0.485530  1
  O  O34  1  0.665889  0.603695  0.985530  1
  O  O35  1  0.334111  0.103695  0.514470  1
  O  O36  1  0.003495  0.496215  0.228787  1
  O  O37  1  0.996505  0.996215  0.271213  1
  O  O38  1  0.996505  0.503785  0.771213  1
  O  O39  1  0.003495  0.003785  0.728787  1
  O  O40  1  0.437521  0.235752  0.225155  1
  O  O41  1  0.562479  0.735752  0.274845  1
  O  O42  1  0.562479  0.764248  0.774845  1
  O  O43  1  0.437521  0.264248  0.725155  1
