# generated using pymatgen
data_P3IrO9
_symmetry_space_group_name_H-M   'P 1'
_cell_length_a   11.78159379
_cell_length_b   11.78159379
_cell_length_c   9.52493627
_cell_angle_alpha   70.01381033
_cell_angle_beta   109.98618967
_cell_angle_gamma   68.75575135
_symmetry_Int_Tables_number   1
_chemical_formula_structural   P3IrO9
_chemical_formula_sum   'P18 Ir6 O54'
_cell_volume   980.86571759
_cell_formula_units_Z   6
loop_
 _symmetry_equiv_pos_site_id
 _symmetry_equiv_pos_as_xyz
  1  'x, y, z'
loop_
 _atom_site_type_symbol
 _atom_site_label
 _atom_site_symmetry_multiplicity
 _atom_site_fract_x
 _atom_site_fract_y
 _atom_site_fract_z
 _atom_site_occupancy
  P  P0  1  0.609048  0.783962  0.392697  1
  P  P1  1  0.443148  0.163170  0.746258  1
  P  P2  1  0.553478  0.721140  0.893185  1
  P  P3  1  0.772577  0.498296  0.741010  1
  P  P4  1  0.828603  0.798159  0.296167  1
  P  P5  1  0.501704  0.227423  0.241010  1
  P  P6  1  0.094460  0.853713  0.711377  1
  P  P7  1  0.184842  0.105689  0.335652  1
  P  P8  1  0.866206  0.069452  0.866387  1
  P  P9  1  0.201841  0.171397  0.796167  1
  P  P10  1  0.278860  0.446522  0.393185  1
  P  P11  1  0.836830  0.556852  0.246258  1
  P  P12  1  0.481660  0.480408  0.278344  1
  P  P13  1  0.894311  0.815158  0.835652  1
  P  P14  1  0.519592  0.518340  0.778344  1
  P  P15  1  0.216038  0.390952  0.892697  1
  P  P16  1  0.146287  0.905540  0.211377  1
  P  P17  1  0.930548  0.133794  0.366387  1
  Ir  Ir18  1  0.028755  0.460279  0.079047  1
  Ir  Ir19  1  0.350167  0.825319  0.045770  1
  Ir  Ir20  1  0.684635  0.154428  0.049685  1
  Ir  Ir21  1  0.539721  0.971245  0.579047  1
  Ir  Ir22  1  0.174681  0.649833  0.545770  1
  Ir  Ir23  1  0.845572  0.315365  0.549685  1
  O  O24  1  0.626127  0.414467  0.434985  1
  O  O25  1  0.379554  0.586631  0.610806  1
  O  O26  1  0.962421  0.993270  0.522162  1
  O  O27  1  0.870122  0.140124  0.194478  1
  O  O28  1  0.546379  0.035190  0.755288  1
  O  O29  1  0.191421  0.744521  0.690889  1
  O  O30  1  0.585533  0.373873  0.934985  1
  O  O31  1  0.859876  0.129878  0.694478  1
  O  O32  1  0.413369  0.620446  0.110806  1
  O  O33  1  0.818769  0.709115  0.200146  1
  O  O34  1  0.856481  0.368601  0.737835  1
  O  O35  1  0.006730  0.037579  0.022162  1
  O  O36  1  0.208117  0.986714  0.285035  1
  O  O37  1  0.535244  0.743045  0.274811  1
  O  O38  1  0.794473  0.936463  0.158615  1
  O  O39  1  0.735003  0.162148  0.861615  1
  O  O40  1  0.505271  0.160447  0.409170  1
  O  O41  1  0.693612  0.599913  0.085029  1
  O  O42  1  0.063537  0.205527  0.658615  1
  O  O43  1  0.400087  0.306388  0.585029  1
  O  O44  1  0.966455  0.706998  0.474895  1
  O  O45  1  0.255479  0.808579  0.190889  1
  O  O46  1  0.834827  0.500037  0.412866  1
  O  O47  1  0.595517  0.777324  0.765544  1
  O  O48  1  0.325282  0.053953  0.489018  1
  O  O49  1  0.631399  0.143519  0.237835  1
  O  O50  1  0.358360  0.266921  0.081659  1
  O  O51  1  0.375612  0.500125  0.349860  1
  O  O52  1  0.167399  0.555076  0.400238  1
  O  O53  1  0.473457  0.381550  0.199271  1
  O  O54  1  0.618450  0.526543  0.699271  1
  O  O55  1  0.444924  0.832601  0.900238  1
  O  O56  1  0.499963  0.165173  0.912866  1
  O  O57  1  0.898824  0.911257  0.921636  1
  O  O58  1  0.293002  0.033545  0.974895  1
  O  O59  1  0.499875  0.624388  0.849860  1
  O  O60  1  0.837852  0.264997  0.361615  1
  O  O61  1  0.256955  0.464756  0.774811  1
  O  O62  1  0.013286  0.791883  0.785035  1
  O  O63  1  0.946047  0.674718  0.989018  1
  O  O64  1  0.700929  0.833874  0.329984  1
  O  O65  1  0.222676  0.404483  0.265544  1
  O  O66  1  0.106619  0.246682  0.165094  1
  O  O67  1  0.166126  0.299071  0.829984  1
  O  O68  1  0.097815  0.484506  0.905446  1
  O  O69  1  0.163745  0.901862  0.822169  1
  O  O70  1  0.515494  0.902185  0.405446  1
  O  O71  1  0.088743  0.101176  0.421636  1
  O  O72  1  0.964810  0.453621  0.255288  1
  O  O73  1  0.839553  0.494729  0.909170  1
  O  O74  1  0.098138  0.836255  0.322169  1
  O  O75  1  0.753318  0.893381  0.665094  1
  O  O76  1  0.290885  0.181231  0.700146  1
  O  O77  1  0.733079  0.641640  0.581659  1
