# generated using pymatgen
data_Li3CrF6
_symmetry_space_group_name_H-M   'P 1'
_cell_length_a   8.54071895
_cell_length_b   8.54071895
_cell_length_c   10.23516427
_cell_angle_alpha   85.95027522
_cell_angle_beta   94.04972478
_cell_angle_gamma   118.24799192
_symmetry_Int_Tables_number   1
_chemical_formula_structural   Li3CrF6
_chemical_formula_sum   'Li18 Cr6 F36'
_cell_volume   655.44867866
_cell_formula_units_Z   6
loop_
 _symmetry_equiv_pos_site_id
 _symmetry_equiv_pos_as_xyz
  1  'x, y, z'
loop_
 _atom_site_type_symbol
 _atom_site_label
 _atom_site_symmetry_multiplicity
 _atom_site_fract_x
 _atom_site_fract_y
 _atom_site_fract_z
 _atom_site_occupancy
  Li  Li0  1  0.712750  0.992602  0.230025  1
  Li  Li1  1  0.992602  0.712750  0.269975  1
  Li  Li2  1  0.287250  0.007398  0.769975  1
  Li  Li3  1  0.007398  0.287250  0.730025  1
  Li  Li4  1  0.326014  0.372040  0.961684  1
  Li  Li5  1  0.372040  0.326014  0.538316  1
  Li  Li6  1  0.875513  0.540714  0.551635  1
  Li  Li7  1  0.540714  0.875513  0.948365  1
  Li  Li8  1  0.124487  0.459286  0.448365  1
  Li  Li9  1  0.459286  0.124487  0.051635  1
  Li  Li10  1  0.059797  0.655740  0.931936  1
  Li  Li11  1  0.655740  0.059797  0.568064  1
  Li  Li12  1  0.940203  0.344260  0.068064  1
  Li  Li13  1  0.344260  0.940203  0.431936  1
  Li  Li14  1  0.188107  0.188107  0.250000  1
  Li  Li15  1  0.811893  0.811893  0.750000  1
  Li  Li16  1  0.673986  0.627960  0.038316  1
  Li  Li17  1  0.627960  0.673986  0.461684  1
  Cr  Cr18  1  0.665809  0.339091  0.796084  1
  Cr  Cr19  1  0.339091  0.665809  0.703916  1
  Cr  Cr20  1  0.334191  0.660909  0.203916  1
  Cr  Cr21  1  0.660909  0.334191  0.296084  1
  Cr  Cr22  1  1.000000  0.000000  0.500000  1
  Cr  Cr23  1  0.000000  0.000000  0.000000  1
  F  F24  1  0.240664  0.441791  0.805339  1
  F  F25  1  0.226648  0.731910  0.336987  1
  F  F26  1  0.268090  0.773352  0.836987  1
  F  F27  1  0.773352  0.268090  0.663013  1
  F  F28  1  0.760208  0.913887  0.062273  1
  F  F29  1  0.913887  0.760208  0.437727  1
  F  F30  1  0.239792  0.086113  0.937727  1
  F  F31  1  0.086113  0.239792  0.562273  1
  F  F32  1  0.731910  0.226648  0.163013  1
  F  F33  1  0.761467  0.907125  0.565510  1
  F  F34  1  0.092875  0.238533  0.065510  1
  F  F35  1  0.238533  0.092875  0.434490  1
  F  F36  1  0.441791  0.240664  0.694661  1
  F  F37  1  0.430750  0.588425  0.066003  1
  F  F38  1  0.411575  0.569250  0.566003  1
  F  F39  1  0.569250  0.411575  0.933997  1
  F  F40  1  0.583433  0.106320  0.394338  1
  F  F41  1  0.106320  0.583433  0.105662  1
  F  F42  1  0.416567  0.893680  0.605662  1
  F  F43  1  0.893680  0.416567  0.894338  1
  F  F44  1  0.922181  0.066025  0.833090  1
  F  F45  1  0.066025  0.922181  0.666910  1
  F  F46  1  0.077819  0.933975  0.166910  1
  F  F47  1  0.933975  0.077819  0.333090  1
  F  F48  1  0.759336  0.558209  0.194661  1
  F  F49  1  0.558209  0.759336  0.305339  1
  F  F50  1  0.107920  0.569652  0.610159  1
  F  F51  1  0.588425  0.430750  0.433997  1
  F  F52  1  0.892080  0.430348  0.389841  1
  F  F53  1  0.430348  0.892080  0.110159  1
  F  F54  1  0.244288  0.433302  0.302327  1
  F  F55  1  0.433302  0.244288  0.197673  1
  F  F56  1  0.755712  0.566698  0.697673  1
  F  F57  1  0.566698  0.755712  0.802327  1
  F  F58  1  0.907125  0.761467  0.934490  1
  F  F59  1  0.569652  0.107920  0.889841  1
