# generated using pymatgen
data_KBa2(PO3)5
_symmetry_space_group_name_H-M   'P 1'
_cell_length_a   8.79104893
_cell_length_b   7.44069985
_cell_length_c   13.97638527
_cell_angle_alpha   90.00000000
_cell_angle_beta   128.34522118
_cell_angle_gamma   90.00000000
_symmetry_Int_Tables_number   1
_chemical_formula_structural   KBa2(PO3)5
_chemical_formula_sum   'K2 Ba4 P10 O30'
_cell_volume   717.00856138
_cell_formula_units_Z   2
loop_
 _symmetry_equiv_pos_site_id
 _symmetry_equiv_pos_as_xyz
  1  'x, y, z'
loop_
 _atom_site_type_symbol
 _atom_site_label
 _atom_site_symmetry_multiplicity
 _atom_site_fract_x
 _atom_site_fract_y
 _atom_site_fract_z
 _atom_site_occupancy
  K  K0  1  0.936670  0.644008  0.879577  1
  K  K1  1  0.936670  0.355992  0.379577  1
  Ba  Ba2  1  0.754341  0.836062  0.501459  1
  Ba  Ba3  1  0.341948  0.128570  0.089239  1
  Ba  Ba4  1  0.754341  0.163938  0.001459  1
  Ba  Ba5  1  0.341948  0.871430  0.589239  1
  P  P6  1  0.551382  0.341399  0.397210  1
  P  P7  1  0.172214  0.156131  0.758962  1
  P  P8  1  0.519566  0.652104  0.097838  1
  P  P9  1  0.841497  0.101472  0.771370  1
  P  P10  1  0.131691  0.450225  0.194751  1
  P  P11  1  0.131691  0.549775  0.694751  1
  P  P12  1  0.551382  0.658601  0.897210  1
  P  P13  1  0.519566  0.347896  0.597838  1
  P  P14  1  0.172214  0.843869  0.258962  1
  P  P15  1  0.841497  0.898528  0.271370  1
  O  O16  1  0.939421  0.942844  0.402985  1
  O  O17  1  0.996988  0.198689  0.764437  1
  O  O18  1  0.576098  0.826433  0.847155  1
  O  O19  1  0.325357  0.387244  0.325261  1
  O  O20  1  0.607527  0.289128  0.527961  1
  O  O21  1  0.325357  0.612756  0.825261  1
  O  O22  1  0.735527  0.048444  0.179858  1
  O  O23  1  0.697611  0.731708  0.235090  1
  O  O24  1  0.165550  0.663714  0.192590  1
  O  O25  1  0.165550  0.336286  0.692590  1
  O  O26  1  0.697611  0.268292  0.735090  1
  O  O27  1  0.120113  0.624756  0.590238  1
  O  O28  1  0.576098  0.173567  0.347155  1
  O  O29  1  0.967874  0.589605  0.697626  1
  O  O30  1  0.518699  0.452642  0.109270  1
  O  O31  1  0.342651  0.236979  0.549627  1
  O  O32  1  0.735527  0.951556  0.679858  1
  O  O33  1  0.659750  0.494833  0.907509  1
  O  O34  1  0.356198  0.148554  0.888540  1
  O  O35  1  0.996988  0.801311  0.264437  1
  O  O36  1  0.659750  0.505167  0.407509  1
  O  O37  1  0.120113  0.375244  0.090238  1
  O  O38  1  0.342651  0.763021  0.049627  1
  O  O39  1  0.118505  0.995026  0.172337  1
  O  O40  1  0.939421  0.057156  0.902985  1
  O  O41  1  0.518699  0.547358  0.609270  1
  O  O42  1  0.607527  0.710872  0.027961  1
  O  O43  1  0.967874  0.410395  0.197626  1
  O  O44  1  0.118505  0.004974  0.672337  1
  O  O45  1  0.356198  0.851446  0.388540  1
