# generated using pymatgen
data_TaSCl7O
_symmetry_space_group_name_H-M   'P 1'
_cell_length_a   7.69484310
_cell_length_b   9.62364768
_cell_length_c   17.02002408
_cell_angle_alpha   90.00000000
_cell_angle_beta   90.00000000
_cell_angle_gamma   90.00000000
_symmetry_Int_Tables_number   1
_chemical_formula_structural   TaSCl7O
_chemical_formula_sum   'Ta4 S4 Cl28 O4'
_cell_volume   1260.37463447
_cell_formula_units_Z   4
loop_
 _symmetry_equiv_pos_site_id
 _symmetry_equiv_pos_as_xyz
  1  'x, y, z'
loop_
 _atom_site_type_symbol
 _atom_site_label
 _atom_site_symmetry_multiplicity
 _atom_site_fract_x
 _atom_site_fract_y
 _atom_site_fract_z
 _atom_site_occupancy
  Ta  Ta0  1  0.999844  0.750000  0.364939  1
  Ta  Ta1  1  0.000156  0.250000  0.635061  1
  Ta  Ta2  1  0.500156  0.750000  0.864939  1
  Ta  Ta3  1  0.499844  0.250000  0.135061  1
  S  S4  1  0.166247  0.250000  0.838973  1
  S  S5  1  0.833753  0.750000  0.161027  1
  S  S6  1  0.333753  0.250000  0.338973  1
  S  S7  1  0.666247  0.750000  0.661027  1
  Cl  Cl8  1  0.016628  0.413894  0.878254  1
  Cl  Cl9  1  0.983372  0.586106  0.121746  1
  Cl  Cl10  1  0.978847  0.991630  0.350806  1
  Cl  Cl11  1  0.741843  0.250000  0.216975  1
  Cl  Cl12  1  0.016628  0.086106  0.878254  1
  Cl  Cl13  1  0.217171  0.250000  0.082370  1
  Cl  Cl14  1  0.478847  0.491630  0.149194  1
  Cl  Cl15  1  0.521153  0.508370  0.850806  1
  Cl  Cl16  1  0.983372  0.913894  0.121746  1
  Cl  Cl17  1  0.353334  0.750000  0.980250  1
  Cl  Cl18  1  0.646666  0.250000  0.019750  1
  Cl  Cl19  1  0.021153  0.008370  0.649194  1
  Cl  Cl20  1  0.521153  0.991630  0.850806  1
  Cl  Cl21  1  0.516628  0.586106  0.621746  1
  Cl  Cl22  1  0.021153  0.491630  0.649194  1
  Cl  Cl23  1  0.782829  0.750000  0.917630  1
  Cl  Cl24  1  0.241843  0.750000  0.283025  1
  Cl  Cl25  1  0.516628  0.913894  0.621746  1
  Cl  Cl26  1  0.483372  0.413894  0.378254  1
  Cl  Cl27  1  0.717171  0.750000  0.417630  1
  Cl  Cl28  1  0.853334  0.250000  0.519750  1
  Cl  Cl29  1  0.146666  0.750000  0.480250  1
  Cl  Cl30  1  0.758157  0.250000  0.716975  1
  Cl  Cl31  1  0.478847  0.008370  0.149194  1
  Cl  Cl32  1  0.258157  0.750000  0.783025  1
  Cl  Cl33  1  0.978847  0.508370  0.350806  1
  Cl  Cl34  1  0.483372  0.086106  0.378254  1
  Cl  Cl35  1  0.282829  0.250000  0.582370  1
  O  O36  1  0.658170  0.750000  0.747644  1
  O  O37  1  0.341830  0.250000  0.252356  1
  O  O38  1  0.158170  0.250000  0.752356  1
  O  O39  1  0.841830  0.750000  0.247644  1
