# generated using pymatgen
data_TiP2Cl8O3
_symmetry_space_group_name_H-M   'P 1'
_cell_length_a   9.03420734
_cell_length_b   16.01733338
_cell_length_c   12.94640989
_cell_angle_alpha   90.00000000
_cell_angle_beta   125.44326691
_cell_angle_gamma   90.00000000
_symmetry_Int_Tables_number   1
_chemical_formula_structural   TiP2Cl8O3
_chemical_formula_sum   'Ti4 P8 Cl32 O12'
_cell_volume   1526.23732485
_cell_formula_units_Z   4
loop_
 _symmetry_equiv_pos_site_id
 _symmetry_equiv_pos_as_xyz
  1  'x, y, z'
loop_
 _atom_site_type_symbol
 _atom_site_label
 _atom_site_symmetry_multiplicity
 _atom_site_fract_x
 _atom_site_fract_y
 _atom_site_fract_z
 _atom_site_occupancy
  Ti  Ti0  1  0.210514  0.633088  0.635785  1
  Ti  Ti1  1  0.210514  0.866912  0.135785  1
  Ti  Ti2  1  0.789486  0.366912  0.364215  1
  Ti  Ti3  1  0.789486  0.133088  0.864215  1
  P  P4  1  0.012272  0.429812  0.216207  1
  P  P5  1  0.221423  0.417377  0.620504  1
  P  P6  1  0.987728  0.570188  0.783793  1
  P  P7  1  0.221423  0.082623  0.120504  1
  P  P8  1  0.778577  0.917377  0.879496  1
  P  P9  1  0.012272  0.070188  0.716207  1
  P  P10  1  0.987728  0.929812  0.283793  1
  P  P11  1  0.778577  0.582623  0.379496  1
  Cl  Cl12  1  0.675853  0.885169  0.699600  1
  Cl  Cl13  1  0.379922  0.143850  0.083561  1
  Cl  Cl14  1  0.884152  0.258462  0.845161  1
  Cl  Cl15  1  0.888873  0.824645  0.301365  1
  Cl  Cl16  1  0.457636  0.873803  0.339204  1
  Cl  Cl17  1  0.542364  0.373803  0.160796  1
  Cl  Cl18  1  0.818566  0.034145  0.540247  1
  Cl  Cl19  1  0.324147  0.385169  0.800400  1
  Cl  Cl20  1  0.675853  0.614831  0.199600  1
  Cl  Cl21  1  0.818566  0.465855  0.040247  1
  Cl  Cl22  1  0.349854  0.822239  0.049953  1
  Cl  Cl23  1  0.111127  0.324645  0.198635  1
  Cl  Cl24  1  0.542364  0.126197  0.660796  1
  Cl  Cl25  1  0.790774  0.485989  0.717629  1
  Cl  Cl26  1  0.790774  0.014011  0.217629  1
  Cl  Cl27  1  0.324147  0.114831  0.300400  1
  Cl  Cl28  1  0.650146  0.177761  0.950047  1
  Cl  Cl29  1  0.888873  0.675355  0.801365  1
  Cl  Cl30  1  0.209226  0.985989  0.782371  1
  Cl  Cl31  1  0.115848  0.741538  0.154839  1
  Cl  Cl32  1  0.620078  0.643850  0.416439  1
  Cl  Cl33  1  0.115848  0.758462  0.654839  1
  Cl  Cl34  1  0.209226  0.514011  0.282371  1
  Cl  Cl35  1  0.884152  0.241538  0.345161  1
  Cl  Cl36  1  0.349854  0.677761  0.549953  1
  Cl  Cl37  1  0.111127  0.175355  0.698635  1
  Cl  Cl38  1  0.181434  0.534145  0.959753  1
  Cl  Cl39  1  0.181434  0.965855  0.459753  1
  Cl  Cl40  1  0.650146  0.322239  0.450047  1
  Cl  Cl41  1  0.620078  0.856150  0.916439  1
  Cl  Cl42  1  0.457636  0.626197  0.839204  1
  Cl  Cl43  1  0.379922  0.356150  0.583561  1
  O  O44  1  0.948353  0.076870  0.798779  1
  O  O45  1  0.031234  0.382723  0.537844  1
  O  O46  1  0.752282  0.009569  0.886058  1
  O  O47  1  0.031234  0.117277  0.037844  1
  O  O48  1  0.968766  0.617277  0.462156  1
  O  O49  1  0.051647  0.576870  0.701221  1
  O  O50  1  0.968766  0.882723  0.962156  1
  O  O51  1  0.051647  0.923130  0.201221  1
  O  O52  1  0.948353  0.423130  0.298779  1
  O  O53  1  0.752282  0.490431  0.386058  1
  O  O54  1  0.247718  0.990431  0.113942  1
  O  O55  1  0.247718  0.509569  0.613942  1
