# generated using pymatgen
data_NaPO3
_symmetry_space_group_name_H-M   'P 1'
_cell_length_a   7.80655285
_cell_length_b   8.03149194
_cell_length_c   13.42037224
_cell_angle_alpha   90.00000000
_cell_angle_beta   90.00000000
_cell_angle_gamma   90.00000000
_symmetry_Int_Tables_number   1
_chemical_formula_structural   NaPO3
_chemical_formula_sum   'Na12 P12 O36'
_cell_volume   841.43407247
_cell_formula_units_Z   12
loop_
 _symmetry_equiv_pos_site_id
 _symmetry_equiv_pos_as_xyz
  1  'x, y, z'
loop_
 _atom_site_type_symbol
 _atom_site_label
 _atom_site_symmetry_multiplicity
 _atom_site_fract_x
 _atom_site_fract_y
 _atom_site_fract_z
 _atom_site_occupancy
  Na  Na0  1  0.816605  0.005593  0.426545  1
  Na  Na1  1  0.036514  0.750000  0.222785  1
  Na  Na2  1  0.463486  0.250000  0.722785  1
  Na  Na3  1  0.316605  0.494407  0.073455  1
  Na  Na4  1  0.183395  0.505593  0.573455  1
  Na  Na5  1  0.683395  0.505593  0.926545  1
  Na  Na6  1  0.963486  0.250000  0.777215  1
  Na  Na7  1  0.316605  0.005593  0.073455  1
  Na  Na8  1  0.183395  0.994407  0.573455  1
  Na  Na9  1  0.683395  0.994407  0.926545  1
  Na  Na10  1  0.536514  0.750000  0.277215  1
  Na  Na11  1  0.816605  0.494407  0.426545  1
  P  P12  1  0.753525  0.932146  0.670628  1
  P  P13  1  0.023547  0.750000  0.961630  1
  P  P14  1  0.523547  0.750000  0.538370  1
  P  P15  1  0.253525  0.567854  0.829372  1
  P  P16  1  0.476453  0.250000  0.461630  1
  P  P17  1  0.246475  0.432146  0.329372  1
  P  P18  1  0.246475  0.067854  0.329372  1
  P  P19  1  0.746475  0.067854  0.170628  1
  P  P20  1  0.753525  0.567854  0.670628  1
  P  P21  1  0.746475  0.432146  0.170628  1
  P  P22  1  0.976453  0.250000  0.038370  1
  P  P23  1  0.253525  0.932146  0.829372  1
  O  O24  1  0.137355  0.750000  0.052334  1
  O  O25  1  0.362645  0.250000  0.552334  1
  O  O26  1  0.573262  0.592663  0.609927  1
  O  O27  1  0.573262  0.907337  0.609927  1
  O  O28  1  0.781270  0.943626  0.251756  1
  O  O29  1  0.073262  0.907337  0.890073  1
  O  O30  1  0.781270  0.556374  0.251756  1
  O  O31  1  0.637355  0.750000  0.447666  1
  O  O32  1  0.426738  0.092663  0.390073  1
  O  O33  1  0.718730  0.056374  0.751756  1
  O  O34  1  0.926738  0.407337  0.109927  1
  O  O35  1  0.833245  0.750000  0.972227  1
  O  O36  1  0.604665  0.036614  0.098195  1
  O  O37  1  0.726376  0.250000  0.223425  1
  O  O38  1  0.426738  0.407337  0.390073  1
  O  O39  1  0.166755  0.250000  0.027773  1
  O  O40  1  0.218730  0.443626  0.748244  1
  O  O41  1  0.666755  0.250000  0.472227  1
  O  O42  1  0.281270  0.556374  0.248244  1
  O  O43  1  0.862645  0.250000  0.947666  1
  O  O44  1  0.718730  0.443626  0.751756  1
  O  O45  1  0.104665  0.036614  0.401805  1
  O  O46  1  0.773624  0.750000  0.723425  1
  O  O47  1  0.895335  0.963386  0.598195  1
  O  O48  1  0.218730  0.056374  0.748244  1
  O  O49  1  0.281270  0.943626  0.248244  1
  O  O50  1  0.926738  0.092663  0.109927  1
  O  O51  1  0.273624  0.750000  0.776575  1
  O  O52  1  0.604665  0.463386  0.098195  1
  O  O53  1  0.333245  0.750000  0.527773  1
  O  O54  1  0.895335  0.536614  0.598195  1
  O  O55  1  0.104665  0.463386  0.401805  1
  O  O56  1  0.073262  0.592663  0.890073  1
  O  O57  1  0.395335  0.963386  0.901805  1
  O  O58  1  0.226376  0.250000  0.276575  1
  O  O59  1  0.395335  0.536614  0.901805  1
