# generated using pymatgen
data_V2HgO6
_symmetry_space_group_name_H-M   'P 1'
_cell_length_a   4.99744531
_cell_length_b   6.11182540
_cell_length_c   14.60950918
_cell_angle_alpha   90.00000000
_cell_angle_beta   90.00000000
_cell_angle_gamma   90.00000000
_symmetry_Int_Tables_number   1
_chemical_formula_structural   V2HgO6
_chemical_formula_sum   'V8 Hg4 O24'
_cell_volume   446.22573620
_cell_formula_units_Z   4
loop_
 _symmetry_equiv_pos_site_id
 _symmetry_equiv_pos_as_xyz
  1  'x, y, z'
loop_
 _atom_site_type_symbol
 _atom_site_label
 _atom_site_symmetry_multiplicity
 _atom_site_fract_x
 _atom_site_fract_y
 _atom_site_fract_z
 _atom_site_occupancy
  V  V0  1  0.032697  0.435658  0.829391  1
  V  V1  1  0.532697  0.064342  0.829391  1
  V  V2  1  0.967303  0.564342  0.170609  1
  V  V3  1  0.467303  0.435658  0.329391  1
  V  V4  1  0.532697  0.564342  0.670609  1
  V  V5  1  0.032697  0.935658  0.670609  1
  V  V6  1  0.967303  0.064342  0.329391  1
  V  V7  1  0.467303  0.935658  0.170609  1
  Hg  Hg8  1  0.500000  0.000000  0.500000  1
  Hg  Hg9  1  0.000000  0.000000  0.000000  1
  Hg  Hg10  1  0.500000  0.500000  0.000000  1
  Hg  Hg11  1  0.000000  0.500000  0.500000  1
  O  O12  1  0.938163  0.620536  0.904415  1
  O  O13  1  0.662027  0.178335  0.390627  1
  O  O14  1  0.438163  0.879464  0.904415  1
  O  O15  1  0.273016  0.595372  0.247609  1
  O  O16  1  0.337973  0.321665  0.890627  1
  O  O17  1  0.337973  0.821665  0.609373  1
  O  O18  1  0.726984  0.904628  0.747609  1
  O  O19  1  0.561837  0.120536  0.095585  1
  O  O20  1  0.162027  0.821665  0.109373  1
  O  O21  1  0.773016  0.904628  0.247609  1
  O  O22  1  0.226984  0.595372  0.747609  1
  O  O23  1  0.662027  0.678335  0.109373  1
  O  O24  1  0.061837  0.379464  0.095585  1
  O  O25  1  0.561837  0.620536  0.404415  1
  O  O26  1  0.226984  0.095372  0.752391  1
  O  O27  1  0.162027  0.321665  0.390627  1
  O  O28  1  0.938163  0.120536  0.595585  1
  O  O29  1  0.837973  0.178335  0.890627  1
  O  O30  1  0.061837  0.879464  0.404415  1
  O  O31  1  0.726984  0.404628  0.752391  1
  O  O32  1  0.438163  0.379464  0.595585  1
  O  O33  1  0.837973  0.678335  0.609373  1
  O  O34  1  0.273016  0.095372  0.252391  1
  O  O35  1  0.773016  0.404628  0.252391  1
