# generated using pymatgen
data_SrAl22O34
_symmetry_space_group_name_H-M   'P 1'
_cell_length_a   9.78526027
_cell_length_b   11.30281569
_cell_length_c   11.85683176
_cell_angle_alpha   90.00000000
_cell_angle_beta   105.87499165
_cell_angle_gamma   90.00000000
_symmetry_Int_Tables_number   1
_chemical_formula_structural   SrAl22O34
_chemical_formula_sum   'Sr2 Al44 O68'
_cell_volume   1261.36247952
_cell_formula_units_Z   2
loop_
 _symmetry_equiv_pos_site_id
 _symmetry_equiv_pos_as_xyz
  1  'x, y, z'
loop_
 _atom_site_type_symbol
 _atom_site_label
 _atom_site_symmetry_multiplicity
 _atom_site_fract_x
 _atom_site_fract_y
 _atom_site_fract_z
 _atom_site_occupancy
  Sr  Sr0  1  0.695046  0.250000  0.519562  1
  Sr  Sr1  1  0.304954  0.750000  0.480438  1
  Al  Al2  1  0.000000  0.000000  0.000000  1
  Al  Al3  1  0.343122  0.124468  0.783750  1
  Al  Al4  1  0.095720  0.000341  0.783765  1
  Al  Al5  1  0.499839  0.250000  0.998388  1
  Al  Al6  1  0.449718  0.999989  0.350030  1
  Al  Al7  1  0.847296  0.124711  0.792224  1
  Al  Al8  1  0.847296  0.375289  0.792224  1
  Al  Al9  1  0.596894  0.250000  0.789296  1
  Al  Al10  1  0.000000  0.500000  0.000000  1
  Al  Al11  1  0.649788  0.999040  0.950380  1
  Al  Al12  1  0.851083  0.250000  0.052671  1
  Al  Al13  1  0.654570  0.123323  0.210831  1
  Al  Al14  1  0.948081  0.250000  0.352425  1
  Al  Al15  1  0.048020  0.250000  0.647212  1
  Al  Al16  1  0.343122  0.375532  0.783750  1
  Al  Al17  1  0.345430  0.623323  0.789169  1
  Al  Al18  1  0.095720  0.499659  0.783765  1
  Al  Al19  1  0.500161  0.750000  0.001612  1
  Al  Al20  1  0.150759  0.250000  0.950649  1
  Al  Al21  1  0.350212  0.499040  0.049620  1
  Al  Al22  1  0.401778  0.250000  0.211613  1
  Al  Al23  1  0.154834  0.126502  0.216901  1
  Al  Al24  1  0.154834  0.373498  0.216901  1
  Al  Al25  1  0.449718  0.500011  0.350030  1
  Al  Al26  1  0.550282  0.499989  0.649970  1
  Al  Al27  1  0.845166  0.873498  0.783099  1
  Al  Al28  1  0.845166  0.626502  0.783099  1
  Al  Al29  1  0.598222  0.750000  0.788387  1
  Al  Al30  1  0.649788  0.500960  0.950380  1
  Al  Al31  1  0.849241  0.750000  0.049351  1
  Al  Al32  1  0.904280  0.500341  0.216235  1
  Al  Al33  1  0.654570  0.376677  0.210831  1
  Al  Al34  1  0.656878  0.624468  0.216250  1
  Al  Al35  1  0.951980  0.750000  0.352788  1
  Al  Al36  1  0.051919  0.750000  0.647575  1
  Al  Al37  1  0.345430  0.876677  0.789169  1
  Al  Al38  1  0.148917  0.750000  0.947329  1
  Al  Al39  1  0.350212  0.000960  0.049620  1
  Al  Al40  1  0.403106  0.750000  0.210704  1
  Al  Al41  1  0.152704  0.875289  0.207776  1
  Al  Al42  1  0.152704  0.624711  0.207776  1
  Al  Al43  1  0.550282  0.000011  0.649970  1
  Al  Al44  1  0.904280  0.999659  0.216235  1
  Al  Al45  1  0.656878  0.875532  0.216250  1
  O  O46  1  0.095084  0.998380  0.282610  1
  O  O47  1  0.455888  0.133309  0.099232  1
  O  O48  1  0.190799  0.998184  0.099225  1
  O  O49  1  0.595773  0.250000  0.287418  1
  O  O50  1  0.346409  0.125527  0.287758  1
  O  O51  1  0.500000  0.000000  0.500000  1
  O  O52  1  0.655929  0.130070  0.704112  1
  O  O53  1  0.403596  0.999153  0.711765  1
  O  O54  1  0.795865  0.250000  0.890632  1
  O  O55  1  0.547681  0.132268  0.900048  1
  O  O56  1  0.955576  0.117468  0.099942  1
  O  O57  1  0.955576  0.382532  0.099942  1
  O  O58  1  0.688653  0.250000  0.099606  1
  O  O59  1  0.703263  0.998608  0.110433  1
  O  O60  1  0.095084  0.501620  0.282610  1
  O  O61  1  0.097541  0.250000  0.293464  1
  O  O62  1  0.844033  0.124490  0.287602  1
  O  O63  1  0.844033  0.375510  0.287602  1
  O  O64  1  0.954239  0.250000  0.500175  1
  O  O65  1  0.152969  0.374692  0.709254  1
  O  O66  1  0.152969  0.125308  0.709254  1
  O  O67  1  0.897867  0.250000  0.710259  1
  O  O68  1  0.296737  0.498608  0.889567  1
  O  O69  1  0.310523  0.250000  0.900831  1
  O  O70  1  0.044814  0.118534  0.901168  1
  O  O71  1  0.044814  0.381466  0.901168  1
  O  O72  1  0.455888  0.366691  0.099232  1
  O  O73  1  0.452319  0.632268  0.099952  1
  O  O74  1  0.190799  0.501816  0.099225  1
  O  O75  1  0.203137  0.250000  0.111242  1
  O  O76  1  0.592503  0.750000  0.282548  1
  O  O77  1  0.596404  0.499153  0.288235  1
  O  O78  1  0.346409  0.374473  0.287758  1
  O  O79  1  0.344071  0.630070  0.295888  1
  O  O80  1  0.500000  0.500000  0.500000  1
  O  O81  1  0.655929  0.369930  0.704112  1
  O  O82  1  0.653591  0.625527  0.712242  1
  O  O83  1  0.403596  0.500847  0.711765  1
  O  O84  1  0.407497  0.250000  0.717452  1
  O  O85  1  0.796863  0.750000  0.888758  1
  O  O86  1  0.809201  0.498184  0.900775  1
  O  O87  1  0.547681  0.367732  0.900048  1
  O  O88  1  0.544112  0.633309  0.900768  1
  O  O89  1  0.955186  0.618534  0.098832  1
  O  O90  1  0.955186  0.881466  0.098832  1
  O  O91  1  0.689477  0.750000  0.099169  1
  O  O92  1  0.703263  0.501392  0.110433  1
  O  O93  1  0.102133  0.750000  0.289741  1
  O  O94  1  0.847031  0.874692  0.290746  1
  O  O95  1  0.847031  0.625308  0.290746  1
  O  O96  1  0.045761  0.750000  0.499825  1
  O  O97  1  0.155967  0.624490  0.712398  1
  O  O98  1  0.155967  0.875510  0.712398  1
  O  O99  1  0.902459  0.750000  0.706536  1
  O  O100  1  0.904916  0.498380  0.717390  1
  O  O101  1  0.296737  0.001392  0.889567  1
  O  O102  1  0.311347  0.750000  0.900394  1
  O  O103  1  0.044424  0.882532  0.900058  1
  O  O104  1  0.044424  0.617468  0.900058  1
  O  O105  1  0.452319  0.867732  0.099952  1
  O  O106  1  0.204135  0.750000  0.109368  1
  O  O107  1  0.596404  0.000847  0.288235  1
  O  O108  1  0.344071  0.869930  0.295888  1
  O  O109  1  0.653591  0.874473  0.712242  1
  O  O110  1  0.404227  0.750000  0.712582  1
  O  O111  1  0.809201  0.001816  0.900775  1
  O  O112  1  0.544112  0.866691  0.900768  1
  O  O113  1  0.904916  0.001620  0.717390  1
