# generated using pymatgen
data_K2Cu(PS3)3
_symmetry_space_group_name_H-M   'P 1'
_cell_length_a   6.90597381
_cell_length_b   24.34122465
_cell_length_c   10.99058635
_cell_angle_alpha   90.00000000
_cell_angle_beta   118.87435351
_cell_angle_gamma   90.00000000
_symmetry_Int_Tables_number   1
_chemical_formula_structural   K2Cu(PS3)3
_chemical_formula_sum   'K8 Cu4 P12 S36'
_cell_volume   1617.83424570
_cell_formula_units_Z   4
loop_
 _symmetry_equiv_pos_site_id
 _symmetry_equiv_pos_as_xyz
  1  'x, y, z'
loop_
 _atom_site_type_symbol
 _atom_site_label
 _atom_site_symmetry_multiplicity
 _atom_site_fract_x
 _atom_site_fract_y
 _atom_site_fract_z
 _atom_site_occupancy
  K  K0  1  0.490525  0.544154  0.261948  1
  K  K1  1  0.797878  0.804299  0.627623  1
  K  K2  1  0.202122  0.195701  0.372377  1
  K  K3  1  0.797878  0.695701  0.127623  1
  K  K4  1  0.202122  0.304299  0.872377  1
  K  K5  1  0.490525  0.955846  0.761948  1
  K  K6  1  0.509475  0.044154  0.238052  1
  K  K7  1  0.509475  0.455846  0.738052  1
  Cu  Cu8  1  0.737137  0.891464  0.307798  1
  Cu  Cu9  1  0.262863  0.391464  0.192202  1
  Cu  Cu10  1  0.262863  0.108536  0.692202  1
  Cu  Cu11  1  0.737137  0.608536  0.807798  1
  P  P12  1  0.277665  0.599154  0.839026  1
  P  P13  1  0.277665  0.900846  0.339026  1
  P  P14  1  0.248892  0.898191  0.011165  1
  P  P15  1  0.595637  0.279123  0.280916  1
  P  P16  1  0.722335  0.400846  0.160974  1
  P  P17  1  0.404363  0.779123  0.219084  1
  P  P18  1  0.595637  0.220877  0.780916  1
  P  P19  1  0.751108  0.101809  0.988835  1
  P  P20  1  0.722335  0.099154  0.660974  1
  P  P21  1  0.751108  0.398191  0.488835  1
  P  P22  1  0.404363  0.720877  0.719084  1
  P  P23  1  0.248892  0.601809  0.511165  1
  S  S24  1  0.965819  0.418651  0.682896  1
  S  S25  1  0.272205  0.296631  0.192919  1
  S  S26  1  0.559787  0.924321  0.083052  1
  S  S27  1  0.092431  0.574802  0.924509  1
  S  S28  1  0.253877  0.813095  0.333749  1
  S  S29  1  0.785943  0.188726  0.986025  1
  S  S30  1  0.907569  0.074802  0.575491  1
  S  S31  1  0.253877  0.686905  0.833749  1
  S  S32  1  0.897144  0.430456  0.369563  1
  S  S33  1  0.559787  0.575679  0.583052  1
  S  S34  1  0.591642  0.572495  0.941867  1
  S  S35  1  0.214057  0.811274  0.013975  1
  S  S36  1  0.746123  0.186905  0.666251  1
  S  S37  1  0.440213  0.424321  0.416948  1
  S  S38  1  0.785943  0.311274  0.486025  1
  S  S39  1  0.034181  0.581349  0.317104  1
  S  S40  1  0.102856  0.569544  0.630437  1
  S  S41  1  0.092431  0.925198  0.424509  1
  S  S42  1  0.272205  0.203369  0.692919  1
  S  S43  1  0.408358  0.427505  0.058133  1
  S  S44  1  0.324399  0.700673  0.197215  1
  S  S45  1  0.591642  0.927505  0.441867  1
  S  S46  1  0.965819  0.081349  0.182896  1
  S  S47  1  0.675601  0.200673  0.302785  1
  S  S48  1  0.324399  0.799327  0.697215  1
  S  S49  1  0.408358  0.072495  0.558133  1
  S  S50  1  0.675601  0.299327  0.802785  1
  S  S51  1  0.034181  0.918651  0.817104  1
  S  S52  1  0.102856  0.930456  0.130437  1
  S  S53  1  0.907569  0.425198  0.075491  1
  S  S54  1  0.214057  0.688726  0.513975  1
  S  S55  1  0.897144  0.069544  0.869563  1
  S  S56  1  0.746123  0.313095  0.166251  1
  S  S57  1  0.727795  0.796631  0.307081  1
  S  S58  1  0.440213  0.075679  0.916948  1
  S  S59  1  0.727795  0.703369  0.807081  1
