# generated using pymatgen
data_Rb3CrF7
_symmetry_space_group_name_H-M   'P 1'
_cell_length_a   8.22464070
_cell_length_b   8.22464070
_cell_length_c   6.04437948
_cell_angle_alpha   90.00000000
_cell_angle_beta   90.00000000
_cell_angle_gamma   90.00000000
_symmetry_Int_Tables_number   1
_chemical_formula_structural   Rb3CrF7
_chemical_formula_sum   'Rb6 Cr2 F14'
_cell_volume   408.87032513
_cell_formula_units_Z   2
loop_
 _symmetry_equiv_pos_site_id
 _symmetry_equiv_pos_as_xyz
  1  'x, y, z'
loop_
 _atom_site_type_symbol
 _atom_site_label
 _atom_site_symmetry_multiplicity
 _atom_site_fract_x
 _atom_site_fract_y
 _atom_site_fract_z
 _atom_site_occupancy
  Rb  Rb0  1  0.191882  0.691882  0.500000  1
  Rb  Rb1  1  0.691882  0.808118  0.500000  1
  Rb  Rb2  1  0.308118  0.191882  0.500000  1
  Rb  Rb3  1  0.808118  0.308118  0.500000  1
  Rb  Rb4  1  0.500000  0.500000  0.000000  1
  Rb  Rb5  1  0.000000  0.000000  0.000000  1
  Cr  Cr6  1  0.000000  0.500000  0.000000  1
  Cr  Cr7  1  0.500000  0.000000  0.000000  1
  F  F8  1  0.388607  0.888607  0.776739  1
  F  F9  1  0.611393  0.111393  0.776739  1
  F  F10  1  0.111393  0.388607  0.776739  1
  F  F11  1  0.888607  0.611393  0.776739  1
  F  F12  1  0.388607  0.888607  0.223261  1
  F  F13  1  0.888607  0.611393  0.223261  1
  F  F14  1  0.111393  0.388607  0.223261  1
  F  F15  1  0.611393  0.111393  0.223261  1
  F  F16  1  0.000000  0.000000  0.500000  1
  F  F17  1  0.500000  0.500000  0.500000  1
  F  F18  1  0.840949  0.340949  0.000000  1
  F  F19  1  0.340949  0.159051  0.000000  1
  F  F20  1  0.659051  0.840949  0.000000  1
  F  F21  1  0.159051  0.659051  0.000000  1
