# generated using pymatgen
data_BaV(AsO4)2
_symmetry_space_group_name_H-M   'P 1'
_cell_length_a   6.90667463
_cell_length_b   14.89803042
_cell_length_c   7.76216061
_cell_angle_alpha   90.00000000
_cell_angle_beta   115.09178568
_cell_angle_gamma   90.00000000
_symmetry_Int_Tables_number   1
_chemical_formula_structural   BaV(AsO4)2
_chemical_formula_sum   'Ba4 V4 As8 O32'
_cell_volume   723.32102655
_cell_formula_units_Z   4
loop_
 _symmetry_equiv_pos_site_id
 _symmetry_equiv_pos_as_xyz
  1  'x, y, z'
loop_
 _atom_site_type_symbol
 _atom_site_label
 _atom_site_symmetry_multiplicity
 _atom_site_fract_x
 _atom_site_fract_y
 _atom_site_fract_z
 _atom_site_occupancy
  Ba  Ba0  1  0.291528  0.877402  0.324535  1
  Ba  Ba1  1  0.208472  0.377402  0.675465  1
  Ba  Ba2  1  0.708472  0.122598  0.675465  1
  Ba  Ba3  1  0.791528  0.622598  0.324535  1
  V  V4  1  0.303654  0.150175  0.023010  1
  V  V5  1  0.196346  0.650175  0.976990  1
  V  V6  1  0.803654  0.349825  0.023010  1
  V  V7  1  0.696346  0.849825  0.976990  1
  As  As8  1  0.897006  0.818559  0.668202  1
  As  As9  1  0.602994  0.318559  0.331798  1
  As  As10  1  0.275894  0.964578  0.779135  1
  As  As11  1  0.724106  0.035422  0.220865  1
  As  As12  1  0.224106  0.464578  0.220865  1
  As  As13  1  0.397006  0.681441  0.668202  1
  As  As14  1  0.102994  0.181441  0.331798  1
  As  As15  1  0.775894  0.535422  0.779135  1
  O  O16  1  0.413126  0.988451  0.649302  1
  O  O17  1  0.146307  0.045904  0.846870  1
  O  O18  1  0.190399  0.696764  0.456691  1
  O  O19  1  0.522437  0.783158  0.738240  1
  O  O20  1  0.572853  0.607641  0.614279  1
  O  O21  1  0.022437  0.716842  0.738240  1
  O  O22  1  0.192737  0.231991  0.870997  1
  O  O23  1  0.887200  0.878191  0.856292  1
  O  O24  1  0.427147  0.392359  0.385721  1
  O  O25  1  0.072853  0.892359  0.614279  1
  O  O26  1  0.387200  0.621809  0.856292  1
  O  O27  1  0.309601  0.196764  0.543309  1
  O  O28  1  0.927147  0.107641  0.385721  1
  O  O29  1  0.112800  0.121809  0.143708  1
  O  O30  1  0.807263  0.768009  0.129003  1
  O  O31  1  0.646307  0.454096  0.846870  1
  O  O32  1  0.429303  0.902129  0.978838  1
  O  O33  1  0.977563  0.283158  0.261760  1
  O  O34  1  0.477563  0.216842  0.261760  1
  O  O35  1  0.307263  0.731991  0.129003  1
  O  O36  1  0.353693  0.545904  0.153130  1
  O  O37  1  0.086874  0.488451  0.350698  1
  O  O38  1  0.070697  0.402129  0.021162  1
  O  O39  1  0.809601  0.303236  0.543309  1
  O  O40  1  0.690399  0.803236  0.456691  1
  O  O41  1  0.612800  0.378191  0.143708  1
  O  O42  1  0.570697  0.097871  0.021162  1
  O  O43  1  0.692737  0.268009  0.870997  1
  O  O44  1  0.853693  0.954096  0.153130  1
  O  O45  1  0.586874  0.011549  0.350698  1
  O  O46  1  0.929303  0.597871  0.978838  1
  O  O47  1  0.913126  0.511549  0.649302  1
