# generated using pymatgen
data_SrP2(XeF6)3
_symmetry_space_group_name_H-M   'P 1'
_cell_length_a   8.78796802
_cell_length_b   8.78796802
_cell_length_c   11.18358236
_cell_angle_alpha   83.72253756
_cell_angle_beta   96.27746244
_cell_angle_gamma   91.54328055
_symmetry_Int_Tables_number   1
_chemical_formula_structural   SrP2(XeF6)3
_chemical_formula_sum   'Sr2 P4 Xe6 F36'
_cell_volume   853.26569095
_cell_formula_units_Z   2
loop_
 _symmetry_equiv_pos_site_id
 _symmetry_equiv_pos_as_xyz
  1  'x, y, z'
loop_
 _atom_site_type_symbol
 _atom_site_label
 _atom_site_symmetry_multiplicity
 _atom_site_fract_x
 _atom_site_fract_y
 _atom_site_fract_z
 _atom_site_occupancy
  Sr  Sr0  1  0.284640  0.715360  0.774080  1
  Sr  Sr1  1  0.715360  0.284640  0.225920  1
  P  P2  1  0.799565  0.200435  0.906608  1
  P  P3  1  0.200435  0.799565  0.093392  1
  P  P4  1  0.500000  1.000000  0.500000  1
  P  P5  1  1.000000  0.500000  0.500000  1
  Xe  Xe6  1  0.681531  0.792771  0.165467  1
  Xe  Xe7  1  0.792771  0.681531  0.834533  1
  Xe  Xe8  1  0.318469  0.207229  0.834533  1
  Xe  Xe9  1  0.000000  0.000000  0.500000  1
  Xe  Xe10  1  0.500000  0.500000  0.500000  1
  Xe  Xe11  1  0.207229  0.318469  0.165467  1
  F  F12  1  0.008379  0.370589  0.615230  1
  F  F13  1  0.102815  0.897185  0.171590  1
  F  F14  1  0.931129  0.334960  0.909540  1
  F  F15  1  0.137980  0.601847  0.572350  1
  F  F16  1  0.897185  0.102815  0.828410  1
  F  F17  1  0.129847  0.409249  0.442796  1
  F  F18  1  0.290555  0.709445  0.214294  1
  F  F19  1  0.302585  0.697415  0.008886  1
  F  F20  1  0.636450  0.015916  0.189630  1
  F  F21  1  0.882964  0.117036  0.035001  1
  F  F22  1  0.015916  0.636450  0.810370  1
  F  F23  1  0.629411  0.991621  0.615230  1
  F  F24  1  0.721687  0.567159  0.136523  1
  F  F25  1  0.068871  0.665040  0.090460  1
  F  F26  1  0.432841  0.278313  0.136523  1
  F  F27  1  0.697415  0.302585  0.991114  1
  F  F28  1  0.363550  0.984084  0.810370  1
  F  F29  1  0.709445  0.290555  0.785706  1
  F  F30  1  0.278313  0.432841  0.863477  1
  F  F31  1  0.870153  0.590751  0.557204  1
  F  F32  1  0.567159  0.721687  0.863477  1
  F  F33  1  0.087065  0.912935  0.673006  1
  F  F34  1  0.590751  0.870153  0.442796  1
  F  F35  1  0.459400  0.540600  0.673594  1
  F  F36  1  0.117036  0.882964  0.964999  1
  F  F37  1  0.665040  0.068871  0.909540  1
  F  F38  1  0.601847  0.137980  0.427650  1
  F  F39  1  0.862020  0.398153  0.427650  1
  F  F40  1  0.912935  0.087065  0.326994  1
  F  F41  1  0.398153  0.862020  0.572350  1
  F  F42  1  0.540600  0.459400  0.326406  1
  F  F43  1  0.991621  0.629411  0.384770  1
  F  F44  1  0.409249  0.129847  0.557204  1
  F  F45  1  0.370589  0.008379  0.384770  1
  F  F46  1  0.984084  0.363550  0.189630  1
  F  F47  1  0.334960  0.931129  0.090460  1
