# generated using pymatgen
data_KErP2S7
_symmetry_space_group_name_H-M   'P 1'
_cell_length_a   9.01621227
_cell_length_b   12.45682586
_cell_length_c   9.70882988
_cell_angle_alpha   90.00000000
_cell_angle_beta   90.17294599
_cell_angle_gamma   90.00000000
_symmetry_Int_Tables_number   1
_chemical_formula_structural   KErP2S7
_chemical_formula_sum   'K4 Er4 P8 S28'
_cell_volume   1090.42659126
_cell_formula_units_Z   4
loop_
 _symmetry_equiv_pos_site_id
 _symmetry_equiv_pos_as_xyz
  1  'x, y, z'
loop_
 _atom_site_type_symbol
 _atom_site_label
 _atom_site_symmetry_multiplicity
 _atom_site_fract_x
 _atom_site_fract_y
 _atom_site_fract_z
 _atom_site_occupancy
  K  K0  1  0.130185  0.309168  0.609714  1
  K  K1  1  0.369815  0.809168  0.390286  1
  K  K2  1  0.869815  0.690832  0.390286  1
  K  K3  1  0.630185  0.190832  0.609714  1
  Er  Er4  1  0.106718  0.642250  0.858596  1
  Er  Er5  1  0.393282  0.142250  0.141404  1
  Er  Er6  1  0.893282  0.357750  0.141404  1
  Er  Er7  1  0.606718  0.857750  0.858596  1
  P  P8  1  0.476100  0.607363  0.726546  1
  P  P9  1  0.976100  0.892637  0.726546  1
  P  P10  1  0.197594  0.534145  0.176612  1
  P  P11  1  0.302406  0.034145  0.823388  1
  P  P12  1  0.697594  0.965855  0.176612  1
  P  P13  1  0.802406  0.465855  0.823388  1
  P  P14  1  0.523900  0.392637  0.273454  1
  P  P15  1  0.023900  0.107363  0.273454  1
  S  S16  1  0.613205  0.713152  0.632394  1
  S  S17  1  0.323094  0.945435  0.998164  1
  S  S18  1  0.786938  0.941886  0.634834  1
  S  S19  1  0.823094  0.554565  0.998164  1
  S  S20  1  0.176906  0.445435  0.001836  1
  S  S21  1  0.918671  0.820174  0.907532  1
  S  S22  1  0.646534  0.808611  0.143650  1
  S  S23  1  0.676906  0.054565  0.001836  1
  S  S24  1  0.576710  0.452600  0.757284  1
  S  S25  1  0.076710  0.047400  0.757284  1
  S  S26  1  0.353466  0.191389  0.856350  1
  S  S27  1  0.886795  0.213152  0.367606  1
  S  S28  1  0.713062  0.441886  0.365166  1
  S  S29  1  0.386795  0.286848  0.367606  1
  S  S30  1  0.286938  0.558114  0.634834  1
  S  S31  1  0.931970  0.530770  0.675086  1
  S  S32  1  0.418671  0.679826  0.907532  1
  S  S33  1  0.213062  0.058114  0.365166  1
  S  S34  1  0.431970  0.969230  0.675086  1
  S  S35  1  0.923290  0.952600  0.242716  1
  S  S36  1  0.581329  0.320174  0.092468  1
  S  S37  1  0.146534  0.691389  0.143650  1
  S  S38  1  0.853466  0.308611  0.856350  1
  S  S39  1  0.113205  0.786848  0.632394  1
  S  S40  1  0.568030  0.030770  0.324914  1
  S  S41  1  0.068030  0.469230  0.324914  1
  S  S42  1  0.423290  0.547400  0.242716  1
  S  S43  1  0.081329  0.179826  0.092468  1
