# generated using pymatgen
data_Cd4Te6Cl6O13
_symmetry_space_group_name_H-M   'P 1'
_cell_length_a   8.01540924
_cell_length_b   10.10584716
_cell_length_c   14.35040913
_cell_angle_alpha   103.91065671
_cell_angle_beta   105.01581204
_cell_angle_gamma   89.88081313
_symmetry_Int_Tables_number   1
_chemical_formula_structural   Cd4Te6Cl6O13
_chemical_formula_sum   'Cd8 Te12 Cl12 O26'
_cell_volume   1087.55042582
_cell_formula_units_Z   2
loop_
 _symmetry_equiv_pos_site_id
 _symmetry_equiv_pos_as_xyz
  1  'x, y, z'
loop_
 _atom_site_type_symbol
 _atom_site_label
 _atom_site_symmetry_multiplicity
 _atom_site_fract_x
 _atom_site_fract_y
 _atom_site_fract_z
 _atom_site_occupancy
  Cd  Cd0  1  0.092010  0.647128  0.465147  1
  Cd  Cd1  1  0.108319  0.155258  0.961862  1
  Cd  Cd2  1  0.907990  0.352872  0.534853  1
  Cd  Cd3  1  0.412017  0.355212  0.540769  1
  Cd  Cd4  1  0.587983  0.644788  0.459231  1
  Cd  Cd5  1  0.394441  0.844422  0.039120  1
  Cd  Cd6  1  0.891681  0.844742  0.038138  1
  Cd  Cd7  1  0.605559  0.155578  0.960880  1
  Te  Te8  1  0.299827  0.005212  0.396525  1
  Te  Te9  1  0.248139  0.560469  0.243403  1
  Te  Te10  1  0.553624  0.275809  0.318478  1
  Te  Te11  1  0.983664  0.676012  0.709459  1
  Te  Te12  1  0.700173  0.994788  0.603475  1
  Te  Te13  1  0.861495  0.999144  0.393781  1
  Te  Te14  1  0.016336  0.323988  0.290541  1
  Te  Te15  1  0.279375  0.437498  0.757118  1
  Te  Te16  1  0.751861  0.439531  0.756597  1
  Te  Te17  1  0.446376  0.724191  0.681522  1
  Te  Te18  1  0.138505  0.000856  0.606219  1
  Te  Te19  1  0.720625  0.562502  0.242882  1
  Cl  Cl20  1  0.321000  0.963343  0.888732  1
  Cl  Cl21  1  0.480964  0.801567  0.215009  1
  Cl  Cl22  1  0.679000  0.036657  0.111268  1
  Cl  Cl23  1  0.969763  0.782562  0.209087  1
  Cl  Cl24  1  0.608563  0.679846  0.966218  1
  Cl  Cl25  1  0.110277  0.683268  0.966932  1
  Cl  Cl26  1  0.519036  0.198433  0.784991  1
  Cl  Cl27  1  0.391437  0.320154  0.033782  1
  Cl  Cl28  1  0.176435  0.036543  0.113625  1
  Cl  Cl29  1  0.889723  0.316732  0.033068  1
  Cl  Cl30  1  0.030237  0.217438  0.790913  1
  Cl  Cl31  1  0.823565  0.963457  0.886375  1
  O  O32  1  0.062804  0.887790  0.468112  1
  O  O33  1  0.238079  0.815228  0.625895  1
  O  O34  1  0.398804  0.592588  0.558794  1
  O  O35  1  0.706801  0.329046  0.625517  1
  O  O36  1  0.601196  0.407412  0.441206  1
  O  O37  1  0.598765  0.821356  0.603631  1
  O  O38  1  0.798230  0.663968  0.376191  1
  O  O39  1  0.926235  0.914792  0.629736  1
  O  O40  1  0.201770  0.336032  0.623809  1
  O  O41  1  0.073765  0.085208  0.370264  1
  O  O42  1  0.251388  0.377444  0.275187  1
  O  O43  1  0.500739  0.476010  0.724574  1
  O  O44  1  0.078473  0.401950  0.429599  1
  O  O45  1  0.354840  0.057105  0.538672  1
  O  O46  1  0.645160  0.942895  0.461328  1
  O  O47  1  0.010034  0.493146  0.739043  1
  O  O48  1  0.499261  0.523990  0.275426  1
  O  O49  1  0.293199  0.670954  0.374483  1
  O  O50  1  0.937196  0.112210  0.531888  1
  O  O51  1  0.921527  0.598050  0.570401  1
  O  O52  1  0.254724  0.625859  0.728649  1
  O  O53  1  0.748612  0.622556  0.724813  1
  O  O54  1  0.761921  0.184772  0.374105  1
  O  O55  1  0.401235  0.178644  0.396369  1
  O  O56  1  0.745276  0.374141  0.271351  1
  O  O57  1  0.989966  0.506854  0.260957  1
