# generated using pymatgen
data_HfSCl6O
_symmetry_space_group_name_H-M   'P 1'
_cell_length_a   7.01628395
_cell_length_b   22.25344589
_cell_length_c   7.60977750
_cell_angle_alpha   90.00000000
_cell_angle_beta   115.00776779
_cell_angle_gamma   90.00000000
_symmetry_Int_Tables_number   1
_chemical_formula_structural   HfSCl6O
_chemical_formula_sum   'Hf4 S4 Cl24 O4'
_cell_volume   1076.77418706
_cell_formula_units_Z   4
loop_
 _symmetry_equiv_pos_site_id
 _symmetry_equiv_pos_as_xyz
  1  'x, y, z'
loop_
 _atom_site_type_symbol
 _atom_site_label
 _atom_site_symmetry_multiplicity
 _atom_site_fract_x
 _atom_site_fract_y
 _atom_site_fract_z
 _atom_site_occupancy
  Hf  Hf0  1  0.998263  0.074118  0.348684  1
  Hf  Hf1  1  0.001737  0.574118  0.151316  1
  Hf  Hf2  1  0.998263  0.425882  0.848684  1
  Hf  Hf3  1  0.001737  0.925882  0.651316  1
  S  S4  1  0.372008  0.360443  0.320298  1
  S  S5  1  0.627992  0.639557  0.679702  1
  S  S6  1  0.372008  0.139557  0.820298  1
  S  S7  1  0.627992  0.860443  0.179702  1
  Cl  Cl8  1  0.181872  0.665132  0.168860  1
  Cl  Cl9  1  0.761924  0.033881  0.052617  1
  Cl  Cl10  1  0.761924  0.466119  0.552617  1
  Cl  Cl11  1  0.238076  0.966119  0.947383  1
  Cl  Cl12  1  0.252632  0.391188  0.748547  1
  Cl  Cl13  1  0.818128  0.334868  0.831140  1
  Cl  Cl14  1  0.405453  0.674096  0.761893  1
  Cl  Cl15  1  0.818128  0.165132  0.331140  1
  Cl  Cl16  1  0.803253  0.473931  0.037690  1
  Cl  Cl17  1  0.238076  0.533881  0.447383  1
  Cl  Cl18  1  0.594547  0.325904  0.238107  1
  Cl  Cl19  1  0.196747  0.973931  0.462310  1
  Cl  Cl20  1  0.196747  0.526069  0.962310  1
  Cl  Cl21  1  0.594547  0.174096  0.738107  1
  Cl  Cl22  1  0.405453  0.825904  0.261893  1
  Cl  Cl23  1  0.213046  0.217898  0.819157  1
  Cl  Cl24  1  0.803253  0.026069  0.537690  1
  Cl  Cl25  1  0.181872  0.834868  0.668860  1
  Cl  Cl26  1  0.747368  0.891188  0.751453  1
  Cl  Cl27  1  0.252632  0.108812  0.248547  1
  Cl  Cl28  1  0.786954  0.782102  0.180843  1
  Cl  Cl29  1  0.747368  0.608812  0.251453  1
  Cl  Cl30  1  0.213046  0.282102  0.319157  1
  Cl  Cl31  1  0.786954  0.717898  0.680843  1
  O  O32  1  0.226853  0.102760  0.657190  1
  O  O33  1  0.773147  0.897240  0.342810  1
  O  O34  1  0.773147  0.602760  0.842810  1
  O  O35  1  0.226853  0.397240  0.157190  1
