# generated using pymatgen
data_DyPS4
_symmetry_space_group_name_H-M   'P 1'
_cell_length_a   12.22752170
_cell_length_b   12.22752170
_cell_length_c   12.22752170
_cell_angle_alpha   127.57609894
_cell_angle_beta   127.57609894
_cell_angle_gamma   77.31274429
_symmetry_Int_Tables_number   1
_chemical_formula_structural   DyPS4
_chemical_formula_sum   'Dy8 P8 S32'
_cell_volume   1114.07708707
_cell_formula_units_Z   8
loop_
 _symmetry_equiv_pos_site_id
 _symmetry_equiv_pos_as_xyz
  1  'x, y, z'
loop_
 _atom_site_type_symbol
 _atom_site_label
 _atom_site_symmetry_multiplicity
 _atom_site_fract_x
 _atom_site_fract_y
 _atom_site_fract_z
 _atom_site_occupancy
  Dy  Dy0  1  0.000000  0.000000  0.000000  1
  Dy  Dy1  1  0.750000  0.250000  0.500000  1
  Dy  Dy2  1  0.250000  0.750000  0.500000  1
  Dy  Dy3  1  0.500000  0.500000  0.000000  1
  Dy  Dy4  1  0.750000  0.750000  0.000000  1
  Dy  Dy5  1  0.500000  0.000000  0.500000  1
  Dy  Dy6  1  0.000000  0.500000  0.500000  1
  Dy  Dy7  1  0.250000  0.250000  0.000000  1
  P  P8  1  0.125000  0.413096  0.788096  1
  P  P9  1  0.125000  0.913096  0.288096  1
  P  P10  1  0.663096  0.875000  0.288096  1
  P  P11  1  0.586904  0.375000  0.711904  1
  P  P12  1  0.625000  0.836904  0.711904  1
  P  P13  1  0.625000  0.336904  0.211904  1
  P  P14  1  0.086904  0.375000  0.211904  1
  P  P15  1  0.163096  0.875000  0.788096  1
  S  S16  1  0.486272  0.209578  0.451412  1
  S  S17  1  0.758166  0.034860  0.548588  1
  S  S18  1  0.784860  0.736272  0.776694  1
  S  S19  1  0.959578  0.008166  0.223306  1
  S  S20  1  0.491834  0.540422  0.776694  1
  S  S21  1  0.763728  0.715140  0.223306  1
  S  S22  1  0.290422  0.013728  0.548588  1
  S  S23  1  0.465140  0.741834  0.451412  1
  S  S24  1  0.279336  0.468559  0.317944  1
  S  S25  1  0.218559  0.400615  0.689223  1
  S  S26  1  0.711392  0.529336  0.310777  1
  S  S27  1  0.970664  0.788608  0.689223  1
  S  S28  1  0.099385  0.281441  0.310777  1
  S  S29  1  0.538608  0.349385  0.317944  1
  S  S30  1  0.031441  0.220664  0.682056  1
  S  S31  1  0.150615  0.961392  0.682056  1
  S  S32  1  0.470664  0.781441  0.182056  1
  S  S33  1  0.531441  0.849385  0.810777  1
  S  S34  1  0.038608  0.720664  0.189223  1
  S  S35  1  0.779336  0.461392  0.810777  1
  S  S36  1  0.650615  0.968559  0.189223  1
  S  S37  1  0.211392  0.900615  0.182056  1
  S  S38  1  0.718559  0.029336  0.817944  1
  S  S39  1  0.599385  0.288608  0.817944  1
  S  S40  1  0.991834  0.215140  0.951412  1
  S  S41  1  0.965140  0.513728  0.723306  1
  S  S42  1  0.790422  0.241834  0.276694  1
  S  S43  1  0.258166  0.709578  0.723306  1
  S  S44  1  0.986272  0.534860  0.276694  1
  S  S45  1  0.459578  0.236272  0.951412  1
  S  S46  1  0.284860  0.508166  0.048588  1
  S  S47  1  0.263728  0.040422  0.048588  1
