# generated using pymatgen
data_KTbCr2O8
_symmetry_space_group_name_H-M   'P 1'
_cell_length_a   5.81185680
_cell_length_b   9.21366546
_cell_length_c   13.91026094
_cell_angle_alpha   90.00000000
_cell_angle_beta   90.00000000
_cell_angle_gamma   90.00000000
_symmetry_Int_Tables_number   1
_chemical_formula_structural   KTbCr2O8
_chemical_formula_sum   'K4 Tb4 Cr8 O32'
_cell_volume   744.87366716
_cell_formula_units_Z   4
loop_
 _symmetry_equiv_pos_site_id
 _symmetry_equiv_pos_as_xyz
  1  'x, y, z'
loop_
 _atom_site_type_symbol
 _atom_site_label
 _atom_site_symmetry_multiplicity
 _atom_site_fract_x
 _atom_site_fract_y
 _atom_site_fract_z
 _atom_site_occupancy
  K  K0  1  0.737155  0.091023  0.587375  1
  K  K1  1  0.762845  0.908977  0.087375  1
  K  K2  1  0.262845  0.591023  0.912625  1
  K  K3  1  0.237155  0.408977  0.412625  1
  Tb  Tb4  1  0.223159  0.042082  0.857845  1
  Tb  Tb5  1  0.723159  0.457918  0.142155  1
  Tb  Tb6  1  0.276841  0.957918  0.357845  1
  Tb  Tb7  1  0.776841  0.542082  0.642155  1
  Cr  Cr8  1  0.732590  0.152956  0.337753  1
  Cr  Cr9  1  0.267410  0.652956  0.162247  1
  Cr  Cr10  1  0.271745  0.815707  0.617370  1
  Cr  Cr11  1  0.728255  0.315707  0.882630  1
  Cr  Cr12  1  0.232590  0.347044  0.662247  1
  Cr  Cr13  1  0.767410  0.847044  0.837753  1
  Cr  Cr14  1  0.228255  0.184293  0.117370  1
  Cr  Cr15  1  0.771745  0.684293  0.382630  1
  O  O16  1  0.484047  0.696904  0.603820  1
  O  O17  1  0.980491  0.232087  0.892747  1
  O  O18  1  0.015953  0.303096  0.103820  1
  O  O19  1  0.254038  0.190806  0.720765  1
  O  O20  1  0.792886  0.554999  0.466245  1
  O  O21  1  0.984047  0.803096  0.396180  1
  O  O22  1  0.172107  0.484734  0.733431  1
  O  O23  1  0.292886  0.945001  0.533755  1
  O  O24  1  0.794652  0.610418  0.273943  1
  O  O25  1  0.327893  0.515266  0.233431  1
  O  O26  1  0.754038  0.309194  0.279235  1
  O  O27  1  0.672107  0.015266  0.266569  1
  O  O28  1  0.207114  0.054999  0.033755  1
  O  O29  1  0.495160  0.656720  0.087411  1
  O  O30  1  0.028238  0.620316  0.098131  1
  O  O31  1  0.705348  0.389582  0.773943  1
  O  O32  1  0.019509  0.732087  0.607253  1
  O  O33  1  0.519509  0.767913  0.392747  1
  O  O34  1  0.504840  0.156720  0.412589  1
  O  O35  1  0.205348  0.110418  0.226057  1
  O  O36  1  0.004840  0.343280  0.587411  1
  O  O37  1  0.515953  0.196904  0.896180  1
  O  O38  1  0.707114  0.445001  0.966245  1
  O  O39  1  0.745962  0.690806  0.779235  1
  O  O40  1  0.971762  0.120316  0.401869  1
  O  O41  1  0.995160  0.843280  0.912589  1
  O  O42  1  0.294652  0.889582  0.726057  1
  O  O43  1  0.471762  0.379684  0.598131  1
  O  O44  1  0.245962  0.809194  0.220765  1
  O  O45  1  0.827893  0.984734  0.766569  1
  O  O46  1  0.480491  0.267913  0.107253  1
  O  O47  1  0.528238  0.879684  0.901869  1
