# generated using pymatgen
data_KSbF6
_symmetry_space_group_name_H-M   'P 1'
_cell_length_a   9.00560061
_cell_length_b   9.00560061
_cell_length_c   9.00560061
_cell_angle_alpha   109.47122063
_cell_angle_beta   109.47122063
_cell_angle_gamma   109.47122063
_symmetry_Int_Tables_number   1
_chemical_formula_structural   KSbF6
_chemical_formula_sum   'K4 Sb4 F24'
_cell_volume   562.23277297
_cell_formula_units_Z   4
loop_
 _symmetry_equiv_pos_site_id
 _symmetry_equiv_pos_as_xyz
  1  'x, y, z'
loop_
 _atom_site_type_symbol
 _atom_site_label
 _atom_site_symmetry_multiplicity
 _atom_site_fract_x
 _atom_site_fract_y
 _atom_site_fract_z
 _atom_site_occupancy
  K  K0  1  0.500000  0.500000  0.500000  1
  K  K1  1  1.000000  1.000000  0.500000  1
  K  K2  1  0.500000  1.000000  0.000000  1
  K  K3  1  1.000000  0.500000  0.000000  1
  Sb  Sb4  1  1.000000  1.000000  0.000000  1
  Sb  Sb5  1  1.000000  0.500000  0.500000  1
  Sb  Sb6  1  0.500000  1.000000  0.500000  1
  Sb  Sb7  1  0.500000  0.500000  0.000000  1
  F  F8  1  0.081158  0.047498  0.245533  1
  F  F9  1  0.835625  0.254467  0.301965  1
  F  F10  1  0.533660  0.198035  0.452502  1
  F  F11  1  0.664375  0.966340  0.418842  1
  F  F12  1  0.254467  0.301965  0.835625  1
  F  F13  1  0.452502  0.533660  0.198035  1
  F  F14  1  0.966340  0.418842  0.664375  1
  F  F15  1  0.245533  0.081158  0.047498  1
  F  F16  1  0.047498  0.245533  0.081158  1
  F  F17  1  0.301965  0.835625  0.254467  1
  F  F18  1  0.198035  0.452502  0.533660  1
  F  F19  1  0.418842  0.664375  0.966340  1
  F  F20  1  0.918842  0.952502  0.754467  1
  F  F21  1  0.164375  0.745533  0.698035  1
  F  F22  1  0.466340  0.801965  0.547498  1
  F  F23  1  0.335625  0.033660  0.581158  1
  F  F24  1  0.745533  0.698035  0.164375  1
  F  F25  1  0.547498  0.466340  0.801965  1
  F  F26  1  0.033660  0.581158  0.335625  1
  F  F27  1  0.754467  0.918842  0.952502  1
  F  F28  1  0.952502  0.754467  0.918842  1
  F  F29  1  0.698035  0.164375  0.745533  1
  F  F30  1  0.801965  0.547498  0.466340  1
  F  F31  1  0.581158  0.335625  0.033660  1
