# generated using pymatgen
data_Rb3NaPbO4
_symmetry_space_group_name_H-M   'P 1'
_cell_length_a   11.17308870
_cell_length_b   6.78048884
_cell_length_c   11.29167121
_cell_angle_alpha   90.00000000
_cell_angle_beta   111.64931099
_cell_angle_gamma   90.00000000
_symmetry_Int_Tables_number   1
_chemical_formula_structural   Rb3NaPbO4
_chemical_formula_sum   'Rb12 Na4 Pb4 O16'
_cell_volume   795.10202979
_cell_formula_units_Z   4
loop_
 _symmetry_equiv_pos_site_id
 _symmetry_equiv_pos_as_xyz
  1  'x, y, z'
loop_
 _atom_site_type_symbol
 _atom_site_label
 _atom_site_symmetry_multiplicity
 _atom_site_fract_x
 _atom_site_fract_y
 _atom_site_fract_z
 _atom_site_occupancy
  Rb  Rb0  1  0.681048  0.620871  0.107054  1
  Rb  Rb1  1  0.966273  0.323737  0.328349  1
  Rb  Rb2  1  0.318952  0.379129  0.892946  1
  Rb  Rb3  1  0.318952  0.120871  0.392946  1
  Rb  Rb4  1  0.455847  0.607178  0.312109  1
  Rb  Rb5  1  0.544153  0.392822  0.687891  1
  Rb  Rb6  1  0.544153  0.107178  0.187891  1
  Rb  Rb7  1  0.455847  0.892822  0.812109  1
  Rb  Rb8  1  0.033727  0.823737  0.171651  1
  Rb  Rb9  1  0.681048  0.879129  0.607054  1
  Rb  Rb10  1  0.966273  0.176263  0.828349  1
  Rb  Rb11  1  0.033727  0.676263  0.671651  1
  Na  Na12  1  0.874915  0.619450  0.890891  1
  Na  Na13  1  0.874915  0.880550  0.390891  1
  Na  Na14  1  0.125085  0.119450  0.609109  1
  Na  Na15  1  0.125085  0.380550  0.109109  1
  Pb  Pb16  1  0.241334  0.642590  0.490330  1
  Pb  Pb17  1  0.758666  0.357410  0.509670  1
  Pb  Pb18  1  0.758666  0.142590  0.009670  1
  Pb  Pb19  1  0.241334  0.857410  0.990330  1
  O  O20  1  0.571264  0.261822  0.945555  1
  O  O21  1  0.571264  0.238178  0.445555  1
  O  O22  1  0.895487  0.126499  0.545281  1
  O  O23  1  0.795552  0.005792  0.187770  1
  O  O24  1  0.770967  0.575486  0.381235  1
  O  O25  1  0.770967  0.924514  0.881235  1
  O  O26  1  0.428736  0.761822  0.554445  1
  O  O27  1  0.428736  0.738178  0.054445  1
  O  O28  1  0.104513  0.873501  0.454719  1
  O  O29  1  0.229033  0.424514  0.618765  1
  O  O30  1  0.204448  0.505792  0.312230  1
  O  O31  1  0.229033  0.075486  0.118765  1
  O  O32  1  0.104513  0.626499  0.954719  1
  O  O33  1  0.204448  0.994208  0.812230  1
  O  O34  1  0.895487  0.373501  0.045281  1
  O  O35  1  0.795552  0.494208  0.687770  1
