# generated using pymatgen
data_LiNi3P3O11
_symmetry_space_group_name_H-M   'P 1'
_cell_length_a   9.74167735
_cell_length_b   9.51547183
_cell_length_c   10.12407168
_cell_angle_alpha   90.00000000
_cell_angle_beta   119.68757024
_cell_angle_gamma   90.00000000
_symmetry_Int_Tables_number   1
_chemical_formula_structural   LiNi3P3O11
_chemical_formula_sum   'Li4 Ni12 P12 O44'
_cell_volume   815.28337904
_cell_formula_units_Z   4
loop_
 _symmetry_equiv_pos_site_id
 _symmetry_equiv_pos_as_xyz
  1  'x, y, z'
loop_
 _atom_site_type_symbol
 _atom_site_label
 _atom_site_symmetry_multiplicity
 _atom_site_fract_x
 _atom_site_fract_y
 _atom_site_fract_z
 _atom_site_occupancy
  Li  Li0  1  0.819078  0.678492  0.298017  1
  Li  Li1  1  0.180922  0.178492  0.201983  1
  Li  Li2  1  0.819078  0.821508  0.798017  1
  Li  Li3  1  0.180922  0.321508  0.701983  1
  Ni  Ni4  1  0.770811  0.365932  0.127241  1
  Ni  Ni5  1  0.405993  0.127650  0.899266  1
  Ni  Ni6  1  0.229189  0.865932  0.372759  1
  Ni  Ni7  1  0.417449  0.868110  0.735558  1
  Ni  Ni8  1  0.582551  0.368110  0.764442  1
  Ni  Ni9  1  0.405993  0.372350  0.399266  1
  Ni  Ni10  1  0.594007  0.627650  0.600734  1
  Ni  Ni11  1  0.417449  0.631890  0.235558  1
  Ni  Ni12  1  0.582551  0.131890  0.264442  1
  Ni  Ni13  1  0.770811  0.134068  0.627241  1
  Ni  Ni14  1  0.594007  0.872350  0.100734  1
  Ni  Ni15  1  0.229189  0.634068  0.872759  1
  P  P16  1  0.094766  0.938857  0.742362  1
  P  P17  1  0.738028  0.425427  0.427970  1
  P  P18  1  0.905234  0.438857  0.757638  1
  P  P19  1  0.610571  0.838340  0.433996  1
  P  P20  1  0.389429  0.338340  0.066004  1
  P  P21  1  0.738028  0.074573  0.927970  1
  P  P22  1  0.261972  0.925427  0.072030  1
  P  P23  1  0.610571  0.661660  0.933996  1
  P  P24  1  0.389429  0.161660  0.566004  1
  P  P25  1  0.094766  0.561143  0.242362  1
  P  P26  1  0.261972  0.574573  0.572030  1
  P  P27  1  0.905234  0.061143  0.257638  1
  O  O28  1  0.118329  0.523891  0.414560  1
  O  O29  1  0.077917  0.780733  0.727083  1
  O  O30  1  0.118329  0.976109  0.914560  1
  O  O31  1  0.956936  0.028566  0.636582  1
  O  O32  1  0.746306  0.013650  0.245057  1
  O  O33  1  0.735455  0.775228  0.586258  1
  O  O34  1  0.043064  0.528566  0.863418  1
  O  O35  1  0.881671  0.476109  0.585440  1
  O  O36  1  0.922083  0.280733  0.772917  1
  O  O37  1  0.551207  0.270953  0.090140  1
  O  O38  1  0.725100  0.265038  0.434615  1
  O  O39  1  0.621209  0.772140  0.296229  1
  O  O40  1  0.735455  0.724772  0.086258  1
  O  O41  1  0.922083  0.219267  0.272917  1
  O  O42  1  0.881671  0.023891  0.085440  1
  O  O43  1  0.043064  0.971434  0.363418  1
  O  O44  1  0.253694  0.986350  0.754943  1
  O  O45  1  0.232215  0.519473  0.696224  1
  O  O46  1  0.956936  0.471434  0.136582  1
  O  O47  1  0.264545  0.275228  0.913742  1
  O  O48  1  0.077917  0.719267  0.227083  1
  O  O49  1  0.448793  0.729047  0.909860  1
  O  O50  1  0.274900  0.734962  0.565385  1
  O  O51  1  0.378791  0.227860  0.703771  1
  O  O52  1  0.264545  0.224772  0.413742  1
  O  O53  1  0.388380  0.000371  0.564442  1
  O  O54  1  0.415284  0.502016  0.584275  1
  O  O55  1  0.584716  0.002016  0.915725  1
  O  O56  1  0.253694  0.513650  0.254943  1
  O  O57  1  0.232215  0.980527  0.196224  1
  O  O58  1  0.611620  0.500371  0.935558  1
  O  O59  1  0.621209  0.727860  0.796229  1
  O  O60  1  0.725100  0.234962  0.934615  1
  O  O61  1  0.551207  0.229047  0.590140  1
  O  O62  1  0.448793  0.770953  0.409860  1
  O  O63  1  0.274900  0.765038  0.065385  1
  O  O64  1  0.378791  0.272140  0.203771  1
  O  O65  1  0.388380  0.499629  0.064442  1
  O  O66  1  0.767785  0.019473  0.803776  1
  O  O67  1  0.746306  0.486350  0.745057  1
  O  O68  1  0.415284  0.997984  0.084275  1
  O  O69  1  0.584716  0.497984  0.415725  1
  O  O70  1  0.611620  0.999629  0.435558  1
  O  O71  1  0.767785  0.480527  0.303776  1
