# generated using pymatgen
data_GaAgSe2
_symmetry_space_group_name_H-M   'P 1'
_cell_length_a   7.07923811
_cell_length_b   7.07923811
_cell_length_c   7.07923811
_cell_angle_alpha   129.31737685
_cell_angle_beta   129.31737685
_cell_angle_gamma   74.50043425
_symmetry_Int_Tables_number   1
_chemical_formula_structural   GaAgSe2
_chemical_formula_sum   'Ga2 Ag2 Se4'
_cell_volume   206.93765072
_cell_formula_units_Z   2
loop_
 _symmetry_equiv_pos_site_id
 _symmetry_equiv_pos_as_xyz
  1  'x, y, z'
loop_
 _atom_site_type_symbol
 _atom_site_label
 _atom_site_symmetry_multiplicity
 _atom_site_fract_x
 _atom_site_fract_y
 _atom_site_fract_z
 _atom_site_occupancy
  Ga  Ga0  1  0.250000  0.750000  0.500000  1
  Ga  Ga1  1  0.500000  0.500000  0.000000  1
  Ag  Ag2  1  0.000000  0.000000  0.000000  1
  Ag  Ag3  1  0.750000  0.250000  0.500000  1
  Se  Se4  1  0.595527  0.625000  0.470527  1
  Se  Se5  1  0.375000  0.845527  0.970527  1
  Se  Se6  1  0.154473  0.125000  0.529473  1
  Se  Se7  1  0.875000  0.404473  0.029473  1
