# generated using pymatgen
data_SbAsPCl13
_symmetry_space_group_name_H-M   'P 1'
_cell_length_a   9.84059120
_cell_length_b   9.84059120
_cell_length_c   12.17955602
_cell_angle_alpha   90.00000000
_cell_angle_beta   90.00000000
_cell_angle_gamma   115.28545308
_symmetry_Int_Tables_number   1
_chemical_formula_structural   SbAsPCl13
_chemical_formula_sum   'Sb2 As2 P2 Cl26'
_cell_volume   1066.43411499
_cell_formula_units_Z   2
loop_
 _symmetry_equiv_pos_site_id
 _symmetry_equiv_pos_as_xyz
  1  'x, y, z'
loop_
 _atom_site_type_symbol
 _atom_site_label
 _atom_site_symmetry_multiplicity
 _atom_site_fract_x
 _atom_site_fract_y
 _atom_site_fract_z
 _atom_site_occupancy
  Sb  Sb0  1  0.206644  0.793356  0.502028  1
  Sb  Sb1  1  0.793356  0.206644  0.002028  1
  As  As2  1  0.549168  0.450832  0.152877  1
  As  As3  1  0.450832  0.549168  0.652877  1
  P  P4  1  0.859755  0.140245  0.463745  1
  P  P5  1  0.140245  0.859755  0.963745  1
  Cl  Cl6  1  0.014029  0.309925  0.887494  1
  Cl  Cl7  1  0.135901  0.864099  0.124498  1
  Cl  Cl8  1  0.695317  0.624446  0.630099  1
  Cl  Cl9  1  0.864099  0.135901  0.624498  1
  Cl  Cl10  1  0.761906  0.935002  0.406990  1
  Cl  Cl11  1  0.624446  0.695317  0.130099  1
  Cl  Cl12  1  0.252710  0.747290  0.917019  1
  Cl  Cl13  1  0.064998  0.238094  0.406990  1
  Cl  Cl14  1  0.985971  0.690075  0.387494  1
  Cl  Cl15  1  0.747290  0.252710  0.417019  1
  Cl  Cl16  1  0.238094  0.064998  0.906990  1
  Cl  Cl17  1  0.572554  0.101840  0.118848  1
  Cl  Cl18  1  0.690075  0.985971  0.887494  1
  Cl  Cl19  1  0.309925  0.014029  0.387494  1
  Cl  Cl20  1  0.911977  0.088023  0.116641  1
  Cl  Cl21  1  0.427446  0.898160  0.618848  1
  Cl  Cl22  1  0.101840  0.572554  0.618848  1
  Cl  Cl23  1  0.898160  0.427446  0.118848  1
  Cl  Cl24  1  0.375554  0.304683  0.630099  1
  Cl  Cl25  1  0.304683  0.375554  0.130099  1
  Cl  Cl26  1  0.088023  0.911977  0.616641  1
  Cl  Cl27  1  0.446846  0.553154  0.835812  1
  Cl  Cl28  1  0.673454  0.326546  0.891220  1
  Cl  Cl29  1  0.326546  0.673454  0.391220  1
  Cl  Cl30  1  0.935002  0.761906  0.906990  1
  Cl  Cl31  1  0.553154  0.446846  0.335812  1
