# generated using pymatgen
data_K3ScSi2O7
_symmetry_space_group_name_H-M   'P 1'
_cell_length_a   5.68077822
_cell_length_b   5.68077822
_cell_length_c   13.84420555
_cell_angle_alpha   90.00000000
_cell_angle_beta   90.00000000
_cell_angle_gamma   120.00000000
_symmetry_Int_Tables_number   1
_chemical_formula_structural   K3ScSi2O7
_chemical_formula_sum   'K6 Sc2 Si4 O14'
_cell_volume   386.91390640
_cell_formula_units_Z   2
loop_
 _symmetry_equiv_pos_site_id
 _symmetry_equiv_pos_as_xyz
  1  'x, y, z'
loop_
 _atom_site_type_symbol
 _atom_site_label
 _atom_site_symmetry_multiplicity
 _atom_site_fract_x
 _atom_site_fract_y
 _atom_site_fract_z
 _atom_site_occupancy
  K  K0  1  0.333333  0.666667  0.407165  1
  K  K1  1  0.000000  0.000000  0.250000  1
  K  K2  1  0.666667  0.333333  0.592835  1
  K  K3  1  0.333333  0.666667  0.092835  1
  K  K4  1  0.666667  0.333333  0.907165  1
  K  K5  1  0.000000  0.000000  0.750000  1
  Sc  Sc6  1  0.000000  0.000000  0.500000  1
  Sc  Sc7  1  0.000000  0.000000  0.000000  1
  Si  Si8  1  0.333333  0.666667  0.629048  1
  Si  Si9  1  0.666667  0.333333  0.370952  1
  Si  Si10  1  0.666667  0.333333  0.129048  1
  Si  Si11  1  0.333333  0.666667  0.870952  1
  O  O12  1  0.350168  0.175084  0.407644  1
  O  O13  1  0.824916  0.175084  0.092356  1
  O  O14  1  0.175084  0.350168  0.592356  1
  O  O15  1  0.175084  0.824916  0.907644  1
  O  O16  1  0.649832  0.824916  0.907644  1
  O  O17  1  0.649832  0.824916  0.592356  1
  O  O18  1  0.350168  0.175084  0.092356  1
  O  O19  1  0.175084  0.824916  0.592356  1
  O  O20  1  0.824916  0.175084  0.407644  1
  O  O21  1  0.175084  0.350168  0.907644  1
  O  O22  1  0.824916  0.649832  0.092356  1
  O  O23  1  0.824916  0.649832  0.407644  1
  O  O24  1  0.666667  0.333333  0.250000  1
  O  O25  1  0.333333  0.666667  0.750000  1
