# generated using pymatgen
data_Tl3Ga9S13O2
_symmetry_space_group_name_H-M   'P 1'
_cell_length_a   9.75931428
_cell_length_b   9.75931428
_cell_length_c   7.50932370
_cell_angle_alpha   90.00000000
_cell_angle_beta   90.00000000
_cell_angle_gamma   120.00000000
_symmetry_Int_Tables_number   1
_chemical_formula_structural   Tl3Ga9S13O2
_chemical_formula_sum   'Tl3 Ga9 S13 O2'
_cell_volume   619.39837994
_cell_formula_units_Z   1
loop_
 _symmetry_equiv_pos_site_id
 _symmetry_equiv_pos_as_xyz
  1  'x, y, z'
loop_
 _atom_site_type_symbol
 _atom_site_label
 _atom_site_symmetry_multiplicity
 _atom_site_fract_x
 _atom_site_fract_y
 _atom_site_fract_z
 _atom_site_occupancy
  Tl  Tl0  1  0.333333  0.666667  0.500000  1
  Tl  Tl1  1  0.000000  0.000000  0.000000  1
  Tl  Tl2  1  0.000000  0.000000  0.500000  1
  Ga  Ga3  1  0.804675  0.557951  0.264463  1
  Ga  Ga4  1  0.071662  0.455391  0.000000  1
  Ga  Ga5  1  0.804675  0.557951  0.735537  1
  Ga  Ga6  1  0.753276  0.195325  0.735537  1
  Ga  Ga7  1  0.544609  0.616271  0.000000  1
  Ga  Ga8  1  0.442049  0.246724  0.264463  1
  Ga  Ga9  1  0.442049  0.246724  0.735537  1
  Ga  Ga10  1  0.383729  0.928338  0.000000  1
  Ga  Ga11  1  0.753276  0.195325  0.264463  1
  S  S12  1  0.683895  0.704459  0.254615  1
  S  S13  1  0.359970  0.332508  0.500000  1
  S  S14  1  0.956002  0.615751  0.000000  1
  S  S15  1  0.972538  0.640030  0.500000  1
  S  S16  1  0.020563  0.316105  0.254615  1
  S  S17  1  0.384249  0.340251  0.000000  1
  S  S18  1  0.667492  0.027462  0.500000  1
  S  S19  1  0.683895  0.704459  0.745385  1
  S  S20  1  0.020563  0.316105  0.745385  1
  S  S21  1  0.295541  0.979437  0.254615  1
  S  S22  1  0.659749  0.043998  0.000000  1
  S  S23  1  0.295541  0.979437  0.745385  1
  S  S24  1  0.333333  0.666667  0.000000  1
  O  O25  1  0.666667  0.333333  0.736712  1
  O  O26  1  0.666667  0.333333  0.263288  1
