# generated using pymatgen
data_CoNiH24(SO10)2
_symmetry_space_group_name_H-M   'P 1'
_cell_length_a   6.20838143
_cell_length_b   6.20838143
_cell_length_c   24.60047935
_cell_angle_alpha   81.68854026
_cell_angle_beta   98.31145974
_cell_angle_gamma   108.96444896
_symmetry_Int_Tables_number   1
_chemical_formula_structural   CoNiH24(SO10)2
_chemical_formula_sum   'Co2 Ni2 H48 S4 O40'
_cell_volume   882.47749376
_cell_formula_units_Z   2
loop_
 _symmetry_equiv_pos_site_id
 _symmetry_equiv_pos_as_xyz
  1  'x, y, z'
loop_
 _atom_site_type_symbol
 _atom_site_label
 _atom_site_symmetry_multiplicity
 _atom_site_fract_x
 _atom_site_fract_y
 _atom_site_fract_z
 _atom_site_occupancy
  Co  Co0  1  0.000000  0.000000  0.500000  1
  Co  Co1  1  0.000000  0.000000  0.000000  1
  Ni  Ni2  1  0.051147  0.051147  0.750000  1
  Ni  Ni3  1  0.948853  0.948853  0.250000  1
  H  H4  1  0.657111  0.066514  0.550106  1
  H  H5  1  0.066514  0.657111  0.949894  1
  H  H6  1  0.342889  0.933486  0.449894  1
  H  H7  1  0.933486  0.342889  0.050106  1
  H  H8  1  0.698624  0.252416  0.496712  1
  H  H9  1  0.252416  0.698624  0.003288  1
  H  H10  1  0.301376  0.747584  0.503288  1
  H  H11  1  0.747584  0.301376  0.996712  1
  H  H12  1  0.707628  0.639622  0.556041  1
  H  H13  1  0.639622  0.707628  0.943959  1
  H  H14  1  0.292372  0.360378  0.443959  1
  H  H15  1  0.360378  0.292372  0.056041  1
  H  H16  1  0.964979  0.645538  0.577404  1
  H  H17  1  0.645538  0.964979  0.922596  1
  H  H18  1  0.035021  0.354462  0.422596  1
  H  H19  1  0.354462  0.035021  0.077404  1
  H  H20  1  0.684275  0.938353  0.409528  1
  H  H21  1  0.938353  0.684275  0.090472  1
  H  H22  1  0.315725  0.061647  0.590472  1
  H  H23  1  0.061647  0.315725  0.909528  1
  H  H24  1  0.728281  0.701227  0.432033  1
  H  H25  1  0.701227  0.728281  0.067967  1
  H  H26  1  0.271719  0.298773  0.567967  1
  H  H27  1  0.298773  0.271719  0.932033  1
  H  H28  1  0.779187  0.099159  0.656105  1
  H  H29  1  0.099159  0.779187  0.843895  1
  H  H30  1  0.220813  0.900841  0.343895  1
  H  H31  1  0.900841  0.220813  0.156105  1
  H  H32  1  0.000020  0.324849  0.657560  1
  H  H33  1  0.324849  0.000020  0.842440  1
  H  H34  1  0.999980  0.675151  0.342440  1
  H  H35  1  0.675151  0.999980  0.157560  1
  H  H36  1  0.432134  0.287328  0.700583  1
  H  H37  1  0.287328  0.432134  0.799417  1
  H  H38  1  0.567866  0.712672  0.299417  1
  H  H39  1  0.712672  0.567866  0.200583  1
  H  H40  1  0.482853  0.070843  0.737126  1
  H  H41  1  0.070843  0.482853  0.762874  1
  H  H42  1  0.517147  0.929157  0.262874  1
  H  H43  1  0.929157  0.517147  0.237126  1
  H  H44  1  0.807069  0.669850  0.701352  1
  H  H45  1  0.669850  0.807069  0.798648  1
  H  H46  1  0.192931  0.330150  0.298648  1
  H  H47  1  0.330150  0.192931  0.201352  1
  H  H48  1  0.064424  0.735544  0.689499  1
  H  H49  1  0.735544  0.064424  0.810501  1
  H  H50  1  0.935576  0.264456  0.310501  1
  H  H51  1  0.264456  0.935576  0.189499  1
  S  S52  1  0.418277  0.676798  0.623925  1
  S  S53  1  0.676798  0.418277  0.876075  1
  S  S54  1  0.581723  0.323202  0.376075  1
  S  S55  1  0.323202  0.581723  0.123925  1
  O  O56  1  0.541155  0.569844  0.670805  1
  O  O57  1  0.569844  0.541155  0.829195  1
  O  O58  1  0.458845  0.430156  0.329195  1
  O  O59  1  0.430156  0.458845  0.170805  1
  O  O60  1  0.173857  0.623232  0.634548  1
  O  O61  1  0.623232  0.173857  0.865452  1
  O  O62  1  0.826143  0.376768  0.365452  1
  O  O63  1  0.376768  0.826143  0.134548  1
  O  O64  1  0.530454  0.930789  0.617172  1
  O  O65  1  0.930789  0.530454  0.882828  1
  O  O66  1  0.469546  0.069211  0.382828  1
  O  O67  1  0.069211  0.469546  0.117172  1
  O  O68  1  0.423387  0.585245  0.571032  1
  O  O69  1  0.585245  0.423387  0.928968  1
  O  O70  1  0.576613  0.414755  0.428968  1
  O  O71  1  0.414755  0.576613  0.071032  1
  O  O72  1  0.755057  0.136154  0.520160  1
  O  O73  1  0.136154  0.755057  0.979840  1
  O  O74  1  0.244943  0.863846  0.479840  1
  O  O75  1  0.863846  0.244943  0.020160  1
  O  O76  1  0.862743  0.674677  0.544404  1
  O  O77  1  0.674677  0.862743  0.955596  1
  O  O78  1  0.137257  0.325323  0.455596  1
  O  O79  1  0.325323  0.137257  0.044404  1
  O  O80  1  0.799749  0.869993  0.429878  1
  O  O81  1  0.869993  0.799749  0.070122  1
  O  O82  1  0.200251  0.130007  0.570122  1
  O  O83  1  0.130007  0.200251  0.929878  1
  O  O84  1  0.901084  0.197835  0.680369  1
  O  O85  1  0.197835  0.901084  0.819631  1
  O  O86  1  0.098916  0.802165  0.319631  1
  O  O87  1  0.802165  0.098916  0.180369  1
  O  O88  1  0.360154  0.128802  0.717072  1
  O  O89  1  0.128802  0.360154  0.782929  1
  O  O90  1  0.639846  0.871198  0.282929  1
  O  O91  1  0.871198  0.639846  0.217072  1
  O  O92  1  0.968171  0.728108  0.718896  1
  O  O93  1  0.728108  0.968171  0.781104  1
  O  O94  1  0.031829  0.271892  0.281104  1
  O  O95  1  0.271892  0.031829  0.218896  1
