# generated using pymatgen
data_CdI2
_symmetry_space_group_name_H-M   'P 1'
_cell_length_a   4.33130419
_cell_length_b   4.33130419
_cell_length_c   59.42633670
_cell_angle_alpha   90.00000000
_cell_angle_beta   90.00000000
_cell_angle_gamma   120.00000000
_symmetry_Int_Tables_number   1
_chemical_formula_structural   CdI2
_chemical_formula_sum   'Cd8 I16'
_cell_volume   965.48817994
_cell_formula_units_Z   8
loop_
 _symmetry_equiv_pos_site_id
 _symmetry_equiv_pos_as_xyz
  1  'x, y, z'
loop_
 _atom_site_type_symbol
 _atom_site_label
 _atom_site_symmetry_multiplicity
 _atom_site_fract_x
 _atom_site_fract_y
 _atom_site_fract_z
 _atom_site_occupancy
  Cd  Cd0  1  0.000000  0.000000  0.906225  1
  Cd  Cd1  1  0.000000  0.000000  0.781278  1
  Cd  Cd2  1  0.333333  0.666667  0.406222  1
  Cd  Cd3  1  0.000000  0.000000  0.656229  1
  Cd  Cd4  1  0.000000  0.000000  0.031274  1
  Cd  Cd5  1  0.333333  0.666667  0.156221  1
  Cd  Cd6  1  0.000000  0.000000  0.281281  1
  Cd  Cd7  1  0.333333  0.666667  0.531241  1
  I  I8  1  0.666667  0.333333  0.810336  1
  I  I9  1  0.333333  0.666667  0.877167  1
  I  I10  1  0.666667  0.333333  0.560313  1
  I  I11  1  0.333333  0.666667  0.252237  1
  I  I12  1  0.666667  0.333333  0.060332  1
  I  I13  1  0.000000  0.000000  0.127145  1
  I  I14  1  0.666667  0.333333  0.435299  1
  I  I15  1  0.666667  0.333333  0.185297  1
  I  I16  1  0.000000  0.000000  0.502177  1
  I  I17  1  0.333333  0.666667  0.002233  1
  I  I18  1  0.666667  0.333333  0.310339  1
  I  I19  1  0.666667  0.333333  0.935300  1
  I  I20  1  0.333333  0.666667  0.752235  1
  I  I21  1  0.000000  0.000000  0.377145  1
  I  I22  1  0.666667  0.333333  0.685303  1
  I  I23  1  0.333333  0.666667  0.627170  1
