# generated using pymatgen
data_NaGe4(PO4)3
_symmetry_space_group_name_H-M   'P 1'
_cell_length_a   9.78453172
_cell_length_b   9.78453172
_cell_length_c   9.78453172
_cell_angle_alpha   59.12625442
_cell_angle_beta   59.12625442
_cell_angle_gamma   59.12625442
_symmetry_Int_Tables_number   1
_chemical_formula_structural   NaGe4(PO4)3
_chemical_formula_sum   'Na2 Ge8 P6 O24'
_cell_volume   649.18508133
_cell_formula_units_Z   2
loop_
 _symmetry_equiv_pos_site_id
 _symmetry_equiv_pos_as_xyz
  1  'x, y, z'
loop_
 _atom_site_type_symbol
 _atom_site_label
 _atom_site_symmetry_multiplicity
 _atom_site_fract_x
 _atom_site_fract_y
 _atom_site_fract_z
 _atom_site_occupancy
  Na  Na0  1  0.784350  0.784350  0.784350  1
  Na  Na1  1  0.284350  0.284350  0.284350  1
  Ge  Ge2  1  0.925095  0.925095  0.925095  1
  Ge  Ge3  1  0.369423  0.482961  0.840636  1
  Ge  Ge4  1  0.982961  0.869423  0.340636  1
  Ge  Ge5  1  0.425095  0.425095  0.425095  1
  Ge  Ge6  1  0.869423  0.340636  0.982961  1
  Ge  Ge7  1  0.482961  0.840636  0.369423  1
  Ge  Ge8  1  0.340636  0.982961  0.869423  1
  Ge  Ge9  1  0.840636  0.369423  0.482961  1
  P  P10  1  0.567984  0.026947  0.480517  1
  P  P11  1  0.480517  0.567984  0.026947  1
  P  P12  1  0.980517  0.526947  0.067984  1
  P  P13  1  0.026947  0.480517  0.567984  1
  P  P14  1  0.067984  0.980517  0.526947  1
  P  P15  1  0.526947  0.067984  0.980517  1
  O  O16  1  0.991624  0.663240  0.546625  1
  O  O17  1  0.871209  0.716624  0.044436  1
  O  O18  1  0.915665  0.395947  0.745225  1
  O  O19  1  0.663240  0.546625  0.991624  1
  O  O20  1  0.895947  0.415665  0.245225  1
  O  O21  1  0.216624  0.371209  0.544436  1
  O  O22  1  0.987496  0.482852  0.931559  1
  O  O23  1  0.491624  0.046625  0.163240  1
  O  O24  1  0.245225  0.895947  0.415665  1
  O  O25  1  0.482852  0.931559  0.987496  1
  O  O26  1  0.046625  0.163240  0.491624  1
  O  O27  1  0.745225  0.915665  0.395947  1
  O  O28  1  0.982852  0.487496  0.431559  1
  O  O29  1  0.395947  0.745225  0.915665  1
  O  O30  1  0.371209  0.544436  0.216624  1
  O  O31  1  0.415665  0.245225  0.895947  1
  O  O32  1  0.546625  0.991624  0.663240  1
  O  O33  1  0.544436  0.216624  0.371209  1
  O  O34  1  0.431559  0.982852  0.487496  1
  O  O35  1  0.716624  0.044436  0.871209  1
  O  O36  1  0.487496  0.431559  0.982852  1
  O  O37  1  0.931559  0.987496  0.482852  1
  O  O38  1  0.044436  0.871209  0.716624  1
  O  O39  1  0.163240  0.491624  0.046625  1
