# generated using pymatgen
data_TlNO3
_symmetry_space_group_name_H-M   'P 1'
_cell_length_a   10.58512154
_cell_length_b   10.58512154
_cell_length_c   7.59971882
_cell_angle_alpha   90.00000000
_cell_angle_beta   90.00000000
_cell_angle_gamma   120.00000000
_symmetry_Int_Tables_number   1
_chemical_formula_structural   TlNO3
_chemical_formula_sum   'Tl9 N9 O27'
_cell_volume   737.42839064
_cell_formula_units_Z   9
loop_
 _symmetry_equiv_pos_site_id
 _symmetry_equiv_pos_as_xyz
  1  'x, y, z'
loop_
 _atom_site_type_symbol
 _atom_site_label
 _atom_site_symmetry_multiplicity
 _atom_site_fract_x
 _atom_site_fract_y
 _atom_site_fract_z
 _atom_site_occupancy
  Tl  Tl0  1  0.114244  0.217035  0.983706  1
  Tl  Tl1  1  0.445026  0.222131  0.282597  1
  Tl  Tl2  1  0.429380  0.883978  0.952146  1
  Tl  Tl3  1  0.454598  0.570620  0.618813  1
  Tl  Tl4  1  0.777869  0.222895  0.615930  1
  Tl  Tl5  1  0.782965  0.897208  0.317039  1
  Tl  Tl6  1  0.777105  0.554974  0.949264  1
  Tl  Tl7  1  0.116022  0.545402  0.285480  1
  Tl  Tl8  1  0.102792  0.885756  0.650373  1
  N  N9  1  0.797241  0.540178  0.440267  1
  N  N10  1  0.459822  0.257064  0.773601  1
  N  N11  1  0.742936  0.202759  0.106934  1
  N  N12  1  0.794103  0.889200  0.837882  1
  N  N13  1  0.095097  0.205897  0.504549  1
  N  N14  1  0.433809  0.561645  0.097017  1
  N  N15  1  0.438355  0.872164  0.430350  1
  N  N16  1  0.110800  0.904903  0.171215  1
  N  N17  1  0.127836  0.566191  0.763683  1
  O  O18  1  0.228940  0.257888  0.536358  1
  O  O19  1  0.347915  0.909450  0.379064  1
  O  O20  1  0.068245  0.588926  0.894295  1
  O  O21  1  0.050606  0.248030  0.374639  1
  O  O22  1  0.520681  0.931755  0.560962  1
  O  O23  1  0.425440  0.311040  0.902378  1
  O  O24  1  0.446265  0.770854  0.347270  1
  O  O25  1  0.655618  0.217497  0.003435  1
  O  O26  1  0.725518  0.603418  0.413353  1
  O  O27  1  0.688960  0.114400  0.235711  1
  O  O28  1  0.561879  0.344382  0.670101  1
  O  O29  1  0.106884  0.999993  0.272260  1
  O  O30  1  0.000007  0.106891  0.605593  1
  O  O31  1  0.561535  0.652085  0.045730  1
  O  O32  1  0.197424  0.949394  0.041306  1
  O  O33  1  0.782503  0.438121  0.336768  1
  O  O34  1  0.028948  0.771060  0.203024  1
  O  O35  1  0.396582  0.122099  0.746686  1
  O  O36  1  0.751970  0.802576  0.707972  1
  O  O37  1  0.742112  0.971052  0.869691  1
  O  O38  1  0.090550  0.438465  0.712397  1
  O  O39  1  0.229146  0.675411  0.680604  1
  O  O40  1  0.893109  0.893116  0.938927  1
  O  O41  1  0.885600  0.574560  0.569045  1
  O  O42  1  0.411074  0.479319  0.227628  1
  O  O43  1  0.877901  0.274482  0.080019  1
  O  O44  1  0.324589  0.553735  0.013937  1
