# generated using pymatgen
data_Sb(S8I)3
_symmetry_space_group_name_H-M   'P 1'
_cell_length_a   15.25233771
_cell_length_b   15.25233771
_cell_length_c   15.25233771
_cell_angle_alpha   118.77501593
_cell_angle_beta   118.77501593
_cell_angle_gamma   118.77501593
_symmetry_Int_Tables_number   1
_chemical_formula_structural   Sb(S8I)3
_chemical_formula_sum   'Sb1 S24 I3'
_cell_volume   1014.55837154
_cell_formula_units_Z   1
loop_
 _symmetry_equiv_pos_site_id
 _symmetry_equiv_pos_as_xyz
  1  'x, y, z'
loop_
 _atom_site_type_symbol
 _atom_site_label
 _atom_site_symmetry_multiplicity
 _atom_site_fract_x
 _atom_site_fract_y
 _atom_site_fract_z
 _atom_site_occupancy
  Sb  Sb0  1  0.278192  0.278192  0.278192  1
  S  S1  1  0.608523  0.608523  0.014309  1
  S  S2  1  0.608523  0.014309  0.608523  1
  S  S3  1  0.014309  0.608523  0.608523  1
  S  S4  1  0.841753  0.713776  0.231929  1
  S  S5  1  0.713776  0.231929  0.841753  1
  S  S6  1  0.231929  0.841753  0.713776  1
  S  S7  1  0.231929  0.713776  0.841753  1
  S  S8  1  0.713776  0.841753  0.231929  1
  S  S9  1  0.841753  0.231929  0.713776  1
  S  S10  1  0.630548  0.449449  0.102683  1
  S  S11  1  0.449449  0.102683  0.630548  1
  S  S12  1  0.102683  0.630548  0.449449  1
  S  S13  1  0.102683  0.449449  0.630548  1
  S  S14  1  0.449449  0.630548  0.102683  1
  S  S15  1  0.630548  0.102683  0.449449  1
  S  S16  1  0.744422  0.616299  0.356271  1
  S  S17  1  0.616299  0.356271  0.744422  1
  S  S18  1  0.356271  0.744422  0.616299  1
  S  S19  1  0.356271  0.616299  0.744422  1
  S  S20  1  0.616299  0.744422  0.356271  1
  S  S21  1  0.744422  0.356271  0.616299  1
  S  S22  1  0.470163  0.470163  0.189644  1
  S  S23  1  0.470163  0.189644  0.470163  1
  S  S24  1  0.189644  0.470163  0.470163  1
  I  I25  1  0.957960  0.957960  0.117403  1
  I  I26  1  0.957960  0.117403  0.957960  1
  I  I27  1  0.117403  0.957960  0.957960  1
