# generated using pymatgen
data_Li3Sc(BO3)2
_symmetry_space_group_name_H-M   'P 1'
_cell_length_a   4.82328668
_cell_length_b   6.00037429
_cell_length_c   9.50381029
_cell_angle_alpha   90.00000000
_cell_angle_beta   119.82898619
_cell_angle_gamma   90.00000000
_symmetry_Int_Tables_number   1
_chemical_formula_structural   Li3Sc(BO3)2
_chemical_formula_sum   'Li6 Sc2 B4 O12'
_cell_volume   238.61383912
_cell_formula_units_Z   2
loop_
 _symmetry_equiv_pos_site_id
 _symmetry_equiv_pos_as_xyz
  1  'x, y, z'
loop_
 _atom_site_type_symbol
 _atom_site_label
 _atom_site_symmetry_multiplicity
 _atom_site_fract_x
 _atom_site_fract_y
 _atom_site_fract_z
 _atom_site_occupancy
  Li  Li0  1  0.687240  0.250367  0.202779  1
  Li  Li1  1  0.687240  0.249633  0.702779  1
  Li  Li2  1  0.312760  0.750367  0.297221  1
  Li  Li3  1  0.312760  0.749633  0.797221  1
  Li  Li4  1  0.000000  0.500000  0.000000  1
  Li  Li5  1  0.000000  0.000000  0.500000  1
  Sc  Sc6  1  0.000000  0.500000  0.500000  1
  Sc  Sc7  1  0.000000  0.000000  0.000000  1
  B  B8  1  0.610370  0.804981  0.625291  1
  B  B9  1  0.389630  0.304981  0.874709  1
  B  B10  1  0.389630  0.195019  0.374709  1
  B  B11  1  0.610370  0.695019  0.125291  1
  O  O12  1  0.633319  0.586477  0.260111  1
  O  O13  1  0.633319  0.913523  0.760111  1
  O  O14  1  0.691508  0.253291  0.500994  1
  O  O15  1  0.308492  0.753291  0.999006  1
  O  O16  1  0.124122  0.237701  0.390035  1
  O  O17  1  0.366681  0.413523  0.739889  1
  O  O18  1  0.308492  0.746709  0.499006  1
  O  O19  1  0.691508  0.246709  0.000994  1
  O  O20  1  0.366681  0.086477  0.239889  1
  O  O21  1  0.124122  0.262299  0.890035  1
  O  O22  1  0.875878  0.737701  0.109965  1
  O  O23  1  0.875878  0.762299  0.609965  1
