# generated using pymatgen
data_S
_symmetry_space_group_name_H-M   'P 1'
_cell_length_a   8.26149719
_cell_length_b   12.49819273
_cell_length_c   22.76662269
_cell_angle_alpha   90.00000000
_cell_angle_beta   90.00000000
_cell_angle_gamma   90.00000000
_symmetry_Int_Tables_number   1
_chemical_formula_structural   S
_chemical_formula_sum   S72
_cell_volume   2350.73994435
_cell_formula_units_Z   72
loop_
 _symmetry_equiv_pos_site_id
 _symmetry_equiv_pos_as_xyz
  1  'x, y, z'
loop_
 _atom_site_type_symbol
 _atom_site_label
 _atom_site_symmetry_multiplicity
 _atom_site_fract_x
 _atom_site_fract_y
 _atom_site_fract_z
 _atom_site_occupancy
  S  S0  1  0.020789  0.699438  0.766172  1
  S  S1  1  0.654858  0.462224  0.757583  1
  S  S2  1  0.877310  0.563798  0.605250  1
  S  S3  1  0.472174  0.566242  0.732582  1
  S  S4  1  0.154858  0.037776  0.242417  1
  S  S5  1  0.340293  0.696179  0.260619  1
  S  S6  1  0.345142  0.962224  0.742417  1
  S  S7  1  0.104685  0.799152  0.106607  1
  S  S8  1  0.127473  0.496054  0.156646  1
  S  S9  1  0.527826  0.066242  0.767418  1
  S  S10  1  0.470982  0.800955  0.434594  1
  S  S11  1  0.622690  0.436202  0.105250  1
  S  S12  1  0.529018  0.300955  0.065406  1
  S  S13  1  0.520789  0.800562  0.233828  1
  S  S14  1  0.659707  0.196179  0.239381  1
  S  S15  1  0.025450  0.413344  0.087558  1
  S  S16  1  0.343256  0.935909  0.597648  1
  S  S17  1  0.159894  0.329681  0.905311  1
  S  S18  1  0.319553  0.008941  0.942125  1
  S  S19  1  0.006912  0.678027  0.911134  1
  S  S20  1  0.525450  0.086656  0.912442  1
  S  S21  1  0.198860  0.255745  0.559160  1
  S  S22  1  0.840106  0.829681  0.594689  1
  S  S23  1  0.482297  0.062584  0.567780  1
  S  S24  1  0.377310  0.936202  0.394750  1
  S  S25  1  0.474550  0.586656  0.587558  1
  S  S26  1  0.029018  0.199045  0.934594  1
  S  S27  1  0.438603  0.873029  0.673724  1
  S  S28  1  0.840293  0.803821  0.739381  1
  S  S29  1  0.561397  0.373029  0.826276  1
  S  S30  1  0.845142  0.537776  0.257583  1
  S  S31  1  0.438135  0.608863  0.329258  1
  S  S32  1  0.113952  0.761329  0.843229  1
  S  S33  1  0.061865  0.391137  0.829258  1
  S  S34  1  0.493088  0.321973  0.411134  1
  S  S35  1  0.122690  0.063798  0.894750  1
  S  S36  1  0.979211  0.199438  0.733828  1
  S  S37  1  0.613952  0.738671  0.156771  1
  S  S38  1  0.993088  0.178027  0.588866  1
  S  S39  1  0.819553  0.491059  0.057875  1
  S  S40  1  0.938603  0.626971  0.326276  1
  S  S41  1  0.938135  0.891137  0.670742  1
  S  S42  1  0.895315  0.299152  0.393393  1
  S  S43  1  0.886048  0.261329  0.656771  1
  S  S44  1  0.061397  0.126971  0.173724  1
  S  S45  1  0.801140  0.755745  0.940840  1
  S  S46  1  0.698860  0.244255  0.440840  1
  S  S47  1  0.386048  0.238671  0.343229  1
  S  S48  1  0.970982  0.699045  0.565406  1
  S  S49  1  0.627473  0.003946  0.843354  1
  S  S50  1  0.872527  0.996054  0.343354  1
  S  S51  1  0.301140  0.744255  0.059160  1
  S  S52  1  0.517703  0.562584  0.932220  1
  S  S53  1  0.680447  0.508941  0.557875  1
  S  S54  1  0.159707  0.303821  0.760619  1
  S  S55  1  0.843256  0.564091  0.402352  1
  S  S56  1  0.982297  0.437416  0.432220  1
  S  S57  1  0.656744  0.435909  0.902352  1
  S  S58  1  0.561865  0.108863  0.170742  1
  S  S59  1  0.479211  0.300562  0.266172  1
  S  S60  1  0.017703  0.937416  0.067780  1
  S  S61  1  0.972174  0.933758  0.267418  1
  S  S62  1  0.027826  0.433758  0.232582  1
  S  S63  1  0.180447  0.991059  0.442125  1
  S  S64  1  0.659894  0.170319  0.094689  1
  S  S65  1  0.506912  0.821973  0.088866  1
  S  S66  1  0.395315  0.200848  0.606607  1
  S  S67  1  0.340106  0.670319  0.405311  1
  S  S68  1  0.156744  0.064091  0.097648  1
  S  S69  1  0.604685  0.700848  0.893393  1
  S  S70  1  0.974550  0.913344  0.412442  1
  S  S71  1  0.372527  0.503946  0.656646  1
