# generated using pymatgen
data_DyCu(MoO4)2
_symmetry_space_group_name_H-M   'P 1'
_cell_length_a   9.88392986
_cell_length_b   10.28195852
_cell_length_c   14.71668399
_cell_angle_alpha   90.00000000
_cell_angle_beta   90.00000000
_cell_angle_gamma   90.00000000
_symmetry_Int_Tables_number   1
_chemical_formula_structural   DyCu(MoO4)2
_chemical_formula_sum   'Dy8 Cu8 Mo16 O64'
_cell_volume   1495.60003526
_cell_formula_units_Z   8
loop_
 _symmetry_equiv_pos_site_id
 _symmetry_equiv_pos_as_xyz
  1  'x, y, z'
loop_
 _atom_site_type_symbol
 _atom_site_label
 _atom_site_symmetry_multiplicity
 _atom_site_fract_x
 _atom_site_fract_y
 _atom_site_fract_z
 _atom_site_occupancy
  Dy  Dy0  1  0.778542  0.034513  0.896172  1
  Dy  Dy1  1  0.778542  0.534513  0.603828  1
  Dy  Dy2  1  0.278542  0.465487  0.896172  1
  Dy  Dy3  1  0.721458  0.034513  0.396172  1
  Dy  Dy4  1  0.221458  0.965487  0.103828  1
  Dy  Dy5  1  0.221458  0.465487  0.396172  1
  Dy  Dy6  1  0.721458  0.534513  0.103828  1
  Dy  Dy7  1  0.278542  0.965487  0.603828  1
  Cu  Cu8  1  0.188127  0.316768  0.197587  1
  Cu  Cu9  1  0.688127  0.683232  0.302413  1
  Cu  Cu10  1  0.311873  0.816768  0.802413  1
  Cu  Cu11  1  0.811873  0.183232  0.697587  1
  Cu  Cu12  1  0.811873  0.683232  0.802413  1
  Cu  Cu13  1  0.311873  0.316768  0.697587  1
  Cu  Cu14  1  0.688127  0.183232  0.197587  1
  Cu  Cu15  1  0.188127  0.816768  0.302413  1
  Mo  Mo16  1  0.667312  0.897047  0.653029  1
  Mo  Mo17  1  0.000633  0.781138  0.443100  1
  Mo  Mo18  1  0.500633  0.218862  0.056900  1
  Mo  Mo19  1  0.499367  0.281138  0.556900  1
  Mo  Mo20  1  0.999367  0.718862  0.943100  1
  Mo  Mo21  1  0.999367  0.218862  0.556900  1
  Mo  Mo22  1  0.499367  0.781138  0.943100  1
  Mo  Mo23  1  0.500633  0.718862  0.443100  1
  Mo  Mo24  1  0.000633  0.281138  0.056900  1
  Mo  Mo25  1  0.167312  0.102953  0.846971  1
  Mo  Mo26  1  0.832688  0.397047  0.346971  1
  Mo  Mo27  1  0.332688  0.602953  0.153029  1
  Mo  Mo28  1  0.667312  0.397047  0.846971  1
  Mo  Mo29  1  0.832688  0.897047  0.153029  1
  Mo  Mo30  1  0.167312  0.602953  0.653029  1
  Mo  Mo31  1  0.332688  0.102953  0.346971  1
  O  O32  1  0.107227  0.328539  0.497150  1
  O  O33  1  0.607227  0.671461  0.002850  1
  O  O34  1  0.392773  0.828539  0.502850  1
  O  O35  1  0.892773  0.171461  0.997150  1
  O  O36  1  0.892773  0.671461  0.502850  1
  O  O37  1  0.392773  0.328539  0.997150  1
  O  O38  1  0.607227  0.171461  0.497150  1
  O  O39  1  0.107227  0.828539  0.002850  1
  O  O40  1  0.243719  0.989081  0.271547  1
  O  O41  1  0.743719  0.010919  0.228453  1
  O  O42  1  0.256281  0.489081  0.728453  1
  O  O43  1  0.756281  0.510919  0.771547  1
  O  O44  1  0.756281  0.010919  0.728453  1
  O  O45  1  0.256281  0.989081  0.771547  1
  O  O46  1  0.743719  0.510919  0.271547  1
  O  O47  1  0.243719  0.489081  0.228453  1
  O  O48  1  0.223951  0.766682  0.679500  1
  O  O49  1  0.723951  0.233318  0.820500  1
  O  O50  1  0.276049  0.266682  0.320500  1
  O  O51  1  0.776049  0.733318  0.179500  1
  O  O52  1  0.776049  0.233318  0.320500  1
  O  O53  1  0.276049  0.766682  0.179500  1
  O  O54  1  0.723951  0.733318  0.679500  1
  O  O55  1  0.891549  0.320983  0.632723  1
  O  O56  1  0.223951  0.266682  0.820500  1
  O  O57  1  0.294461  0.572718  0.036946  1
  O  O58  1  0.705539  0.927282  0.536946  1
  O  O59  1  0.205539  0.072718  0.963054  1
  O  O60  1  0.205539  0.572718  0.536946  1
  O  O61  1  0.705539  0.427282  0.963054  1
  O  O62  1  0.294461  0.072718  0.463054  1
  O  O63  1  0.794461  0.927282  0.036946  1
  O  O64  1  0.900529  0.628726  0.022365  1
  O  O65  1  0.400529  0.371274  0.477635  1
  O  O66  1  0.599471  0.128726  0.977635  1
  O  O67  1  0.099471  0.871274  0.522365  1
  O  O68  1  0.099471  0.371274  0.977635  1
  O  O69  1  0.599471  0.628726  0.522365  1
  O  O70  1  0.400529  0.871274  0.022365  1
  O  O71  1  0.900529  0.128726  0.477635  1
  O  O72  1  0.895945  0.388247  0.123307  1
  O  O73  1  0.395945  0.611753  0.376693  1
  O  O74  1  0.604055  0.888247  0.876693  1
  O  O75  1  0.104055  0.111753  0.623307  1
  O  O76  1  0.104055  0.611753  0.876693  1
  O  O77  1  0.604055  0.388247  0.623307  1
  O  O78  1  0.395945  0.111753  0.123307  1
  O  O79  1  0.895945  0.888247  0.376693  1
  O  O80  1  0.989218  0.088206  0.831354  1
  O  O81  1  0.489218  0.911794  0.668646  1
  O  O82  1  0.510782  0.588206  0.168646  1
  O  O83  1  0.010782  0.411794  0.331354  1
  O  O84  1  0.010782  0.911794  0.168646  1
  O  O85  1  0.510782  0.088206  0.331354  1
  O  O86  1  0.489218  0.411794  0.831354  1
  O  O87  1  0.989218  0.588206  0.668646  1
  O  O88  1  0.891549  0.820983  0.867277  1
  O  O89  1  0.391549  0.179017  0.632723  1
  O  O90  1  0.608451  0.320983  0.132723  1
  O  O91  1  0.108451  0.679017  0.367277  1
  O  O92  1  0.108451  0.179017  0.132723  1
  O  O93  1  0.608451  0.820983  0.367277  1
  O  O94  1  0.391549  0.679017  0.867277  1
  O  O95  1  0.794461  0.427282  0.463054  1
