# generated using pymatgen
data_RbReCl4
_symmetry_space_group_name_H-M   'P 1'
_cell_length_a   9.34086562
_cell_length_b   9.34086562
_cell_length_c   12.49848275
_cell_angle_alpha   90.00000000
_cell_angle_beta   90.00000000
_cell_angle_gamma   108.84977422
_symmetry_Int_Tables_number   1
_chemical_formula_structural   RbReCl4
_chemical_formula_sum   'Rb6 Re6 Cl24'
_cell_volume   1032.02929089
_cell_formula_units_Z   6
loop_
 _symmetry_equiv_pos_site_id
 _symmetry_equiv_pos_as_xyz
  1  'x, y, z'
loop_
 _atom_site_type_symbol
 _atom_site_label
 _atom_site_symmetry_multiplicity
 _atom_site_fract_x
 _atom_site_fract_y
 _atom_site_fract_z
 _atom_site_occupancy
  Rb  Rb0  1  0.246280  0.246280  0.000000  1
  Rb  Rb1  1  0.747782  0.252218  0.250000  1
  Rb  Rb2  1  0.246280  0.246280  0.500000  1
  Rb  Rb3  1  0.753720  0.753720  0.500000  1
  Rb  Rb4  1  0.753720  0.753720  0.000000  1
  Rb  Rb5  1  0.252218  0.747782  0.750000  1
  Re  Re6  1  0.211514  0.788486  0.348843  1
  Re  Re7  1  0.211514  0.788486  0.151157  1
  Re  Re8  1  0.788486  0.211514  0.651157  1
  Re  Re9  1  0.352507  0.647493  0.250000  1
  Re  Re10  1  0.788486  0.211514  0.848843  1
  Re  Re11  1  0.647493  0.352507  0.750000  1
  Cl  Cl12  1  0.127139  0.872861  0.531698  1
  Cl  Cl13  1  0.524413  0.475587  0.250000  1
  Cl  Cl14  1  0.406401  0.013946  0.122923  1
  Cl  Cl15  1  0.648658  0.351342  0.554995  1
  Cl  Cl16  1  0.013946  0.406401  0.622923  1
  Cl  Cl17  1  0.593599  0.986054  0.877077  1
  Cl  Cl18  1  0.648658  0.351342  0.945005  1
  Cl  Cl19  1  0.013946  0.406401  0.877077  1
  Cl  Cl20  1  0.986054  0.593599  0.377077  1
  Cl  Cl21  1  0.872861  0.127139  0.468302  1
  Cl  Cl22  1  0.169949  0.407177  0.250000  1
  Cl  Cl23  1  0.475587  0.524413  0.750000  1
  Cl  Cl24  1  0.593599  0.986054  0.622923  1
  Cl  Cl25  1  0.127139  0.872861  0.968302  1
  Cl  Cl26  1  0.926055  0.073945  0.750000  1
  Cl  Cl27  1  0.986054  0.593599  0.122923  1
  Cl  Cl28  1  0.592823  0.830051  0.250000  1
  Cl  Cl29  1  0.872861  0.127139  0.031698  1
  Cl  Cl30  1  0.406401  0.013946  0.377077  1
  Cl  Cl31  1  0.407177  0.169949  0.750000  1
  Cl  Cl32  1  0.073945  0.926055  0.250000  1
  Cl  Cl33  1  0.830051  0.592823  0.750000  1
  Cl  Cl34  1  0.351342  0.648658  0.445005  1
  Cl  Cl35  1  0.351342  0.648658  0.054995  1
