# generated using pymatgen
data_LiFe(PO3)3
_symmetry_space_group_name_H-M   'P 1'
_cell_length_a   6.58894880
_cell_length_b   6.82575162
_cell_length_c   7.38980513
_cell_angle_alpha   80.36579925
_cell_angle_beta   86.56884668
_cell_angle_gamma   87.89786762
_symmetry_Int_Tables_number   1
_chemical_formula_structural   LiFe(PO3)3
_chemical_formula_sum   'Li2 Fe2 P6 O18'
_cell_volume   326.95815286
_cell_formula_units_Z   2
loop_
 _symmetry_equiv_pos_site_id
 _symmetry_equiv_pos_as_xyz
  1  'x, y, z'
loop_
 _atom_site_type_symbol
 _atom_site_label
 _atom_site_symmetry_multiplicity
 _atom_site_fract_x
 _atom_site_fract_y
 _atom_site_fract_z
 _atom_site_occupancy
  Li  Li0  1  0.142358  0.551670  0.184795  1
  Li  Li1  1  0.857642  0.448330  0.815205  1
  Fe  Fe2  1  0.825889  0.925829  0.859320  1
  Fe  Fe3  1  0.174111  0.074171  0.140680  1
  P  P4  1  0.146600  0.212562  0.552700  1
  P  P5  1  0.679568  0.130843  0.223939  1
  P  P6  1  0.853400  0.787438  0.447300  1
  P  P7  1  0.635236  0.576777  0.198864  1
  P  P8  1  0.364764  0.423223  0.801136  1
  P  P9  1  0.320432  0.869157  0.776061  1
  O  O10  1  0.420095  0.617188  0.157734  1
  O  O11  1  0.249355  0.991486  0.582596  1
  O  O12  1  0.524527  0.935968  0.813481  1
  O  O13  1  0.750645  0.008514  0.417404  1
  O  O14  1  0.851068  0.108942  0.079234  1
  O  O15  1  0.579905  0.382812  0.842266  1
  O  O16  1  0.148932  0.891058  0.920766  1
  O  O17  1  0.957980  0.217916  0.677875  1
  O  O18  1  0.676296  0.344137  0.279636  1
  O  O19  1  0.475473  0.064032  0.186519  1
  O  O20  1  0.323180  0.341054  0.612829  1
  O  O21  1  0.803931  0.640406  0.053729  1
  O  O22  1  0.676820  0.658946  0.387171  1
  O  O23  1  0.868488  0.729291  0.652200  1
  O  O24  1  0.042020  0.782084  0.322125  1
  O  O25  1  0.323704  0.655863  0.720364  1
  O  O26  1  0.196069  0.359594  0.946271  1
  O  O27  1  0.131512  0.270709  0.347800  1
