# generated using pymatgen
data_KSmP3HO10
_symmetry_space_group_name_H-M   'P 1'
_cell_length_a   7.04099447
_cell_length_b   7.81925374
_cell_length_c   8.66897241
_cell_angle_alpha   73.73011514
_cell_angle_beta   73.58332205
_cell_angle_gamma   82.56454637
_symmetry_Int_Tables_number   1
_chemical_formula_structural   KSmP3HO10
_chemical_formula_sum   'K2 Sm2 P6 H2 O20'
_cell_volume   438.82685438
_cell_formula_units_Z   2
loop_
 _symmetry_equiv_pos_site_id
 _symmetry_equiv_pos_as_xyz
  1  'x, y, z'
loop_
 _atom_site_type_symbol
 _atom_site_label
 _atom_site_symmetry_multiplicity
 _atom_site_fract_x
 _atom_site_fract_y
 _atom_site_fract_z
 _atom_site_occupancy
  K  K0  1  0.788721  0.284957  0.464064  1
  K  K1  1  0.211279  0.715043  0.535936  1
  Sm  Sm2  1  0.773006  0.369386  0.989219  1
  Sm  Sm3  1  0.226994  0.630614  0.010781  1
  P  P4  1  0.672440  0.692212  0.157507  1
  P  P5  1  0.327560  0.307788  0.842493  1
  P  P6  1  0.855347  0.960792  0.861150  1
  P  P7  1  0.144653  0.039208  0.138850  1
  P  P8  1  0.673166  0.769402  0.686203  1
  P  P9  1  0.326834  0.230598  0.313797  1
  H  H10  1  0.688623  0.800544  0.421326  1
  H  H11  1  0.311377  0.199456  0.578674  1
  O  O12  1  0.589348  0.702148  0.335350  1
  O  O13  1  0.410652  0.297852  0.664650  1
  O  O14  1  0.534212  0.629850  0.077411  1
  O  O15  1  0.465788  0.370150  0.922589  1
  O  O16  1  0.865881  0.572305  0.127281  1
  O  O17  1  0.134119  0.427695  0.872719  1
  O  O18  1  0.722910  0.896639  0.049669  1
  O  O19  1  0.277090  0.103361  0.950331  1
  O  O20  1  0.955450  0.153355  0.163509  1
  O  O21  1  0.044550  0.846645  0.836491  1
  O  O22  1  0.864230  0.159968  0.826369  1
  O  O23  1  0.135770  0.840032  0.173631  1
  O  O24  1  0.721461  0.935394  0.747172  1
  O  O25  1  0.278539  0.064606  0.252828  1
  O  O26  1  0.548138  0.251213  0.255758  1
  O  O27  1  0.451862  0.748787  0.744242  1
  O  O28  1  0.805218  0.606825  0.740912  1
  O  O29  1  0.194782  0.393175  0.259088  1
  O  O30  1  0.745944  0.854160  0.493413  1
  O  O31  1  0.254056  0.145840  0.506587  1
