# generated using pymatgen
data_Na6PbO5
_symmetry_space_group_name_H-M   'P 1'
_cell_length_a   6.30155061
_cell_length_b   6.30155061
_cell_length_c   6.30155061
_cell_angle_alpha   103.19806616
_cell_angle_beta   103.19806616
_cell_angle_gamma   122.91293453
_symmetry_Int_Tables_number   1
_chemical_formula_structural   Na6PbO5
_chemical_formula_sum   'Na6 Pb1 O5'
_cell_volume   184.53584219
_cell_formula_units_Z   1
loop_
 _symmetry_equiv_pos_site_id
 _symmetry_equiv_pos_as_xyz
  1  'x, y, z'
loop_
 _atom_site_type_symbol
 _atom_site_label
 _atom_site_symmetry_multiplicity
 _atom_site_fract_x
 _atom_site_fract_y
 _atom_site_fract_z
 _atom_site_occupancy
  Na  Na0  1  0.699946  0.699946  0.408455  1
  Na  Na1  1  0.699946  0.291491  0.000000  1
  Na  Na2  1  0.291491  0.699946  1.000000  1
  Na  Na3  1  0.752155  0.252155  0.500000  1
  Na  Na4  1  0.291491  0.291491  0.591545  1
  Na  Na5  1  0.252155  0.752155  0.500000  1
  Pb  Pb6  1  0.059197  0.059197  0.000000  1
  O  O7  1  0.000673  0.279218  0.278544  1
  O  O8  1  0.420926  0.420926  0.000000  1
  O  O9  1  0.722129  0.000673  0.721456  1
  O  O10  1  0.000673  0.722129  0.721456  1
  O  O11  1  0.279218  0.000673  0.278544  1
