# generated using pymatgen
data_K4Nb6O17
_symmetry_space_group_name_H-M   'P 1'
_cell_length_a   6.60406809
_cell_length_b   7.93895238
_cell_length_c   33.70333568
_cell_angle_alpha   90.00000000
_cell_angle_beta   90.00000000
_cell_angle_gamma   90.00000000
_symmetry_Int_Tables_number   1
_chemical_formula_structural   K4Nb6O17
_chemical_formula_sum   'K16 Nb24 O68'
_cell_volume   1767.04506376
_cell_formula_units_Z   4
loop_
 _symmetry_equiv_pos_site_id
 _symmetry_equiv_pos_as_xyz
  1  'x, y, z'
loop_
 _atom_site_type_symbol
 _atom_site_label
 _atom_site_symmetry_multiplicity
 _atom_site_fract_x
 _atom_site_fract_y
 _atom_site_fract_z
 _atom_site_occupancy
  K  K0  1  0.846768  0.755459  0.717567  1
  K  K1  1  0.348469  0.754348  0.781124  1
  K  K2  1  0.219442  0.259534  0.980665  1
  K  K3  1  0.669338  0.256182  0.916861  1
  K  K4  1  0.780558  0.759534  0.019335  1
  K  K5  1  0.169338  0.756182  0.583139  1
  K  K6  1  0.719442  0.759534  0.519335  1
  K  K7  1  0.346768  0.255459  0.782433  1
  K  K8  1  0.330662  0.756182  0.083139  1
  K  K9  1  0.653232  0.755459  0.217567  1
  K  K10  1  0.153232  0.255459  0.282433  1
  K  K11  1  0.151531  0.754348  0.281124  1
  K  K12  1  0.651531  0.254348  0.218876  1
  K  K13  1  0.280558  0.259534  0.480665  1
  K  K14  1  0.848469  0.254348  0.718876  1
  K  K15  1  0.830662  0.256182  0.416861  1
  Nb  Nb16  1  0.138879  0.257952  0.094488  1
  Nb  Nb17  1  0.182362  0.760366  0.451345  1
  Nb  Nb18  1  0.735976  0.514312  0.625958  1
  Nb  Nb19  1  0.264024  0.014312  0.374042  1
  Nb  Nb20  1  0.705177  0.504002  0.325998  1
  Nb  Nb21  1  0.817638  0.260366  0.548655  1
  Nb  Nb22  1  0.235976  0.014312  0.874042  1
  Nb  Nb23  1  0.764024  0.514312  0.125958  1
  Nb  Nb24  1  0.682362  0.260366  0.048655  1
  Nb  Nb25  1  0.205177  0.004002  0.174002  1
  Nb  Nb26  1  0.738430  0.001152  0.625310  1
  Nb  Nb27  1  0.761570  0.001152  0.125310  1
  Nb  Nb28  1  0.361121  0.257952  0.594488  1
  Nb  Nb29  1  0.794823  0.504002  0.825998  1
  Nb  Nb30  1  0.317638  0.760366  0.951345  1
  Nb  Nb31  1  0.292544  0.508705  0.674414  1
  Nb  Nb32  1  0.861121  0.757952  0.905512  1
  Nb  Nb33  1  0.238430  0.501152  0.874690  1
  Nb  Nb34  1  0.294823  0.004002  0.674002  1
  Nb  Nb35  1  0.792544  0.008705  0.825586  1
  Nb  Nb36  1  0.707456  0.008705  0.325586  1
  Nb  Nb37  1  0.638879  0.757952  0.405512  1
  Nb  Nb38  1  0.261570  0.501152  0.374690  1
  Nb  Nb39  1  0.207456  0.508705  0.174414  1
  O  O40  1  0.875331  0.262481  0.496514  1
  O  O41  1  0.690844  0.021123  0.067698  1
  O  O42  1  0.587888  0.995845  0.391635  1
  O  O43  1  0.494213  0.009673  0.850731  1
  O  O44  1  0.784004  0.757998  0.119649  1
  O  O45  1  0.591783  0.008214  0.678677  1
  O  O46  1  0.505787  0.509673  0.149269  1
  O  O47  1  0.308281  0.997828  0.931907  1
  O  O48  1  0.287645  0.482120  0.225316  1
  O  O49  1  0.215996  0.257998  0.880351  1
  O  O50  1  0.909984  0.507231  0.179181  1
  O  O51  1  0.214973  0.257521  0.157043  1
  O  O52  1  0.773251  0.256740  0.831030  1
  O  O53  1  0.005787  0.009673  0.350731  1
  O  O54  1  0.890490  0.759637  0.429800  1
  O  O55  1  0.726749  0.256740  0.331030  1
  O  O56  1  0.908217  0.008214  0.178677  1
  O  O57  1  0.697392  0.258315  0.619523  1
  O  O58  1  0.714973  0.757521  0.342957  1
  O  O59  1  0.190844  0.521123  0.432302  1
  O  O60  1  0.590016  0.507231  0.679181  1
  O  O61  1  0.712355  0.982120  0.774684  1
  O  O62  1  0.496931  0.505326  0.851630  1
  O  O63  1  0.286334  0.031783  0.224804  1
  O  O64  1  0.912112  0.995845  0.891635  1
  O  O65  1  0.912532  0.519944  0.892005  1
  O  O66  1  0.514657  0.259006  0.545079  1
  O  O67  1  0.273251  0.756740  0.668970  1
  O  O68  1  0.412112  0.495845  0.608365  1
  O  O69  1  0.284004  0.257998  0.380351  1
  O  O70  1  0.787645  0.982120  0.274684  1
  O  O71  1  0.715996  0.757998  0.619649  1
  O  O72  1  0.996931  0.005326  0.648370  1
  O  O73  1  0.109510  0.259637  0.570200  1
  O  O74  1  0.808281  0.497828  0.568093  1
  O  O75  1  0.785027  0.757521  0.842957  1
  O  O76  1  0.985343  0.259006  0.045079  1
  O  O77  1  0.802608  0.258315  0.119523  1
  O  O78  1  0.375331  0.762481  0.003486  1
  O  O79  1  0.587468  0.519944  0.392005  1
  O  O80  1  0.213666  0.031783  0.724804  1
  O  O81  1  0.809156  0.021123  0.567698  1
  O  O82  1  0.090016  0.007231  0.820819  1
  O  O83  1  0.087468  0.019944  0.107995  1
  O  O84  1  0.014657  0.759006  0.954921  1
  O  O85  1  0.087888  0.495845  0.108365  1
  O  O86  1  0.624669  0.262481  0.996514  1
  O  O87  1  0.408217  0.508214  0.321323  1
  O  O88  1  0.197392  0.758315  0.880477  1
  O  O89  1  0.309156  0.521123  0.932302  1
  O  O90  1  0.390490  0.259637  0.070200  1
  O  O91  1  0.786334  0.531783  0.275196  1
  O  O92  1  0.212355  0.482120  0.725316  1
  O  O93  1  0.302608  0.758315  0.380477  1
  O  O94  1  0.285027  0.257521  0.657043  1
  O  O95  1  0.124669  0.762481  0.503486  1
  O  O96  1  0.503069  0.005326  0.148370  1
  O  O97  1  0.691719  0.497828  0.068093  1
  O  O98  1  0.003069  0.505326  0.351630  1
  O  O99  1  0.485343  0.759006  0.454921  1
  O  O100  1  0.412532  0.019944  0.607995  1
  O  O101  1  0.191719  0.997828  0.431907  1
  O  O102  1  0.609510  0.759637  0.929800  1
  O  O103  1  0.409984  0.007231  0.320819  1
  O  O104  1  0.713666  0.531783  0.775196  1
  O  O105  1  0.091783  0.508214  0.821323  1
  O  O106  1  0.226749  0.756740  0.168970  1
  O  O107  1  0.994213  0.509673  0.649269  1
