# generated using pymatgen
data_KZr6CCl15
_symmetry_space_group_name_H-M   'P 1'
_cell_length_a   9.91430944
_cell_length_b   14.13258296
_cell_length_c   18.88891569
_cell_angle_alpha   90.00000000
_cell_angle_beta   90.00000000
_cell_angle_gamma   90.00000000
_symmetry_Int_Tables_number   1
_chemical_formula_structural   KZr6CCl15
_chemical_formula_sum   'K4 Zr24 C4 Cl60'
_cell_volume   2646.61665644
_cell_formula_units_Z   4
loop_
 _symmetry_equiv_pos_site_id
 _symmetry_equiv_pos_as_xyz
  1  'x, y, z'
loop_
 _atom_site_type_symbol
 _atom_site_label
 _atom_site_symmetry_multiplicity
 _atom_site_fract_x
 _atom_site_fract_y
 _atom_site_fract_z
 _atom_site_occupancy
  K  K0  1  0.668996  0.252588  0.750000  1
  K  K1  1  0.668996  0.747412  0.750000  1
  K  K2  1  0.331004  0.252588  0.250000  1
  K  K3  1  0.331004  0.747412  0.250000  1
  Zr  Zr4  1  0.345190  0.384732  0.970250  1
  Zr  Zr5  1  0.158391  0.115551  0.836498  1
  Zr  Zr6  1  0.841609  0.884449  0.163502  1
  Zr  Zr7  1  0.654810  0.615268  0.470250  1
  Zr  Zr8  1  0.654810  0.384732  0.470250  1
  Zr  Zr9  1  0.654810  0.384732  0.029750  1
  Zr  Zr10  1  0.580229  0.500000  0.612854  1
  Zr  Zr11  1  0.345190  0.384732  0.529750  1
  Zr  Zr12  1  0.345190  0.615268  0.529750  1
  Zr  Zr13  1  0.654810  0.615268  0.029750  1
  Zr  Zr14  1  0.841609  0.884449  0.336498  1
  Zr  Zr15  1  0.158391  0.115551  0.663502  1
  Zr  Zr16  1  0.580229  0.500000  0.887146  1
  Zr  Zr17  1  0.928479  0.000000  0.750000  1
  Zr  Zr18  1  0.841609  0.115551  0.163502  1
  Zr  Zr19  1  0.419771  0.500000  0.112854  1
  Zr  Zr20  1  0.345190  0.615268  0.970250  1
  Zr  Zr21  1  0.158391  0.884449  0.663502  1
  Zr  Zr22  1  0.071521  0.000000  0.250000  1
  Zr  Zr23  1  0.614337  0.000000  0.250000  1
  Zr  Zr24  1  0.419771  0.500000  0.387146  1
  Zr  Zr25  1  0.841609  0.115551  0.336498  1
  Zr  Zr26  1  0.385663  0.000000  0.750000  1
  Zr  Zr27  1  0.158391  0.884449  0.836498  1
  C  C28  1  0.156647  0.000000  0.750000  1
  C  C29  1  0.500000  0.500000  0.500000  1
  C  C30  1  0.500000  0.500000  0.000000  1
  C  C31  1  0.843353  0.000000  0.250000  1
  Cl  Cl32  1  0.415340  0.125711  0.655506  1
  Cl  Cl33  1  0.500000  0.246878  0.500000  1
  Cl  Cl34  1  0.164215  0.250684  0.936050  1
  Cl  Cl35  1  0.500000  0.753122  0.500000  1
  Cl  Cl36  1  0.584660  0.874289  0.344494  1
  Cl  Cl37  1  0.580563  0.625318  0.158860  1
  Cl  Cl38  1  0.839904  0.500000  0.065460  1
  Cl  Cl39  1  0.099829  0.126777  0.345689  1
  Cl  Cl40  1  0.759489  0.627507  0.594539  1
  Cl  Cl41  1  0.900171  0.126777  0.845689  1
  Cl  Cl42  1  0.842062  0.000000  0.060182  1
  Cl  Cl43  1  0.240511  0.372493  0.405461  1
  Cl  Cl44  1  0.500000  0.246878  0.000000  1
  Cl  Cl45  1  0.160096  0.500000  0.934540  1
  Cl  Cl46  1  0.320173  0.500000  0.250000  1
  Cl  Cl47  1  0.500000  0.753122  0.000000  1
  Cl  Cl48  1  0.157938  0.000000  0.560182  1
  Cl  Cl49  1  0.419437  0.374682  0.658860  1
  Cl  Cl50  1  0.415340  0.874289  0.844494  1
  Cl  Cl51  1  0.240511  0.372493  0.094539  1
  Cl  Cl52  1  0.842062  0.000000  0.439818  1
  Cl  Cl53  1  0.900171  0.873223  0.845689  1
  Cl  Cl54  1  0.099829  0.126777  0.154311  1
  Cl  Cl55  1  0.839904  0.500000  0.434540  1
  Cl  Cl56  1  0.580563  0.625318  0.341140  1
  Cl  Cl57  1  0.164215  0.749316  0.563950  1
  Cl  Cl58  1  0.584660  0.874289  0.155506  1
  Cl  Cl59  1  0.657771  0.000000  0.750000  1
  Cl  Cl60  1  0.849438  0.746312  0.250000  1
  Cl  Cl61  1  0.419437  0.625318  0.841140  1
  Cl  Cl62  1  0.835785  0.250684  0.063950  1
  Cl  Cl63  1  0.759489  0.372493  0.905461  1
  Cl  Cl64  1  0.584660  0.125711  0.344494  1
  Cl  Cl65  1  0.835785  0.749316  0.063950  1
  Cl  Cl66  1  0.342229  0.000000  0.250000  1
  Cl  Cl67  1  0.580563  0.374682  0.341140  1
  Cl  Cl68  1  0.759489  0.372493  0.594539  1
  Cl  Cl69  1  0.849438  0.253688  0.250000  1
  Cl  Cl70  1  0.679827  0.500000  0.750000  1
  Cl  Cl71  1  0.164215  0.250684  0.563950  1
  Cl  Cl72  1  0.160096  0.500000  0.565460  1
  Cl  Cl73  1  0.099829  0.873223  0.345689  1
  Cl  Cl74  1  0.240511  0.627507  0.405461  1
  Cl  Cl75  1  0.900171  0.873223  0.654311  1
  Cl  Cl76  1  0.415340  0.125711  0.844494  1
  Cl  Cl77  1  0.240511  0.627507  0.094539  1
  Cl  Cl78  1  0.419437  0.625318  0.658860  1
  Cl  Cl79  1  0.099829  0.873223  0.154311  1
  Cl  Cl80  1  0.164215  0.749316  0.936050  1
  Cl  Cl81  1  0.415340  0.874289  0.655506  1
  Cl  Cl82  1  0.157938  0.000000  0.939818  1
  Cl  Cl83  1  0.150562  0.746312  0.750000  1
  Cl  Cl84  1  0.759489  0.627507  0.905461  1
  Cl  Cl85  1  0.580563  0.374682  0.158860  1
  Cl  Cl86  1  0.900171  0.126777  0.654311  1
  Cl  Cl87  1  0.835785  0.749316  0.436050  1
  Cl  Cl88  1  0.419437  0.374682  0.841140  1
  Cl  Cl89  1  0.584660  0.125711  0.155506  1
  Cl  Cl90  1  0.150562  0.253688  0.750000  1
  Cl  Cl91  1  0.835785  0.250684  0.436050  1
