# generated using pymatgen
data_SiBr2
_symmetry_space_group_name_H-M   'P 1'
_cell_length_a   11.06144127
_cell_length_b   15.97561032
_cell_length_c   16.14496383
_cell_angle_alpha   90.00000000
_cell_angle_beta   119.90311363
_cell_angle_gamma   90.00000000
_symmetry_Int_Tables_number   1
_chemical_formula_structural   SiBr2
_chemical_formula_sum   'Si20 Br40'
_cell_volume   2473.20465430
_cell_formula_units_Z   20
loop_
 _symmetry_equiv_pos_site_id
 _symmetry_equiv_pos_as_xyz
  1  'x, y, z'
loop_
 _atom_site_type_symbol
 _atom_site_label
 _atom_site_symmetry_multiplicity
 _atom_site_fract_x
 _atom_site_fract_y
 _atom_site_fract_z
 _atom_site_occupancy
  Si  Si0  1  0.447404  0.830623  0.540025  1
  Si  Si1  1  0.553234  0.180360  0.963877  1
  Si  Si2  1  0.792029  0.372669  0.022408  1
  Si  Si3  1  0.553234  0.319640  0.463877  1
  Si  Si4  1  0.446766  0.680360  0.536123  1
  Si  Si5  1  0.552596  0.330623  0.959975  1
  Si  Si6  1  0.072828  0.753132  0.927248  1
  Si  Si7  1  0.927172  0.253132  0.572752  1
  Si  Si8  1  0.446766  0.819640  0.036123  1
  Si  Si9  1  0.770483  0.138788  0.980025  1
  Si  Si10  1  0.207971  0.872669  0.477592  1
  Si  Si11  1  0.792029  0.127331  0.522408  1
  Si  Si12  1  0.447404  0.669377  0.040025  1
  Si  Si13  1  0.207971  0.627331  0.977592  1
  Si  Si14  1  0.072828  0.746868  0.427248  1
  Si  Si15  1  0.552596  0.169377  0.459975  1
  Si  Si16  1  0.229517  0.861212  0.019975  1
  Si  Si17  1  0.770483  0.361212  0.480025  1
  Si  Si18  1  0.927172  0.246868  0.072752  1
  Si  Si19  1  0.229517  0.638788  0.519975  1
  Br  Br20  1  0.252878  0.645847  0.665515  1
  Br  Br21  1  0.466809  0.380307  0.049369  1
  Br  Br22  1  0.011244  0.776077  0.774643  1
  Br  Br23  1  0.186158  0.929656  0.595710  1
  Br  Br24  1  0.134954  0.537686  0.856040  1
  Br  Br25  1  0.186158  0.570344  0.095710  1
  Br  Br26  1  0.838701  0.011642  0.042568  1
  Br  Br27  1  0.011244  0.723923  0.274643  1
  Br  Br28  1  0.423440  0.374742  0.809637  1
  Br  Br29  1  0.988756  0.223923  0.225357  1
  Br  Br30  1  0.549740  0.140680  0.095278  1
  Br  Br31  1  0.885427  0.746076  0.944678  1
  Br  Br32  1  0.838701  0.488358  0.542568  1
  Br  Br33  1  0.161299  0.988358  0.957432  1
  Br  Br34  1  0.373421  0.126058  0.833645  1
  Br  Br35  1  0.450260  0.859320  0.904722  1
  Br  Br36  1  0.252878  0.854153  0.165515  1
  Br  Br37  1  0.576560  0.874742  0.690363  1
  Br  Br38  1  0.747122  0.145847  0.834485  1
  Br  Br39  1  0.466809  0.119693  0.549369  1
  Br  Br40  1  0.885427  0.753924  0.444678  1
  Br  Br41  1  0.423440  0.125258  0.309637  1
  Br  Br42  1  0.865046  0.037686  0.643960  1
  Br  Br43  1  0.134954  0.962314  0.356040  1
  Br  Br44  1  0.988756  0.276077  0.725357  1
  Br  Br45  1  0.114573  0.246076  0.555322  1
  Br  Br46  1  0.450260  0.640680  0.404722  1
  Br  Br47  1  0.533191  0.880307  0.450631  1
  Br  Br48  1  0.626579  0.626058  0.666355  1
  Br  Br49  1  0.626579  0.873942  0.166355  1
  Br  Br50  1  0.533191  0.619693  0.950631  1
  Br  Br51  1  0.747122  0.354153  0.334485  1
  Br  Br52  1  0.813842  0.070344  0.404290  1
  Br  Br53  1  0.161299  0.511642  0.457432  1
  Br  Br54  1  0.813842  0.429656  0.904290  1
  Br  Br55  1  0.576560  0.625258  0.190363  1
  Br  Br56  1  0.114573  0.253924  0.055322  1
  Br  Br57  1  0.865046  0.462314  0.143960  1
  Br  Br58  1  0.373421  0.373942  0.333645  1
  Br  Br59  1  0.549740  0.359320  0.595278  1
