# generated using pymatgen
data_HgNO3
_symmetry_space_group_name_H-M   'P 1'
_cell_length_a   6.37441515
_cell_length_b   8.71823226
_cell_length_c   12.28751869
_cell_angle_alpha   90.00000000
_cell_angle_beta   94.15447183
_cell_angle_gamma   90.00000000
_symmetry_Int_Tables_number   1
_chemical_formula_structural   HgNO3
_chemical_formula_sum   'Hg8 N8 O24'
_cell_volume   681.06772234
_cell_formula_units_Z   8
loop_
 _symmetry_equiv_pos_site_id
 _symmetry_equiv_pos_as_xyz
  1  'x, y, z'
loop_
 _atom_site_type_symbol
 _atom_site_label
 _atom_site_symmetry_multiplicity
 _atom_site_fract_x
 _atom_site_fract_y
 _atom_site_fract_z
 _atom_site_occupancy
  Hg  Hg0  1  0.819886  0.338192  0.640685  1
  Hg  Hg1  1  0.180114  0.838192  0.359315  1
  Hg  Hg2  1  0.807709  0.953187  0.322820  1
  Hg  Hg3  1  0.192291  0.453187  0.677180  1
  Hg  Hg4  1  0.653386  0.974799  0.912919  1
  Hg  Hg5  1  0.346614  0.474799  0.087081  1
  Hg  Hg6  1  0.280228  0.992605  0.816900  1
  Hg  Hg7  1  0.719772  0.492605  0.183100  1
  N  N8  1  0.997035  0.836878  0.059870  1
  N  N9  1  0.002965  0.336878  0.940130  1
  N  N10  1  0.936244  0.868866  0.672791  1
  N  N11  1  0.063756  0.368866  0.327209  1
  N  N12  1  0.539170  0.601384  0.821568  1
  N  N13  1  0.460830  0.101384  0.178432  1
  N  N14  1  0.501490  0.621330  0.446706  1
  N  N15  1  0.498510  0.121330  0.553294  1
  O  O16  1  0.824920  0.294331  0.904919  1
  O  O17  1  0.175080  0.794331  0.095081  1
  O  O18  1  0.828998  0.793446  0.097399  1
  O  O19  1  0.171002  0.293446  0.902601  1
  O  O20  1  0.984822  0.936378  0.978364  1
  O  O21  1  0.015178  0.436378  0.021636  1
  O  O22  1  0.764068  0.846213  0.623569  1
  O  O23  1  0.235932  0.346213  0.376431  1
  O  O24  1  0.906746  0.282901  0.329295  1
  O  O25  1  0.093254  0.782901  0.670705  1
  O  O26  1  0.958033  0.996785  0.733818  1
  O  O27  1  0.041967  0.496785  0.266182  1
  O  O28  1  0.716359  0.650685  0.851984  1
  O  O29  1  0.283641  0.150685  0.148016  1
  O  O30  1  0.376867  0.623374  0.871330  1
  O  O31  1  0.623133  0.123374  0.128670  1
  O  O32  1  0.521246  0.522519  0.729253  1
  O  O33  1  0.478754  0.022519  0.270747  1
  O  O34  1  0.352727  0.626605  0.507738  1
  O  O35  1  0.647273  0.126605  0.492262  1
  O  O36  1  0.655253  0.534896  0.458185  1
  O  O37  1  0.344747  0.034896  0.541815  1
  O  O38  1  0.491873  0.716535  0.361624  1
  O  O39  1  0.508127  0.216535  0.638376  1
