# generated using pymatgen
data_AlPNCl5
_symmetry_space_group_name_H-M   'P 1'
_cell_length_a   7.40830362
_cell_length_b   8.70003723
_cell_length_c   8.80284190
_cell_angle_alpha   64.19086511
_cell_angle_beta   76.73452316
_cell_angle_gamma   67.88175092
_symmetry_Int_Tables_number   1
_chemical_formula_structural   AlPNCl5
_chemical_formula_sum   'Al2 P2 N2 Cl10'
_cell_volume   471.71885062
_cell_formula_units_Z   2
loop_
 _symmetry_equiv_pos_site_id
 _symmetry_equiv_pos_as_xyz
  1  'x, y, z'
loop_
 _atom_site_type_symbol
 _atom_site_label
 _atom_site_symmetry_multiplicity
 _atom_site_fract_x
 _atom_site_fract_y
 _atom_site_fract_z
 _atom_site_occupancy
  Al  Al0  1  0.917998  0.566173  0.626456  1
  Al  Al1  1  0.082002  0.433827  0.373544  1
  P  P2  1  0.285164  0.214495  0.721881  1
  P  P3  1  0.714836  0.785505  0.278119  1
  N  N4  1  0.131600  0.370068  0.599534  1
  N  N5  1  0.868400  0.629932  0.400466  1
  Cl  Cl6  1  0.561949  0.184644  0.624651  1
  Cl  Cl7  1  0.730470  0.753012  0.064292  1
  Cl  Cl8  1  0.995968  0.240737  0.345095  1
  Cl  Cl9  1  0.738482  0.030718  0.203239  1
  Cl  Cl10  1  0.004032  0.759263  0.654905  1
  Cl  Cl11  1  0.261518  0.969282  0.796761  1
  Cl  Cl12  1  0.269530  0.246988  0.935708  1
  Cl  Cl13  1  0.438051  0.815356  0.375349  1
  Cl  Cl14  1  0.306914  0.509326  0.188203  1
  Cl  Cl15  1  0.693086  0.490674  0.811797  1
