# generated using pymatgen
data_K2FeH12(SO7)2
_symmetry_space_group_name_H-M   'P 1'
_cell_length_a   6.25149690
_cell_length_b   12.44811410
_cell_length_c   9.09783174
_cell_angle_alpha   90.00000000
_cell_angle_beta   103.98523319
_cell_angle_gamma   90.00000000
_symmetry_Int_Tables_number   1
_chemical_formula_structural   K2FeH12(SO7)2
_chemical_formula_sum   'K4 Fe2 H24 S4 O28'
_cell_volume   687.00119440
_cell_formula_units_Z   2
loop_
 _symmetry_equiv_pos_site_id
 _symmetry_equiv_pos_as_xyz
  1  'x, y, z'
loop_
 _atom_site_type_symbol
 _atom_site_label
 _atom_site_symmetry_multiplicity
 _atom_site_fract_x
 _atom_site_fract_y
 _atom_site_fract_z
 _atom_site_occupancy
  K  K0  1  0.654653  0.154089  0.364874  1
  K  K1  1  0.345347  0.845911  0.635126  1
  K  K2  1  0.654653  0.345911  0.864874  1
  K  K3  1  0.345347  0.654089  0.135126  1
  Fe  Fe4  1  0.000000  0.000000  0.000000  1
  Fe  Fe5  1  0.000000  0.500000  0.500000  1
  H  H6  1  0.671621  0.090416  0.777114  1
  H  H7  1  0.998165  0.807227  0.854092  1
  H  H8  1  0.927127  0.604808  0.225436  1
  H  H9  1  0.096436  0.625321  0.753755  1
  H  H10  1  0.903564  0.125321  0.746245  1
  H  H11  1  0.328379  0.590416  0.722886  1
  H  H12  1  0.659085  0.563382  0.604417  1
  H  H13  1  0.340915  0.063382  0.895583  1
  H  H14  1  0.671621  0.409584  0.277114  1
  H  H15  1  0.001835  0.307227  0.645908  1
  H  H16  1  0.340915  0.436618  0.395583  1
  H  H17  1  0.659085  0.936618  0.104417  1
  H  H18  1  0.667400  0.646173  0.471902  1
  H  H19  1  0.072873  0.104808  0.274564  1
  H  H20  1  0.667400  0.853827  0.971902  1
  H  H21  1  0.903564  0.374679  0.246245  1
  H  H22  1  0.072873  0.395192  0.774564  1
  H  H23  1  0.927127  0.895192  0.725436  1
  H  H24  1  0.998165  0.692773  0.354092  1
  H  H25  1  0.328379  0.909584  0.222886  1
  H  H26  1  0.096436  0.874679  0.253755  1
  H  H27  1  0.001835  0.192773  0.145908  1
  H  H28  1  0.332600  0.146173  0.028098  1
  H  H29  1  0.332600  0.353827  0.528098  1
  S  S30  1  0.272873  0.362362  0.089612  1
  S  S31  1  0.727127  0.862362  0.410388  1
  S  S32  1  0.727127  0.637638  0.910388  1
  S  S33  1  0.272873  0.137638  0.589612  1
  O  O34  1  0.618180  0.936680  0.284717  1
  O  O35  1  0.051452  0.328128  0.109722  1
  O  O36  1  0.968176  0.118656  0.174407  1
  O  O37  1  0.698627  0.570112  0.505355  1
  O  O38  1  0.248371  0.080549  0.443040  1
  O  O39  1  0.051452  0.171872  0.609722  1
  O  O40  1  0.581771  0.766148  0.405318  1
  O  O41  1  0.031824  0.881344  0.825593  1
  O  O42  1  0.175743  0.886602  0.173082  1
  O  O43  1  0.381820  0.436680  0.215283  1
  O  O44  1  0.381820  0.063320  0.715283  1
  O  O45  1  0.418229  0.266148  0.094682  1
  O  O46  1  0.948548  0.828128  0.390278  1
  O  O47  1  0.418229  0.233852  0.594682  1
  O  O48  1  0.751629  0.919451  0.556960  1
  O  O49  1  0.175743  0.613398  0.673082  1
  O  O50  1  0.581771  0.733852  0.905318  1
  O  O51  1  0.968176  0.381344  0.674407  1
  O  O52  1  0.824257  0.386602  0.326918  1
  O  O53  1  0.031824  0.618656  0.325593  1
  O  O54  1  0.301373  0.429888  0.494645  1
  O  O55  1  0.824257  0.113398  0.826918  1
  O  O56  1  0.751629  0.580549  0.056960  1
  O  O57  1  0.248371  0.419451  0.943040  1
  O  O58  1  0.698627  0.929888  0.005355  1
  O  O59  1  0.301373  0.070112  0.994645  1
  O  O60  1  0.948548  0.671872  0.890278  1
  O  O61  1  0.618180  0.563320  0.784717  1
