# generated using pymatgen
data_KNiIO6
_symmetry_space_group_name_H-M   'P 1'
_cell_length_a   5.02106863
_cell_length_b   5.02106863
_cell_length_c   6.11732340
_cell_angle_alpha   90.00000000
_cell_angle_beta   90.00000000
_cell_angle_gamma   120.00000000
_symmetry_Int_Tables_number   1
_chemical_formula_structural   KNiIO6
_chemical_formula_sum   'K1 Ni1 I1 O6'
_cell_volume   133.56245310
_cell_formula_units_Z   1
loop_
 _symmetry_equiv_pos_site_id
 _symmetry_equiv_pos_as_xyz
  1  'x, y, z'
loop_
 _atom_site_type_symbol
 _atom_site_label
 _atom_site_symmetry_multiplicity
 _atom_site_fract_x
 _atom_site_fract_y
 _atom_site_fract_z
 _atom_site_occupancy
  K  K0  1  0.000000  0.000000  0.000000  1
  Ni  Ni1  1  0.333333  0.666667  0.500000  1
  I  I2  1  0.666667  0.333333  0.500000  1
  O  O3  1  0.376397  0.997608  0.674955  1
  O  O4  1  0.002392  0.378790  0.674955  1
  O  O5  1  0.621210  0.623603  0.674955  1
  O  O6  1  0.002392  0.623603  0.325045  1
  O  O7  1  0.621210  0.997608  0.325045  1
  O  O8  1  0.376397  0.378790  0.325045  1
