# generated using pymatgen
data_KPr(PO3)4
_symmetry_space_group_name_H-M   'P 1'
_cell_length_a   7.51669477
_cell_length_b   7.51669477
_cell_length_c   10.79411469
_cell_angle_alpha   79.33146442
_cell_angle_beta   100.66853558
_cell_angle_gamma   64.58846488
_symmetry_Int_Tables_number   1
_chemical_formula_structural   KPr(PO3)4
_chemical_formula_sum   'K2 Pr2 P8 O24'
_cell_volume   516.74133650
_cell_formula_units_Z   2
loop_
 _symmetry_equiv_pos_site_id
 _symmetry_equiv_pos_as_xyz
  1  'x, y, z'
loop_
 _atom_site_type_symbol
 _atom_site_label
 _atom_site_symmetry_multiplicity
 _atom_site_fract_x
 _atom_site_fract_y
 _atom_site_fract_z
 _atom_site_occupancy
  K  K0  1  0.683855  0.683855  0.750000  1
  K  K1  1  0.316145  0.316145  0.250000  1
  Pr  Pr2  1  0.621127  0.621127  0.250000  1
  Pr  Pr3  1  0.378873  0.378873  0.750000  1
  P  P4  1  0.126569  0.211940  0.499734  1
  P  P5  1  0.211940  0.126569  0.000266  1
  P  P6  1  0.873431  0.788060  0.500266  1
  P  P7  1  0.788060  0.873431  0.999734  1
  P  P8  1  0.759562  0.194994  0.555508  1
  P  P9  1  0.194994  0.759562  0.944492  1
  P  P10  1  0.240438  0.805006  0.444492  1
  P  P11  1  0.805006  0.240438  0.055508  1
  O  O12  1  0.309535  0.194758  0.596100  1
  O  O13  1  0.194758  0.309535  0.903900  1
  O  O14  1  0.690465  0.805242  0.403900  1
  O  O15  1  0.805242  0.690465  0.096100  1
  O  O16  1  0.998366  0.146399  0.584545  1
  O  O17  1  0.146399  0.998366  0.915455  1
  O  O18  1  0.001634  0.853601  0.415455  1
  O  O19  1  0.853601  0.001634  0.084545  1
  O  O20  1  0.993222  0.406894  0.387146  1
  O  O21  1  0.406894  0.993222  0.112854  1
  O  O22  1  0.006778  0.593106  0.612854  1
  O  O23  1  0.593106  0.006778  0.887146  1
  O  O24  1  0.215842  0.032705  0.429046  1
  O  O25  1  0.032705  0.215842  0.070954  1
  O  O26  1  0.784158  0.967295  0.570954  1
  O  O27  1  0.967295  0.784158  0.929046  1
  O  O28  1  0.641379  0.328843  0.415312  1
  O  O29  1  0.328843  0.641379  0.084688  1
  O  O30  1  0.358621  0.671157  0.584688  1
  O  O31  1  0.671157  0.358621  0.915312  1
  O  O32  1  0.687540  0.259405  0.667485  1
  O  O33  1  0.259405  0.687540  0.832515  1
  O  O34  1  0.312460  0.740595  0.332515  1
  O  O35  1  0.740595  0.312460  0.167485  1
