# generated using pymatgen
data_Hg4AsI5
_symmetry_space_group_name_H-M   'P 1'
_cell_length_a   8.80347038
_cell_length_b   8.80347038
_cell_length_c   20.55056148
_cell_angle_alpha   90.00000000
_cell_angle_beta   90.00000000
_cell_angle_gamma   90.55571175
_symmetry_Int_Tables_number   1
_chemical_formula_structural   Hg4AsI5
_chemical_formula_sum   'Hg16 As4 I20'
_cell_volume   1592.61601683
_cell_formula_units_Z   4
loop_
 _symmetry_equiv_pos_site_id
 _symmetry_equiv_pos_as_xyz
  1  'x, y, z'
loop_
 _atom_site_type_symbol
 _atom_site_label
 _atom_site_symmetry_multiplicity
 _atom_site_fract_x
 _atom_site_fract_y
 _atom_site_fract_z
 _atom_site_occupancy
  Hg  Hg0  1  0.734322  0.942854  0.172157  1
  Hg  Hg1  1  0.553062  0.446938  0.170657  1
  Hg  Hg2  1  0.734544  0.265456  0.329062  1
  Hg  Hg3  1  0.265678  0.057146  0.827843  1
  Hg  Hg4  1  0.234544  0.765456  0.170938  1
  Hg  Hg5  1  0.765678  0.557146  0.672157  1
  Hg  Hg6  1  0.057146  0.265678  0.172157  1
  Hg  Hg7  1  0.234322  0.442854  0.327843  1
  Hg  Hg8  1  0.446938  0.553062  0.829343  1
  Hg  Hg9  1  0.765456  0.234544  0.829062  1
  Hg  Hg10  1  0.946938  0.053062  0.670657  1
  Hg  Hg11  1  0.053062  0.946938  0.329343  1
  Hg  Hg12  1  0.942854  0.734322  0.827843  1
  Hg  Hg13  1  0.265456  0.734544  0.670938  1
  Hg  Hg14  1  0.442854  0.234322  0.672157  1
  Hg  Hg15  1  0.557146  0.765678  0.327843  1
  As  As16  1  0.106046  0.893954  0.749537  1
  As  As17  1  0.893954  0.106046  0.250463  1
  As  As18  1  0.606046  0.393954  0.750463  1
  As  As19  1  0.393954  0.606046  0.249537  1
  I  I20  1  0.927350  0.072650  0.916258  1
  I  I21  1  0.212680  0.787320  0.417508  1
  I  I22  1  0.709221  0.931260  0.417421  1
  I  I23  1  0.427350  0.572650  0.583742  1
  I  I24  1  0.609790  0.890210  0.750000  1
  I  I25  1  0.931260  0.709221  0.582579  1
  I  I26  1  0.572650  0.427350  0.416258  1
  I  I27  1  0.431260  0.209221  0.917421  1
  I  I28  1  0.890210  0.609790  0.250000  1
  I  I29  1  0.290779  0.068740  0.582579  1
  I  I30  1  0.068740  0.290779  0.417421  1
  I  I31  1  0.390210  0.109790  0.250000  1
  I  I32  1  0.072650  0.927350  0.083742  1
  I  I33  1  0.287320  0.712680  0.917508  1
  I  I34  1  0.787320  0.212680  0.582492  1
  I  I35  1  0.209221  0.431260  0.082579  1
  I  I36  1  0.712680  0.287320  0.082492  1
  I  I37  1  0.790779  0.568740  0.917421  1
  I  I38  1  0.109790  0.390210  0.750000  1
  I  I39  1  0.568740  0.790779  0.082579  1
