# generated using pymatgen
data_BaZr(BO3)2
_symmetry_space_group_name_H-M   'P 1'
_cell_length_a   11.95031470
_cell_length_b   11.95031470
_cell_length_c   11.95031470
_cell_angle_alpha   25.24662089
_cell_angle_beta   25.24662089
_cell_angle_gamma   25.24662089
_symmetry_Int_Tables_number   1
_chemical_formula_structural   BaZr(BO3)2
_chemical_formula_sum   'Ba2 Zr2 B4 O12'
_cell_volume   273.21453086
_cell_formula_units_Z   2
loop_
 _symmetry_equiv_pos_site_id
 _symmetry_equiv_pos_as_xyz
  1  'x, y, z'
loop_
 _atom_site_type_symbol
 _atom_site_label
 _atom_site_symmetry_multiplicity
 _atom_site_fract_x
 _atom_site_fract_y
 _atom_site_fract_z
 _atom_site_occupancy
  Ba  Ba0  1  0.750000  0.750000  0.750000  1
  Ba  Ba1  1  0.250000  0.250000  0.250000  1
  Zr  Zr2  1  0.500000  0.500000  0.500000  1
  Zr  Zr3  1  0.000000  1.000000  0.000000  1
  B  B4  1  0.868889  0.868889  0.868889  1
  B  B5  1  0.631111  0.631111  0.631111  1
  B  B6  1  0.131111  0.131111  0.131111  1
  B  B7  1  0.368889  0.368889  0.368889  1
  O  O8  1  0.163276  0.278076  0.667926  1
  O  O9  1  0.167926  0.778076  0.663276  1
  O  O10  1  0.336724  0.832074  0.221924  1
  O  O11  1  0.778076  0.663276  0.167926  1
  O  O12  1  0.836724  0.721924  0.332074  1
  O  O13  1  0.221924  0.336724  0.832074  1
  O  O14  1  0.832074  0.221924  0.336724  1
  O  O15  1  0.667926  0.163276  0.278076  1
  O  O16  1  0.332074  0.836724  0.721924  1
  O  O17  1  0.721924  0.332074  0.836724  1
  O  O18  1  0.278076  0.667926  0.163276  1
  O  O19  1  0.663276  0.167926  0.778076  1
