# generated using pymatgen
data_K14In4O13
_symmetry_space_group_name_H-M   'P 1'
_cell_length_a   6.92610550
_cell_length_b   31.86390368
_cell_length_c   6.92984829
_cell_angle_alpha   90.00000000
_cell_angle_beta   119.23123174
_cell_angle_gamma   90.00000000
_symmetry_Int_Tables_number   1
_chemical_formula_structural   K14In4O13
_chemical_formula_sum   'K28 In8 O26'
_cell_volume   1334.61160783
_cell_formula_units_Z   2
loop_
 _symmetry_equiv_pos_site_id
 _symmetry_equiv_pos_as_xyz
  1  'x, y, z'
loop_
 _atom_site_type_symbol
 _atom_site_label
 _atom_site_symmetry_multiplicity
 _atom_site_fract_x
 _atom_site_fract_y
 _atom_site_fract_z
 _atom_site_occupancy
  K  K0  1  0.288341  0.218477  0.053936  1
  K  K1  1  0.288341  0.281523  0.553936  1
  K  K2  1  0.730088  0.000873  0.960490  1
  K  K3  1  0.721138  0.275163  0.440699  1
  K  K4  1  0.842446  0.447194  0.000413  1
  K  K5  1  0.252345  0.110846  0.040352  1
  K  K6  1  0.269912  0.500873  0.539510  1
  K  K7  1  0.157554  0.947194  0.499587  1
  K  K8  1  0.283214  0.612836  0.539526  1
  K  K9  1  0.711659  0.718477  0.446064  1
  K  K10  1  0.716786  0.112836  0.960474  1
  K  K11  1  0.866802  0.658087  0.004893  1
  K  K12  1  0.157554  0.552806  0.999587  1
  K  K13  1  0.747655  0.610846  0.459648  1
  K  K14  1  0.278862  0.775163  0.059301  1
  K  K15  1  0.269912  0.999127  0.039510  1
  K  K16  1  0.730088  0.499127  0.460490  1
  K  K17  1  0.252345  0.389154  0.540352  1
  K  K18  1  0.133198  0.158087  0.495107  1
  K  K19  1  0.278862  0.724837  0.559301  1
  K  K20  1  0.842446  0.052806  0.500413  1
  K  K21  1  0.283214  0.887164  0.039526  1
  K  K22  1  0.747655  0.889154  0.959648  1
  K  K23  1  0.866802  0.841913  0.504893  1
  K  K24  1  0.711659  0.781523  0.946064  1
  K  K25  1  0.721138  0.224837  0.940699  1
  K  K26  1  0.133198  0.341913  0.995107  1
  K  K27  1  0.716786  0.387164  0.460474  1
  In  In28  1  0.657429  0.334066  0.001219  1
  In  In29  1  0.671173  0.944729  0.499393  1
  In  In30  1  0.342571  0.665934  0.998781  1
  In  In31  1  0.671173  0.555271  0.999393  1
  In  In32  1  0.328827  0.055271  0.500607  1
  In  In33  1  0.657429  0.165934  0.501219  1
  In  In34  1  0.328827  0.444729  0.000607  1
  In  In35  1  0.342571  0.834066  0.498781  1
  O  O36  1  0.042611  0.670423  0.706680  1
  O  O37  1  0.679410  0.172234  0.212896  1
  O  O38  1  0.465264  0.603857  0.002860  1
  O  O39  1  0.970315  0.942332  0.789423  1
  O  O40  1  0.534736  0.103857  0.497140  1
  O  O41  1  0.431833  0.210089  0.498451  1
  O  O42  1  0.680444  0.942942  0.206768  1
  O  O43  1  0.568167  0.710089  0.001549  1
  O  O44  1  0.029685  0.442332  0.710577  1
  O  O45  1  0.679410  0.327766  0.712896  1
  O  O46  1  0.680444  0.557058  0.706768  1
  O  O47  1  0.029685  0.057668  0.210577  1
  O  O48  1  0.319556  0.442942  0.293232  1
  O  O49  1  0.957389  0.170423  0.793320  1
  O  O50  1  0.970315  0.557668  0.289423  1
  O  O51  1  0.465264  0.896143  0.502860  1
  O  O52  1  0.957389  0.329577  0.293320  1
  O  O53  1  0.500000  0.000000  0.500000  1
  O  O54  1  0.042611  0.829577  0.206680  1
  O  O55  1  0.320590  0.827766  0.787104  1
  O  O56  1  0.431833  0.289911  0.998451  1
  O  O57  1  0.534736  0.396143  0.997140  1
  O  O58  1  0.319556  0.057058  0.793232  1
  O  O59  1  0.500000  0.500000  0.000000  1
  O  O60  1  0.568167  0.789911  0.501549  1
  O  O61  1  0.320590  0.672234  0.287104  1
