# generated using pymatgen
data_PH3PbCO3
_symmetry_space_group_name_H-M   'P 1'
_cell_length_a   12.15862615
_cell_length_b   12.15862615
_cell_length_c   12.15862615
_cell_angle_alpha   116.39981647
_cell_angle_beta   116.39981647
_cell_angle_gamma   116.39981647
_symmetry_Int_Tables_number   1
_chemical_formula_structural   PH3PbCO3
_chemical_formula_sum   'P6 H18 Pb6 C6 O18'
_cell_volume   864.08016985
_cell_formula_units_Z   6
loop_
 _symmetry_equiv_pos_site_id
 _symmetry_equiv_pos_as_xyz
  1  'x, y, z'
loop_
 _atom_site_type_symbol
 _atom_site_label
 _atom_site_symmetry_multiplicity
 _atom_site_fract_x
 _atom_site_fract_y
 _atom_site_fract_z
 _atom_site_occupancy
  P  P0  1  0.271550  0.613104  0.123715  1
  P  P1  1  0.123715  0.271550  0.613104  1
  P  P2  1  0.386896  0.876285  0.728450  1
  P  P3  1  0.876285  0.728450  0.386896  1
  P  P4  1  0.728450  0.386896  0.876285  1
  P  P5  1  0.613104  0.123715  0.271550  1
  H  H6  1  0.860130  0.677845  0.979976  1
  H  H7  1  0.370625  0.051827  0.029834  1
  H  H8  1  0.970166  0.629375  0.948173  1
  H  H9  1  0.283354  0.527764  0.270836  1
  H  H10  1  0.677845  0.979976  0.860130  1
  H  H11  1  0.029834  0.370625  0.051827  1
  H  H12  1  0.051827  0.029834  0.370625  1
  H  H13  1  0.948173  0.970166  0.629375  1
  H  H14  1  0.979976  0.860130  0.677845  1
  H  H15  1  0.729164  0.716646  0.472236  1
  H  H16  1  0.716646  0.472236  0.729164  1
  H  H17  1  0.322155  0.020024  0.139870  1
  H  H18  1  0.527764  0.270836  0.283354  1
  H  H19  1  0.139870  0.322155  0.020024  1
  H  H20  1  0.270836  0.283354  0.527764  1
  H  H21  1  0.020024  0.139870  0.322155  1
  H  H22  1  0.472236  0.729164  0.716646  1
  H  H23  1  0.629375  0.948173  0.970166  1
  Pb  Pb24  1  0.583167  0.743401  0.106715  1
  Pb  Pb25  1  0.743401  0.106715  0.583167  1
  Pb  Pb26  1  0.106715  0.583167  0.743401  1
  Pb  Pb27  1  0.893285  0.416833  0.256599  1
  Pb  Pb28  1  0.256599  0.893285  0.416833  1
  Pb  Pb29  1  0.416833  0.256599  0.893285  1
  C  C30  1  0.884708  0.828713  0.558751  1
  C  C31  1  0.441249  0.115292  0.171287  1
  C  C32  1  0.828713  0.558751  0.884708  1
  C  C33  1  0.558751  0.884708  0.828713  1
  C  C34  1  0.115292  0.171287  0.441249  1
  C  C35  1  0.171287  0.441249  0.115292  1
  O  O36  1  0.700046  0.206537  0.466033  1
  O  O37  1  0.206538  0.466033  0.700046  1
  O  O38  1  0.510283  0.093715  0.898681  1
  O  O39  1  0.796584  0.285207  0.345127  1
  O  O40  1  0.093715  0.898681  0.510283  1
  O  O41  1  0.654873  0.203416  0.714793  1
  O  O42  1  0.898681  0.510283  0.093715  1
  O  O43  1  0.345127  0.796584  0.285207  1
  O  O44  1  0.714793  0.654873  0.203416  1
  O  O45  1  0.906285  0.101319  0.489717  1
  O  O46  1  0.793463  0.533967  0.299954  1
  O  O47  1  0.285207  0.345127  0.796584  1
  O  O48  1  0.489717  0.906285  0.101319  1
  O  O49  1  0.533967  0.299954  0.793463  1
  O  O50  1  0.466033  0.700046  0.206537  1
  O  O51  1  0.299954  0.793463  0.533967  1
  O  O52  1  0.203416  0.714793  0.654873  1
  O  O53  1  0.101319  0.489717  0.906285  1
