# generated using pymatgen
data_K2Na4Co2O5
_symmetry_space_group_name_H-M   'P 1'
_cell_length_a   6.38450940
_cell_length_b   6.38450940
_cell_length_c   10.48301664
_cell_angle_alpha   90.00000000
_cell_angle_beta   90.00000000
_cell_angle_gamma   90.00000000
_symmetry_Int_Tables_number   1
_chemical_formula_structural   K2Na4Co2O5
_chemical_formula_sum   'K4 Na8 Co4 O10'
_cell_volume   427.30830788
_cell_formula_units_Z   2
loop_
 _symmetry_equiv_pos_site_id
 _symmetry_equiv_pos_as_xyz
  1  'x, y, z'
loop_
 _atom_site_type_symbol
 _atom_site_label
 _atom_site_symmetry_multiplicity
 _atom_site_fract_x
 _atom_site_fract_y
 _atom_site_fract_z
 _atom_site_occupancy
  K  K0  1  0.196083  0.803917  0.500000  1
  K  K1  1  0.803917  0.196083  0.500000  1
  K  K2  1  0.303917  0.303917  0.000000  1
  K  K3  1  0.696083  0.696083  0.000000  1
  Na  Na4  1  0.000000  0.500000  0.750000  1
  Na  Na5  1  0.500000  0.000000  0.750000  1
  Na  Na6  1  0.000000  0.500000  0.250000  1
  Na  Na7  1  0.500000  0.500000  0.279593  1
  Na  Na8  1  0.500000  0.500000  0.720407  1
  Na  Na9  1  0.500000  0.000000  0.250000  1
  Na  Na10  1  0.000000  0.000000  0.779593  1
  Na  Na11  1  0.000000  0.000000  0.220407  1
  Co  Co12  1  0.213712  0.786288  0.000000  1
  Co  Co13  1  0.713712  0.713712  0.500000  1
  Co  Co14  1  0.786288  0.213712  0.000000  1
  Co  Co15  1  0.286288  0.286288  0.500000  1
  O  O16  1  0.500000  0.500000  0.500000  1
  O  O17  1  0.213273  0.213273  0.338536  1
  O  O18  1  0.786727  0.786727  0.661464  1
  O  O19  1  0.213273  0.213273  0.661464  1
  O  O20  1  0.713273  0.286727  0.161464  1
  O  O21  1  0.286727  0.713273  0.838536  1
  O  O22  1  0.713273  0.286727  0.838536  1
  O  O23  1  0.286727  0.713273  0.161464  1
  O  O24  1  0.786727  0.786727  0.338536  1
  O  O25  1  0.000000  0.000000  0.000000  1
