# generated using pymatgen
data_K3Nb3(BO6)2
_symmetry_space_group_name_H-M   'P 1'
_cell_length_a   4.05015994
_cell_length_b   15.43126918
_cell_length_c   17.80539891
_cell_angle_alpha   90.00000000
_cell_angle_beta   90.00000000
_cell_angle_gamma   90.00000000
_symmetry_Int_Tables_number   1
_chemical_formula_structural   K3Nb3(BO6)2
_chemical_formula_sum   'K12 Nb12 B8 O48'
_cell_volume   1112.82155402
_cell_formula_units_Z   4
loop_
 _symmetry_equiv_pos_site_id
 _symmetry_equiv_pos_as_xyz
  1  'x, y, z'
loop_
 _atom_site_type_symbol
 _atom_site_label
 _atom_site_symmetry_multiplicity
 _atom_site_fract_x
 _atom_site_fract_y
 _atom_site_fract_z
 _atom_site_occupancy
  K  K0  1  0.508618  0.701501  0.883837  1
  K  K1  1  0.496866  0.201653  0.133649  1
  K  K2  1  0.503134  0.798347  0.633649  1
  K  K3  1  0.503134  0.201653  0.633649  1
  K  K4  1  0.493172  0.500000  0.081080  1
  K  K5  1  0.491382  0.298499  0.383837  1
  K  K6  1  0.485267  0.000000  0.331053  1
  K  K7  1  0.491382  0.701501  0.383837  1
  K  K8  1  0.508618  0.298499  0.883837  1
  K  K9  1  0.514733  0.000000  0.831053  1
  K  K10  1  0.496866  0.798347  0.133649  1
  K  K11  1  0.506828  0.500000  0.581080  1
  Nb  Nb12  1  0.035466  0.876461  0.971004  1
  Nb  Nb13  1  0.024311  0.376444  0.721007  1
  Nb  Nb14  1  0.957299  0.000000  0.156357  1
  Nb  Nb15  1  0.964534  0.123539  0.471004  1
  Nb  Nb16  1  0.024311  0.623556  0.721007  1
  Nb  Nb17  1  0.035466  0.123539  0.971004  1
  Nb  Nb18  1  0.042701  0.000000  0.656357  1
  Nb  Nb19  1  0.975689  0.623556  0.221007  1
  Nb  Nb20  1  0.021607  0.500000  0.906555  1
  Nb  Nb21  1  0.975689  0.376444  0.221007  1
  Nb  Nb22  1  0.964534  0.876461  0.471004  1
  Nb  Nb23  1  0.978393  0.500000  0.406555  1
  B  B24  1  0.996626  0.333339  0.032881  1
  B  B25  1  0.009101  0.833262  0.282774  1
  B  B26  1  0.990899  0.166738  0.782774  1
  B  B27  1  0.003374  0.666661  0.532881  1
  B  B28  1  0.996626  0.666661  0.032881  1
  B  B29  1  0.990899  0.833262  0.782774  1
  B  B30  1  0.009101  0.166738  0.282774  1
  B  B31  1  0.003374  0.333339  0.532881  1
  O  O32  1  0.000215  0.905985  0.738046  1
  O  O33  1  0.995916  0.910427  0.077598  1
  O  O34  1  0.500355  0.000000  0.663721  1
  O  O35  1  0.008675  0.158415  0.359782  1
  O  O36  1  0.975969  0.406031  0.988251  1
  O  O37  1  0.008675  0.841585  0.359782  1
  O  O38  1  0.999785  0.905985  0.238046  1
  O  O39  1  0.020018  0.247808  0.250557  1
  O  O40  1  0.000344  0.000000  0.942881  1
  O  O41  1  0.979982  0.752192  0.750557  1
  O  O42  1  0.006797  0.252202  0.500726  1
  O  O43  1  0.493145  0.869181  0.967548  1
  O  O44  1  0.020783  0.341795  0.109688  1
  O  O45  1  0.481834  0.630799  0.717484  1
  O  O46  1  0.479264  0.500000  0.913943  1
  O  O47  1  0.506855  0.869181  0.467548  1
  O  O48  1  0.020783  0.658205  0.109688  1
  O  O49  1  0.004084  0.089573  0.577598  1
  O  O50  1  0.993203  0.252202  0.000726  1
  O  O51  1  0.506855  0.130819  0.467548  1
  O  O52  1  0.493145  0.130819  0.967548  1
  O  O53  1  0.518166  0.630799  0.217484  1
  O  O54  1  0.999656  0.000000  0.442881  1
  O  O55  1  0.020018  0.752192  0.250557  1
  O  O56  1  0.995916  0.089573  0.077598  1
  O  O57  1  0.987378  0.410357  0.827721  1
  O  O58  1  0.499645  0.000000  0.163721  1
  O  O59  1  0.004084  0.910427  0.577598  1
  O  O60  1  0.999785  0.094015  0.238046  1
  O  O61  1  0.987378  0.589643  0.827721  1
  O  O62  1  0.012622  0.410357  0.327721  1
  O  O63  1  0.975969  0.593969  0.988251  1
  O  O64  1  0.979217  0.658205  0.609688  1
  O  O65  1  0.518166  0.369201  0.217484  1
  O  O66  1  0.000215  0.094015  0.738046  1
  O  O67  1  0.011057  0.500000  0.193038  1
  O  O68  1  0.979982  0.247808  0.750557  1
  O  O69  1  0.520736  0.500000  0.413943  1
  O  O70  1  0.024031  0.593969  0.488251  1
  O  O71  1  0.979217  0.341795  0.609688  1
  O  O72  1  0.481834  0.369201  0.717484  1
  O  O73  1  0.006797  0.747798  0.500726  1
  O  O74  1  0.991325  0.158415  0.859782  1
  O  O75  1  0.012622  0.589643  0.327721  1
  O  O76  1  0.991325  0.841585  0.859782  1
  O  O77  1  0.024031  0.406031  0.488251  1
  O  O78  1  0.993203  0.747798  0.000726  1
  O  O79  1  0.988943  0.500000  0.693038  1
