# generated using pymatgen
data_Na2MnO2
_symmetry_space_group_name_H-M   'P 1'
_cell_length_a   8.82497809
_cell_length_b   8.82497809
_cell_length_c   6.20893096
_cell_angle_alpha   70.13788775
_cell_angle_beta   109.86211225
_cell_angle_gamma   92.03540256
_symmetry_Int_Tables_number   1
_chemical_formula_structural   Na2MnO2
_chemical_formula_sum   'Na12 Mn6 O12'
_cell_volume   425.98463234
_cell_formula_units_Z   6
loop_
 _symmetry_equiv_pos_site_id
 _symmetry_equiv_pos_as_xyz
  1  'x, y, z'
loop_
 _atom_site_type_symbol
 _atom_site_label
 _atom_site_symmetry_multiplicity
 _atom_site_fract_x
 _atom_site_fract_y
 _atom_site_fract_z
 _atom_site_occupancy
  Na  Na0  1  0.060471  0.060471  0.750000  1
  Na  Na1  1  0.939529  0.939529  0.250000  1
  Na  Na2  1  0.997380  0.597069  0.262063  1
  Na  Na3  1  0.597069  0.997380  0.237937  1
  Na  Na4  1  0.468375  0.674441  0.770751  1
  Na  Na5  1  0.531625  0.325559  0.229249  1
  Na  Na6  1  0.002620  0.402931  0.737937  1
  Na  Na7  1  0.325559  0.531625  0.270751  1
  Na  Na8  1  0.674441  0.468375  0.729249  1
  Na  Na9  1  0.195727  0.195727  0.250000  1
  Na  Na10  1  0.402931  0.002620  0.762063  1
  Na  Na11  1  0.804273  0.804273  0.750000  1
  Mn  Mn12  1  0.684049  0.684049  0.250000  1
  Mn  Mn13  1  0.867966  0.292268  0.256666  1
  Mn  Mn14  1  0.132034  0.707732  0.743334  1
  Mn  Mn15  1  0.315951  0.315951  0.750000  1
  Mn  Mn16  1  0.707732  0.132034  0.756666  1
  Mn  Mn17  1  0.292268  0.867966  0.243334  1
  O  O18  1  0.900831  0.671866  0.533538  1
  O  O19  1  0.779367  0.107221  0.482452  1
  O  O20  1  0.512484  0.715432  0.401142  1
  O  O21  1  0.107221  0.779367  0.017548  1
  O  O22  1  0.715432  0.512484  0.098858  1
  O  O23  1  0.892779  0.220633  0.982452  1
  O  O24  1  0.671866  0.900831  0.966462  1
  O  O25  1  0.284568  0.487516  0.901142  1
  O  O26  1  0.220633  0.892779  0.517548  1
  O  O27  1  0.487516  0.284568  0.598858  1
  O  O28  1  0.099169  0.328134  0.466462  1
  O  O29  1  0.328134  0.099169  0.033538  1
