# generated using pymatgen
data_Na2MgH8(SO6)2
_symmetry_space_group_name_H-M   'P 1'
_cell_length_a   5.56310634
_cell_length_b   8.36560632
_cell_length_c   11.22432533
_cell_angle_alpha   90.00000000
_cell_angle_beta   100.31269546
_cell_angle_gamma   90.00000000
_symmetry_Int_Tables_number   1
_chemical_formula_structural   Na2MgH8(SO6)2
_chemical_formula_sum   'Na4 Mg2 H16 S4 O24'
_cell_volume   513.92753676
_cell_formula_units_Z   2
loop_
 _symmetry_equiv_pos_site_id
 _symmetry_equiv_pos_as_xyz
  1  'x, y, z'
loop_
 _atom_site_type_symbol
 _atom_site_label
 _atom_site_symmetry_multiplicity
 _atom_site_fract_x
 _atom_site_fract_y
 _atom_site_fract_z
 _atom_site_occupancy
  Na  Na0  1  0.123380  0.427550  0.861289  1
  Na  Na1  1  0.123380  0.072450  0.361289  1
  Na  Na2  1  0.876620  0.927550  0.638711  1
  Na  Na3  1  0.876620  0.572450  0.138711  1
  Mg  Mg4  1  0.000000  0.000000  0.000000  1
  Mg  Mg5  1  0.000000  0.500000  0.500000  1
  H  H6  1  0.235785  0.447677  0.317524  1
  H  H7  1  0.238689  0.776143  0.515577  1
  H  H8  1  0.227520  0.863465  0.844790  1
  H  H9  1  0.238689  0.723857  0.015577  1
  H  H10  1  0.772480  0.363465  0.655210  1
  H  H11  1  0.330473  0.698195  0.640574  1
  H  H12  1  0.764215  0.552323  0.682476  1
  H  H13  1  0.764215  0.947677  0.182476  1
  H  H14  1  0.761311  0.223857  0.484423  1
  H  H15  1  0.235785  0.052323  0.817524  1
  H  H16  1  0.330473  0.801805  0.140574  1
  H  H17  1  0.669527  0.198195  0.859426  1
  H  H18  1  0.669527  0.301805  0.359426  1
  H  H19  1  0.761311  0.276143  0.984423  1
  H  H20  1  0.227520  0.636535  0.344790  1
  H  H21  1  0.772480  0.136535  0.155210  1
  S  S22  1  0.376244  0.209269  0.635716  1
  S  S23  1  0.623756  0.790731  0.364284  1
  S  S24  1  0.376244  0.290731  0.135716  1
  S  S25  1  0.623756  0.709269  0.864284  1
  O  O26  1  0.218825  0.421866  0.078792  1
  O  O27  1  0.639223  0.177378  0.627330  1
  O  O28  1  0.870440  0.463968  0.661713  1
  O  O29  1  0.781175  0.921866  0.421208  1
  O  O30  1  0.129560  0.963968  0.838287  1
  O  O31  1  0.361507  0.221216  0.768399  1
  O  O32  1  0.638493  0.778784  0.231601  1
  O  O33  1  0.360777  0.677378  0.872670  1
  O  O34  1  0.360777  0.822622  0.372670  1
  O  O35  1  0.638493  0.721216  0.731601  1
  O  O36  1  0.870440  0.036032  0.161713  1
  O  O37  1  0.639223  0.322622  0.127330  1
  O  O38  1  0.781175  0.578134  0.921208  1
  O  O39  1  0.218825  0.078134  0.578792  1
  O  O40  1  0.695412  0.864210  0.925065  1
  O  O41  1  0.129560  0.536032  0.338287  1
  O  O42  1  0.180729  0.710636  0.578154  1
  O  O43  1  0.361507  0.278784  0.268399  1
  O  O44  1  0.819271  0.210636  0.921846  1
  O  O45  1  0.819271  0.289364  0.421846  1
  O  O46  1  0.695412  0.635790  0.425065  1
  O  O47  1  0.304588  0.364210  0.574935  1
  O  O48  1  0.304588  0.135790  0.074935  1
  O  O49  1  0.180729  0.789364  0.078154  1
