# generated using pymatgen
data_BaTeF6
_symmetry_space_group_name_H-M   'P 1'
_cell_length_a   10.90811224
_cell_length_b   9.01450218
_cell_length_c   8.96653145
_cell_angle_alpha   74.69414640
_cell_angle_beta   52.85323736
_cell_angle_gamma   52.45261624
_symmetry_Int_Tables_number   1
_chemical_formula_structural   BaTeF6
_chemical_formula_sum   'Ba4 Te4 F24'
_cell_volume   549.60350327
_cell_formula_units_Z   4
loop_
 _symmetry_equiv_pos_site_id
 _symmetry_equiv_pos_as_xyz
  1  'x, y, z'
loop_
 _atom_site_type_symbol
 _atom_site_label
 _atom_site_symmetry_multiplicity
 _atom_site_fract_x
 _atom_site_fract_y
 _atom_site_fract_z
 _atom_site_occupancy
  Ba  Ba0  1  0.212291  0.017796  0.636053  1
  Ba  Ba1  1  0.133860  0.636053  0.017796  1
  Ba  Ba2  1  0.232204  0.037709  0.116140  1
  Ba  Ba3  1  0.613947  0.116140  0.037709  1
  Te  Te4  1  0.737558  0.477916  0.551860  1
  Te  Te5  1  0.698140  0.017335  0.512442  1
  Te  Te6  1  0.232665  0.551860  0.477916  1
  Te  Te7  1  0.772084  0.512442  0.017335  1
  F  F8  1  0.311350  0.284066  0.465834  1
  F  F9  1  0.723918  0.961687  0.285341  1
  F  F10  1  0.935052  0.478463  0.744812  1
  F  F11  1  0.567860  0.405439  0.765012  1
  F  F12  1  0.290461  0.491999  0.667964  1
  F  F13  1  0.771537  0.314948  0.408327  1
  F  F14  1  0.262941  0.840851  0.902906  1
  F  F15  1  0.484988  0.988312  0.682140  1
  F  F16  1  0.261688  0.765012  0.405439  1
  F  F17  1  0.844561  0.682140  0.988312  1
  F  F18  1  0.938750  0.465834  0.284066  1
  F  F19  1  0.993302  0.902906  0.840851  1
  F  F20  1  0.841673  0.744812  0.478463  1
  F  F21  1  0.409149  0.987059  0.256698  1
  F  F22  1  0.505188  0.408327  0.314948  1
  F  F23  1  0.549576  0.667964  0.491999  1
  F  F24  1  0.758001  0.959539  0.700424  1
  F  F25  1  0.582036  0.700424  0.959539  1
  F  F26  1  0.784166  0.311250  0.938650  1
  F  F27  1  0.347094  0.256698  0.987059  1
  F  F28  1  0.965934  0.938650  0.311250  1
  F  F29  1  0.964659  0.220946  0.526082  1
  F  F30  1  0.029054  0.285341  0.961687  1
  F  F31  1  0.288313  0.526082  0.220946  1
