# generated using pymatgen
data_Li2Mo(PO4)2
_symmetry_space_group_name_H-M   'P 1'
_cell_length_a   5.00936474
_cell_length_b   8.74937522
_cell_length_c   6.92497301
_cell_angle_alpha   90.00000000
_cell_angle_beta   95.94363443
_cell_angle_gamma   90.00000000
_symmetry_Int_Tables_number   1
_chemical_formula_structural   Li2Mo(PO4)2
_chemical_formula_sum   'Li4 Mo2 P4 O16'
_cell_volume   301.88172462
_cell_formula_units_Z   2
loop_
 _symmetry_equiv_pos_site_id
 _symmetry_equiv_pos_as_xyz
  1  'x, y, z'
loop_
 _atom_site_type_symbol
 _atom_site_label
 _atom_site_symmetry_multiplicity
 _atom_site_fract_x
 _atom_site_fract_y
 _atom_site_fract_z
 _atom_site_occupancy
  Li  Li0  1  0.750411  0.636756  0.404033  1
  Li  Li1  1  0.250502  0.492756  0.238169  1
  Li  Li2  1  0.249589  0.136756  0.595967  1
  Li  Li3  1  0.749498  0.992756  0.761831  1
  Mo  Mo4  1  0.740291  0.999744  0.239028  1
  Mo  Mo5  1  0.259709  0.499744  0.760972  1
  P  P6  1  0.797138  0.680330  0.982165  1
  P  P7  1  0.202862  0.180330  0.017835  1
  P  P8  1  0.287946  0.823522  0.479499  1
  P  P9  1  0.712054  0.323522  0.520501  1
  O  O10  1  0.018732  0.362690  0.569810  1
  O  O11  1  0.312473  0.648278  0.523442  1
  O  O12  1  0.596989  0.423816  0.355247  1
  O  O13  1  0.066837  0.139033  0.204964  1
  O  O14  1  0.497209  0.623986  0.947928  1
  O  O15  1  0.208471  0.357977  0.001005  1
  O  O16  1  0.442013  0.845069  0.295068  1
  O  O17  1  0.502791  0.123986  0.052072  1
  O  O18  1  0.557987  0.345069  0.704932  1
  O  O19  1  0.981268  0.862690  0.430190  1
  O  O20  1  0.403011  0.923816  0.644753  1
  O  O21  1  0.067163  0.110343  0.833941  1
  O  O22  1  0.932837  0.610343  0.166059  1
  O  O23  1  0.791529  0.857977  0.998995  1
  O  O24  1  0.687527  0.148278  0.476558  1
  O  O25  1  0.933163  0.639033  0.795036  1
