# generated using pymatgen
data_Sr2AlCO3F5
_symmetry_space_group_name_H-M   'P 1'
_cell_length_a   5.51977319
_cell_length_b   8.85456836
_cell_length_c   13.65690359
_cell_angle_alpha   90.00000000
_cell_angle_beta   105.28734996
_cell_angle_gamma   90.00000000
_symmetry_Int_Tables_number   1
_chemical_formula_structural   Sr2AlCO3F5
_chemical_formula_sum   'Sr8 Al4 C4 O12 F20'
_cell_volume   643.86553315
_cell_formula_units_Z   4
loop_
 _symmetry_equiv_pos_site_id
 _symmetry_equiv_pos_as_xyz
  1  'x, y, z'
loop_
 _atom_site_type_symbol
 _atom_site_label
 _atom_site_symmetry_multiplicity
 _atom_site_fract_x
 _atom_site_fract_y
 _atom_site_fract_z
 _atom_site_occupancy
  Sr  Sr0  1  0.695080  0.140765  0.411485  1
  Sr  Sr1  1  0.304920  0.640765  0.088515  1
  Sr  Sr2  1  0.307912  0.391139  0.598474  1
  Sr  Sr3  1  0.692088  0.891139  0.901526  1
  Sr  Sr4  1  0.692088  0.608861  0.401526  1
  Sr  Sr5  1  0.304920  0.859235  0.588515  1
  Sr  Sr6  1  0.307912  0.108861  0.098474  1
  Sr  Sr7  1  0.695080  0.359235  0.911485  1
  Al  Al8  1  0.196898  0.871957  0.330357  1
  Al  Al9  1  0.803102  0.128043  0.669643  1
  Al  Al10  1  0.196898  0.628043  0.830357  1
  Al  Al11  1  0.803102  0.371957  0.169643  1
  C  C12  1  0.174233  0.375304  0.361447  1
  C  C13  1  0.174233  0.124696  0.861447  1
  C  C14  1  0.825767  0.875304  0.138553  1
  C  C15  1  0.825767  0.624696  0.638553  1
  O  O16  1  0.996425  0.876202  0.088795  1
  O  O17  1  0.003575  0.123798  0.911205  1
  O  O18  1  0.881971  0.871011  0.236721  1
  O  O19  1  0.590060  0.878906  0.087593  1
  O  O20  1  0.409940  0.378906  0.412407  1
  O  O21  1  0.996425  0.623798  0.588795  1
  O  O22  1  0.118029  0.128989  0.763279  1
  O  O23  1  0.118029  0.371011  0.263279  1
  O  O24  1  0.881971  0.628989  0.736721  1
  O  O25  1  0.409940  0.121094  0.912407  1
  O  O26  1  0.590060  0.621094  0.587593  1
  O  O27  1  0.003575  0.376202  0.411205  1
  F  F28  1  0.669892  0.273402  0.733934  1
  F  F29  1  0.894009  0.224379  0.091273  1
  F  F30  1  0.489848  0.128675  0.570036  1
  F  F31  1  0.489848  0.371325  0.070036  1
  F  F32  1  0.510152  0.871325  0.429964  1
  F  F33  1  0.674647  0.972506  0.726291  1
  F  F34  1  0.669892  0.226598  0.233934  1
  F  F35  1  0.913593  0.993749  0.588773  1
  F  F36  1  0.105991  0.775621  0.908727  1
  F  F37  1  0.086407  0.493749  0.911227  1
  F  F38  1  0.325353  0.027494  0.273709  1
  F  F39  1  0.330108  0.773402  0.766066  1
  F  F40  1  0.330108  0.726598  0.266066  1
  F  F41  1  0.105991  0.724379  0.408727  1
  F  F42  1  0.894009  0.275621  0.591273  1
  F  F43  1  0.086407  0.006251  0.411227  1
  F  F44  1  0.510152  0.628675  0.929964  1
  F  F45  1  0.913593  0.506251  0.088773  1
  F  F46  1  0.674647  0.527494  0.226291  1
  F  F47  1  0.325353  0.472506  0.773709  1
