# generated using pymatgen
data_SiO2
_symmetry_space_group_name_H-M   'P 1'
_cell_length_a   7.10363891
_cell_length_b   7.10363891
_cell_length_c   9.05719309
_cell_angle_alpha   90.00000000
_cell_angle_beta   90.00000000
_cell_angle_gamma   94.46455708
_symmetry_Int_Tables_number   1
_chemical_formula_structural   SiO2
_chemical_formula_sum   'Si8 O16'
_cell_volume   455.65442121
_cell_formula_units_Z   8
loop_
 _symmetry_equiv_pos_site_id
 _symmetry_equiv_pos_as_xyz
  1  'x, y, z'
loop_
 _atom_site_type_symbol
 _atom_site_label
 _atom_site_symmetry_multiplicity
 _atom_site_fract_x
 _atom_site_fract_y
 _atom_site_fract_z
 _atom_site_occupancy
  Si  Si0  1  0.969902  0.701086  0.574914  1
  Si  Si1  1  0.701086  0.969902  0.074914  1
  Si  Si2  1  0.030098  0.298914  0.074914  1
  Si  Si3  1  0.969902  0.701086  0.925086  1
  Si  Si4  1  0.030098  0.298914  0.425086  1
  Si  Si5  1  0.298914  0.030098  0.574914  1
  Si  Si6  1  0.701086  0.969902  0.425086  1
  Si  Si7  1  0.298914  0.030098  0.925086  1
  O  O8  1  0.212244  0.212244  1.000000  1
  O  O9  1  0.841189  0.158811  0.452655  1
  O  O10  1  0.158811  0.841189  0.952655  1
  O  O11  1  0.787756  0.787756  0.500000  1
  O  O12  1  0.070018  0.327874  0.250000  1
  O  O13  1  0.672126  0.929982  0.250000  1
  O  O14  1  0.500000  0.000000  0.500000  1
  O  O15  1  0.212244  0.212244  0.500000  1
  O  O16  1  0.841189  0.158811  0.047345  1
  O  O17  1  0.787756  0.787756  0.000000  1
  O  O18  1  0.158811  0.841189  0.547345  1
  O  O19  1  0.327874  0.070018  0.750000  1
  O  O20  1  0.929982  0.672126  0.750000  1
  O  O21  1  0.000000  0.500000  0.000000  1
  O  O22  1  0.000000  0.500000  0.500000  1
  O  O23  1  0.500000  0.000000  1.000000  1
