# generated using pymatgen
data_K2PdSe10
_symmetry_space_group_name_H-M   'P 1'
_cell_length_a   13.22107102
_cell_length_b   13.22107102
_cell_length_c   13.22107102
_cell_angle_alpha   103.14785508
_cell_angle_beta   103.14785508
_cell_angle_gamma   123.02948546
_symmetry_Int_Tables_number   1
_chemical_formula_structural   K2PdSe10
_chemical_formula_sum   'K8 Pd4 Se40'
_cell_volume   1702.96317042
_cell_formula_units_Z   4
loop_
 _symmetry_equiv_pos_site_id
 _symmetry_equiv_pos_as_xyz
  1  'x, y, z'
loop_
 _atom_site_type_symbol
 _atom_site_label
 _atom_site_symmetry_multiplicity
 _atom_site_fract_x
 _atom_site_fract_y
 _atom_site_fract_z
 _atom_site_occupancy
  K  K0  1  0.097019  0.601834  0.696684  1
  K  K1  1  0.344850  0.148166  0.995185  1
  K  K2  1  0.650334  0.655150  0.803316  1
  K  K3  1  0.152981  0.349666  0.004815  1
  K  K4  1  0.851834  0.847019  0.196684  1
  K  K5  1  0.398166  0.094850  0.495185  1
  K  K6  1  0.905150  0.400334  0.303316  1
  K  K7  1  0.599666  0.902981  0.504815  1
  Pd  Pd8  1  0.500000  0.500000  0.000000  1
  Pd  Pd9  1  0.000000  0.000000  0.000000  1
  Pd  Pd10  1  0.750000  0.250000  0.500000  1
  Pd  Pd11  1  0.250000  0.750000  0.500000  1
  Se  Se12  1  0.004434  0.831800  0.449672  1
  Se  Se13  1  0.000697  0.159409  0.141027  1
  Se  Se14  1  0.152653  0.071997  0.551894  1
  Se  Se15  1  0.675081  0.981618  0.216870  1
  Se  Se16  1  0.850759  0.270103  0.948106  1
  Se  Se17  1  0.541789  0.324919  0.306537  1
  Se  Se18  1  0.729897  0.678003  0.580656  1
  Se  Se19  1  0.097347  0.149241  0.419344  1
  Se  Se20  1  0.245566  0.195238  0.327366  1
  Se  Se21  1  0.840591  0.981618  0.841288  1
  Se  Se22  1  0.321997  0.902653  0.051894  1
  Se  Se23  1  0.018382  0.859670  0.858973  1
  Se  Se24  1  0.168200  0.617872  0.172634  1
  Se  Se25  1  0.699695  0.396830  0.581379  1
  Se  Se26  1  0.804762  0.132128  0.050328  1
  Se  Se27  1  0.368316  0.565451  0.918621  1
  Se  Se28  1  0.249303  0.890330  0.658712  1
  Se  Se29  1  0.434549  0.353170  0.802865  1
  Se  Se30  1  0.081800  0.754434  0.949672  1
  Se  Se31  1  0.708211  0.514748  0.283130  1
  Se  Se32  1  0.867872  0.918200  0.672634  1
  Se  Se33  1  0.140330  0.999303  0.158712  1
  Se  Se34  1  0.231618  0.425081  0.716870  1
  Se  Se35  1  0.520103  0.600759  0.448106  1
  Se  Se36  1  0.109670  0.768382  0.358973  1
  Se  Se37  1  0.815451  0.118316  0.418621  1
  Se  Se38  1  0.550305  0.631684  0.197135  1
  Se  Se39  1  0.881684  0.300305  0.697135  1
  Se  Se40  1  0.409409  0.750697  0.641027  1
  Se  Se41  1  0.574919  0.291789  0.806537  1
  Se  Se42  1  0.928003  0.479897  0.080656  1
  Se  Se43  1  0.382128  0.554762  0.550328  1
  Se  Se44  1  0.018382  0.235252  0.693463  1
  Se  Se45  1  0.603170  0.184549  0.302865  1
  Se  Se46  1  0.646830  0.449695  0.081379  1
  Se  Se47  1  0.231618  0.590591  0.341288  1
  Se  Se48  1  0.399241  0.847347  0.919344  1
  Se  Se49  1  0.764748  0.458211  0.783130  1
  Se  Se50  1  0.485252  0.768382  0.193463  1
  Se  Se51  1  0.445238  0.995566  0.827366  1
