# generated using pymatgen
data_Ag2Ge2O5
_symmetry_space_group_name_H-M   'P 1'
_cell_length_a   11.22981647
_cell_length_b   10.29524494
_cell_length_c   12.47190712
_cell_angle_alpha   90.00000000
_cell_angle_beta   94.50471246
_cell_angle_gamma   90.00000000
_symmetry_Int_Tables_number   1
_chemical_formula_structural   Ag2Ge2O5
_chemical_formula_sum   'Ag24 Ge24 O60'
_cell_volume   1437.46918870
_cell_formula_units_Z   12
loop_
 _symmetry_equiv_pos_site_id
 _symmetry_equiv_pos_as_xyz
  1  'x, y, z'
loop_
 _atom_site_type_symbol
 _atom_site_label
 _atom_site_symmetry_multiplicity
 _atom_site_fract_x
 _atom_site_fract_y
 _atom_site_fract_z
 _atom_site_occupancy
  Ag  Ag0  1  0.178771  0.657628  0.514186  1
  Ag  Ag1  1  0.881400  0.863292  0.905176  1
  Ag  Ag2  1  0.149643  0.825368  0.316129  1
  Ag  Ag3  1  0.850357  0.174632  0.683871  1
  Ag  Ag4  1  0.385258  0.716781  0.351155  1
  Ag  Ag5  1  0.881400  0.636708  0.405176  1
  Ag  Ag6  1  0.397567  0.666869  0.080909  1
  Ag  Ag7  1  0.636179  0.795571  0.327512  1
  Ag  Ag8  1  0.363821  0.204429  0.672488  1
  Ag  Ag9  1  0.614742  0.216781  0.148845  1
  Ag  Ag10  1  0.602433  0.166869  0.419091  1
  Ag  Ag11  1  0.821229  0.342372  0.485814  1
  Ag  Ag12  1  0.821229  0.157628  0.985814  1
  Ag  Ag13  1  0.850357  0.325368  0.183871  1
  Ag  Ag14  1  0.636179  0.704429  0.827512  1
  Ag  Ag15  1  0.149643  0.674632  0.816129  1
  Ag  Ag16  1  0.118600  0.363292  0.594824  1
  Ag  Ag17  1  0.178771  0.842372  0.014186  1
  Ag  Ag18  1  0.614742  0.283219  0.648845  1
  Ag  Ag19  1  0.602433  0.333131  0.919091  1
  Ag  Ag20  1  0.118600  0.136708  0.094824  1
  Ag  Ag21  1  0.385258  0.783219  0.851155  1
  Ag  Ag22  1  0.397567  0.833131  0.580909  1
  Ag  Ag23  1  0.363821  0.295571  0.172488  1
  Ge  Ge24  1  0.392673  0.077008  0.963287  1
  Ge  Ge25  1  0.412007  0.532863  0.703360  1
  Ge  Ge26  1  0.587993  0.032863  0.796640  1
  Ge  Ge27  1  0.587993  0.467137  0.296640  1
  Ge  Ge28  1  0.607327  0.577008  0.536713  1
  Ge  Ge29  1  0.127346  0.490218  0.047558  1
  Ge  Ge30  1  0.127346  0.009782  0.547558  1
  Ge  Ge31  1  0.962968  0.665638  0.145407  1
  Ge  Ge32  1  0.872654  0.990218  0.452442  1
  Ge  Ge33  1  0.701082  0.616447  0.100593  1
  Ge  Ge34  1  0.037032  0.165638  0.354593  1
  Ge  Ge35  1  0.872654  0.509782  0.952442  1
  Ge  Ge36  1  0.962968  0.834362  0.645407  1
  Ge  Ge37  1  0.037032  0.334362  0.854593  1
  Ge  Ge38  1  0.412007  0.967137  0.203360  1
  Ge  Ge39  1  0.298918  0.383553  0.899407  1
  Ge  Ge40  1  0.124906  0.464365  0.300177  1
  Ge  Ge41  1  0.607327  0.922992  0.036713  1
  Ge  Ge42  1  0.124906  0.035635  0.800177  1
  Ge  Ge43  1  0.701082  0.883553  0.600593  1
  Ge  Ge44  1  0.298918  0.116447  0.399407  1
  Ge  Ge45  1  0.875094  0.964365  0.199823  1
  Ge  Ge46  1  0.392673  0.422992  0.463287  1
  Ge  Ge47  1  0.875094  0.535635  0.699823  1
  O  O48  1  0.772583  0.978176  0.081601  1
  O  O49  1  0.438155  0.600100  0.487026  1
  O  O50  1  0.424452  0.447648  0.829196  1
  O  O51  1  0.424452  0.052352  0.329196  1
  O  O52  1  0.725977  0.480285  0.014329  1
  O  O53  1  0.561845  0.100100  0.012974  1
  O  O54  1  0.436128  0.071410  0.817357  1
  O  O55  1  0.575548  0.947648  0.670804  1
  O  O56  1  0.800033  0.938954  0.317417  1
  O  O57  1  0.618505  0.758176  0.532244  1
  O  O58  1  0.343080  0.420428  0.608309  1
  O  O59  1  0.199967  0.061046  0.682583  1
  O  O60  1  0.725977  0.019715  0.514329  1
  O  O61  1  0.381495  0.241824  0.467756  1
  O  O62  1  0.324455  0.824487  0.211274  1
  O  O63  1  0.656920  0.920428  0.891691  1
  O  O64  1  0.981792  0.843284  0.173529  1
  O  O65  1  0.381495  0.258176  0.967756  1
  O  O66  1  0.959428  0.386470  0.711452  1
  O  O67  1  0.618505  0.741824  0.032244  1
  O  O68  1  0.563872  0.571410  0.682643  1
  O  O69  1  0.132822  0.180732  0.489180  1
  O  O70  1  0.959428  0.113530  0.211452  1
  O  O71  1  0.324455  0.675513  0.711274  1
  O  O72  1  0.040572  0.613530  0.288548  1
  O  O73  1  0.018208  0.156716  0.826471  1
  O  O74  1  0.966309  0.020341  0.596620  1
  O  O75  1  0.033691  0.520341  0.903380  1
  O  O76  1  0.800033  0.561046  0.817417  1
  O  O77  1  0.656920  0.579572  0.391691  1
  O  O78  1  0.111994  0.834206  0.585263  1
  O  O79  1  0.888006  0.334206  0.914737  1
  O  O80  1  0.981792  0.656716  0.673529  1
  O  O81  1  0.227417  0.021824  0.918399  1
  O  O82  1  0.772583  0.521824  0.581601  1
  O  O83  1  0.018208  0.343284  0.326471  1
  O  O84  1  0.343080  0.079572  0.108309  1
  O  O85  1  0.438155  0.899900  0.987026  1
  O  O86  1  0.040572  0.886470  0.788548  1
  O  O87  1  0.033691  0.979659  0.403380  1
  O  O88  1  0.274023  0.519715  0.985671  1
  O  O89  1  0.186275  0.354231  0.793097  1
  O  O90  1  0.436128  0.428590  0.317357  1
  O  O91  1  0.561845  0.399900  0.512974  1
  O  O92  1  0.575548  0.552352  0.170804  1
  O  O93  1  0.675545  0.175513  0.788726  1
  O  O94  1  0.227417  0.478176  0.418399  1
  O  O95  1  0.867178  0.680732  0.010820  1
  O  O96  1  0.813725  0.645769  0.206903  1
  O  O97  1  0.274023  0.980285  0.485671  1
  O  O98  1  0.888006  0.165794  0.414737  1
  O  O99  1  0.966309  0.479659  0.096620  1
  O  O100  1  0.675545  0.324487  0.288726  1
  O  O101  1  0.813725  0.854231  0.706903  1
  O  O102  1  0.111994  0.665794  0.085263  1
  O  O103  1  0.186275  0.145769  0.293097  1
  O  O104  1  0.867178  0.819268  0.510820  1
  O  O105  1  0.563872  0.928590  0.182643  1
  O  O106  1  0.132822  0.319268  0.989180  1
  O  O107  1  0.199967  0.438954  0.182583  1
