# generated using pymatgen
data_ScP(H2O3)2
_symmetry_space_group_name_H-M   'P 1'
_cell_length_a   5.47845235
_cell_length_b   10.33755665
_cell_length_c   10.40894632
_cell_angle_alpha   90.00000000
_cell_angle_beta   120.10923312
_cell_angle_gamma   90.00000000
_symmetry_Int_Tables_number   1
_chemical_formula_structural   ScP(H2O3)2
_chemical_formula_sum   'Sc4 P4 H16 O24'
_cell_volume   509.95764668
_cell_formula_units_Z   4
loop_
 _symmetry_equiv_pos_site_id
 _symmetry_equiv_pos_as_xyz
  1  'x, y, z'
loop_
 _atom_site_type_symbol
 _atom_site_label
 _atom_site_symmetry_multiplicity
 _atom_site_fract_x
 _atom_site_fract_y
 _atom_site_fract_z
 _atom_site_occupancy
  Sc  Sc0  1  0.110934  0.330518  0.699664  1
  Sc  Sc1  1  0.889066  0.830518  0.800336  1
  Sc  Sc2  1  0.889066  0.669482  0.300336  1
  Sc  Sc3  1  0.110934  0.169482  0.199664  1
  P  P4  1  0.725177  0.150012  0.818270  1
  P  P5  1  0.274823  0.650012  0.681730  1
  P  P6  1  0.274823  0.849988  0.181730  1
  P  P7  1  0.725177  0.349988  0.318270  1
  H  H8  1  0.893860  0.550636  0.730776  1
  H  H9  1  0.106140  0.050636  0.769224  1
  H  H10  1  0.106140  0.449364  0.269224  1
  H  H11  1  0.893860  0.949364  0.230776  1
  H  H12  1  0.625245  0.462150  0.697017  1
  H  H13  1  0.374755  0.962150  0.802983  1
  H  H14  1  0.374755  0.537850  0.302983  1
  H  H15  1  0.625245  0.037850  0.197017  1
  H  H16  1  0.341627  0.336945  0.019412  1
  H  H17  1  0.658373  0.836945  0.480588  1
  H  H18  1  0.658373  0.663055  0.980588  1
  H  H19  1  0.341627  0.163055  0.519412  1
  H  H20  1  0.576711  0.318034  0.976102  1
  H  H21  1  0.423289  0.818034  0.523898  1
  H  H22  1  0.423289  0.681966  0.023898  1
  H  H23  1  0.576711  0.181966  0.476102  1
  O  O24  1  0.915419  0.181756  0.751027  1
  O  O25  1  0.084581  0.681756  0.748973  1
  O  O26  1  0.084581  0.818244  0.248973  1
  O  O27  1  0.915419  0.318244  0.251027  1
  O  O28  1  0.850597  0.209913  0.975407  1
  O  O29  1  0.149403  0.709913  0.524593  1
  O  O30  1  0.149403  0.790087  0.024593  1
  O  O31  1  0.850597  0.290087  0.475407  1
  O  O32  1  0.427421  0.208182  0.715561  1
  O  O33  1  0.572579  0.708182  0.784439  1
  O  O34  1  0.572579  0.791818  0.284439  1
  O  O35  1  0.427421  0.291818  0.215561  1
  O  O36  1  0.703030  0.000460  0.824922  1
  O  O37  1  0.296970  0.500460  0.675078  1
  O  O38  1  0.296970  0.999540  0.175078  1
  O  O39  1  0.703030  0.499540  0.324922  1
  O  O40  1  0.821107  0.459811  0.714198  1
  O  O41  1  0.178893  0.959811  0.785802  1
  O  O42  1  0.178893  0.540189  0.285802  1
  O  O43  1  0.821107  0.040189  0.214198  1
  O  O44  1  0.385519  0.353681  0.939813  1
  O  O45  1  0.614481  0.853681  0.560187  1
  O  O46  1  0.614481  0.646319  0.060187  1
  O  O47  1  0.385519  0.146319  0.439813  1
