# generated using pymatgen
data_Nb2AgPS10
_symmetry_space_group_name_H-M   'P 1'
_cell_length_a   13.31204261
_cell_length_b   13.31204261
_cell_length_c   13.05949154
_cell_angle_alpha   86.43852452
_cell_angle_beta   93.56147548
_cell_angle_gamma   143.97456937
_symmetry_Int_Tables_number   1
_chemical_formula_structural   Nb2AgPS10
_chemical_formula_sum   'Nb8 Ag4 P4 S40'
_cell_volume   1358.22283514
_cell_formula_units_Z   4
loop_
 _symmetry_equiv_pos_site_id
 _symmetry_equiv_pos_as_xyz
  1  'x, y, z'
loop_
 _atom_site_type_symbol
 _atom_site_label
 _atom_site_symmetry_multiplicity
 _atom_site_fract_x
 _atom_site_fract_y
 _atom_site_fract_z
 _atom_site_occupancy
  Nb  Nb0  1  0.932692  0.202634  0.286535  1
  Nb  Nb1  1  0.188202  0.914800  0.504812  1
  Nb  Nb2  1  0.811798  0.085200  0.495188  1
  Nb  Nb3  1  0.202634  0.932692  0.213465  1
  Nb  Nb4  1  0.067308  0.797366  0.713465  1
  Nb  Nb5  1  0.797366  0.067308  0.786535  1
  Nb  Nb6  1  0.914800  0.188202  0.995188  1
  Nb  Nb7  1  0.085200  0.811798  0.004812  1
  Ag  Ag8  1  0.471419  0.585979  0.904387  1
  Ag  Ag9  1  0.585979  0.471419  0.595613  1
  Ag  Ag10  1  0.528581  0.414021  0.095613  1
  Ag  Ag11  1  0.414021  0.528581  0.404387  1
  P  P12  1  0.721306  0.533696  0.866577  1
  P  P13  1  0.466304  0.278694  0.366577  1
  P  P14  1  0.533696  0.721306  0.633423  1
  P  P15  1  0.278694  0.466304  0.133423  1
  S  S16  1  0.070013  0.200791  0.146181  1
  S  S17  1  0.739994  0.149720  0.632264  1
  S  S18  1  0.218544  0.510896  0.006344  1
  S  S19  1  0.476537  0.740834  0.769410  1
  S  S20  1  0.818671  0.946635  0.930361  1
  S  S21  1  0.149720  0.739994  0.867736  1
  S  S22  1  0.489104  0.781456  0.506344  1
  S  S23  1  0.514210  0.597577  0.114574  1
  S  S24  1  0.341750  0.932392  0.093103  1
  S  S25  1  0.597577  0.514210  0.385426  1
  S  S26  1  0.260006  0.850280  0.367736  1
  S  S27  1  0.932392  0.341750  0.406897  1
  S  S28  1  0.485790  0.402423  0.885426  1
  S  S29  1  0.305240  0.888471  0.641450  1
  S  S30  1  0.181329  0.053365  0.069639  1
  S  S31  1  0.781456  0.489104  0.993656  1
  S  S32  1  0.053365  0.181329  0.430361  1
  S  S33  1  0.296144  0.985985  0.856456  1
  S  S34  1  0.985985  0.296144  0.643544  1
  S  S35  1  0.047796  0.179272  0.870449  1
  S  S36  1  0.179272  0.047796  0.629551  1
  S  S37  1  0.111529  0.694760  0.141450  1
  S  S38  1  0.929987  0.799209  0.853819  1
  S  S39  1  0.952204  0.820728  0.129551  1
  S  S40  1  0.850280  0.260006  0.132264  1
  S  S41  1  0.402423  0.485790  0.614574  1
  S  S42  1  0.888471  0.305240  0.858550  1
  S  S43  1  0.259166  0.523463  0.269410  1
  S  S44  1  0.694760  0.111529  0.358550  1
  S  S45  1  0.740834  0.476537  0.730590  1
  S  S46  1  0.946635  0.818671  0.569639  1
  S  S47  1  0.523463  0.259166  0.230590  1
  S  S48  1  0.014015  0.703856  0.356456  1
  S  S49  1  0.820728  0.952204  0.370449  1
  S  S50  1  0.200791  0.070013  0.353819  1
  S  S51  1  0.799209  0.929987  0.646181  1
  S  S52  1  0.658250  0.067608  0.906897  1
  S  S53  1  0.510896  0.218544  0.493656  1
  S  S54  1  0.067608  0.658250  0.593103  1
  S  S55  1  0.703856  0.014015  0.143544  1
