# generated using pymatgen
data_TeBrO3F5
_symmetry_space_group_name_H-M   'P 1'
_cell_length_a   5.43041568
_cell_length_b   6.40319623
_cell_length_c   20.17216404
_cell_angle_alpha   90.00000000
_cell_angle_beta   90.30076102
_cell_angle_gamma   90.00000000
_symmetry_Int_Tables_number   1
_chemical_formula_structural   TeBrO3F5
_chemical_formula_sum   'Te4 Br4 O12 F20'
_cell_volume   701.41717155
_cell_formula_units_Z   4
loop_
 _symmetry_equiv_pos_site_id
 _symmetry_equiv_pos_as_xyz
  1  'x, y, z'
loop_
 _atom_site_type_symbol
 _atom_site_label
 _atom_site_symmetry_multiplicity
 _atom_site_fract_x
 _atom_site_fract_y
 _atom_site_fract_z
 _atom_site_occupancy
  Te  Te0  1  0.247626  0.718279  0.909308  1
  Te  Te1  1  0.752374  0.218279  0.590692  1
  Te  Te2  1  0.247626  0.781721  0.409308  1
  Te  Te3  1  0.752374  0.281721  0.090692  1
  Br  Br4  1  0.753851  0.170216  0.258882  1
  Br  Br5  1  0.753851  0.329784  0.758882  1
  Br  Br6  1  0.246149  0.829784  0.741118  1
  Br  Br7  1  0.246149  0.670216  0.241118  1
  O  O8  1  0.604682  0.180914  0.810239  1
  O  O9  1  0.382930  0.686609  0.822048  1
  O  O10  1  0.952750  0.726847  0.241904  1
  O  O11  1  0.604682  0.319086  0.310239  1
  O  O12  1  0.395318  0.819086  0.189761  1
  O  O13  1  0.395318  0.680914  0.689761  1
  O  O14  1  0.047250  0.226847  0.258096  1
  O  O15  1  0.952750  0.773153  0.741904  1
  O  O16  1  0.617070  0.186609  0.677952  1
  O  O17  1  0.047250  0.273153  0.758096  1
  O  O18  1  0.382930  0.813391  0.322048  1
  O  O19  1  0.617070  0.313391  0.177952  1
  F  F20  1  0.114872  0.757072  0.494036  1
  F  F21  1  0.104975  0.523509  0.386351  1
  F  F22  1  0.047034  0.082889  0.616360  1
  F  F23  1  0.530795  0.854713  0.940104  1
  F  F24  1  0.530795  0.645287  0.440104  1
  F  F25  1  0.952966  0.582889  0.883640  1
  F  F26  1  0.952966  0.917111  0.383640  1
  F  F27  1  0.895025  0.023509  0.113649  1
  F  F28  1  0.114872  0.742928  0.994036  1
  F  F29  1  0.469205  0.145287  0.059896  1
  F  F30  1  0.895025  0.476491  0.613649  1
  F  F31  1  0.885128  0.242928  0.505964  1
  F  F32  1  0.616360  0.540669  0.067633  1
  F  F33  1  0.104975  0.976491  0.886351  1
  F  F34  1  0.383640  0.459331  0.932367  1
  F  F35  1  0.047034  0.417111  0.116360  1
  F  F36  1  0.469205  0.354713  0.559896  1
  F  F37  1  0.383640  0.040669  0.432367  1
  F  F38  1  0.616360  0.959331  0.567633  1
  F  F39  1  0.885128  0.257072  0.005964  1
