# generated using pymatgen
data_Ni(NF7)2
_symmetry_space_group_name_H-M   'P 1'
_cell_length_a   6.78375584
_cell_length_b   6.78375584
_cell_length_c   6.78375584
_cell_angle_alpha   119.04208998
_cell_angle_beta   119.04208998
_cell_angle_gamma   91.66731415
_symmetry_Int_Tables_number   1
_chemical_formula_structural   Ni(NF7)2
_chemical_formula_sum   'Ni1 N2 F14'
_cell_volume   223.84101496
_cell_formula_units_Z   1
loop_
 _symmetry_equiv_pos_site_id
 _symmetry_equiv_pos_as_xyz
  1  'x, y, z'
loop_
 _atom_site_type_symbol
 _atom_site_label
 _atom_site_symmetry_multiplicity
 _atom_site_fract_x
 _atom_site_fract_y
 _atom_site_fract_z
 _atom_site_occupancy
  Ni  Ni0  1  0.000000  0.000000  0.000000  1
  N  N1  1  0.250000  0.750000  0.500000  1
  N  N2  1  0.750000  0.250000  0.500000  1
  F  F3  1  0.972590  0.258215  0.567844  1
  F  F4  1  0.131778  0.771834  0.903612  1
  F  F5  1  0.771834  0.868222  0.640057  1
  F  F6  1  0.228166  0.131778  0.359943  1
  F  F7  1  0.868222  0.228166  0.096388  1
  F  F8  1  0.190965  0.190965  0.000000  1
  F  F9  1  0.809035  0.809035  0.000000  1
  F  F10  1  0.309629  0.595254  0.567844  1
  F  F11  1  0.595254  0.027410  0.285625  1
  F  F12  1  0.741785  0.309629  0.714375  1
  F  F13  1  0.027410  0.741785  0.432156  1
  F  F14  1  0.690371  0.404746  0.432156  1
  F  F15  1  0.404746  0.972590  0.714375  1
  F  F16  1  0.258215  0.690371  0.285625  1
