# generated using pymatgen
data_KNaSnF6
_symmetry_space_group_name_H-M   'P 1'
_cell_length_a   6.09858009
_cell_length_b   8.28165301
_cell_length_c   12.03060589
_cell_angle_alpha   90.00000000
_cell_angle_beta   90.00000000
_cell_angle_gamma   90.00000000
_symmetry_Int_Tables_number   1
_chemical_formula_structural   KNaSnF6
_chemical_formula_sum   'K4 Na4 Sn4 F24'
_cell_volume   607.62168091
_cell_formula_units_Z   4
loop_
 _symmetry_equiv_pos_site_id
 _symmetry_equiv_pos_as_xyz
  1  'x, y, z'
loop_
 _atom_site_type_symbol
 _atom_site_label
 _atom_site_symmetry_multiplicity
 _atom_site_fract_x
 _atom_site_fract_y
 _atom_site_fract_z
 _atom_site_occupancy
  K  K0  1  0.037624  0.755548  0.457780  1
  K  K1  1  0.537624  0.255548  0.042220  1
  K  K2  1  0.462376  0.755548  0.957780  1
  K  K3  1  0.962376  0.255548  0.542220  1
  Na  Na4  1  0.447052  0.501130  0.648835  1
  Na  Na5  1  0.552948  0.001130  0.351165  1
  Na  Na6  1  0.947052  0.001130  0.851165  1
  Na  Na7  1  0.052948  0.501130  0.148835  1
  Sn  Sn8  1  0.451432  0.999656  0.637020  1
  Sn  Sn9  1  0.048568  0.999656  0.137020  1
  Sn  Sn10  1  0.548568  0.499656  0.362980  1
  Sn  Sn11  1  0.951432  0.499656  0.862980  1
  F  F12  1  0.646480  0.269769  0.372524  1
  F  F13  1  0.169388  0.063275  0.709591  1
  F  F14  1  0.779142  0.958080  0.043424  1
  F  F15  1  0.451572  0.730998  0.358871  1
  F  F16  1  0.353520  0.769769  0.627476  1
  F  F17  1  0.548428  0.230998  0.641129  1
  F  F18  1  0.100893  0.455319  0.718126  1
  F  F19  1  0.279142  0.458080  0.456576  1
  F  F20  1  0.709426  0.536325  0.508581  1
  F  F21  1  0.669388  0.563275  0.790409  1
  F  F22  1  0.399107  0.455319  0.218126  1
  F  F23  1  0.899107  0.955319  0.281874  1
  F  F24  1  0.220858  0.458080  0.956576  1
  F  F25  1  0.720858  0.958080  0.543424  1
  F  F26  1  0.209426  0.036325  0.991419  1
  F  F27  1  0.951572  0.230998  0.141129  1
  F  F28  1  0.790574  0.536325  0.008581  1
  F  F29  1  0.830612  0.563275  0.290409  1
  F  F30  1  0.048428  0.730998  0.858871  1
  F  F31  1  0.330612  0.063275  0.209591  1
  F  F32  1  0.290574  0.036325  0.491419  1
  F  F33  1  0.853520  0.269769  0.872524  1
  F  F34  1  0.600893  0.955319  0.781874  1
  F  F35  1  0.146480  0.769769  0.127476  1
