# generated using pymatgen
data_Cs2AgAsS4
_symmetry_space_group_name_H-M   'P 1'
_cell_length_a   6.93444707
_cell_length_b   7.35331049
_cell_length_c   11.34349411
_cell_angle_alpha   73.16321510
_cell_angle_beta   74.43827012
_cell_angle_gamma   71.12703551
_symmetry_Int_Tables_number   1
_chemical_formula_structural   Cs2AgAsS4
_chemical_formula_sum   'Cs4 Ag2 As2 S8'
_cell_volume   514.03410425
_cell_formula_units_Z   2
loop_
 _symmetry_equiv_pos_site_id
 _symmetry_equiv_pos_as_xyz
  1  'x, y, z'
loop_
 _atom_site_type_symbol
 _atom_site_label
 _atom_site_symmetry_multiplicity
 _atom_site_fract_x
 _atom_site_fract_y
 _atom_site_fract_z
 _atom_site_occupancy
  Cs  Cs0  1  0.762062  0.513828  0.188613  1
  Cs  Cs1  1  0.269952  0.239675  0.403741  1
  Cs  Cs2  1  0.237938  0.486172  0.811387  1
  Cs  Cs3  1  0.730048  0.760325  0.596259  1
  Ag  Ag4  1  0.638444  0.082016  0.078343  1
  Ag  Ag5  1  0.361556  0.917984  0.921657  1
  As  As6  1  0.140007  0.865304  0.231058  1
  As  As7  1  0.859993  0.134696  0.768942  1
  S  S8  1  0.794910  0.949340  0.271177  1
  S  S9  1  0.254434  0.742480  0.406068  1
  S  S10  1  0.258369  0.645950  0.113706  1
  S  S11  1  0.741631  0.354050  0.886294  1
  S  S12  1  0.757032  0.867616  0.879576  1
  S  S13  1  0.205090  0.050660  0.728823  1
  S  S14  1  0.745566  0.257520  0.593932  1
  S  S15  1  0.242968  0.132384  0.120424  1
