# generated using pymatgen
data_RbCO2
_symmetry_space_group_name_H-M   'P 1'
_cell_length_a   3.69246571
_cell_length_b   6.40392390
_cell_length_c   11.48415141
_cell_angle_alpha   90.00000000
_cell_angle_beta   90.00000000
_cell_angle_gamma   90.00000000
_symmetry_Int_Tables_number   1
_chemical_formula_structural   RbCO2
_chemical_formula_sum   'Rb4 C4 O8'
_cell_volume   271.55733819
_cell_formula_units_Z   4
loop_
 _symmetry_equiv_pos_site_id
 _symmetry_equiv_pos_as_xyz
  1  'x, y, z'
loop_
 _atom_site_type_symbol
 _atom_site_label
 _atom_site_symmetry_multiplicity
 _atom_site_fract_x
 _atom_site_fract_y
 _atom_site_fract_z
 _atom_site_occupancy
  Rb  Rb0  1  0.500000  0.094489  0.151896  1
  Rb  Rb1  1  0.500000  0.405511  0.651896  1
  Rb  Rb2  1  0.500000  0.905511  0.848104  1
  Rb  Rb3  1  0.500000  0.594489  0.348104  1
  C  C4  1  0.000000  0.067239  0.441564  1
  C  C5  1  0.000000  0.567239  0.058436  1
  C  C6  1  0.000000  0.932761  0.558436  1
  C  C7  1  0.000000  0.432761  0.941564  1
  O  O8  1  0.000000  0.466428  0.153895  1
  O  O9  1  0.000000  0.264380  0.452332  1
  O  O10  1  0.000000  0.235620  0.952332  1
  O  O11  1  0.000000  0.966428  0.346105  1
  O  O12  1  0.000000  0.033572  0.653895  1
  O  O13  1  0.000000  0.533572  0.846105  1
  O  O14  1  0.000000  0.735620  0.547668  1
  O  O15  1  0.000000  0.764380  0.047668  1
