# generated using pymatgen
data_ZrHg3(SCl3)2
_symmetry_space_group_name_H-M   'P 1'
_cell_length_a   6.78409000
_cell_length_b   7.54457640
_cell_length_c   13.28434362
_cell_angle_alpha   90.00000000
_cell_angle_beta   91.47257671
_cell_angle_gamma   90.00000000
_symmetry_Int_Tables_number   1
_chemical_formula_structural   ZrHg3(SCl3)2
_chemical_formula_sum   'Zr2 Hg6 S4 Cl12'
_cell_volume   679.70913725
_cell_formula_units_Z   2
loop_
 _symmetry_equiv_pos_site_id
 _symmetry_equiv_pos_as_xyz
  1  'x, y, z'
loop_
 _atom_site_type_symbol
 _atom_site_label
 _atom_site_symmetry_multiplicity
 _atom_site_fract_x
 _atom_site_fract_y
 _atom_site_fract_z
 _atom_site_occupancy
  Zr  Zr0  1  0.500000  0.500000  0.000000  1
  Zr  Zr1  1  0.500000  0.000000  0.500000  1
  Hg  Hg2  1  0.991566  0.794725  0.740476  1
  Hg  Hg3  1  0.008434  0.205275  0.259524  1
  Hg  Hg4  1  0.008434  0.294725  0.759524  1
  Hg  Hg5  1  0.991566  0.705275  0.240476  1
  Hg  Hg6  1  0.000000  0.000000  0.000000  1
  Hg  Hg7  1  0.000000  0.500000  0.500000  1
  S  S8  1  0.152608  0.960958  0.167993  1
  S  S9  1  0.847392  0.460958  0.332007  1
  S  S10  1  0.152608  0.539042  0.667993  1
  S  S11  1  0.847392  0.039042  0.832007  1
  Cl  Cl12  1  0.647516  0.950559  0.332732  1
  Cl  Cl13  1  0.366947  0.287000  0.436232  1
  Cl  Cl14  1  0.633053  0.713000  0.563768  1
  Cl  Cl15  1  0.647516  0.549441  0.832732  1
  Cl  Cl16  1  0.633053  0.787000  0.063768  1
  Cl  Cl17  1  0.186549  0.853172  0.440583  1
  Cl  Cl18  1  0.352484  0.450559  0.167268  1
  Cl  Cl19  1  0.352484  0.049441  0.667268  1
  Cl  Cl20  1  0.813451  0.146828  0.559417  1
  Cl  Cl21  1  0.366947  0.213000  0.936232  1
  Cl  Cl22  1  0.186549  0.646828  0.940583  1
  Cl  Cl23  1  0.813451  0.353172  0.059417  1
