# generated using pymatgen
data_Cs2MgCl4
_symmetry_space_group_name_H-M   'P 1'
_cell_length_a   7.66170434
_cell_length_b   9.95103552
_cell_length_c   13.53736914
_cell_angle_alpha   90.00000000
_cell_angle_beta   90.00000000
_cell_angle_gamma   90.00000000
_symmetry_Int_Tables_number   1
_chemical_formula_structural   Cs2MgCl4
_chemical_formula_sum   'Cs8 Mg4 Cl16'
_cell_volume   1032.11463636
_cell_formula_units_Z   4
loop_
 _symmetry_equiv_pos_site_id
 _symmetry_equiv_pos_as_xyz
  1  'x, y, z'
loop_
 _atom_site_type_symbol
 _atom_site_label
 _atom_site_symmetry_multiplicity
 _atom_site_fract_x
 _atom_site_fract_y
 _atom_site_fract_z
 _atom_site_occupancy
  Cs  Cs0  1  0.750000  0.861614  0.092813  1
  Cs  Cs1  1  0.250000  0.138386  0.907187  1
  Cs  Cs2  1  0.750000  0.361614  0.407187  1
  Cs  Cs3  1  0.750000  0.517935  0.819153  1
  Cs  Cs4  1  0.750000  0.017935  0.680847  1
  Cs  Cs5  1  0.250000  0.982065  0.319153  1
  Cs  Cs6  1  0.250000  0.638386  0.592813  1
  Cs  Cs7  1  0.250000  0.482065  0.180847  1
  Mg  Mg8  1  0.250000  0.728973  0.922888  1
  Mg  Mg9  1  0.750000  0.771027  0.422888  1
  Mg  Mg10  1  0.750000  0.271027  0.077112  1
  Mg  Mg11  1  0.250000  0.228973  0.577112  1
  Cl  Cl12  1  0.002634  0.319252  0.653594  1
  Cl  Cl13  1  0.250000  0.994670  0.588359  1
  Cl  Cl14  1  0.002634  0.819252  0.846406  1
  Cl  Cl15  1  0.750000  0.505330  0.088359  1
  Cl  Cl16  1  0.250000  0.313154  0.414887  1
  Cl  Cl17  1  0.997366  0.180748  0.153594  1
  Cl  Cl18  1  0.250000  0.813154  0.085113  1
  Cl  Cl19  1  0.750000  0.005330  0.411641  1
  Cl  Cl20  1  0.997366  0.680748  0.346406  1
  Cl  Cl21  1  0.497366  0.319252  0.653594  1
  Cl  Cl22  1  0.497366  0.819252  0.846406  1
  Cl  Cl23  1  0.502634  0.180748  0.153594  1
  Cl  Cl24  1  0.750000  0.186846  0.914887  1
  Cl  Cl25  1  0.502634  0.680748  0.346406  1
  Cl  Cl26  1  0.250000  0.494670  0.911641  1
  Cl  Cl27  1  0.750000  0.686846  0.585113  1
