# generated using pymatgen
data_ScAsO4
_symmetry_space_group_name_H-M   'P 1'
_cell_length_a   5.73234378
_cell_length_b   5.73234378
_cell_length_c   5.73234378
_cell_angle_alpha   106.96144989
_cell_angle_beta   106.96144989
_cell_angle_gamma   114.61656054
_symmetry_Int_Tables_number   1
_chemical_formula_structural   ScAsO4
_chemical_formula_sum   'Sc2 As2 O8'
_cell_volume   144.11720736
_cell_formula_units_Z   2
loop_
 _symmetry_equiv_pos_site_id
 _symmetry_equiv_pos_as_xyz
  1  'x, y, z'
loop_
 _atom_site_type_symbol
 _atom_site_label
 _atom_site_symmetry_multiplicity
 _atom_site_fract_x
 _atom_site_fract_y
 _atom_site_fract_z
 _atom_site_occupancy
  Sc  Sc0  1  0.000000  0.000000  0.000000  1
  Sc  Sc1  1  0.250000  0.750000  0.500000  1
  As  As2  1  0.750000  0.250000  0.500000  1
  As  As3  1  0.500000  0.500000  0.000000  1
  O  O4  1  0.750157  0.063737  0.686420  1
  O  O5  1  0.377318  0.063737  0.313580  1
  O  O6  1  0.313737  0.127318  0.813580  1
  O  O7  1  0.499843  0.686263  0.813580  1
  O  O8  1  0.313737  0.500157  0.186420  1
  O  O9  1  0.936263  0.622682  0.686420  1
  O  O10  1  0.872682  0.686263  0.186420  1
  O  O11  1  0.936263  0.249843  0.313580  1
