# generated using pymatgen
data_SrCrSn(PO4)3
_symmetry_space_group_name_H-M   'P 1'
_cell_length_a   9.15501429
_cell_length_b   9.15501429
_cell_length_c   9.15501429
_cell_angle_alpha   55.95127779
_cell_angle_beta   55.95127779
_cell_angle_gamma   55.95127779
_symmetry_Int_Tables_number   1
_chemical_formula_structural   SrCrSn(PO4)3
_chemical_formula_sum   'Sr2 Cr2 Sn2 P6 O24'
_cell_volume   491.67452017
_cell_formula_units_Z   2
loop_
 _symmetry_equiv_pos_site_id
 _symmetry_equiv_pos_as_xyz
  1  'x, y, z'
loop_
 _atom_site_type_symbol
 _atom_site_label
 _atom_site_symmetry_multiplicity
 _atom_site_fract_x
 _atom_site_fract_y
 _atom_site_fract_z
 _atom_site_occupancy
  Sr  Sr0  1  0.000000  0.000000  0.000000  1
  Sr  Sr1  1  0.500000  0.500000  0.500000  1
  Cr  Cr2  1  0.849935  0.849935  0.849935  1
  Cr  Cr3  1  0.150065  0.150065  0.150065  1
  Sn  Sn4  1  0.350752  0.350752  0.350752  1
  Sn  Sn5  1  0.649248  0.649248  0.649248  1
  P  P6  1  0.960539  0.244893  0.539573  1
  P  P7  1  0.755107  0.460427  0.039461  1
  P  P8  1  0.460427  0.039461  0.755107  1
  P  P9  1  0.244893  0.539573  0.960539  1
  P  P10  1  0.039461  0.755107  0.460427  1
  P  P11  1  0.539573  0.960539  0.244893  1
  O  O12  1  0.475513  0.883416  0.719167  1
  O  O13  1  0.280833  0.524487  0.116584  1
  O  O14  1  0.982973  0.250410  0.358713  1
  O  O15  1  0.955121  0.058107  0.708996  1
  O  O16  1  0.358713  0.982973  0.250410  1
  O  O17  1  0.767329  0.406972  0.590696  1
  O  O18  1  0.524487  0.116584  0.280833  1
  O  O19  1  0.232671  0.593028  0.409304  1
  O  O20  1  0.593028  0.409304  0.232671  1
  O  O21  1  0.409304  0.232671  0.593028  1
  O  O22  1  0.291004  0.044879  0.941893  1
  O  O23  1  0.590696  0.767329  0.406972  1
  O  O24  1  0.941893  0.291004  0.044879  1
  O  O25  1  0.044879  0.941893  0.291004  1
  O  O26  1  0.406972  0.590696  0.767329  1
  O  O27  1  0.883416  0.719167  0.475513  1
  O  O28  1  0.641287  0.017027  0.749590  1
  O  O29  1  0.058107  0.708996  0.955121  1
  O  O30  1  0.749590  0.641287  0.017027  1
  O  O31  1  0.708996  0.955121  0.058107  1
  O  O32  1  0.017027  0.749590  0.641287  1
  O  O33  1  0.250410  0.358713  0.982973  1
  O  O34  1  0.719167  0.475513  0.883416  1
  O  O35  1  0.116584  0.280833  0.524487  1
