# generated using pymatgen
data_HS9N
_symmetry_space_group_name_H-M   'P 1'
_cell_length_a   5.58199565
_cell_length_b   14.27271520
_cell_length_c   15.19126728
_cell_angle_alpha   90.00000000
_cell_angle_beta   90.00000000
_cell_angle_gamma   90.00000000
_symmetry_Int_Tables_number   1
_chemical_formula_structural   HS9N
_chemical_formula_sum   'H4 S36 N4'
_cell_volume   1210.29182139
_cell_formula_units_Z   4
loop_
 _symmetry_equiv_pos_site_id
 _symmetry_equiv_pos_as_xyz
  1  'x, y, z'
loop_
 _atom_site_type_symbol
 _atom_site_label
 _atom_site_symmetry_multiplicity
 _atom_site_fract_x
 _atom_site_fract_y
 _atom_site_fract_z
 _atom_site_occupancy
  H  H0  1  0.831220  0.350228  0.750000  1
  H  H1  1  0.331220  0.149772  0.250000  1
  H  H2  1  0.668780  0.850228  0.750000  1
  H  H3  1  0.168780  0.649772  0.250000  1
  S  S4  1  0.320347  0.536566  0.750000  1
  S  S5  1  0.820347  0.963434  0.250000  1
  S  S6  1  0.179653  0.036566  0.750000  1
  S  S7  1  0.679653  0.463434  0.250000  1
  S  S8  1  0.147944  0.477936  0.641588  1
  S  S9  1  0.647944  0.022064  0.358412  1
  S  S10  1  0.352056  0.977936  0.858412  1
  S  S11  1  0.852056  0.522064  0.141588  1
  S  S12  1  0.852056  0.522064  0.358412  1
  S  S13  1  0.352056  0.977936  0.641588  1
  S  S14  1  0.647944  0.022064  0.141588  1
  S  S15  1  0.147944  0.477936  0.858412  1
  S  S16  1  0.369285  0.397057  0.565442  1
  S  S17  1  0.869285  0.102943  0.434558  1
  S  S18  1  0.130715  0.897057  0.934558  1
  S  S19  1  0.630715  0.602943  0.065442  1
  S  S20  1  0.630715  0.602943  0.434558  1
  S  S21  1  0.130715  0.897057  0.565442  1
  S  S22  1  0.869285  0.102943  0.065442  1
  S  S23  1  0.369285  0.397057  0.934558  1
  S  S24  1  0.371534  0.260322  0.614154  1
  S  S25  1  0.871534  0.239678  0.385846  1
  S  S26  1  0.128466  0.760322  0.885846  1
  S  S27  1  0.628466  0.739678  0.114154  1
  S  S28  1  0.628466  0.739678  0.385846  1
  S  S29  1  0.128466  0.760322  0.614154  1
  S  S30  1  0.871534  0.239678  0.114154  1
  S  S31  1  0.371534  0.260322  0.885846  1
  S  S32  1  0.720529  0.234327  0.651054  1
  S  S33  1  0.220529  0.265673  0.348946  1
  S  S34  1  0.779471  0.734327  0.848946  1
  S  S35  1  0.279471  0.765673  0.151054  1
  S  S36  1  0.279471  0.765673  0.348946  1
  S  S37  1  0.779471  0.734327  0.651054  1
  S  S38  1  0.220529  0.265673  0.151054  1
  S  S39  1  0.720529  0.234327  0.848946  1
  N  N40  1  0.778993  0.281441  0.750000  1
  N  N41  1  0.278993  0.218559  0.250000  1
  N  N42  1  0.721007  0.781441  0.750000  1
  N  N43  1  0.221007  0.718559  0.250000  1
