# generated using pymatgen
data_LiPr(SO4)2
_symmetry_space_group_name_H-M   'P 1'
_cell_length_a   7.10598890
_cell_length_b   6.78547943
_cell_length_c   13.87544579
_cell_angle_alpha   90.00000000
_cell_angle_beta   104.82406623
_cell_angle_gamma   90.00000000
_symmetry_Int_Tables_number   1
_chemical_formula_structural   LiPr(SO4)2
_chemical_formula_sum   'Li4 Pr4 S8 O32'
_cell_volume   646.77156493
_cell_formula_units_Z   4
loop_
 _symmetry_equiv_pos_site_id
 _symmetry_equiv_pos_as_xyz
  1  'x, y, z'
loop_
 _atom_site_type_symbol
 _atom_site_label
 _atom_site_symmetry_multiplicity
 _atom_site_fract_x
 _atom_site_fract_y
 _atom_site_fract_z
 _atom_site_occupancy
  Li  Li0  1  0.043454  0.253841  0.554096  1
  Li  Li1  1  0.456546  0.753841  0.445904  1
  Li  Li2  1  0.543454  0.246159  0.554096  1
  Li  Li3  1  0.956546  0.746159  0.445904  1
  Pr  Pr4  1  0.345561  0.388910  0.183998  1
  Pr  Pr5  1  0.654439  0.611090  0.816002  1
  Pr  Pr6  1  0.845561  0.111090  0.183998  1
  Pr  Pr7  1  0.154439  0.888910  0.816002  1
  S  S8  1  0.806561  0.571806  0.104792  1
  S  S9  1  0.693439  0.071806  0.895208  1
  S  S10  1  0.816497  0.596003  0.617355  1
  S  S11  1  0.193439  0.428194  0.895208  1
  S  S12  1  0.316497  0.903997  0.617355  1
  S  S13  1  0.306561  0.928194  0.104792  1
  S  S14  1  0.183503  0.403997  0.382645  1
  S  S15  1  0.683503  0.096003  0.382645  1
  O  O16  1  0.144769  0.245925  0.302652  1
  O  O17  1  0.761607  0.112020  0.002129  1
  O  O18  1  0.238393  0.887980  0.997871  1
  O  O19  1  0.486698  0.053305  0.127608  1
  O  O20  1  0.841978  0.756417  0.162334  1
  O  O21  1  0.661520  0.445220  0.138789  1
  O  O22  1  0.355231  0.745925  0.697348  1
  O  O23  1  0.762265  0.186122  0.482049  1
  O  O24  1  0.013302  0.553305  0.872392  1
  O  O25  1  0.504002  0.987943  0.378656  1
  O  O26  1  0.237735  0.813878  0.517951  1
  O  O27  1  0.513302  0.946695  0.872392  1
  O  O28  1  0.663965  0.468243  0.644767  1
  O  O29  1  0.838480  0.945220  0.861211  1
  O  O30  1  0.737735  0.686122  0.517951  1
  O  O31  1  0.261607  0.387980  0.002129  1
  O  O32  1  0.495998  0.012057  0.621344  1
  O  O33  1  0.644769  0.254075  0.302652  1
  O  O34  1  0.986698  0.446695  0.127608  1
  O  O35  1  0.995998  0.487943  0.621344  1
  O  O36  1  0.658022  0.256417  0.837666  1
  O  O37  1  0.163965  0.031757  0.644767  1
  O  O38  1  0.158022  0.243583  0.837666  1
  O  O39  1  0.336035  0.531757  0.355233  1
  O  O40  1  0.262265  0.313878  0.482049  1
  O  O41  1  0.161520  0.054780  0.138789  1
  O  O42  1  0.338480  0.554780  0.861211  1
  O  O43  1  0.738393  0.612020  0.997871  1
  O  O44  1  0.341978  0.743583  0.162334  1
  O  O45  1  0.004002  0.512057  0.378656  1
  O  O46  1  0.855231  0.754075  0.697348  1
  O  O47  1  0.836035  0.968243  0.355233  1
