# generated using pymatgen
data_Nb4Te9I4O
_symmetry_space_group_name_H-M   'P 1'
_cell_length_a   11.98197430
_cell_length_b   11.98197430
_cell_length_c   20.89001217
_cell_angle_alpha   58.77761888
_cell_angle_beta   121.22238112
_cell_angle_gamma   149.47427550
_symmetry_Int_Tables_number   1
_chemical_formula_structural   Nb4Te9I4O
_chemical_formula_sum   'Nb8 Te18 I8 O2'
_cell_volume   1284.75396373
_cell_formula_units_Z   2
loop_
 _symmetry_equiv_pos_site_id
 _symmetry_equiv_pos_as_xyz
  1  'x, y, z'
loop_
 _atom_site_type_symbol
 _atom_site_label
 _atom_site_symmetry_multiplicity
 _atom_site_fract_x
 _atom_site_fract_y
 _atom_site_fract_z
 _atom_site_occupancy
  Nb  Nb0  1  0.116820  0.995340  0.353683  1
  Nb  Nb1  1  0.995340  0.116820  0.146317  1
  Nb  Nb2  1  0.004660  0.883180  0.853683  1
  Nb  Nb3  1  0.375142  0.219562  0.236228  1
  Nb  Nb4  1  0.780438  0.624858  0.736228  1
  Nb  Nb5  1  0.624858  0.780438  0.763772  1
  Nb  Nb6  1  0.219562  0.375142  0.263772  1
  Nb  Nb7  1  0.883180  0.004660  0.646317  1
  Te  Te8  1  0.048238  0.939425  0.126994  1
  Te  Te9  1  0.669522  0.621575  0.926964  1
  Te  Te10  1  0.811907  0.476689  0.901194  1
  Te  Te11  1  0.951762  0.060575  0.873006  1
  Te  Te12  1  0.378425  0.330478  0.426964  1
  Te  Te13  1  0.330478  0.378425  0.073036  1
  Te  Te14  1  0.304252  0.304252  0.750000  1
  Te  Te15  1  0.188093  0.523311  0.098806  1
  Te  Te16  1  0.695748  0.695748  0.250000  1
  Te  Te17  1  0.060575  0.951762  0.626994  1
  Te  Te18  1  0.169162  0.819720  0.332684  1
  Te  Te19  1  0.819720  0.169162  0.167316  1
  Te  Te20  1  0.621575  0.669522  0.573036  1
  Te  Te21  1  0.523311  0.188093  0.401194  1
  Te  Te22  1  0.830838  0.180280  0.667316  1
  Te  Te23  1  0.180280  0.830838  0.832684  1
  Te  Te24  1  0.476689  0.811907  0.598806  1
  Te  Te25  1  0.939425  0.048238  0.373006  1
  I  I26  1  0.939154  0.664710  0.486302  1
  I  I27  1  0.664710  0.939154  0.013698  1
  I  I28  1  0.271574  0.607831  0.780269  1
  I  I29  1  0.335290  0.060846  0.986302  1
  I  I30  1  0.060846  0.335290  0.513698  1
  I  I31  1  0.392169  0.728426  0.280269  1
  I  I32  1  0.728426  0.392169  0.219731  1
  I  I33  1  0.607831  0.271574  0.719731  1
  O  O34  1  0.240352  0.240352  0.250000  1
  O  O35  1  0.759648  0.759648  0.750000  1
