# generated using pymatgen
data_Sr4Pt4PbO11
_symmetry_space_group_name_H-M   'P 1'
_cell_length_a   5.76505373
_cell_length_b   10.12320281
_cell_length_c   10.22092324
_cell_angle_alpha   89.54841054
_cell_angle_beta   89.82540154
_cell_angle_gamma   89.99267744
_symmetry_Int_Tables_number   1
_chemical_formula_structural   Sr4Pt4PbO11
_chemical_formula_sum   'Sr8 Pt8 Pb2 O22'
_cell_volume   596.48003933
_cell_formula_units_Z   2
loop_
 _symmetry_equiv_pos_site_id
 _symmetry_equiv_pos_as_xyz
  1  'x, y, z'
loop_
 _atom_site_type_symbol
 _atom_site_label
 _atom_site_symmetry_multiplicity
 _atom_site_fract_x
 _atom_site_fract_y
 _atom_site_fract_z
 _atom_site_occupancy
  Sr  Sr0  1  0.250209  0.124430  0.952988  1
  Sr  Sr1  1  0.248824  0.033892  0.605068  1
  Sr  Sr2  1  0.750907  0.615573  0.484343  1
  Sr  Sr3  1  0.251093  0.467103  0.872737  1
  Sr  Sr4  1  0.748907  0.532897  0.127263  1
  Sr  Sr5  1  0.249093  0.384427  0.515657  1
  Sr  Sr6  1  0.749791  0.875570  0.047012  1
  Sr  Sr7  1  0.751176  0.966108  0.394932  1
  Pt  Pt8  1  0.249154  0.371194  0.184060  1
  Pt  Pt9  1  0.749775  0.202964  0.107298  1
  Pt  Pt10  1  0.750846  0.628806  0.815940  1
  Pt  Pt11  1  0.749162  0.292857  0.354068  1
  Pt  Pt12  1  0.750529  0.876868  0.723527  1
  Pt  Pt13  1  0.250838  0.707143  0.645932  1
  Pt  Pt14  1  0.250225  0.797036  0.892702  1
  Pt  Pt15  1  0.249471  0.123132  0.276473  1
  Pb  Pb16  1  0.715739  0.255313  0.729010  1
  Pb  Pb17  1  0.284261  0.744687  0.270990  1
  O  O18  1  0.676417  0.747393  0.263567  1
  O  O19  1  0.249896  0.632050  0.463568  1
  O  O20  1  0.003163  0.332272  0.044324  1
  O  O21  1  0.995822  0.432300  0.309486  1
  O  O22  1  0.755071  0.055500  0.634089  1
  O  O23  1  0.009053  0.938876  0.849314  1
  O  O24  1  0.244929  0.944500  0.365911  1
  O  O25  1  0.501472  0.666701  0.954625  1
  O  O26  1  0.012408  0.171310  0.415680  1
  O  O27  1  0.498528  0.333299  0.045375  1
  O  O28  1  0.511307  0.830937  0.585319  1
  O  O29  1  0.750104  0.367950  0.536432  1
  O  O30  1  0.004178  0.567700  0.690514  1
  O  O31  1  0.494382  0.938022  0.851578  1
  O  O32  1  0.990947  0.061124  0.150686  1
  O  O33  1  0.488693  0.169063  0.414681  1
  O  O34  1  0.323583  0.252607  0.736433  1
  O  O35  1  0.987592  0.828690  0.584320  1
  O  O36  1  0.499832  0.569260  0.689814  1
  O  O37  1  0.505618  0.061978  0.148422  1
  O  O38  1  0.996837  0.667728  0.955676  1
  O  O39  1  0.500168  0.430740  0.310186  1
