# generated using pymatgen
data_NaNb4Tl3P2O17
_symmetry_space_group_name_H-M   'P 1'
_cell_length_a   11.95444066
_cell_length_b   11.95444066
_cell_length_c   7.49101857
_cell_angle_alpha   90.00000000
_cell_angle_beta   90.00000000
_cell_angle_gamma   130.05342309
_symmetry_Int_Tables_number   1
_chemical_formula_structural   NaNb4Tl3P2O17
_chemical_formula_sum   'Na2 Nb8 Tl6 P4 O34'
_cell_volume   819.43263188
_cell_formula_units_Z   2
loop_
 _symmetry_equiv_pos_site_id
 _symmetry_equiv_pos_as_xyz
  1  'x, y, z'
loop_
 _atom_site_type_symbol
 _atom_site_label
 _atom_site_symmetry_multiplicity
 _atom_site_fract_x
 _atom_site_fract_y
 _atom_site_fract_z
 _atom_site_occupancy
  Na  Na0  1  0.632099  0.632099  1.000000  1
  Na  Na1  1  0.632099  0.632099  0.500000  1
  Nb  Nb2  1  0.038475  0.345789  0.499351  1
  Nb  Nb3  1  0.146538  0.673020  0.750000  1
  Nb  Nb4  1  0.038475  0.345789  0.000649  1
  Nb  Nb5  1  0.001009  0.001009  0.500000  1
  Nb  Nb6  1  0.345789  0.038475  0.999351  1
  Nb  Nb7  1  0.001009  0.001009  1.000000  1
  Nb  Nb8  1  0.345789  0.038475  0.500649  1
  Nb  Nb9  1  0.673020  0.146538  0.250000  1
  Tl  Tl10  1  0.965733  0.687800  0.250000  1
  Tl  Tl11  1  0.317945  0.713819  0.250000  1
  Tl  Tl12  1  0.713819  0.317945  0.750000  1
  Tl  Tl13  1  0.310529  0.366773  0.250000  1
  Tl  Tl14  1  0.366773  0.310529  0.750000  1
  Tl  Tl15  1  0.687800  0.965733  0.750000  1
  P  P16  1  0.581207  0.351328  0.250000  1
  P  P17  1  0.862001  0.686745  0.750000  1
  P  P18  1  0.351328  0.581207  0.750000  1
  P  P19  1  0.686745  0.862001  0.250000  1
  O  O20  1  0.416767  0.116625  0.750000  1
  O  O21  1  0.513179  0.653915  0.750000  1
  O  O22  1  0.776786  0.899479  0.423761  1
  O  O23  1  0.190352  0.060163  0.958776  1
  O  O24  1  0.529532  0.073925  0.062538  1
  O  O25  1  0.190352  0.060163  0.541224  1
  O  O26  1  0.944564  0.000551  0.750000  1
  O  O27  1  0.485339  0.272586  0.079683  1
  O  O28  1  0.529532  0.073925  0.437462  1
  O  O29  1  0.776786  0.899479  0.076239  1
  O  O30  1  0.991957  0.285787  0.750000  1
  O  O31  1  0.116625  0.416767  0.250000  1
  O  O32  1  0.073925  0.529532  0.937462  1
  O  O33  1  0.840929  0.235981  0.068415  1
  O  O34  1  0.000551  0.944564  0.250000  1
  O  O35  1  0.272586  0.485339  0.579683  1
  O  O36  1  0.550425  0.700528  0.250000  1
  O  O37  1  0.060163  0.190352  0.458776  1
  O  O38  1  0.899479  0.776786  0.576239  1
  O  O39  1  0.899479  0.776786  0.923761  1
  O  O40  1  0.639409  0.957443  0.250000  1
  O  O41  1  0.335909  0.703600  0.750000  1
  O  O42  1  0.700528  0.550425  0.750000  1
  O  O43  1  0.285787  0.991957  0.250000  1
  O  O44  1  0.235981  0.840929  0.931585  1
  O  O45  1  0.060163  0.190352  0.041224  1
  O  O46  1  0.653915  0.513179  0.250000  1
  O  O47  1  0.485339  0.272586  0.420317  1
  O  O48  1  0.235981  0.840929  0.568415  1
  O  O49  1  0.840929  0.235981  0.431585  1
  O  O50  1  0.073925  0.529532  0.562538  1
  O  O51  1  0.957443  0.639409  0.750000  1
  O  O52  1  0.272586  0.485339  0.920317  1
  O  O53  1  0.703600  0.335909  0.250000  1
