# generated using pymatgen
data_VH14SO11
_symmetry_space_group_name_H-M   'P 1'
_cell_length_a   11.16270226
_cell_length_b   6.52963651
_cell_length_c   14.18573390
_cell_angle_alpha   90.00000000
_cell_angle_beta   105.55365784
_cell_angle_gamma   90.00000000
_symmetry_Int_Tables_number   1
_chemical_formula_structural   VH14SO11
_chemical_formula_sum   'V4 H56 S4 O44'
_cell_volume   996.11085744
_cell_formula_units_Z   4
loop_
 _symmetry_equiv_pos_site_id
 _symmetry_equiv_pos_as_xyz
  1  'x, y, z'
loop_
 _atom_site_type_symbol
 _atom_site_label
 _atom_site_symmetry_multiplicity
 _atom_site_fract_x
 _atom_site_fract_y
 _atom_site_fract_z
 _atom_site_occupancy
  V  V0  1  0.000000  0.000000  0.000000  1
  V  V1  1  0.500000  0.500000  0.000000  1
  V  V2  1  0.000000  0.500000  0.500000  1
  V  V3  1  0.500000  0.000000  0.500000  1
  H  H4  1  0.042354  0.755996  0.848560  1
  H  H5  1  0.457646  0.255996  0.151440  1
  H  H6  1  0.957646  0.244004  0.151440  1
  H  H7  1  0.542354  0.744004  0.848560  1
  H  H8  1  0.146210  0.934671  0.872595  1
  H  H9  1  0.353790  0.434671  0.127405  1
  H  H10  1  0.853790  0.065329  0.127405  1
  H  H11  1  0.646210  0.565329  0.872595  1
  H  H12  1  0.794974  0.186693  0.880185  1
  H  H13  1  0.705026  0.686693  0.119815  1
  H  H14  1  0.205026  0.813307  0.119815  1
  H  H15  1  0.294974  0.313307  0.880185  1
  H  H16  1  0.798201  0.956612  0.840555  1
  H  H17  1  0.701799  0.456612  0.159445  1
  H  H18  1  0.201799  0.043388  0.159445  1
  H  H19  1  0.298201  0.543388  0.840555  1
  H  H20  1  0.878535  0.611179  0.979769  1
  H  H21  1  0.621465  0.111179  0.020231  1
  H  H22  1  0.121465  0.388821  0.020231  1
  H  H23  1  0.378535  0.888821  0.979769  1
  H  H24  1  0.963176  0.621977  0.089663  1
  H  H25  1  0.536824  0.121977  0.910337  1
  H  H26  1  0.036824  0.378023  0.910337  1
  H  H27  1  0.463176  0.878023  0.089663  1
  H  H28  1  0.799543  0.479498  0.579123  1
  H  H29  1  0.700457  0.979498  0.420877  1
  H  H30  1  0.200457  0.520502  0.420877  1
  H  H31  1  0.299543  0.020502  0.579123  1
  H  H32  1  0.742016  0.524827  0.466514  1
  H  H33  1  0.757984  0.024827  0.533486  1
  H  H34  1  0.257984  0.475173  0.533486  1
  H  H35  1  0.242016  0.975173  0.466514  1
  H  H36  1  0.003974  0.135436  0.405642  1
  H  H37  1  0.496026  0.635436  0.594358  1
  H  H38  1  0.996026  0.864564  0.594358  1
  H  H39  1  0.503974  0.364564  0.405642  1
  H  H40  1  0.864911  0.218217  0.369420  1
  H  H41  1  0.635089  0.718217  0.630580  1
  H  H42  1  0.135089  0.781783  0.630580  1
  H  H43  1  0.364911  0.281783  0.369420  1
  H  H44  1  0.963085  0.581740  0.298052  1
  H  H45  1  0.536915  0.081740  0.701948  1
  H  H46  1  0.036915  0.418260  0.701948  1
  H  H47  1  0.463085  0.918260  0.298052  1
  H  H48  1  0.869075  0.732674  0.332550  1
  H  H49  1  0.630925  0.232674  0.667450  1
  H  H50  1  0.130925  0.267326  0.667450  1
  H  H51  1  0.369075  0.767326  0.332550  1
  H  H52  1  0.915033  0.118534  0.656702  1
  H  H53  1  0.584967  0.618534  0.343298  1
  H  H54  1  0.084967  0.881466  0.343298  1
  H  H55  1  0.415033  0.381466  0.656702  1
  H  H56  1  0.855841  0.905675  0.679282  1
  H  H57  1  0.644159  0.405675  0.320718  1
  H  H58  1  0.144159  0.094325  0.320718  1
  H  H59  1  0.355841  0.594325  0.679282  1
  S  S60  1  0.827945  0.527316  0.774313  1
  S  S61  1  0.672055  0.027316  0.225687  1
  S  S62  1  0.172055  0.472684  0.225687  1
  S  S63  1  0.327945  0.972684  0.774313  1
  O  O64  1  0.967684  0.522610  0.797048  1
  O  O65  1  0.532316  0.022610  0.202952  1
  O  O66  1  0.032316  0.477390  0.202952  1
  O  O67  1  0.467684  0.977390  0.797048  1
  O  O68  1  0.790372  0.466787  0.864237  1
  O  O69  1  0.709628  0.966787  0.135763  1
  O  O70  1  0.209628  0.533213  0.135763  1
  O  O71  1  0.290372  0.033213  0.864237  1
  O  O72  1  0.774863  0.380917  0.693559  1
  O  O73  1  0.725137  0.880917  0.306441  1
  O  O74  1  0.225137  0.619083  0.306441  1
  O  O75  1  0.274863  0.119083  0.693559  1
  O  O76  1  0.781582  0.739689  0.744983  1
  O  O77  1  0.718418  0.239689  0.255017  1
  O  O78  1  0.218418  0.260311  0.255017  1
  O  O79  1  0.281582  0.760311  0.744983  1
  O  O80  1  0.062774  0.893390  0.877401  1
  O  O81  1  0.437226  0.393390  0.122599  1
  O  O82  1  0.937226  0.106610  0.122599  1
  O  O83  1  0.562774  0.606610  0.877401  1
  O  O84  1  0.815092  0.042676  0.899630  1
  O  O85  1  0.684908  0.542676  0.100370  1
  O  O86  1  0.184908  0.957324  0.100370  1
  O  O87  1  0.315092  0.457324  0.899630  1
  O  O88  1  0.929059  0.703050  0.029843  1
  O  O89  1  0.570941  0.203050  0.970157  1
  O  O90  1  0.070941  0.296950  0.970157  1
  O  O91  1  0.429059  0.796950  0.029843  1
  O  O92  1  0.817995  0.545428  0.521989  1
  O  O93  1  0.682005  0.045428  0.478011  1
  O  O94  1  0.182005  0.454572  0.478011  1
  O  O95  1  0.317995  0.954572  0.521989  1
  O  O96  1  0.938373  0.214757  0.426008  1
  O  O97  1  0.561627  0.714757  0.573992  1
  O  O98  1  0.061627  0.785243  0.573992  1
  O  O99  1  0.438373  0.285243  0.426008  1
  O  O100  1  0.948390  0.656365  0.354650  1
  O  O101  1  0.551610  0.156365  0.645350  1
  O  O102  1  0.051610  0.343635  0.645350  1
  O  O103  1  0.448390  0.843635  0.354650  1
  O  O104  1  0.882828  0.985635  0.629144  1
  O  O105  1  0.617172  0.485635  0.370856  1
  O  O106  1  0.117172  0.014365  0.370856  1
  O  O107  1  0.382828  0.514365  0.629144  1
