# generated using pymatgen
data_V2O5
_symmetry_space_group_name_H-M   'P 1'
_cell_length_a   6.37498767
_cell_length_b   3.61438042
_cell_length_c   7.30307436
_cell_angle_alpha   90.00000000
_cell_angle_beta   90.20246957
_cell_angle_gamma   90.00000000
_symmetry_Int_Tables_number   1
_chemical_formula_structural   V2O5
_chemical_formula_sum   'V4 O10'
_cell_volume   168.27369109
_cell_formula_units_Z   2
loop_
 _symmetry_equiv_pos_site_id
 _symmetry_equiv_pos_as_xyz
  1  'x, y, z'
loop_
 _atom_site_type_symbol
 _atom_site_label
 _atom_site_symmetry_multiplicity
 _atom_site_fract_x
 _atom_site_fract_y
 _atom_site_fract_z
 _atom_site_occupancy
  V  V0  1  0.808093  0.750000  0.097527  1
  V  V1  1  0.191907  0.250000  0.902473  1
  V  V2  1  0.261787  0.750000  0.277702  1
  V  V3  1  0.738213  0.250000  0.722298  1
  O  O4  1  0.738711  0.750000  0.806664  1
  O  O5  1  0.261289  0.250000  0.193336  1
  O  O6  1  0.320518  0.750000  0.490588  1
  O  O7  1  0.679482  0.250000  0.509412  1
  O  O8  1  0.437875  0.250000  0.823182  1
  O  O9  1  0.562125  0.750000  0.176818  1
  O  O10  1  0.144513  0.750000  0.969083  1
  O  O11  1  0.855487  0.250000  0.030917  1
  O  O12  1  0.035225  0.250000  0.704210  1
  O  O13  1  0.964775  0.750000  0.295790  1
