# generated using pymatgen
data_K2CuSbS3
_symmetry_space_group_name_H-M   'P 1'
_cell_length_a   6.35531176
_cell_length_b   18.15629916
_cell_length_c   7.56179053
_cell_angle_alpha   90.00000000
_cell_angle_beta   120.35513837
_cell_angle_gamma   90.00000000
_symmetry_Int_Tables_number   1
_chemical_formula_structural   K2CuSbS3
_chemical_formula_sum   'K8 Cu4 Sb4 S12'
_cell_volume   752.92920554
_cell_formula_units_Z   4
loop_
 _symmetry_equiv_pos_site_id
 _symmetry_equiv_pos_as_xyz
  1  'x, y, z'
loop_
 _atom_site_type_symbol
 _atom_site_label
 _atom_site_symmetry_multiplicity
 _atom_site_fract_x
 _atom_site_fract_y
 _atom_site_fract_z
 _atom_site_occupancy
  K  K0  1  0.083266  0.881048  0.645431  1
  K  K1  1  0.083266  0.618952  0.145431  1
  K  K2  1  0.644331  0.457792  0.289602  1
  K  K3  1  0.644331  0.042208  0.789602  1
  K  K4  1  0.355669  0.957792  0.210398  1
  K  K5  1  0.916734  0.381048  0.854569  1
  K  K6  1  0.916734  0.118952  0.354569  1
  K  K7  1  0.355669  0.542208  0.710398  1
  Cu  Cu8  1  0.617166  0.220891  0.568870  1
  Cu  Cu9  1  0.382834  0.779109  0.431130  1
  Cu  Cu10  1  0.382834  0.720891  0.931130  1
  Cu  Cu11  1  0.617166  0.279109  0.068870  1
  Sb  Sb12  1  0.236667  0.176570  0.004514  1
  Sb  Sb13  1  0.763333  0.676570  0.495486  1
  Sb  Sb14  1  0.763333  0.823430  0.995486  1
  Sb  Sb15  1  0.236667  0.323430  0.504514  1
  S  S16  1  0.840339  0.562669  0.685617  1
  S  S17  1  0.409391  0.373856  0.854265  1
  S  S18  1  0.840339  0.937331  0.185617  1
  S  S19  1  0.159661  0.437331  0.314383  1
  S  S20  1  0.800489  0.209810  0.916454  1
  S  S21  1  0.590609  0.873856  0.645735  1
  S  S22  1  0.409391  0.126144  0.354265  1
  S  S23  1  0.800489  0.290190  0.416454  1
  S  S24  1  0.159661  0.062669  0.814383  1
  S  S25  1  0.199511  0.790190  0.083546  1
  S  S26  1  0.590609  0.626144  0.145735  1
  S  S27  1  0.199511  0.709810  0.583546  1
