# generated using pymatgen
data_SiO2
_symmetry_space_group_name_H-M   'P 1'
_cell_length_a   12.73750494
_cell_length_b   12.73750494
_cell_length_c   8.64386916
_cell_angle_alpha   90.00000000
_cell_angle_beta   90.00000000
_cell_angle_gamma   109.46421967
_symmetry_Int_Tables_number   1
_chemical_formula_structural   SiO2
_chemical_formula_sum   'Si24 O48'
_cell_volume   1322.26777072
_cell_formula_units_Z   24
loop_
 _symmetry_equiv_pos_site_id
 _symmetry_equiv_pos_as_xyz
  1  'x, y, z'
loop_
 _atom_site_type_symbol
 _atom_site_label
 _atom_site_symmetry_multiplicity
 _atom_site_fract_x
 _atom_site_fract_y
 _atom_site_fract_z
 _atom_site_occupancy
  Si  Si0  1  0.239799  0.379572  0.936464  1
  Si  Si1  1  0.620428  0.760201  0.563536  1
  Si  Si2  1  0.005200  0.382005  0.063123  1
  Si  Si3  1  0.617995  0.994800  0.063123  1
  Si  Si4  1  0.379572  0.239799  0.063536  1
  Si  Si5  1  0.994800  0.617995  0.936877  1
  Si  Si6  1  0.760201  0.620428  0.436464  1
  Si  Si7  1  0.382005  0.005200  0.936877  1
  Si  Si8  1  0.622818  0.377182  0.563351  1
  Si  Si9  1  0.772236  0.227764  0.562573  1
  Si  Si10  1  0.377182  0.622818  0.436649  1
  Si  Si11  1  0.227764  0.772236  0.437427  1
  Si  Si12  1  0.005200  0.382005  0.436877  1
  Si  Si13  1  0.382005  0.005200  0.563123  1
  Si  Si14  1  0.377182  0.622818  0.063351  1
  Si  Si15  1  0.620428  0.760201  0.936464  1
  Si  Si16  1  0.227764  0.772236  0.062573  1
  Si  Si17  1  0.617995  0.994800  0.436877  1
  Si  Si18  1  0.994800  0.617995  0.563123  1
  Si  Si19  1  0.379572  0.239799  0.436464  1
  Si  Si20  1  0.622818  0.377182  0.936649  1
  Si  Si21  1  0.772236  0.227764  0.937427  1
  Si  Si22  1  0.760201  0.620428  0.063536  1
  Si  Si23  1  0.239799  0.379572  0.563536  1
  O  O24  1  0.360030  0.114473  0.003838  1
  O  O25  1  0.324794  0.497078  0.999430  1
  O  O26  1  0.697373  0.302627  0.994333  1
  O  O27  1  0.675206  0.502922  0.499430  1
  O  O28  1  0.719286  0.102924  0.494322  1
  O  O29  1  0.500000  0.000000  0.500000  1
  O  O30  1  0.360030  0.114473  0.496162  1
  O  O31  1  0.897076  0.280714  0.494322  1
  O  O32  1  0.697373  0.302627  0.505667  1
  O  O33  1  0.719286  0.102924  0.005678  1
  O  O34  1  0.242195  0.380771  0.750000  1
  O  O35  1  0.897076  0.280714  0.005678  1
  O  O36  1  0.278157  0.278157  0.000000  1
  O  O37  1  0.885527  0.639970  0.496162  1
  O  O38  1  0.721843  0.721843  0.000000  1
  O  O39  1  0.675206  0.502922  0.000570  1
  O  O40  1  0.385619  0.010412  0.750000  1
  O  O41  1  0.989588  0.614381  0.750000  1
  O  O42  1  0.721843  0.721843  0.500000  1
  O  O43  1  0.302627  0.697373  0.005667  1
  O  O44  1  0.775900  0.224100  0.750000  1
  O  O45  1  0.280714  0.897076  0.505678  1
  O  O46  1  0.114473  0.360030  0.996162  1
  O  O47  1  0.324794  0.497078  0.500570  1
  O  O48  1  0.757805  0.619229  0.250000  1
  O  O49  1  0.379311  0.620689  0.250000  1
  O  O50  1  0.280714  0.897076  0.994322  1
  O  O51  1  0.380771  0.242195  0.250000  1
  O  O52  1  0.302627  0.697373  0.494333  1
  O  O53  1  0.614381  0.989588  0.250000  1
  O  O54  1  0.010412  0.385619  0.250000  1
  O  O55  1  0.639970  0.885527  0.503838  1
  O  O56  1  0.502922  0.675206  0.999430  1
  O  O57  1  0.224100  0.775900  0.250000  1
  O  O58  1  0.000000  0.500000  0.500000  1
  O  O59  1  0.620689  0.379311  0.750000  1
  O  O60  1  0.278157  0.278157  0.500000  1
  O  O61  1  0.497078  0.324794  0.499430  1
  O  O62  1  0.500000  0.000000  0.000000  1
  O  O63  1  0.619229  0.757805  0.750000  1
  O  O64  1  0.102924  0.719286  0.994322  1
  O  O65  1  0.497078  0.324794  0.000570  1
  O  O66  1  0.639970  0.885527  0.996162  1
  O  O67  1  0.114473  0.360030  0.503838  1
  O  O68  1  0.502922  0.675206  0.500570  1
  O  O69  1  0.885527  0.639970  0.003838  1
  O  O70  1  0.102924  0.719286  0.505678  1
  O  O71  1  0.000000  0.500000  0.000000  1
