# generated using pymatgen
data_Al2CdS4
_symmetry_space_group_name_H-M   'P 1'
_cell_length_a   6.49583818
_cell_length_b   6.49583818
_cell_length_c   6.49583818
_cell_angle_alpha   128.54579325
_cell_angle_beta   128.54579325
_cell_angle_gamma   75.74251769
_symmetry_Int_Tables_number   1
_chemical_formula_structural   Al2CdS4
_chemical_formula_sum   'Al2 Cd1 S4'
_cell_volume   163.08292868
_cell_formula_units_Z   1
loop_
 _symmetry_equiv_pos_site_id
 _symmetry_equiv_pos_as_xyz
  1  'x, y, z'
loop_
 _atom_site_type_symbol
 _atom_site_label
 _atom_site_symmetry_multiplicity
 _atom_site_fract_x
 _atom_site_fract_y
 _atom_site_fract_z
 _atom_site_occupancy
  Al  Al0  1  0.250000  0.750000  0.500000  1
  Al  Al1  1  1.000000  0.000000  0.000000  1
  Cd  Cd2  1  0.500000  0.500000  0.000000  1
  S  S3  1  0.914657  0.369944  0.016321  1
  S  S4  1  0.353623  0.898336  0.983679  1
  S  S5  1  0.101664  0.085343  0.455287  1
  S  S6  1  0.630056  0.646377  0.544713  1
