# generated using pymatgen
data_K2PbO3
_symmetry_space_group_name_H-M   'P 1'
_cell_length_a   6.11924437
_cell_length_b   6.11924437
_cell_length_c   12.61837944
_cell_angle_alpha   90.00000000
_cell_angle_beta   90.00000000
_cell_angle_gamma   120.00000000
_symmetry_Int_Tables_number   1
_chemical_formula_structural   K2PbO3
_chemical_formula_sum   'K8 Pb4 O12'
_cell_volume   409.19451990
_cell_formula_units_Z   4
loop_
 _symmetry_equiv_pos_site_id
 _symmetry_equiv_pos_as_xyz
  1  'x, y, z'
loop_
 _atom_site_type_symbol
 _atom_site_label
 _atom_site_symmetry_multiplicity
 _atom_site_fract_x
 _atom_site_fract_y
 _atom_site_fract_z
 _atom_site_occupancy
  K  K0  1  0.000000  0.682870  0.250000  1
  K  K1  1  0.317130  0.317130  0.250000  1
  K  K2  1  0.000000  0.317130  0.750000  1
  K  K3  1  0.682870  0.000000  0.250000  1
  K  K4  1  0.000000  0.000000  0.000000  1
  K  K5  1  0.682870  0.682870  0.750000  1
  K  K6  1  0.000000  0.000000  0.500000  1
  K  K7  1  0.317130  0.000000  0.750000  1
  Pb  Pb8  1  0.666667  0.333333  0.500000  1
  Pb  Pb9  1  0.333333  0.666667  0.500000  1
  Pb  Pb10  1  0.666667  0.333333  0.000000  1
  Pb  Pb11  1  0.333333  0.666667  0.000000  1
  O  O12  1  0.000000  0.614268  0.900051  1
  O  O13  1  0.614268  0.000000  0.900051  1
  O  O14  1  0.614268  0.614268  0.099949  1
  O  O15  1  0.000000  0.385732  0.400051  1
  O  O16  1  0.385732  0.000000  0.400051  1
  O  O17  1  0.385732  0.000000  0.099949  1
  O  O18  1  0.614268  0.000000  0.599949  1
  O  O19  1  0.000000  0.385732  0.099949  1
  O  O20  1  0.000000  0.614268  0.599949  1
  O  O21  1  0.614268  0.614268  0.400051  1
  O  O22  1  0.385732  0.385732  0.599949  1
  O  O23  1  0.385732  0.385732  0.900051  1
