# generated using pymatgen
data_CaAs2(XeF5)4
_symmetry_space_group_name_H-M   'P 1'
_cell_length_a   8.55844070
_cell_length_b   15.64353421
_cell_length_c   8.83466606
_cell_angle_alpha   90.00000000
_cell_angle_beta   111.68104416
_cell_angle_gamma   90.00000000
_symmetry_Int_Tables_number   1
_chemical_formula_structural   CaAs2(XeF5)4
_chemical_formula_sum   'Ca2 As4 Xe8 F40'
_cell_volume   1099.14375383
_cell_formula_units_Z   2
loop_
 _symmetry_equiv_pos_site_id
 _symmetry_equiv_pos_as_xyz
  1  'x, y, z'
loop_
 _atom_site_type_symbol
 _atom_site_label
 _atom_site_symmetry_multiplicity
 _atom_site_fract_x
 _atom_site_fract_y
 _atom_site_fract_z
 _atom_site_occupancy
  Ca  Ca0  1  0.135043  0.159782  0.591978  1
  Ca  Ca1  1  0.864957  0.659782  0.408022  1
  As  As2  1  0.698388  0.491352  0.674265  1
  As  As3  1  0.216280  0.730411  0.843935  1
  As  As4  1  0.301612  0.991352  0.325735  1
  As  As5  1  0.783720  0.230411  0.156065  1
  Xe  Xe6  1  0.468783  0.987446  0.914112  1
  Xe  Xe7  1  0.742333  0.752304  0.908438  1
  Xe  Xe8  1  0.340049  0.706328  0.367499  1
  Xe  Xe9  1  0.531217  0.487446  0.085888  1
  Xe  Xe10  1  0.858846  0.935760  0.472970  1
  Xe  Xe11  1  0.659951  0.206328  0.632501  1
  Xe  Xe12  1  0.257667  0.252304  0.091562  1
  Xe  Xe13  1  0.141154  0.435760  0.527030  1
  F  F14  1  0.437606  0.077151  0.326601  1
  F  F15  1  0.404230  0.744002  0.015448  1
  F  F16  1  0.577111  0.677380  0.364124  1
  F  F17  1  0.899404  0.230758  0.636990  1
  F  F18  1  0.700689  0.291366  0.278042  1
  F  F19  1  0.871763  0.323896  0.109106  1
  F  F20  1  0.091465  0.561693  0.441661  1
  F  F21  1  0.908535  0.061693  0.558339  1
  F  F22  1  0.782787  0.686546  0.128275  1
  F  F23  1  0.021843  0.716915  0.666117  1
  F  F24  1  0.299311  0.791366  0.721958  1
  F  F25  1  0.127961  0.668976  0.960124  1
  F  F26  1  0.422889  0.177380  0.635876  1
  F  F27  1  0.562394  0.577151  0.673399  1
  F  F28  1  0.128237  0.823896  0.890894  1
  F  F29  1  0.802722  0.812487  0.384059  1
  F  F30  1  0.705673  0.136400  0.213359  1
  F  F31  1  0.428877  0.970770  0.531790  1
  F  F32  1  0.294327  0.636400  0.786641  1
  F  F33  1  0.175181  0.016299  0.123315  1
  F  F34  1  0.571123  0.470770  0.468210  1
  F  F35  1  0.176462  0.065434  0.395044  1
  F  F36  1  0.100596  0.730758  0.363010  1
  F  F37  1  0.824819  0.516299  0.876685  1
  F  F38  1  0.576704  0.418981  0.738995  1
  F  F39  1  0.595770  0.244002  0.984552  1
  F  F40  1  0.837040  0.408782  0.669814  1
  F  F41  1  0.303634  0.313983  0.308216  1
  F  F42  1  0.309898  0.441215  0.921032  1
  F  F43  1  0.217213  0.186546  0.871725  1
  F  F44  1  0.197278  0.312487  0.615941  1
  F  F45  1  0.978157  0.216915  0.333883  1
  F  F46  1  0.241319  0.031972  0.737788  1
  F  F47  1  0.758681  0.531972  0.262212  1
  F  F48  1  0.690102  0.941215  0.078968  1
  F  F49  1  0.872039  0.168976  0.039876  1
  F  F50  1  0.696366  0.813983  0.691784  1
  F  F51  1  0.423296  0.918981  0.261005  1
  F  F52  1  0.162960  0.908782  0.330186  1
  F  F53  1  0.823538  0.565434  0.604956  1
