# generated using pymatgen
data_MnAl2P2(HO)18
_symmetry_space_group_name_H-M   'P 1'
_cell_length_a   5.25402896
_cell_length_b   7.00901509
_cell_length_c   10.46580595
_cell_angle_alpha   95.37986104
_cell_angle_beta   101.48776456
_cell_angle_gamma   110.01022375
_symmetry_Int_Tables_number   1
_chemical_formula_structural   MnAl2P2(HO)18
_chemical_formula_sum   'Mn1 Al2 P2 H18 O18'
_cell_volume   349.35886859
_cell_formula_units_Z   1
loop_
 _symmetry_equiv_pos_site_id
 _symmetry_equiv_pos_as_xyz
  1  'x, y, z'
loop_
 _atom_site_type_symbol
 _atom_site_label
 _atom_site_symmetry_multiplicity
 _atom_site_fract_x
 _atom_site_fract_y
 _atom_site_fract_z
 _atom_site_occupancy
  Mn  Mn0  1  0.000000  0.000000  0.000000  1
  Al  Al1  1  0.500000  0.000000  0.500000  1
  Al  Al2  1  0.500000  0.500000  0.500000  1
  P  P3  1  0.990859  0.086795  0.336361  1
  P  P4  1  0.009141  0.913205  0.663639  1
  H  H5  1  0.167860  0.673470  0.511795  1
  H  H6  1  0.832140  0.326530  0.488205  1
  H  H7  1  0.377828  0.288924  0.667536  1
  H  H8  1  0.622172  0.711076  0.332464  1
  H  H9  1  0.299725  0.479396  0.718236  1
  H  H10  1  0.700275  0.520604  0.281764  1
  H  H11  1  0.663398  0.588112  0.902191  1
  H  H12  1  0.336602  0.411888  0.097809  1
  H  H13  1  0.806218  0.596514  0.051828  1
  H  H14  1  0.193782  0.403486  0.948172  1
  H  H15  1  0.695680  0.054977  0.788435  1
  H  H16  1  0.304320  0.945023  0.211565  1
  H  H17  1  0.462221  0.006001  0.867760  1
  H  H18  1  0.537779  0.993999  0.132240  1
  H  H19  1  0.910460  0.347898  0.181593  1
  H  H20  1  0.089540  0.652102  0.818407  1
  H  H21  1  0.102022  0.579152  0.242209  1
  H  H22  1  0.897978  0.420848  0.757791  1
  O  O23  1  0.194134  0.968301  0.350923  1
  O  O24  1  0.805866  0.031699  0.649077  1
  O  O25  1  0.128102  0.304111  0.424254  1
  O  O26  1  0.871898  0.695889  0.575746  1
  O  O27  1  0.904669  0.105638  0.188360  1
  O  O28  1  0.095331  0.894362  0.811640  1
  O  O29  1  0.278855  0.037930  0.621662  1
  O  O30  1  0.721145  0.962070  0.378338  1
  O  O31  1  0.357164  0.710625  0.497187  1
  O  O32  1  0.642836  0.289375  0.502813  1
  O  O33  1  0.442626  0.444740  0.679332  1
  O  O34  1  0.557374  0.555260  0.320668  1
  O  O35  1  0.736607  0.676464  0.989129  1
  O  O36  1  0.263393  0.323536  0.010871  1
  O  O37  1  0.667832  0.069114  0.880043  1
  O  O38  1  0.332168  0.930886  0.119957  1
  O  O39  1  0.914672  0.493248  0.188737  1
  O  O40  1  0.085328  0.506752  0.811263  1
