# generated using pymatgen
data_K2SrV3O9
_symmetry_space_group_name_H-M   'P 1'
_cell_length_a   5.50696389
_cell_length_b   10.43427258
_cell_length_c   16.37073103
_cell_angle_alpha   90.00000000
_cell_angle_beta   90.00000000
_cell_angle_gamma   90.00000000
_symmetry_Int_Tables_number   1
_chemical_formula_structural   K2SrV3O9
_chemical_formula_sum   'K8 Sr4 V12 O36'
_cell_volume   940.68123295
_cell_formula_units_Z   4
loop_
 _symmetry_equiv_pos_site_id
 _symmetry_equiv_pos_as_xyz
  1  'x, y, z'
loop_
 _atom_site_type_symbol
 _atom_site_label
 _atom_site_symmetry_multiplicity
 _atom_site_fract_x
 _atom_site_fract_y
 _atom_site_fract_z
 _atom_site_occupancy
  K  K0  1  0.250000  0.028610  0.431835  1
  K  K1  1  0.750000  0.971390  0.568165  1
  K  K2  1  0.250000  0.528610  0.068165  1
  K  K3  1  0.750000  0.471390  0.931835  1
  K  K4  1  0.250000  0.971340  0.711410  1
  K  K5  1  0.250000  0.471340  0.788590  1
  K  K6  1  0.750000  0.528660  0.211410  1
  K  K7  1  0.750000  0.028660  0.288590  1
  Sr  Sr8  1  0.250000  0.966561  0.115576  1
  Sr  Sr9  1  0.750000  0.533439  0.615576  1
  Sr  Sr10  1  0.750000  0.033439  0.884424  1
  Sr  Sr11  1  0.250000  0.466561  0.384424  1
  V  V12  1  0.750000  0.708839  0.405856  1
  V  V13  1  0.250000  0.791161  0.905856  1
  V  V14  1  0.750000  0.208839  0.094144  1
  V  V15  1  0.750000  0.309750  0.457027  1
  V  V16  1  0.750000  0.748801  0.772502  1
  V  V17  1  0.750000  0.809750  0.042973  1
  V  V18  1  0.250000  0.190250  0.957027  1
  V  V19  1  0.250000  0.251199  0.227498  1
  V  V20  1  0.250000  0.291161  0.594144  1
  V  V21  1  0.250000  0.690250  0.542973  1
  V  V22  1  0.750000  0.248801  0.727498  1
  V  V23  1  0.250000  0.751199  0.272502  1
  O  O24  1  0.997786  0.673203  0.320755  1
  O  O25  1  0.497786  0.326797  0.679245  1
  O  O26  1  0.510354  0.640695  0.485739  1
  O  O27  1  0.750000  0.585480  0.781572  1
  O  O28  1  0.497786  0.826797  0.820755  1
  O  O29  1  0.750000  0.903075  0.129872  1
  O  O30  1  0.250000  0.225960  0.330160  1
  O  O31  1  0.502214  0.173203  0.179245  1
  O  O32  1  0.250000  0.633355  0.917992  1
  O  O33  1  0.250000  0.133355  0.582008  1
  O  O34  1  0.750000  0.866645  0.417992  1
  O  O35  1  0.250000  0.914520  0.281572  1
  O  O36  1  0.250000  0.349976  0.939990  1
  O  O37  1  0.489646  0.859305  0.985739  1
  O  O38  1  0.997786  0.173203  0.179245  1
  O  O39  1  0.750000  0.274040  0.830160  1
  O  O40  1  0.750000  0.366645  0.082008  1
  O  O41  1  0.750000  0.085480  0.718428  1
  O  O42  1  0.250000  0.596925  0.629872  1
  O  O43  1  0.002214  0.326797  0.679245  1
  O  O44  1  0.250000  0.725960  0.169840  1
  O  O45  1  0.250000  0.849976  0.560010  1
  O  O46  1  0.250000  0.096925  0.870128  1
  O  O47  1  0.750000  0.774040  0.669840  1
  O  O48  1  0.989646  0.640695  0.485739  1
  O  O49  1  0.502214  0.673203  0.320755  1
  O  O50  1  0.010354  0.359305  0.514261  1
  O  O51  1  0.989646  0.140695  0.014261  1
  O  O52  1  0.250000  0.414520  0.218428  1
  O  O53  1  0.002214  0.826797  0.820755  1
  O  O54  1  0.750000  0.150024  0.439990  1
  O  O55  1  0.489646  0.359305  0.514261  1
  O  O56  1  0.510354  0.140695  0.014261  1
  O  O57  1  0.750000  0.650024  0.060010  1
  O  O58  1  0.750000  0.403075  0.370128  1
  O  O59  1  0.010354  0.859305  0.985739  1
