# generated using pymatgen
data_Ba8Sb6S17
_symmetry_space_group_name_H-M   'P 1'
_cell_length_a   11.61829666
_cell_length_b   14.01549409
_cell_length_c   22.88945486
_cell_angle_alpha   90.00000000
_cell_angle_beta   91.06845552
_cell_angle_gamma   90.00000000
_symmetry_Int_Tables_number   1
_chemical_formula_structural   Ba8Sb6S17
_chemical_formula_sum   'Ba32 Sb24 S68'
_cell_volume   3726.58306722
_cell_formula_units_Z   4
loop_
 _symmetry_equiv_pos_site_id
 _symmetry_equiv_pos_as_xyz
  1  'x, y, z'
loop_
 _atom_site_type_symbol
 _atom_site_label
 _atom_site_symmetry_multiplicity
 _atom_site_fract_x
 _atom_site_fract_y
 _atom_site_fract_z
 _atom_site_occupancy
  Ba  Ba0  1  0.757192  0.157602  0.070267  1
  Ba  Ba1  1  0.757192  0.842398  0.570267  1
  Ba  Ba2  1  0.000000  0.656768  0.250000  1
  Ba  Ba3  1  0.240301  0.504834  0.898548  1
  Ba  Ba4  1  0.799179  0.483979  0.381850  1
  Ba  Ba5  1  0.200821  0.483979  0.118150  1
  Ba  Ba6  1  0.759699  0.495166  0.101452  1
  Ba  Ba7  1  0.179569  0.838302  0.115734  1
  Ba  Ba8  1  0.200821  0.516021  0.618150  1
  Ba  Ba9  1  0.500000  0.502814  0.250000  1
  Ba  Ba10  1  0.179569  0.161698  0.615734  1
  Ba  Ba11  1  0.142911  0.158649  0.114484  1
  Ba  Ba12  1  0.820431  0.838302  0.384266  1
  Ba  Ba13  1  0.857089  0.841351  0.885516  1
  Ba  Ba14  1  0.759699  0.504834  0.601452  1
  Ba  Ba15  1  0.500000  0.830690  0.250000  1
  Ba  Ba16  1  0.500000  0.169310  0.750000  1
  Ba  Ba17  1  0.771278  0.830881  0.089723  1
  Ba  Ba18  1  0.142911  0.841351  0.614484  1
  Ba  Ba19  1  0.799179  0.516021  0.881850  1
  Ba  Ba20  1  0.242808  0.157602  0.429733  1
  Ba  Ba21  1  0.500000  0.846965  0.750000  1
  Ba  Ba22  1  0.242808  0.842398  0.929733  1
  Ba  Ba23  1  0.000000  0.343232  0.750000  1
  Ba  Ba24  1  0.857089  0.158649  0.385516  1
  Ba  Ba25  1  0.820431  0.161698  0.884266  1
  Ba  Ba26  1  0.500000  0.497186  0.750000  1
  Ba  Ba27  1  0.240301  0.495166  0.398548  1
  Ba  Ba28  1  0.228722  0.830881  0.410277  1
  Ba  Ba29  1  0.228722  0.169119  0.910277  1
  Ba  Ba30  1  0.771278  0.169119  0.589723  1
  Ba  Ba31  1  0.500000  0.153035  0.250000  1
  Sb  Sb32  1  0.438113  0.691655  0.575684  1
  Sb  Sb33  1  0.431948  0.982874  0.575147  1
  Sb  Sb34  1  0.841627  0.001579  0.720245  1
  Sb  Sb35  1  0.464335  0.667412  0.091024  1
  Sb  Sb36  1  0.019632  0.652970  0.005801  1
  Sb  Sb37  1  0.158373  0.001579  0.779755  1
  Sb  Sb38  1  0.561887  0.691655  0.924316  1
  Sb  Sb39  1  0.154344  0.679127  0.776799  1
  Sb  Sb40  1  0.568052  0.982874  0.924853  1
  Sb  Sb41  1  0.438113  0.308345  0.075684  1
  Sb  Sb42  1  0.464335  0.332588  0.591024  1
  Sb  Sb43  1  0.535665  0.332588  0.908976  1
  Sb  Sb44  1  0.568052  0.017126  0.424853  1
  Sb  Sb45  1  0.845656  0.679127  0.723201  1
  Sb  Sb46  1  0.980368  0.347030  0.994199  1
  Sb  Sb47  1  0.431948  0.017126  0.075147  1
  Sb  Sb48  1  0.154344  0.320873  0.276799  1
  Sb  Sb49  1  0.845656  0.320873  0.223201  1
  Sb  Sb50  1  0.019632  0.347030  0.505801  1
  Sb  Sb51  1  0.841627  0.998421  0.220245  1
  Sb  Sb52  1  0.980368  0.652970  0.494199  1
  Sb  Sb53  1  0.561887  0.308345  0.424316  1
  Sb  Sb54  1  0.535665  0.667412  0.408976  1
  Sb  Sb55  1  0.158373  0.998421  0.279755  1
  S  S56  1  0.536747  0.152759  0.950510  1
  S  S57  1  0.263797  0.667610  0.514565  1
  S  S58  1  0.045105  0.997150  0.370378  1
  S  S59  1  0.655252  0.007389  0.166655  1
  S  S60  1  0.992820  0.825627  0.496975  1
  S  S61  1  0.017448  0.357192  0.886479  1
  S  S62  1  0.337050  0.289283  0.168169  1
  S  S63  1  0.752399  0.979130  0.979583  1
  S  S64  1  0.992820  0.174373  0.996975  1
  S  S65  1  0.175837  0.828995  0.259971  1
  S  S66  1  0.337050  0.710717  0.668169  1
  S  S67  1  0.963668  0.665570  0.633076  1
  S  S68  1  0.231839  0.355848  0.512222  1
  S  S69  1  0.662950  0.710717  0.831831  1
  S  S70  1  0.335870  0.704674  0.829663  1
  S  S71  1  0.667792  0.672554  0.327193  1
  S  S72  1  0.963668  0.334430  0.133076  1
  S  S73  1  0.194112  0.509695  0.757842  1
  S  S74  1  0.332208  0.672554  0.172807  1
  S  S75  1  0.344748  0.007389  0.333345  1
  S  S76  1  0.486541  0.474433  0.102677  1
  S  S77  1  0.736203  0.667610  0.985435  1
  S  S78  1  0.805888  0.490305  0.242158  1
  S  S79  1  0.247601  0.979130  0.520417  1
  S  S80  1  0.372241  0.675070  0.339971  1
  S  S81  1  0.736203  0.332390  0.485435  1
  S  S82  1  0.667792  0.327446  0.827193  1
  S  S83  1  0.175837  0.171005  0.759971  1
  S  S84  1  0.344748  0.992611  0.833345  1
  S  S85  1  0.340667  0.997873  0.670544  1
  S  S86  1  0.513459  0.474433  0.397323  1
  S  S87  1  0.664130  0.704674  0.670337  1
  S  S88  1  0.007180  0.825627  0.003025  1
  S  S89  1  0.263797  0.332390  0.014565  1
  S  S90  1  0.664130  0.295326  0.170337  1
  S  S91  1  0.372241  0.324930  0.839971  1
  S  S92  1  0.463253  0.847241  0.049490  1
  S  S93  1  0.463253  0.152759  0.549490  1
  S  S94  1  0.332208  0.327446  0.672807  1
  S  S95  1  0.513459  0.525567  0.897323  1
  S  S96  1  0.752399  0.020870  0.479583  1
  S  S97  1  0.231839  0.644152  0.012222  1
  S  S98  1  0.768161  0.644152  0.487778  1
  S  S99  1  0.536747  0.847241  0.450510  1
  S  S100  1  0.659333  0.002127  0.329456  1
  S  S101  1  0.627759  0.675070  0.160029  1
  S  S102  1  0.194112  0.490305  0.257842  1
  S  S103  1  0.655252  0.992611  0.666655  1
  S  S104  1  0.824163  0.171005  0.740029  1
  S  S105  1  0.045105  0.002850  0.870378  1
  S  S106  1  0.036332  0.334430  0.366924  1
  S  S107  1  0.824163  0.828995  0.240029  1
  S  S108  1  0.007180  0.174373  0.503025  1
  S  S109  1  0.017448  0.642808  0.386479  1
  S  S110  1  0.768161  0.355848  0.987778  1
  S  S111  1  0.340667  0.002127  0.170544  1
  S  S112  1  0.247601  0.020870  0.020417  1
  S  S113  1  0.805888  0.509695  0.742158  1
  S  S114  1  0.036332  0.665570  0.866924  1
  S  S115  1  0.627759  0.324930  0.660029  1
  S  S116  1  0.486541  0.525567  0.602677  1
  S  S117  1  0.982552  0.357192  0.613521  1
  S  S118  1  0.335870  0.295326  0.329663  1
  S  S119  1  0.659333  0.997873  0.829456  1
  S  S120  1  0.662950  0.289283  0.331831  1
  S  S121  1  0.954895  0.002850  0.629622  1
  S  S122  1  0.982552  0.642808  0.113521  1
  S  S123  1  0.954895  0.997150  0.129622  1
