# generated using pymatgen
data_BaB4O7
_symmetry_space_group_name_H-M   'P 1'
_cell_length_a   4.34843757
_cell_length_b   9.09787535
_cell_length_c   11.10723990
_cell_angle_alpha   90.00000000
_cell_angle_beta   90.00000000
_cell_angle_gamma   90.00000000
_symmetry_Int_Tables_number   1
_chemical_formula_structural   BaB4O7
_chemical_formula_sum   'Ba4 B16 O28'
_cell_volume   439.41954868
_cell_formula_units_Z   4
loop_
 _symmetry_equiv_pos_site_id
 _symmetry_equiv_pos_as_xyz
  1  'x, y, z'
loop_
 _atom_site_type_symbol
 _atom_site_label
 _atom_site_symmetry_multiplicity
 _atom_site_fract_x
 _atom_site_fract_y
 _atom_site_fract_z
 _atom_site_occupancy
  Ba  Ba0  1  0.731115  0.852566  0.750000  1
  Ba  Ba1  1  0.268885  0.147434  0.250000  1
  Ba  Ba2  1  0.231115  0.647434  0.250000  1
  Ba  Ba3  1  0.768885  0.352566  0.750000  1
  B  B4  1  0.705934  0.910812  0.126320  1
  B  B5  1  0.294066  0.089188  0.873680  1
  B  B6  1  0.776920  0.157953  0.499375  1
  B  B7  1  0.223080  0.842047  0.999375  1
  B  B8  1  0.776920  0.157953  0.000625  1
  B  B9  1  0.794066  0.410812  0.373680  1
  B  B10  1  0.705934  0.910812  0.373680  1
  B  B11  1  0.205934  0.589188  0.626320  1
  B  B12  1  0.723080  0.657953  0.000625  1
  B  B13  1  0.276920  0.342047  0.500625  1
  B  B14  1  0.794066  0.410812  0.126320  1
  B  B15  1  0.276920  0.342047  0.999375  1
  B  B16  1  0.723080  0.657953  0.499375  1
  B  B17  1  0.205934  0.589188  0.873680  1
  B  B18  1  0.223080  0.842047  0.500625  1
  B  B19  1  0.294066  0.089188  0.626320  1
  O  O20  1  0.378669  0.695588  0.538414  1
  O  O21  1  0.294265  0.436497  0.895834  1
  O  O22  1  0.794265  0.063503  0.395834  1
  O  O23  1  0.705735  0.563503  0.104166  1
  O  O24  1  0.375802  0.890171  0.394345  1
  O  O25  1  0.624198  0.109829  0.894345  1
  O  O26  1  0.121331  0.195588  0.961586  1
  O  O27  1  0.875802  0.609829  0.605655  1
  O  O28  1  0.375802  0.890171  0.105655  1
  O  O29  1  0.705735  0.563503  0.395834  1
  O  O30  1  0.205735  0.936497  0.895834  1
  O  O31  1  0.784891  0.867428  0.250000  1
  O  O32  1  0.284891  0.632572  0.750000  1
  O  O33  1  0.205735  0.936497  0.604166  1
  O  O34  1  0.294265  0.436497  0.604166  1
  O  O35  1  0.124198  0.390171  0.394345  1
  O  O36  1  0.621331  0.304412  0.038414  1
  O  O37  1  0.121331  0.195588  0.538414  1
  O  O38  1  0.624198  0.109829  0.605655  1
  O  O39  1  0.621331  0.304412  0.461586  1
  O  O40  1  0.875802  0.609829  0.894345  1
  O  O41  1  0.215109  0.132572  0.750000  1
  O  O42  1  0.715109  0.367428  0.250000  1
  O  O43  1  0.878669  0.804412  0.038414  1
  O  O44  1  0.878669  0.804412  0.461586  1
  O  O45  1  0.794265  0.063503  0.104166  1
  O  O46  1  0.124198  0.390171  0.105655  1
  O  O47  1  0.378669  0.695588  0.961586  1
