# generated using pymatgen
data_Ni(SbO2)2
_symmetry_space_group_name_H-M   'P 1'
_cell_length_a   8.47757709
_cell_length_b   8.47757709
_cell_length_c   6.05662956
_cell_angle_alpha   90.00000000
_cell_angle_beta   90.00000000
_cell_angle_gamma   90.00000000
_symmetry_Int_Tables_number   1
_chemical_formula_structural   Ni(SbO2)2
_chemical_formula_sum   'Ni4 Sb8 O16'
_cell_volume   435.28580749
_cell_formula_units_Z   4
loop_
 _symmetry_equiv_pos_site_id
 _symmetry_equiv_pos_as_xyz
  1  'x, y, z'
loop_
 _atom_site_type_symbol
 _atom_site_label
 _atom_site_symmetry_multiplicity
 _atom_site_fract_x
 _atom_site_fract_y
 _atom_site_fract_z
 _atom_site_occupancy
  Ni  Ni0  1  0.000000  0.500000  0.250000  1
  Ni  Ni1  1  0.500000  0.000000  0.750000  1
  Ni  Ni2  1  0.000000  0.500000  0.750000  1
  Ni  Ni3  1  0.500000  0.000000  0.250000  1
  Sb  Sb4  1  0.335148  0.327864  0.000000  1
  Sb  Sb5  1  0.327864  0.664852  0.500000  1
  Sb  Sb6  1  0.672136  0.335148  0.500000  1
  Sb  Sb7  1  0.664852  0.672136  0.000000  1
  Sb  Sb8  1  0.835148  0.172136  0.000000  1
  Sb  Sb9  1  0.164852  0.827864  0.000000  1
  Sb  Sb10  1  0.172136  0.164852  0.500000  1
  Sb  Sb11  1  0.827864  0.835148  0.500000  1
  O  O12  1  0.902553  0.362752  0.500000  1
  O  O13  1  0.097447  0.637248  0.500000  1
  O  O14  1  0.637248  0.902553  0.000000  1
  O  O15  1  0.362752  0.097447  0.000000  1
  O  O16  1  0.862752  0.402553  0.000000  1
  O  O17  1  0.402553  0.137248  0.500000  1
  O  O18  1  0.597447  0.862752  0.500000  1
  O  O19  1  0.137248  0.597447  0.000000  1
  O  O20  1  0.676500  0.176500  0.750000  1
  O  O21  1  0.176500  0.323500  0.250000  1
  O  O22  1  0.823500  0.676500  0.250000  1
  O  O23  1  0.323500  0.823500  0.750000  1
  O  O24  1  0.676500  0.176500  0.250000  1
  O  O25  1  0.176500  0.323500  0.750000  1
  O  O26  1  0.823500  0.676500  0.750000  1
  O  O27  1  0.323500  0.823500  0.250000  1
