# generated using pymatgen
data_Fe2Pb3F12
_symmetry_space_group_name_H-M   'P 1'
_cell_length_a   7.53798521
_cell_length_b   7.81274828
_cell_length_c   10.04000392
_cell_angle_alpha   110.16626027
_cell_angle_beta   107.96367025
_cell_angle_gamma   96.47284673
_symmetry_Int_Tables_number   1
_chemical_formula_structural   Fe2Pb3F12
_chemical_formula_sum   'Fe4 Pb6 F24'
_cell_volume   511.84148978
_cell_formula_units_Z   2
loop_
 _symmetry_equiv_pos_site_id
 _symmetry_equiv_pos_as_xyz
  1  'x, y, z'
loop_
 _atom_site_type_symbol
 _atom_site_label
 _atom_site_symmetry_multiplicity
 _atom_site_fract_x
 _atom_site_fract_y
 _atom_site_fract_z
 _atom_site_occupancy
  Fe  Fe0  1  0.673030  0.735360  0.434528  1
  Fe  Fe1  1  0.326970  0.264640  0.565472  1
  Fe  Fe2  1  0.010987  0.205382  0.790339  1
  Fe  Fe3  1  0.989013  0.794618  0.209661  1
  Pb  Pb4  1  0.594747  0.231275  0.969200  1
  Pb  Pb5  1  0.405253  0.768725  0.030800  1
  Pb  Pb6  1  0.235107  0.780870  0.618482  1
  Pb  Pb7  1  0.764893  0.219130  0.381518  1
  Pb  Pb8  1  0.810592  0.668693  0.797354  1
  Pb  Pb9  1  0.189408  0.331307  0.202646  1
  F  F10  1  0.859265  0.318458  0.203835  1
  F  F11  1  0.140735  0.681542  0.796165  1
  F  F12  1  0.516047  0.888296  0.859389  1
  F  F13  1  0.483953  0.111704  0.140611  1
  F  F14  1  0.567418  0.897701  0.341362  1
  F  F15  1  0.432582  0.102299  0.658638  1
  F  F16  1  0.821640  0.584003  0.530761  1
  F  F17  1  0.178360  0.415997  0.469239  1
  F  F18  1  0.487387  0.289565  0.454048  1
  F  F19  1  0.512613  0.710435  0.545952  1
  F  F20  1  0.107551  0.848926  0.075775  1
  F  F21  1  0.892449  0.151074  0.924225  1
  F  F22  1  0.192070  0.418344  0.969427  1
  F  F23  1  0.807930  0.581656  0.030573  1
  F  F24  1  0.202218  0.064754  0.832580  1
  F  F25  1  0.797782  0.935246  0.167420  1
  F  F26  1  0.168921  0.649024  0.267999  1
  F  F27  1  0.831079  0.350976  0.732001  1
  F  F28  1  0.158559  0.037085  0.376493  1
  F  F29  1  0.841441  0.962915  0.623507  1
  F  F30  1  0.107667  0.241804  0.636650  1
  F  F31  1  0.892333  0.758196  0.363350  1
  F  F32  1  0.476551  0.485204  0.747757  1
  F  F33  1  0.523449  0.514796  0.252243  1
