# generated using pymatgen
data_K2RuNCl5O
_symmetry_space_group_name_H-M   'P 1'
_cell_length_a   7.06574976
_cell_length_b   10.61172267
_cell_length_c   13.58738812
_cell_angle_alpha   90.00000000
_cell_angle_beta   90.00000000
_cell_angle_gamma   90.00000000
_symmetry_Int_Tables_number   1
_chemical_formula_structural   K2RuNCl5O
_chemical_formula_sum   'K8 Ru4 N4 Cl20 O4'
_cell_volume   1018.77933001
_cell_formula_units_Z   4
loop_
 _symmetry_equiv_pos_site_id
 _symmetry_equiv_pos_as_xyz
  1  'x, y, z'
loop_
 _atom_site_type_symbol
 _atom_site_label
 _atom_site_symmetry_multiplicity
 _atom_site_fract_x
 _atom_site_fract_y
 _atom_site_fract_z
 _atom_site_occupancy
  K  K0  1  0.354889  0.999806  0.146200  1
  K  K1  1  0.854889  0.000194  0.353800  1
  K  K2  1  0.645111  0.499806  0.853800  1
  K  K3  1  0.145111  0.500194  0.646200  1
  K  K4  1  0.645111  0.000194  0.853800  1
  K  K5  1  0.145111  0.999806  0.646200  1
  K  K6  1  0.354889  0.500194  0.146200  1
  K  K7  1  0.854889  0.499806  0.353800  1
  Ru  Ru8  1  0.829492  0.750000  0.107068  1
  Ru  Ru9  1  0.329492  0.250000  0.392932  1
  Ru  Ru10  1  0.170508  0.250000  0.892932  1
  Ru  Ru11  1  0.670508  0.750000  0.607068  1
  N  N12  1  0.989018  0.750000  0.009465  1
  N  N13  1  0.489018  0.250000  0.490535  1
  N  N14  1  0.010982  0.250000  0.990535  1
  N  N15  1  0.510982  0.750000  0.509465  1
  Cl  Cl16  1  0.550917  0.750000  0.005020  1
  Cl  Cl17  1  0.050917  0.250000  0.494980  1
  Cl  Cl18  1  0.449083  0.250000  0.994980  1
  Cl  Cl19  1  0.949083  0.750000  0.505020  1
  Cl  Cl20  1  0.626920  0.750000  0.247195  1
  Cl  Cl21  1  0.126920  0.250000  0.252805  1
  Cl  Cl22  1  0.373080  0.250000  0.752805  1
  Cl  Cl23  1  0.873080  0.750000  0.747195  1
  Cl  Cl24  1  0.091919  0.750000  0.220696  1
  Cl  Cl25  1  0.591919  0.250000  0.279304  1
  Cl  Cl26  1  0.908081  0.250000  0.779304  1
  Cl  Cl27  1  0.408081  0.750000  0.720696  1
  Cl  Cl28  1  0.817243  0.976040  0.113197  1
  Cl  Cl29  1  0.317243  0.023960  0.386803  1
  Cl  Cl30  1  0.182757  0.476040  0.886803  1
  Cl  Cl31  1  0.682757  0.523960  0.613197  1
  Cl  Cl32  1  0.182757  0.023960  0.886803  1
  Cl  Cl33  1  0.682757  0.976040  0.613197  1
  Cl  Cl34  1  0.817243  0.523960  0.113197  1
  Cl  Cl35  1  0.317243  0.476040  0.386803  1
  O  O36  1  0.106293  0.750000  0.949136  1
  O  O37  1  0.606293  0.250000  0.550864  1
  O  O38  1  0.893707  0.250000  0.050864  1
  O  O39  1  0.393707  0.750000  0.449136  1
