# generated using pymatgen
data_Na2VOF4
_symmetry_space_group_name_H-M   'P 1'
_cell_length_a   8.29575572
_cell_length_b   8.29575572
_cell_length_c   6.85193549
_cell_angle_alpha   77.08836437
_cell_angle_beta   102.91163563
_cell_angle_gamma   101.84234707
_symmetry_Int_Tables_number   1
_chemical_formula_structural   Na2VOF4
_chemical_formula_sum   'Na8 V4 O4 F16'
_cell_volume   441.97828362
_cell_formula_units_Z   4
loop_
 _symmetry_equiv_pos_site_id
 _symmetry_equiv_pos_as_xyz
  1  'x, y, z'
loop_
 _atom_site_type_symbol
 _atom_site_label
 _atom_site_symmetry_multiplicity
 _atom_site_fract_x
 _atom_site_fract_y
 _atom_site_fract_z
 _atom_site_occupancy
  Na  Na0  1  0.999751  0.793962  0.625144  1
  Na  Na1  1  0.431354  0.762073  0.966775  1
  Na  Na2  1  0.237927  0.568646  0.466775  1
  Na  Na3  1  0.568646  0.237927  0.033225  1
  Na  Na4  1  0.762073  0.431354  0.533225  1
  Na  Na5  1  0.206038  0.000249  0.125144  1
  Na  Na6  1  0.000249  0.206038  0.374856  1
  Na  Na7  1  0.793962  0.999751  0.874856  1
  V  V8  1  0.399211  0.128514  0.582810  1
  V  V9  1  0.128514  0.399211  0.917190  1
  V  V10  1  0.871486  0.600789  0.082810  1
  V  V11  1  0.600789  0.871486  0.417190  1
  O  O12  1  0.684079  0.655053  0.011836  1
  O  O13  1  0.344947  0.315921  0.511836  1
  O  O14  1  0.655053  0.684079  0.488164  1
  O  O15  1  0.315921  0.344947  0.988164  1
  F  F16  1  0.372391  0.796289  0.272568  1
  F  F17  1  0.036187  0.342645  0.650780  1
  F  F18  1  0.342645  0.036187  0.849220  1
  F  F19  1  0.996974  0.815140  0.962058  1
  F  F20  1  0.657355  0.963813  0.150780  1
  F  F21  1  0.111792  0.491497  0.155719  1
  F  F22  1  0.963813  0.657355  0.349220  1
  F  F23  1  0.888208  0.508503  0.844281  1
  F  F24  1  0.796289  0.372391  0.227432  1
  F  F25  1  0.003026  0.184860  0.037942  1
  F  F26  1  0.627609  0.203711  0.727432  1
  F  F27  1  0.184860  0.003026  0.462058  1
  F  F28  1  0.508503  0.888208  0.655719  1
  F  F29  1  0.203711  0.627609  0.772568  1
  F  F30  1  0.815140  0.996974  0.537942  1
  F  F31  1  0.491497  0.111792  0.344281  1
