# generated using pymatgen
data_Ge(PbS2)2
_symmetry_space_group_name_H-M   'P 1'
_cell_length_a   12.51248341
_cell_length_b   12.51248341
_cell_length_c   12.51248341
_cell_angle_alpha   110.09673264
_cell_angle_beta   110.09673264
_cell_angle_gamma   108.22731189
_symmetry_Int_Tables_number   1
_chemical_formula_structural   Ge(PbS2)2
_chemical_formula_sum   'Ge8 Pb16 S32'
_cell_volume   1507.49370621
_cell_formula_units_Z   8
loop_
 _symmetry_equiv_pos_site_id
 _symmetry_equiv_pos_as_xyz
  1  'x, y, z'
loop_
 _atom_site_type_symbol
 _atom_site_label
 _atom_site_symmetry_multiplicity
 _atom_site_fract_x
 _atom_site_fract_y
 _atom_site_fract_z
 _atom_site_occupancy
  Ge  Ge0  1  0.120830  0.320777  0.751991  1
  Ge  Ge1  1  0.631161  0.879170  0.199947  1
  Ge  Ge2  1  0.181214  0.929223  0.300053  1
  Ge  Ge3  1  0.629170  0.881161  0.699947  1
  Ge  Ge4  1  0.679223  0.431214  0.800053  1
  Ge  Ge5  1  0.568786  0.368839  0.248009  1
  Ge  Ge6  1  0.070777  0.370830  0.251991  1
  Ge  Ge7  1  0.118839  0.818786  0.748009  1
  Pb  Pb8  1  0.143937  0.143937  0.000000  1
  Pb  Pb9  1  0.375000  0.645309  0.770309  1
  Pb  Pb10  1  0.375000  0.960179  0.085179  1
  Pb  Pb11  1  0.354691  0.125000  0.729691  1
  Pb  Pb12  1  0.375000  0.354695  0.479695  1
  Pb  Pb13  1  0.395309  0.625000  0.270309  1
  Pb  Pb14  1  0.856063  0.856063  0.000000  1
  Pb  Pb15  1  0.875000  0.604691  0.229691  1
  Pb  Pb16  1  0.645305  0.125000  0.020305  1
  Pb  Pb17  1  0.710179  0.625000  0.585179  1
  Pb  Pb18  1  0.606063  0.106063  0.500000  1
  Pb  Pb19  1  0.875000  0.289821  0.914821  1
  Pb  Pb20  1  0.104695  0.625000  0.979695  1
  Pb  Pb21  1  0.893937  0.393937  0.500000  1
  Pb  Pb22  1  0.875000  0.895305  0.520305  1
  Pb  Pb23  1  0.039821  0.125000  0.414821  1
  S  S24  1  0.126435  0.503316  0.751382  1
  S  S25  1  0.150500  0.351481  0.948589  1
  S  S26  1  0.321592  0.854865  0.800688  1
  S  S27  1  0.428408  0.729097  0.033273  1
  S  S28  1  0.270903  0.304176  0.699312  1
  S  S29  1  0.402892  0.201911  0.051411  1
  S  S30  1  0.145135  0.945824  0.466727  1
  S  S31  1  0.253316  0.376435  0.251382  1
  S  S32  1  0.479097  0.678408  0.533273  1
  S  S33  1  0.181675  0.095422  0.266953  1
  S  S34  1  0.798089  0.849500  0.200981  1
  S  S35  1  0.648519  0.597108  0.799019  1
  S  S36  1  0.496684  0.248067  0.623119  1
  S  S37  1  0.664722  0.078469  0.233047  1
  S  S38  1  0.695824  0.395135  0.966727  1
  S  S39  1  0.347108  0.898519  0.299019  1
  S  S40  1  0.568325  0.335278  0.413747  1
  S  S41  1  0.604865  0.571592  0.300688  1
  S  S42  1  0.599500  0.048089  0.700981  1
  S  S43  1  0.623565  0.874947  0.876881  1
  S  S44  1  0.998067  0.746684  0.123119  1
  S  S45  1  0.845422  0.431675  0.766953  1
  S  S46  1  0.904578  0.171531  0.086253  1
  S  S47  1  0.054176  0.520903  0.199312  1
  S  S48  1  0.085278  0.818325  0.913747  1
  S  S49  1  0.624947  0.873565  0.376881  1
  S  S50  1  0.751933  0.375053  0.248618  1
  S  S51  1  0.951911  0.652892  0.551411  1
  S  S52  1  0.828469  0.914722  0.733047  1
  S  S53  1  0.921531  0.154578  0.586253  1
  S  S54  1  0.101481  0.400500  0.448589  1
  S  S55  1  0.125053  0.001933  0.748618  1
