# generated using pymatgen
data_K6Pb2O5
_symmetry_space_group_name_H-M   'P 1'
_cell_length_a   6.51689931
_cell_length_b   7.74330445
_cell_length_c   12.65902405
_cell_angle_alpha   79.02983132
_cell_angle_beta   84.25758284
_cell_angle_gamma   88.05244757
_symmetry_Int_Tables_number   1
_chemical_formula_structural   K6Pb2O5
_chemical_formula_sum   'K12 Pb4 O10'
_cell_volume   623.91055194
_cell_formula_units_Z   2
loop_
 _symmetry_equiv_pos_site_id
 _symmetry_equiv_pos_as_xyz
  1  'x, y, z'
loop_
 _atom_site_type_symbol
 _atom_site_label
 _atom_site_symmetry_multiplicity
 _atom_site_fract_x
 _atom_site_fract_y
 _atom_site_fract_z
 _atom_site_occupancy
  K  K0  1  0.433167  0.606634  0.365165  1
  K  K1  1  0.566833  0.393366  0.634835  1
  K  K2  1  0.920667  0.410123  0.383263  1
  K  K3  1  0.079333  0.589877  0.616737  1
  K  K4  1  0.317239  0.949588  0.122324  1
  K  K5  1  0.682761  0.050412  0.877676  1
  K  K6  1  0.308454  0.485384  0.121648  1
  K  K7  1  0.691546  0.514616  0.878352  1
  K  K8  1  0.779946  0.701039  0.126248  1
  K  K9  1  0.220054  0.298961  0.873752  1
  K  K10  1  0.411743  0.133730  0.374102  1
  K  K11  1  0.588257  0.866270  0.625898  1
  Pb  Pb12  1  0.911598  0.869083  0.353816  1
  Pb  Pb13  1  0.088402  0.130917  0.646184  1
  Pb  Pb14  1  0.756569  0.211069  0.137131  1
  Pb  Pb15  1  0.243431  0.788931  0.862869  1
  O  O16  1  0.647676  0.947996  0.244127  1
  O  O17  1  0.352324  0.052004  0.755873  1
  O  O18  1  0.517659  0.242167  0.025558  1
  O  O19  1  0.482341  0.757833  0.974442  1
  O  O20  1  0.745623  0.675576  0.478490  1
  O  O21  1  0.254377  0.324424  0.521510  1
  O  O22  1  0.618160  0.383637  0.243384  1
  O  O23  1  0.381840  0.616363  0.756616  1
  O  O24  1  0.081492  0.693246  0.258142  1
  O  O25  1  0.918508  0.306754  0.741858  1
