# generated using pymatgen
data_VS4
_symmetry_space_group_name_H-M   'P 1'
_cell_length_a   8.62120751
_cell_length_b   8.62120751
_cell_length_c   7.30609014
_cell_angle_alpha   71.75478043
_cell_angle_beta   108.24521957
_cell_angle_gamma   97.78420456
_symmetry_Int_Tables_number   1
_chemical_formula_structural   VS4
_chemical_formula_sum   'V4 S16'
_cell_volume   489.37651198
_cell_formula_units_Z   4
loop_
 _symmetry_equiv_pos_site_id
 _symmetry_equiv_pos_as_xyz
  1  'x, y, z'
loop_
 _atom_site_type_symbol
 _atom_site_label
 _atom_site_symmetry_multiplicity
 _atom_site_fract_x
 _atom_site_fract_y
 _atom_site_fract_z
 _atom_site_occupancy
  V  V0  1  0.883747  0.615610  0.383924  1
  V  V1  1  0.116253  0.384390  0.616076  1
  V  V2  1  0.615610  0.883747  0.116076  1
  V  V3  1  0.384390  0.116253  0.883924  1
  S  S4  1  0.334463  0.827304  0.961519  1
  S  S5  1  0.527908  0.077801  0.230904  1
  S  S6  1  0.665537  0.172696  0.038481  1
  S  S7  1  0.077801  0.527908  0.269096  1
  S  S8  1  0.173462  0.150097  0.542166  1
  S  S9  1  0.691852  0.629912  0.061403  1
  S  S10  1  0.370088  0.308148  0.561403  1
  S  S11  1  0.922199  0.472092  0.730904  1
  S  S12  1  0.472092  0.922199  0.769096  1
  S  S13  1  0.849903  0.826538  0.042166  1
  S  S14  1  0.308148  0.370088  0.938597  1
  S  S15  1  0.629912  0.691852  0.438597  1
  S  S16  1  0.826538  0.849903  0.457834  1
  S  S17  1  0.172696  0.665537  0.461519  1
  S  S18  1  0.150097  0.173462  0.957834  1
  S  S19  1  0.827304  0.334463  0.538481  1
