# generated using pymatgen
data_Ba4Nb2(OF4)3
_symmetry_space_group_name_H-M   'P 1'
_cell_length_a   13.32919409
_cell_length_b   13.32919409
_cell_length_c   15.25237904
_cell_angle_alpha   69.20348335
_cell_angle_beta   110.79651665
_cell_angle_gamma   119.99364588
_symmetry_Int_Tables_number   1
_chemical_formula_structural   Ba4Nb2(OF4)3
_chemical_formula_sum   'Ba24 Nb12 O18 F72'
_cell_volume   2140.62984095
_cell_formula_units_Z   6
loop_
 _symmetry_equiv_pos_site_id
 _symmetry_equiv_pos_as_xyz
  1  'x, y, z'
loop_
 _atom_site_type_symbol
 _atom_site_label
 _atom_site_symmetry_multiplicity
 _atom_site_fract_x
 _atom_site_fract_y
 _atom_site_fract_z
 _atom_site_occupancy
  Ba  Ba0  1  0.236517  0.082997  0.389999  1
  Ba  Ba1  1  0.421943  0.590326  0.112821  1
  Ba  Ba2  1  0.437927  0.916020  0.169422  1
  Ba  Ba3  1  0.590326  0.421943  0.387179  1
  Ba  Ba4  1  0.763483  0.917003  0.610001  1
  Ba  Ba5  1  0.083980  0.562073  0.669422  1
  Ba  Ba6  1  0.430656  0.241920  0.158987  1
  Ba  Ba7  1  0.091397  0.918006  0.642587  1
  Ba  Ba8  1  0.917003  0.763483  0.889999  1
  Ba  Ba9  1  0.749005  0.914678  0.111462  1
  Ba  Ba10  1  0.914678  0.749005  0.388538  1
  Ba  Ba11  1  0.578057  0.409674  0.887179  1
  Ba  Ba12  1  0.758080  0.569344  0.658987  1
  Ba  Ba13  1  0.409674  0.578057  0.612821  1
  Ba  Ba14  1  0.081994  0.908603  0.142587  1
  Ba  Ba15  1  0.569344  0.758080  0.841013  1
  Ba  Ba16  1  0.241920  0.430656  0.341013  1
  Ba  Ba17  1  0.918006  0.091397  0.857413  1
  Ba  Ba18  1  0.916020  0.437927  0.330578  1
  Ba  Ba19  1  0.562073  0.083980  0.830578  1
  Ba  Ba20  1  0.085322  0.250995  0.611462  1
  Ba  Ba21  1  0.908603  0.081994  0.357413  1
  Ba  Ba22  1  0.250995  0.085322  0.888538  1
  Ba  Ba23  1  0.082997  0.236517  0.110001  1
  Nb  Nb24  1  0.804204  0.282184  0.611125  1
  Nb  Nb25  1  0.282184  0.804204  0.888875  1
  Nb  Nb26  1  0.875134  0.400440  0.913233  1
  Nb  Nb27  1  0.394873  0.273211  0.602104  1
  Nb  Nb28  1  0.605127  0.726789  0.397896  1
  Nb  Nb29  1  0.195796  0.717816  0.388875  1
  Nb  Nb30  1  0.273211  0.394873  0.897896  1
  Nb  Nb31  1  0.124866  0.599560  0.086767  1
  Nb  Nb32  1  0.400440  0.875134  0.586767  1
  Nb  Nb33  1  0.599560  0.124866  0.413233  1
  Nb  Nb34  1  0.717816  0.195796  0.111125  1
  Nb  Nb35  1  0.726789  0.605127  0.102104  1
  O  O36  1  0.465287  0.177365  0.653609  1
  O  O37  1  0.189775  0.579747  0.391857  1
  O  O38  1  0.082831  0.715807  0.064846  1
  O  O39  1  0.231838  0.673456  0.993609  1
  O  O40  1  0.673456  0.231838  0.506391  1
  O  O41  1  0.177365  0.465287  0.846391  1
  O  O42  1  0.810225  0.420253  0.608143  1
  O  O43  1  0.579747  0.189775  0.108143  1
  O  O44  1  0.822635  0.534713  0.153609  1
  O  O45  1  0.768162  0.326544  0.006391  1
  O  O46  1  0.326544  0.768162  0.493609  1
  O  O47  1  0.500000  1.000000  0.500000  1
  O  O48  1  0.420253  0.810225  0.891857  1
  O  O49  1  0.715807  0.082831  0.435154  1
  O  O50  1  0.534713  0.822635  0.346391  1
  O  O51  1  0.284193  0.917169  0.564846  1
  O  O52  1  1.000000  0.500000  0.000000  1
  O  O53  1  0.917169  0.284193  0.935154  1
  F  F54  1  0.952099  0.037293  0.047317  1
  F  F55  1  0.962707  0.047901  0.547317  1
  F  F56  1  0.812733  0.521904  0.382209  1
  F  F57  1  0.032628  0.297088  0.408517  1
  F  F58  1  0.080239  0.651112  0.474989  1
  F  F59  1  0.478096  0.187267  0.882209  1
  F  F60  1  0.710402  0.621991  0.461924  1
  F  F61  1  0.037293  0.952099  0.452683  1
  F  F62  1  0.702912  0.967372  0.908517  1
  F  F63  1  0.158117  0.871388  0.356930  1
  F  F64  1  0.192153  0.458980  0.138614  1
  F  F65  1  0.623621  0.704187  0.544747  1
  F  F66  1  0.871388  0.158117  0.143070  1
  F  F67  1  0.214774  0.117011  0.199694  1
  F  F68  1  0.841883  0.128612  0.643070  1
  F  F69  1  0.458980  0.192153  0.361386  1
  F  F70  1  0.882989  0.785226  0.699694  1
  F  F71  1  0.411111  0.549315  0.938771  1
  F  F72  1  0.951168  0.951168  0.250000  1
  F  F73  1  0.384999  0.476006  0.804292  1
  F  F74  1  0.297088  0.032628  0.091483  1
  F  F75  1  0.337119  0.716229  0.684793  1
  F  F76  1  0.967372  0.702912  0.591483  1
  F  F77  1  0.496591  0.059886  0.293917  1
  F  F78  1  0.128612  0.841883  0.856930  1
  F  F79  1  0.621991  0.710402  0.038076  1
  F  F80  1  0.651112  0.080239  0.025011  1
  F  F81  1  0.476006  0.384999  0.695708  1
  F  F82  1  0.785226  0.882989  0.800306  1
  F  F83  1  0.964912  0.314784  0.712927  1
  F  F84  1  0.765473  0.860023  0.450472  1
  F  F85  1  0.541020  0.807847  0.638614  1
  F  F86  1  0.139977  0.234527  0.950472  1
  F  F87  1  0.047901  0.962707  0.952683  1
  F  F88  1  0.048832  0.048832  0.750000  1
  F  F89  1  0.234527  0.139977  0.549528  1
  F  F90  1  0.807847  0.541020  0.861386  1
  F  F91  1  0.289598  0.378009  0.538076  1
  F  F92  1  0.283771  0.662881  0.184793  1
  F  F93  1  0.288347  0.200893  0.698664  1
  F  F94  1  0.378009  0.289598  0.961924  1
  F  F95  1  0.200893  0.288347  0.801336  1
  F  F96  1  0.180397  0.730571  0.776283  1
  F  F97  1  0.035088  0.685216  0.287073  1
  F  F98  1  0.730571  0.180397  0.723717  1
  F  F99  1  0.376379  0.295813  0.455253  1
  F  F100  1  0.711653  0.799107  0.301336  1
  F  F101  1  0.549315  0.411111  0.561229  1
  F  F102  1  0.269429  0.819603  0.276283  1
  F  F103  1  0.187267  0.478096  0.617791  1
  F  F104  1  0.615001  0.523994  0.195708  1
  F  F105  1  0.611001  0.611001  0.750000  1
  F  F106  1  0.704187  0.623621  0.955253  1
  F  F107  1  0.860023  0.765473  0.049528  1
  F  F108  1  0.716229  0.337119  0.815207  1
  F  F109  1  0.799107  0.711653  0.198664  1
  F  F110  1  0.523994  0.615001  0.304292  1
  F  F111  1  0.662881  0.283771  0.315207  1
  F  F112  1  0.919761  0.348888  0.525011  1
  F  F113  1  0.348888  0.919761  0.974989  1
  F  F114  1  0.503409  0.940114  0.706083  1
  F  F115  1  0.588889  0.450685  0.061229  1
  F  F116  1  0.314784  0.964912  0.787073  1
  F  F117  1  0.685216  0.035088  0.212927  1
  F  F118  1  0.450685  0.588889  0.438771  1
  F  F119  1  0.117011  0.214774  0.300306  1
  F  F120  1  0.388999  0.388999  0.250000  1
  F  F121  1  0.940114  0.503409  0.793917  1
  F  F122  1  0.295813  0.376379  0.044747  1
  F  F123  1  0.521904  0.812733  0.117791  1
  F  F124  1  0.059886  0.496591  0.206083  1
  F  F125  1  0.819603  0.269429  0.223717  1
