# generated using pymatgen
data_RbNb(BO3)2
_symmetry_space_group_name_H-M   'P 1'
_cell_length_a   7.52184023
_cell_length_b   20.22424027
_cell_length_c   12.21590989
_cell_angle_alpha   90.00000000
_cell_angle_beta   127.97275251
_cell_angle_gamma   90.00000000
_symmetry_Int_Tables_number   1
_chemical_formula_structural   RbNb(BO3)2
_chemical_formula_sum   'Rb10 Nb10 B20 O60'
_cell_volume   1464.92559475
_cell_formula_units_Z   10
loop_
 _symmetry_equiv_pos_site_id
 _symmetry_equiv_pos_as_xyz
  1  'x, y, z'
loop_
 _atom_site_type_symbol
 _atom_site_label
 _atom_site_symmetry_multiplicity
 _atom_site_fract_x
 _atom_site_fract_y
 _atom_site_fract_z
 _atom_site_occupancy
  Rb  Rb0  1  0.382568  0.593094  0.894314  1
  Rb  Rb1  1  0.382568  0.406906  0.394314  1
  Rb  Rb2  1  0.402888  0.606676  0.399755  1
  Rb  Rb3  1  0.396397  0.006912  0.399395  1
  Rb  Rb4  1  0.389009  0.793293  0.894904  1
  Rb  Rb5  1  0.396397  0.993088  0.899395  1
  Rb  Rb6  1  0.402888  0.393324  0.899755  1
  Rb  Rb7  1  0.389147  0.806864  0.403021  1
  Rb  Rb8  1  0.389147  0.193136  0.903021  1
  Rb  Rb9  1  0.389009  0.206707  0.394904  1
  Nb  Nb10  1  0.010527  0.333902  0.499595  1
  Nb  Nb11  1  0.998295  0.732308  0.501060  1
  Nb  Nb12  1  0.983885  0.466662  0.999906  1
  Nb  Nb13  1  0.010527  0.666098  0.999595  1
  Nb  Nb14  1  0.002510  0.931999  0.503014  1
  Nb  Nb15  1  0.979528  0.867062  0.002292  1
  Nb  Nb16  1  0.002510  0.068001  0.003014  1
  Nb  Nb17  1  0.979528  0.132938  0.502292  1
  Nb  Nb18  1  0.998295  0.267692  0.001060  1
  Nb  Nb19  1  0.983885  0.533338  0.499906  1
  B  B20  1  0.557730  0.297802  0.706158  1
  B  B21  1  0.839028  0.897354  0.206250  1
  B  B22  1  0.860598  0.505948  0.210151  1
  B  B23  1  0.557730  0.702198  0.206158  1
  B  B24  1  0.551546  0.092496  0.206363  1
  B  B25  1  0.860679  0.290388  0.206924  1
  B  B26  1  0.534037  0.509937  0.712349  1
  B  B27  1  0.860679  0.709612  0.706924  1
  B  B28  1  0.899763  0.689903  0.219761  1
  B  B29  1  0.528679  0.894022  0.225204  1
  B  B30  1  0.860598  0.494052  0.710151  1
  B  B31  1  0.899845  0.099615  0.224319  1
  B  B32  1  0.540948  0.695670  0.717142  1
  B  B33  1  0.551546  0.907504  0.706363  1
  B  B34  1  0.534037  0.490063  0.212349  1
  B  B35  1  0.899763  0.310097  0.719761  1
  B  B36  1  0.899845  0.900385  0.724319  1
  B  B37  1  0.540948  0.304330  0.217142  1
  B  B38  1  0.528679  0.105978  0.725204  1
  B  B39  1  0.839028  0.102646  0.706250  1
  O  O40  1  0.338546  0.933312  0.625853  1
  O  O41  1  0.318614  0.291343  0.150535  1
  O  O42  1  0.671361  0.328185  0.349401  1
  O  O43  1  0.990195  0.911333  0.657527  1
  O  O44  1  0.646609  0.118586  0.334161  1
  O  O45  1  0.610580  0.109966  0.648484  1
  O  O46  1  0.337552  0.684188  0.129705  1
  O  O47  1  0.035720  0.118031  0.360476  1
  O  O48  1  0.631572  0.507981  0.643958  1
  O  O49  1  0.666378  0.910194  0.648829  1
  O  O50  1  0.663832  0.089334  0.862513  1
  O  O51  1  0.975949  0.330508  0.648493  1
  O  O52  1  0.610580  0.890034  0.148484  1
  O  O53  1  0.306726  0.121103  0.657225  1
  O  O54  1  0.647726  0.510001  0.346527  1
  O  O55  1  0.671361  0.671815  0.849401  1
  O  O56  1  0.664402  0.309946  0.645675  1
  O  O57  1  0.319358  0.534615  0.637336  1
  O  O58  1  0.990195  0.088667  0.157527  1
  O  O59  1  0.993333  0.925879  0.332479  1
  O  O60  1  0.021164  0.686615  0.837644  1
  O  O61  1  0.666378  0.089806  0.148829  1
  O  O62  1  0.044195  0.820606  0.502706  1
  O  O63  1  0.971556  0.979215  0.004137  1
  O  O64  1  0.915910  0.736119  0.628189  1
  O  O65  1  0.628679  0.708937  0.645364  1
  O  O66  1  0.646609  0.881414  0.834161  1
  O  O67  1  0.337552  0.315812  0.629705  1
  O  O68  1  0.896241  0.873750  0.127346  1
  O  O69  1  0.915910  0.263881  0.128189  1
  O  O70  1  0.045700  0.292324  0.856194  1
  O  O71  1  0.666537  0.730105  0.333962  1
  O  O72  1  0.034019  0.423210  0.496688  1
  O  O73  1  0.941369  0.509174  0.639711  1
  O  O74  1  0.664402  0.690054  0.145675  1
  O  O75  1  0.943985  0.621899  0.502129  1
  O  O76  1  0.035720  0.881969  0.860476  1
  O  O77  1  0.647726  0.489999  0.846527  1
  O  O78  1  0.663832  0.910666  0.362513  1
  O  O79  1  0.998656  0.467274  0.839706  1
  O  O80  1  0.338546  0.066688  0.125853  1
  O  O81  1  0.978327  0.222550  0.497869  1
  O  O82  1  0.998656  0.532726  0.339706  1
  O  O83  1  0.628679  0.291063  0.145364  1
  O  O84  1  0.971556  0.020785  0.504137  1
  O  O85  1  0.318614  0.708657  0.650535  1
  O  O86  1  0.631572  0.492019  0.143958  1
  O  O87  1  0.978327  0.777450  0.997869  1
  O  O88  1  0.993333  0.074121  0.832479  1
  O  O89  1  0.306726  0.878897  0.157225  1
  O  O90  1  0.319358  0.465385  0.137336  1
  O  O91  1  0.021164  0.313385  0.337644  1
  O  O92  1  0.034019  0.576790  0.996688  1
  O  O93  1  0.941369  0.490826  0.139711  1
  O  O94  1  0.896241  0.126250  0.627346  1
  O  O95  1  0.975949  0.669492  0.148493  1
  O  O96  1  0.666537  0.269895  0.833962  1
  O  O97  1  0.045700  0.707676  0.356194  1
  O  O98  1  0.943985  0.378101  0.002129  1
  O  O99  1  0.044195  0.179394  0.002706  1
