# generated using pymatgen
data_BaMnF5
_symmetry_space_group_name_H-M   'P 1'
_cell_length_a   5.02580426
_cell_length_b   5.90829932
_cell_length_c   14.36256335
_cell_angle_alpha   90.00000000
_cell_angle_beta   90.00000000
_cell_angle_gamma   90.00000000
_symmetry_Int_Tables_number   1
_chemical_formula_structural   BaMnF5
_chemical_formula_sum   'Ba4 Mn4 F20'
_cell_volume   426.48132261
_cell_formula_units_Z   4
loop_
 _symmetry_equiv_pos_site_id
 _symmetry_equiv_pos_as_xyz
  1  'x, y, z'
loop_
 _atom_site_type_symbol
 _atom_site_label
 _atom_site_symmetry_multiplicity
 _atom_site_fract_x
 _atom_site_fract_y
 _atom_site_fract_z
 _atom_site_occupancy
  Ba  Ba0  1  0.745085  0.635576  0.660821  1
  Ba  Ba1  1  0.245085  0.864424  0.339179  1
  Ba  Ba2  1  0.254915  0.135576  0.839179  1
  Ba  Ba3  1  0.754915  0.364424  0.160821  1
  Mn  Mn4  1  0.338869  0.118537  0.584950  1
  Mn  Mn5  1  0.838869  0.381463  0.415050  1
  Mn  Mn6  1  0.661131  0.618537  0.915050  1
  Mn  Mn7  1  0.161131  0.881463  0.084950  1
  F  F8  1  0.994228  0.615095  0.484364  1
  F  F9  1  0.494228  0.884905  0.515636  1
  F  F10  1  0.005772  0.115095  0.015636  1
  F  F11  1  0.505772  0.384905  0.984364  1
  F  F12  1  0.680985  0.617449  0.322290  1
  F  F13  1  0.180985  0.882551  0.677710  1
  F  F14  1  0.319015  0.117449  0.177710  1
  F  F15  1  0.819015  0.382551  0.822290  1
  F  F16  1  0.201081  0.360698  0.657207  1
  F  F17  1  0.701081  0.139302  0.342793  1
  F  F18  1  0.798919  0.860698  0.842793  1
  F  F19  1  0.298919  0.639302  0.157207  1
  F  F20  1  0.631034  0.118751  0.668220  1
  F  F21  1  0.131034  0.381249  0.331780  1
  F  F22  1  0.368966  0.618751  0.831780  1
  F  F23  1  0.868966  0.881249  0.168220  1
  F  F24  1  0.559463  0.371452  0.504591  1
  F  F25  1  0.059463  0.128548  0.495409  1
  F  F26  1  0.440537  0.871452  0.995409  1
  F  F27  1  0.940537  0.628548  0.004591  1
