# generated using pymatgen
data_SrZrO3
_symmetry_space_group_name_H-M   'P 1'
_cell_length_a   5.90598157
_cell_length_b   5.90598157
_cell_length_c   5.90598157
_cell_angle_alpha   120.76929023
_cell_angle_beta   120.76929023
_cell_angle_gamma   88.67263595
_symmetry_Int_Tables_number   1
_chemical_formula_structural   SrZrO3
_chemical_formula_sum   'Sr2 Zr2 O6'
_cell_volume   143.93133757
_cell_formula_units_Z   2
loop_
 _symmetry_equiv_pos_site_id
 _symmetry_equiv_pos_as_xyz
  1  'x, y, z'
loop_
 _atom_site_type_symbol
 _atom_site_label
 _atom_site_symmetry_multiplicity
 _atom_site_fract_x
 _atom_site_fract_y
 _atom_site_fract_z
 _atom_site_occupancy
  Sr  Sr0  1  0.750000  0.250000  0.500000  1
  Sr  Sr1  1  0.250000  0.750000  0.500000  1
  Zr  Zr2  1  0.000000  0.000000  0.000000  1
  Zr  Zr3  1  0.500000  0.500000  0.000000  1
  O  O4  1  0.190355  0.690355  0.880710  1
  O  O5  1  0.690355  0.809645  0.500000  1
  O  O6  1  0.309645  0.190355  0.500000  1
  O  O7  1  0.809645  0.309645  0.119290  1
  O  O8  1  0.250000  0.250000  0.000000  1
  O  O9  1  0.750000  0.750000  0.000000  1
