# generated using pymatgen
data_Na2B2Se7
_symmetry_space_group_name_H-M   'P 1'
_cell_length_a   8.28300634
_cell_length_b   8.28300634
_cell_length_c   12.07042184
_cell_angle_alpha   63.64374604
_cell_angle_beta   116.35625396
_cell_angle_gamma   130.99681048
_symmetry_Int_Tables_number   1
_chemical_formula_structural   Na2B2Se7
_chemical_formula_sum   'Na4 B4 Se14'
_cell_volume   545.59155652
_cell_formula_units_Z   2
loop_
 _symmetry_equiv_pos_site_id
 _symmetry_equiv_pos_as_xyz
  1  'x, y, z'
loop_
 _atom_site_type_symbol
 _atom_site_label
 _atom_site_symmetry_multiplicity
 _atom_site_fract_x
 _atom_site_fract_y
 _atom_site_fract_z
 _atom_site_occupancy
  Na  Na0  1  0.893361  0.673320  0.042967  1
  Na  Na1  1  0.673320  0.893361  0.457033  1
  Na  Na2  1  0.106639  0.326680  0.957033  1
  Na  Na3  1  0.326680  0.106639  0.542967  1
  B  B4  1  0.602167  0.837347  0.150362  1
  B  B5  1  0.837347  0.602167  0.349638  1
  B  B6  1  0.397833  0.162653  0.849638  1
  B  B7  1  0.162653  0.397833  0.650362  1
  Se  Se8  1  0.524625  0.524625  0.250000  1
  Se  Se9  1  0.475375  0.475375  0.750000  1
  Se  Se10  1  0.441676  0.198974  0.019759  1
  Se  Se11  1  0.198974  0.441676  0.480241  1
  Se  Se12  1  0.558324  0.801026  0.980241  1
  Se  Se13  1  0.801026  0.558324  0.519759  1
  Se  Se14  1  0.378758  0.855189  0.168333  1
  Se  Se15  1  0.855189  0.378758  0.331667  1
  Se  Se16  1  0.621242  0.144811  0.831667  1
  Se  Se17  1  0.144811  0.621242  0.668333  1
  Se  Se18  1  0.909200  0.083842  0.223938  1
  Se  Se19  1  0.083842  0.909200  0.276062  1
  Se  Se20  1  0.090800  0.916158  0.776062  1
  Se  Se21  1  0.916158  0.090800  0.723938  1
