# generated using pymatgen
data_PrP3(HO2)6
_symmetry_space_group_name_H-M   'P 1'
_cell_length_a   6.87428963
_cell_length_b   6.87428963
_cell_length_c   6.12515098
_cell_angle_alpha   90.00000000
_cell_angle_beta   90.00000000
_cell_angle_gamma   120.00000000
_symmetry_Int_Tables_number   1
_chemical_formula_structural   PrP3(HO2)6
_chemical_formula_sum   'Pr1 P3 H6 O12'
_cell_volume   250.67041636
_cell_formula_units_Z   1
loop_
 _symmetry_equiv_pos_site_id
 _symmetry_equiv_pos_as_xyz
  1  'x, y, z'
loop_
 _atom_site_type_symbol
 _atom_site_label
 _atom_site_symmetry_multiplicity
 _atom_site_fract_x
 _atom_site_fract_y
 _atom_site_fract_z
 _atom_site_occupancy
  Pr  Pr0  1  0.000000  0.000000  0.000000  1
  P  P1  1  0.729482  0.118011  0.500000  1
  P  P2  1  0.881989  0.611470  0.500000  1
  P  P3  1  0.388530  0.270518  0.500000  1
  H  H4  1  0.510598  0.567590  0.125902  1
  H  H5  1  0.432410  0.943008  0.125902  1
  H  H6  1  0.056992  0.489402  0.874098  1
  H  H7  1  0.056992  0.489402  0.125902  1
  H  H8  1  0.432410  0.943008  0.874098  1
  H  H9  1  0.510598  0.567590  0.874098  1
  O  O10  1  0.484772  0.098732  0.500000  1
  O  O11  1  0.595579  0.656895  0.000000  1
  O  O12  1  0.061316  0.404421  0.000000  1
  O  O13  1  0.978419  0.728972  0.288137  1
  O  O14  1  0.901268  0.386040  0.500000  1
  O  O15  1  0.978419  0.728972  0.711863  1
  O  O16  1  0.271028  0.249447  0.288137  1
  O  O17  1  0.613960  0.515228  0.500000  1
  O  O18  1  0.750553  0.021581  0.288137  1
  O  O19  1  0.750553  0.021581  0.711863  1
  O  O20  1  0.343105  0.938684  0.000000  1
  O  O21  1  0.271028  0.249447  0.711863  1
