# generated using pymatgen
data_CuAsPbO4
_symmetry_space_group_name_H-M   'P 1'
_cell_length_a   4.94053809
_cell_length_b   5.93944544
_cell_length_c   8.11102446
_cell_angle_alpha   78.38046163
_cell_angle_beta   75.35589086
_cell_angle_gamma   84.33664108
_symmetry_Int_Tables_number   1
_chemical_formula_structural   CuAsPbO4
_chemical_formula_sum   'Cu2 As2 Pb2 O8'
_cell_volume   225.27270454
_cell_formula_units_Z   2
loop_
 _symmetry_equiv_pos_site_id
 _symmetry_equiv_pos_as_xyz
  1  'x, y, z'
loop_
 _atom_site_type_symbol
 _atom_site_label
 _atom_site_symmetry_multiplicity
 _atom_site_fract_x
 _atom_site_fract_y
 _atom_site_fract_z
 _atom_site_occupancy
  Cu  Cu0  1  0.373248  0.808456  0.994396  1
  Cu  Cu1  1  0.626752  0.191544  0.005604  1
  As  As2  1  0.576448  0.799124  0.312459  1
  As  As3  1  0.423552  0.200876  0.687541  1
  Pb  Pb4  1  0.063249  0.289661  0.323213  1
  Pb  Pb5  1  0.936751  0.710339  0.676787  1
  O  O6  1  0.768853  0.033168  0.189434  1
  O  O7  1  0.231147  0.966832  0.810566  1
  O  O8  1  0.224597  0.374327  0.562314  1
  O  O9  1  0.493530  0.369286  0.823870  1
  O  O10  1  0.729047  0.092845  0.565246  1
  O  O11  1  0.270953  0.907155  0.434754  1
  O  O12  1  0.775403  0.625673  0.437686  1
  O  O13  1  0.506470  0.630714  0.176130  1
