# generated using pymatgen
data_RbAuI3
_symmetry_space_group_name_H-M   'P 1'
_cell_length_a   7.99834732
_cell_length_b   7.99834732
_cell_length_c   8.88058950
_cell_angle_alpha   66.17844724
_cell_angle_beta   113.82155276
_cell_angle_gamma   119.37027596
_symmetry_Int_Tables_number   1
_chemical_formula_structural   RbAuI3
_chemical_formula_sum   'Rb2 Au2 I6'
_cell_volume   437.57094226
_cell_formula_units_Z   2
loop_
 _symmetry_equiv_pos_site_id
 _symmetry_equiv_pos_as_xyz
  1  'x, y, z'
loop_
 _atom_site_type_symbol
 _atom_site_label
 _atom_site_symmetry_multiplicity
 _atom_site_fract_x
 _atom_site_fract_y
 _atom_site_fract_z
 _atom_site_occupancy
  Rb  Rb0  1  0.269054  0.730946  0.767491  1
  Rb  Rb1  1  0.730946  0.269054  0.232509  1
  Au  Au2  1  0.000000  0.000000  0.000000  1
  Au  Au3  1  0.500000  0.500000  0.500000  1
  I  I4  1  0.714575  0.285425  0.645870  1
  I  I5  1  0.727881  0.800056  0.183570  1
  I  I6  1  0.272119  0.199944  0.816430  1
  I  I7  1  0.800056  0.727881  0.816430  1
  I  I8  1  0.199944  0.272119  0.183570  1
  I  I9  1  0.285425  0.714575  0.354130  1
