# generated using pymatgen
data_CsB5O8
_symmetry_space_group_name_H-M   'P 1'
_cell_length_a   7.17965469
_cell_length_b   10.02456900
_cell_length_c   11.66819417
_cell_angle_alpha   90.00000000
_cell_angle_beta   116.84564650
_cell_angle_gamma   90.00000000
_symmetry_Int_Tables_number   1
_chemical_formula_structural   CsB5O8
_chemical_formula_sum   'Cs4 B20 O32'
_cell_volume   749.28657115
_cell_formula_units_Z   4
loop_
 _symmetry_equiv_pos_site_id
 _symmetry_equiv_pos_as_xyz
  1  'x, y, z'
loop_
 _atom_site_type_symbol
 _atom_site_label
 _atom_site_symmetry_multiplicity
 _atom_site_fract_x
 _atom_site_fract_y
 _atom_site_fract_z
 _atom_site_occupancy
  Cs  Cs0  1  0.302929  0.993016  0.222915  1
  Cs  Cs1  1  0.697071  0.006984  0.777085  1
  Cs  Cs2  1  0.697071  0.493016  0.277085  1
  Cs  Cs3  1  0.302929  0.506984  0.722915  1
  B  B4  1  0.528402  0.749361  0.512229  1
  B  B5  1  0.270351  0.904948  0.867192  1
  B  B6  1  0.729649  0.095052  0.132808  1
  B  B7  1  0.131251  0.412405  0.179557  1
  B  B8  1  0.270351  0.595052  0.367192  1
  B  B9  1  0.851907  0.807812  0.502237  1
  B  B10  1  0.163330  0.723928  0.970649  1
  B  B11  1  0.148093  0.307812  0.997763  1
  B  B12  1  0.729649  0.404948  0.632808  1
  B  B13  1  0.148093  0.192188  0.497763  1
  B  B14  1  0.868749  0.912405  0.320443  1
  B  B15  1  0.471598  0.250639  0.487771  1
  B  B16  1  0.868749  0.587595  0.820443  1
  B  B17  1  0.836670  0.223928  0.529351  1
  B  B18  1  0.851907  0.692188  0.002237  1
  B  B19  1  0.131251  0.087595  0.679557  1
  B  B20  1  0.163330  0.776072  0.470649  1
  B  B21  1  0.836670  0.276072  0.029351  1
  B  B22  1  0.528402  0.750639  0.012229  1
  B  B23  1  0.471598  0.249361  0.987771  1
  O  O24  1  0.943440  0.227213  0.446701  1
  O  O25  1  0.265343  0.290709  0.931515  1
  O  O26  1  0.872068  0.143749  0.097122  1
  O  O27  1  0.750107  0.634858  0.879922  1
  O  O28  1  0.074531  0.617986  0.870319  1
  O  O29  1  0.760836  0.511934  0.712444  1
  O  O30  1  0.943440  0.272787  0.946701  1
  O  O31  1  0.056560  0.727213  0.053299  1
  O  O32  1  0.388728  0.801373  0.548830  1
  O  O33  1  0.074531  0.882014  0.370319  1
  O  O34  1  0.528925  0.349217  0.582320  1
  O  O35  1  0.734657  0.790709  0.568485  1
  O  O36  1  0.239164  0.488066  0.287556  1
  O  O37  1  0.056560  0.772787  0.553299  1
  O  O38  1  0.239164  0.011934  0.787556  1
  O  O39  1  0.127932  0.643749  0.402878  1
  O  O40  1  0.471075  0.650783  0.417680  1
  O  O41  1  0.750107  0.865142  0.379922  1
  O  O42  1  0.760836  0.988066  0.212444  1
  O  O43  1  0.925469  0.117986  0.629681  1
  O  O44  1  0.734657  0.709291  0.068485  1
  O  O45  1  0.528925  0.150783  0.082320  1
  O  O46  1  0.872068  0.356251  0.597122  1
  O  O47  1  0.611272  0.301373  0.951170  1
  O  O48  1  0.127932  0.856251  0.902878  1
  O  O49  1  0.265343  0.209291  0.431515  1
  O  O50  1  0.249893  0.134858  0.620078  1
  O  O51  1  0.249893  0.365142  0.120078  1
  O  O52  1  0.611272  0.198627  0.451170  1
  O  O53  1  0.925469  0.382014  0.129681  1
  O  O54  1  0.471075  0.849217  0.917680  1
  O  O55  1  0.388728  0.698627  0.048830  1
