# generated using pymatgen
data_K2PdO2
_symmetry_space_group_name_H-M   'P 1'
_cell_length_a   5.55717973
_cell_length_b   5.55717973
_cell_length_c   5.55717973
_cell_angle_alpha   146.68718967
_cell_angle_beta   112.88519702
_cell_angle_gamma   77.02237506
_symmetry_Int_Tables_number   1
_chemical_formula_structural   K2PdO2
_chemical_formula_sum   'K2 Pd1 O2'
_cell_volume   85.10802557
_cell_formula_units_Z   1
loop_
 _symmetry_equiv_pos_site_id
 _symmetry_equiv_pos_as_xyz
  1  'x, y, z'
loop_
 _atom_site_type_symbol
 _atom_site_label
 _atom_site_symmetry_multiplicity
 _atom_site_fract_x
 _atom_site_fract_y
 _atom_site_fract_z
 _atom_site_occupancy
  K  K0  1  0.675394  0.175394  0.500000  1
  K  K1  1  0.324606  0.824606  0.500000  1
  Pd  Pd2  1  0.000000  0.000000  0.000000  1
  O  O3  1  0.219627  0.500000  0.719627  1
  O  O4  1  0.780373  0.500000  0.280373  1
