# generated using pymatgen
data_Na3SbP2O9
_symmetry_space_group_name_H-M   'P 1'
_cell_length_a   7.08076041
_cell_length_b   9.41568814
_cell_length_c   12.57350791
_cell_angle_alpha   90.00000000
_cell_angle_beta   90.00000000
_cell_angle_gamma   90.00000000
_symmetry_Int_Tables_number   1
_chemical_formula_structural   Na3SbP2O9
_chemical_formula_sum   'Na12 Sb4 P8 O36'
_cell_volume   838.27868708
_cell_formula_units_Z   4
loop_
 _symmetry_equiv_pos_site_id
 _symmetry_equiv_pos_as_xyz
  1  'x, y, z'
loop_
 _atom_site_type_symbol
 _atom_site_label
 _atom_site_symmetry_multiplicity
 _atom_site_fract_x
 _atom_site_fract_y
 _atom_site_fract_z
 _atom_site_occupancy
  Na  Na0  1  0.375946  0.393698  0.659152  1
  Na  Na1  1  0.255383  0.913777  0.016342  1
  Na  Na2  1  0.825048  0.256683  0.740224  1
  Na  Na3  1  0.174952  0.756683  0.759776  1
  Na  Na4  1  0.124054  0.606302  0.159152  1
  Na  Na5  1  0.875946  0.106302  0.340848  1
  Na  Na6  1  0.624054  0.893698  0.840848  1
  Na  Na7  1  0.674952  0.743317  0.240224  1
  Na  Na8  1  0.755383  0.586223  0.983658  1
  Na  Na9  1  0.244617  0.086223  0.516342  1
  Na  Na10  1  0.325048  0.243317  0.259776  1
  Na  Na11  1  0.744617  0.413777  0.483658  1
  Sb  Sb12  1  0.520932  0.253457  0.995307  1
  Sb  Sb13  1  0.979068  0.746543  0.495307  1
  Sb  Sb14  1  0.479068  0.753457  0.504693  1
  Sb  Sb15  1  0.020932  0.246543  0.004693  1
  P  P16  1  0.270594  0.124613  0.799472  1
  P  P17  1  0.770594  0.375387  0.200528  1
  P  P18  1  0.237507  0.469606  0.421687  1
  P  P19  1  0.229406  0.875387  0.299472  1
  P  P20  1  0.729406  0.624613  0.700528  1
  P  P21  1  0.737507  0.030394  0.578313  1
  P  P22  1  0.762493  0.969606  0.078313  1
  P  P23  1  0.262493  0.530394  0.921687  1
  O  O24  1  0.451605  0.209527  0.843911  1
  O  O25  1  0.049786  0.541892  0.469539  1
  O  O26  1  0.745121  0.989556  0.197045  1
  O  O27  1  0.592436  0.046365  0.014070  1
  O  O28  1  0.092436  0.453635  0.985930  1
  O  O29  1  0.211120  0.030687  0.330946  1
  O  O30  1  0.758604  0.817297  0.040179  1
  O  O31  1  0.907564  0.953635  0.514070  1
  O  O32  1  0.724937  0.694945  0.442963  1
  O  O33  1  0.088175  0.194998  0.854326  1
  O  O34  1  0.258604  0.682703  0.959821  1
  O  O35  1  0.288880  0.969313  0.830946  1
  O  O36  1  0.048395  0.790473  0.343911  1
  O  O37  1  0.241396  0.317297  0.459821  1
  O  O38  1  0.450214  0.458108  0.969539  1
  O  O39  1  0.775063  0.305055  0.942963  1
  O  O40  1  0.255279  0.162503  0.683497  1
  O  O41  1  0.588175  0.305002  0.145674  1
  O  O42  1  0.275063  0.194945  0.057037  1
  O  O43  1  0.407564  0.546365  0.485930  1
  O  O44  1  0.245121  0.510444  0.802955  1
  O  O45  1  0.224937  0.805055  0.557037  1
  O  O46  1  0.411825  0.805002  0.354326  1
  O  O47  1  0.711120  0.469313  0.669054  1
  O  O48  1  0.911825  0.694998  0.645674  1
  O  O49  1  0.950214  0.041892  0.030461  1
  O  O50  1  0.244721  0.837497  0.183497  1
  O  O51  1  0.754879  0.010444  0.697045  1
  O  O52  1  0.548395  0.709527  0.656089  1
  O  O53  1  0.788880  0.530687  0.169054  1
  O  O54  1  0.254879  0.489556  0.302955  1
  O  O55  1  0.951605  0.290473  0.156089  1
  O  O56  1  0.755279  0.337497  0.316503  1
  O  O57  1  0.549786  0.958108  0.530461  1
  O  O58  1  0.741396  0.182703  0.540179  1
  O  O59  1  0.744721  0.662503  0.816503  1
