# generated using pymatgen
data_KNiAs3F18
_symmetry_space_group_name_H-M   'P 1'
_cell_length_a   9.61982156
_cell_length_b   10.53156647
_cell_length_c   14.10472380
_cell_angle_alpha   90.00000000
_cell_angle_beta   90.00000000
_cell_angle_gamma   90.00000000
_symmetry_Int_Tables_number   1
_chemical_formula_structural   KNiAs3F18
_chemical_formula_sum   'K4 Ni4 As12 F72'
_cell_volume   1428.97481829
_cell_formula_units_Z   4
loop_
 _symmetry_equiv_pos_site_id
 _symmetry_equiv_pos_as_xyz
  1  'x, y, z'
loop_
 _atom_site_type_symbol
 _atom_site_label
 _atom_site_symmetry_multiplicity
 _atom_site_fract_x
 _atom_site_fract_y
 _atom_site_fract_z
 _atom_site_occupancy
  K  K0  1  0.976739  0.575806  0.250000  1
  K  K1  1  0.023261  0.424194  0.750000  1
  K  K2  1  0.523261  0.075806  0.250000  1
  K  K3  1  0.476739  0.924194  0.750000  1
  Ni  Ni4  1  0.500000  0.500000  0.000000  1
  Ni  Ni5  1  0.000000  0.000000  0.000000  1
  Ni  Ni6  1  0.500000  0.500000  0.500000  1
  Ni  Ni7  1  0.000000  0.000000  0.500000  1
  As  As8  1  0.804690  0.295881  0.049022  1
  As  As9  1  0.195310  0.704119  0.549022  1
  As  As10  1  0.304690  0.204119  0.549022  1
  As  As11  1  0.304690  0.204119  0.950978  1
  As  As12  1  0.195310  0.704119  0.950978  1
  As  As13  1  0.695310  0.795881  0.450978  1
  As  As14  1  0.892915  0.020850  0.750000  1
  As  As15  1  0.695310  0.795881  0.049022  1
  As  As16  1  0.107085  0.979150  0.250000  1
  As  As17  1  0.607085  0.520850  0.750000  1
  As  As18  1  0.804690  0.295881  0.450978  1
  As  As19  1  0.392915  0.479150  0.250000  1
  F  F20  1  0.782464  0.567160  0.750000  1
  F  F21  1  0.561850  0.672458  0.451822  1
  F  F22  1  0.110263  0.975801  0.379580  1
  F  F23  1  0.293285  0.785427  0.035081  1
  F  F24  1  0.902656  0.377958  0.365803  1
  F  F25  1  0.938150  0.172458  0.451822  1
  F  F26  1  0.825582  0.922799  0.442792  1
  F  F27  1  0.889737  0.024199  0.620420  1
  F  F28  1  0.891643  0.377659  0.958567  1
  F  F29  1  0.217536  0.432840  0.250000  1
  F  F30  1  0.391643  0.122341  0.041433  1
  F  F31  1  0.825582  0.922799  0.057208  1
  F  F32  1  0.841749  0.862208  0.750000  1
  F  F33  1  0.558633  0.682025  0.750000  1
  F  F34  1  0.431965  0.477486  0.750000  1
  F  F35  1  0.597344  0.877958  0.134197  1
  F  F36  1  0.889737  0.024199  0.879580  1
  F  F37  1  0.717536  0.067160  0.750000  1
  F  F38  1  0.891643  0.377659  0.541433  1
  F  F39  1  0.206715  0.285427  0.464919  1
  F  F40  1  0.931965  0.022514  0.250000  1
  F  F41  1  0.717459  0.214538  0.359802  1
  F  F42  1  0.717459  0.214538  0.140198  1
  F  F43  1  0.674418  0.422799  0.442792  1
  F  F44  1  0.108357  0.622341  0.041433  1
  F  F45  1  0.658251  0.362208  0.750000  1
  F  F46  1  0.061850  0.827542  0.548178  1
  F  F47  1  0.438150  0.327542  0.951822  1
  F  F48  1  0.293285  0.785427  0.464919  1
  F  F49  1  0.389737  0.475801  0.379580  1
  F  F50  1  0.391643  0.122341  0.458567  1
  F  F51  1  0.389737  0.475801  0.120420  1
  F  F52  1  0.097344  0.622042  0.865803  1
  F  F53  1  0.706715  0.214573  0.535081  1
  F  F54  1  0.941367  0.182025  0.750000  1
  F  F55  1  0.597344  0.877958  0.365803  1
  F  F56  1  0.174418  0.077201  0.557208  1
  F  F57  1  0.568035  0.522514  0.250000  1
  F  F58  1  0.058633  0.817975  0.250000  1
  F  F59  1  0.608357  0.877659  0.958567  1
  F  F60  1  0.561850  0.672458  0.048178  1
  F  F61  1  0.938150  0.172458  0.048178  1
  F  F62  1  0.282541  0.785462  0.640198  1
  F  F63  1  0.610263  0.524199  0.620420  1
  F  F64  1  0.402656  0.122042  0.865803  1
  F  F65  1  0.217459  0.285462  0.640198  1
  F  F66  1  0.325582  0.577201  0.942792  1
  F  F67  1  0.793285  0.714573  0.535081  1
  F  F68  1  0.793285  0.714573  0.964919  1
  F  F69  1  0.282464  0.932840  0.250000  1
  F  F70  1  0.325582  0.577201  0.557208  1
  F  F71  1  0.217459  0.285462  0.859802  1
  F  F72  1  0.402656  0.122042  0.634197  1
  F  F73  1  0.610263  0.524199  0.879580  1
  F  F74  1  0.282541  0.785462  0.859802  1
  F  F75  1  0.902656  0.377958  0.134197  1
  F  F76  1  0.206715  0.285427  0.035081  1
  F  F77  1  0.608357  0.877659  0.541433  1
  F  F78  1  0.341749  0.637792  0.250000  1
  F  F79  1  0.174418  0.077201  0.942792  1
  F  F80  1  0.441367  0.317975  0.250000  1
  F  F81  1  0.706715  0.214573  0.964919  1
  F  F82  1  0.097344  0.622042  0.634197  1
  F  F83  1  0.782541  0.714538  0.359802  1
  F  F84  1  0.068035  0.977486  0.750000  1
  F  F85  1  0.110263  0.975801  0.120420  1
  F  F86  1  0.674418  0.422799  0.057208  1
  F  F87  1  0.782541  0.714538  0.140198  1
  F  F88  1  0.438150  0.327542  0.548178  1
  F  F89  1  0.108357  0.622341  0.458567  1
  F  F90  1  0.158251  0.137792  0.250000  1
  F  F91  1  0.061850  0.827542  0.951822  1
