# generated using pymatgen
data_P4S3I2
_symmetry_space_group_name_H-M   'P 1'
_cell_length_a   7.76392575
_cell_length_b   7.81320177
_cell_length_c   21.77082446
_cell_angle_alpha   85.37884814
_cell_angle_beta   87.94264794
_cell_angle_gamma   89.29494219
_symmetry_Int_Tables_number   1
_chemical_formula_structural   P4S3I2
_chemical_formula_sum   'P16 S12 I8'
_cell_volume   1315.44215487
_cell_formula_units_Z   4
loop_
 _symmetry_equiv_pos_site_id
 _symmetry_equiv_pos_as_xyz
  1  'x, y, z'
loop_
 _atom_site_type_symbol
 _atom_site_label
 _atom_site_symmetry_multiplicity
 _atom_site_fract_x
 _atom_site_fract_y
 _atom_site_fract_z
 _atom_site_occupancy
  P  P0  1  0.611602  0.721917  0.450365  1
  P  P1  1  0.388398  0.278083  0.549635  1
  P  P2  1  0.018572  0.458100  0.392488  1
  P  P3  1  0.981428  0.541900  0.607512  1
  P  P4  1  0.580308  0.526557  0.382582  1
  P  P5  1  0.419692  0.473443  0.617418  1
  P  P6  1  0.944042  0.705604  0.341796  1
  P  P7  1  0.055958  0.294396  0.658204  1
  P  P8  1  0.284793  0.628154  0.949839  1
  P  P9  1  0.715207  0.371846  0.050161  1
  P  P10  1  0.553688  0.044452  0.896327  1
  P  P11  1  0.446312  0.955548  0.103673  1
  P  P12  1  0.501620  0.612792  0.880754  1
  P  P13  1  0.498380  0.387208  0.119246  1
  P  P14  1  0.322542  0.981417  0.844927  1
  P  P15  1  0.677458  0.018583  0.155073  1
  S  S16  1  0.861855  0.816451  0.425419  1
  S  S17  1  0.138145  0.183549  0.574581  1
  S  S18  1  0.773230  0.357689  0.422113  1
  S  S19  1  0.226770  0.642311  0.577887  1
  S  S20  1  0.709674  0.643870  0.303754  1
  S  S21  1  0.290326  0.356130  0.696246  1
  S  S22  1  0.187533  0.880214  0.927541  1
  S  S23  1  0.812467  0.119786  0.072459  1
  S  S24  1  0.652083  0.795885  0.923297  1
  S  S25  1  0.347917  0.204115  0.076703  1
  S  S26  1  0.404312  0.758299  0.803788  1
  S  S27  1  0.595688  0.241701  0.196212  1
  I  I28  1  0.407666  0.940260  0.402324  1
  I  I29  1  0.592334  0.059740  0.597676  1
  I  I30  1  0.102371  0.294314  0.301542  1
  I  I31  1  0.897629  0.705686  0.698458  1
  I  I32  1  0.083302  0.434604  0.901362  1
  I  I33  1  0.916698  0.565396  0.098638  1
  I  I34  1  0.744024  0.145959  0.805178  1
  I  I35  1  0.255976  0.854041  0.194822  1
