# generated using pymatgen
data_Ba2NiF6
_symmetry_space_group_name_H-M   'P 1'
_cell_length_a   8.75523714
_cell_length_b   8.75523714
_cell_length_c   8.75523714
_cell_angle_alpha   152.70398521
_cell_angle_beta   152.70398521
_cell_angle_gamma   38.98613172
_symmetry_Int_Tables_number   1
_chemical_formula_structural   Ba2NiF6
_chemical_formula_sum   'Ba2 Ni1 F6'
_cell_volume   140.89400175
_cell_formula_units_Z   1
loop_
 _symmetry_equiv_pos_site_id
 _symmetry_equiv_pos_as_xyz
  1  'x, y, z'
loop_
 _atom_site_type_symbol
 _atom_site_label
 _atom_site_symmetry_multiplicity
 _atom_site_fract_x
 _atom_site_fract_y
 _atom_site_fract_z
 _atom_site_occupancy
  Ba  Ba0  1  0.848839  0.848839  0.000000  1
  Ba  Ba1  1  0.151161  0.151161  0.000000  1
  Ni  Ni2  1  0.500000  0.500000  0.000000  1
  F  F3  1  0.618881  0.618881  0.000000  1
  F  F4  1  0.381119  0.381119  0.000000  1
  F  F5  1  0.500000  0.000000  0.500000  1
  F  F6  1  0.250000  0.750000  0.500000  1
  F  F7  1  0.750000  0.250000  0.500000  1
  F  F8  1  0.000000  0.500000  0.500000  1
