# generated using pymatgen
data_MgH2
_symmetry_space_group_name_H-M   'P 1'
_cell_length_a   4.65032620
_cell_length_b   4.76907517
_cell_length_c   4.89320844
_cell_angle_alpha   90.00000000
_cell_angle_beta   90.00000000
_cell_angle_gamma   90.00000000
_symmetry_Int_Tables_number   1
_chemical_formula_structural   MgH2
_chemical_formula_sum   'Mg4 H8'
_cell_volume   108.52037899
_cell_formula_units_Z   4
loop_
 _symmetry_equiv_pos_site_id
 _symmetry_equiv_pos_as_xyz
  1  'x, y, z'
loop_
 _atom_site_type_symbol
 _atom_site_label
 _atom_site_symmetry_multiplicity
 _atom_site_fract_x
 _atom_site_fract_y
 _atom_site_fract_z
 _atom_site_occupancy
  Mg  Mg0  1  0.734233  0.751911  0.969498  1
  Mg  Mg1  1  0.265767  0.751911  0.469498  1
  Mg  Mg2  1  0.734233  0.251911  0.530502  1
  Mg  Mg3  1  0.265767  0.251911  0.030502  1
  H  H4  1  0.557704  0.030182  0.241218  1
  H  H5  1  0.098909  0.356307  0.383840  1
  H  H6  1  0.557704  0.530182  0.258782  1
  H  H7  1  0.901091  0.856307  0.616160  1
  H  H8  1  0.098909  0.856307  0.116160  1
  H  H9  1  0.442296  0.530182  0.758782  1
  H  H10  1  0.442296  0.030182  0.741218  1
  H  H11  1  0.901091  0.356307  0.883840  1
