# generated using pymatgen
data_Na2CuSi3O8
_symmetry_space_group_name_H-M   'P 1'
_cell_length_a   8.01281167
_cell_length_b   10.41055700
_cell_length_c   9.73027540
_cell_angle_alpha   90.00000000
_cell_angle_beta   105.65603511
_cell_angle_gamma   90.00000000
_symmetry_Int_Tables_number   1
_chemical_formula_structural   Na2CuSi3O8
_chemical_formula_sum   'Na8 Cu4 Si12 O32'
_cell_volume   781.56448499
_cell_formula_units_Z   4
loop_
 _symmetry_equiv_pos_site_id
 _symmetry_equiv_pos_as_xyz
  1  'x, y, z'
loop_
 _atom_site_type_symbol
 _atom_site_label
 _atom_site_symmetry_multiplicity
 _atom_site_fract_x
 _atom_site_fract_y
 _atom_site_fract_z
 _atom_site_occupancy
  Na  Na0  1  0.294356  0.489240  0.870986  1
  Na  Na1  1  0.294356  0.010760  0.370986  1
  Na  Na2  1  0.705644  0.510760  0.129014  1
  Na  Na3  1  0.303424  0.026048  0.040592  1
  Na  Na4  1  0.705644  0.989240  0.629014  1
  Na  Na5  1  0.303424  0.473952  0.540592  1
  Na  Na6  1  0.696576  0.526048  0.459408  1
  Na  Na7  1  0.696576  0.973952  0.959408  1
  Cu  Cu8  1  0.513747  0.728175  0.687460  1
  Cu  Cu9  1  0.513747  0.771825  0.187460  1
  Cu  Cu10  1  0.486253  0.228175  0.812540  1
  Cu  Cu11  1  0.486253  0.271825  0.312540  1
  Si  Si12  1  0.883508  0.783310  0.390987  1
  Si  Si13  1  0.116492  0.216690  0.609013  1
  Si  Si14  1  0.881655  0.228752  0.807391  1
  Si  Si15  1  0.695404  0.477185  0.808389  1
  Si  Si16  1  0.304596  0.522815  0.191611  1
  Si  Si17  1  0.118345  0.771248  0.192609  1
  Si  Si18  1  0.883508  0.716690  0.890987  1
  Si  Si19  1  0.116492  0.283310  0.109013  1
  Si  Si20  1  0.118345  0.728752  0.692609  1
  Si  Si21  1  0.695404  0.022815  0.308389  1
  Si  Si22  1  0.881655  0.271248  0.307391  1
  Si  Si23  1  0.304596  0.977185  0.691611  1
  O  O24  1  0.397463  0.444247  0.336877  1
  O  O25  1  0.571273  0.396705  0.884111  1
  O  O26  1  0.571273  0.103295  0.384111  1
  O  O27  1  0.201828  0.417536  0.067853  1
  O  O28  1  0.965105  0.793731  0.042027  1
  O  O29  1  0.738987  0.690939  0.290113  1
  O  O30  1  0.041308  0.827998  0.321545  1
  O  O31  1  0.154768  0.882275  0.726491  1
  O  O32  1  0.041308  0.672002  0.821545  1
  O  O33  1  0.845232  0.382275  0.773509  1
  O  O34  1  0.845232  0.117725  0.273509  1
  O  O35  1  0.798172  0.917536  0.432147  1
  O  O36  1  0.261013  0.309061  0.709887  1
  O  O37  1  0.602537  0.555753  0.663123  1
  O  O38  1  0.034895  0.206269  0.957973  1
  O  O39  1  0.965105  0.706269  0.542027  1
  O  O40  1  0.710605  0.147931  0.810080  1
  O  O41  1  0.710605  0.352069  0.310080  1
  O  O42  1  0.958692  0.172002  0.678455  1
  O  O43  1  0.798172  0.582464  0.932147  1
  O  O44  1  0.154768  0.617725  0.226491  1
  O  O45  1  0.428727  0.896705  0.615889  1
  O  O46  1  0.289395  0.852069  0.189920  1
  O  O47  1  0.261013  0.190939  0.209887  1
  O  O48  1  0.289395  0.647931  0.689920  1
  O  O49  1  0.397463  0.055753  0.836877  1
  O  O50  1  0.738987  0.809061  0.790113  1
  O  O51  1  0.602537  0.944247  0.163123  1
  O  O52  1  0.958692  0.327998  0.178455  1
  O  O53  1  0.034895  0.293731  0.457973  1
  O  O54  1  0.201828  0.082464  0.567853  1
  O  O55  1  0.428727  0.603295  0.115889  1
