# generated using pymatgen
data_V2Co2O7
_symmetry_space_group_name_H-M   'P 1'
_cell_length_a   6.69383961
_cell_length_b   8.46762097
_cell_length_c   9.58176097
_cell_angle_alpha   90.00000000
_cell_angle_beta   100.32915963
_cell_angle_gamma   90.00000000
_symmetry_Int_Tables_number   1
_chemical_formula_structural   V2Co2O7
_chemical_formula_sum   'V8 Co8 O28'
_cell_volume   534.30123184
_cell_formula_units_Z   4
loop_
 _symmetry_equiv_pos_site_id
 _symmetry_equiv_pos_as_xyz
  1  'x, y, z'
loop_
 _atom_site_type_symbol
 _atom_site_label
 _atom_site_symmetry_multiplicity
 _atom_site_fract_x
 _atom_site_fract_y
 _atom_site_fract_z
 _atom_site_occupancy
  V  V0  1  0.639193  0.258626  0.968999  1
  V  V1  1  0.360807  0.758627  0.531001  1
  V  V2  1  0.360807  0.741374  0.031001  1
  V  V3  1  0.639193  0.241374  0.468999  1
  V  V4  1  0.805919  0.518547  0.686380  1
  V  V5  1  0.194081  0.018547  0.813620  1
  V  V6  1  0.194081  0.481453  0.313620  1
  V  V7  1  0.805919  0.981453  0.186380  1
  Co  Co8  1  0.853807  0.621326  0.036601  1
  Co  Co9  1  0.146193  0.121326  0.463399  1
  Co  Co10  1  0.146193  0.378674  0.963399  1
  Co  Co11  1  0.853807  0.878674  0.536601  1
  Co  Co12  1  0.694158  0.887312  0.819760  1
  Co  Co13  1  0.305842  0.387312  0.680240  1
  Co  Co14  1  0.305842  0.112688  0.180240  1
  Co  Co15  1  0.694158  0.612688  0.319760  1
  O  O16  1  0.393458  0.631381  0.376423  1
  O  O17  1  0.606542  0.131381  0.123577  1
  O  O18  1  0.606542  0.368619  0.623577  1
  O  O19  1  0.393458  0.868619  0.876423  1
  O  O20  1  0.572082  0.628515  0.103968  1
  O  O21  1  0.427918  0.128515  0.396032  1
  O  O22  1  0.427918  0.371485  0.896032  1
  O  O23  1  0.572082  0.871485  0.603968  1
  O  O24  1  0.828236  0.868776  0.039980  1
  O  O25  1  0.171764  0.368776  0.460020  1
  O  O26  1  0.171764  0.131224  0.960020  1
  O  O27  1  0.828236  0.631224  0.539980  1
  O  O28  1  0.746169  0.858509  0.318318  1
  O  O29  1  0.253831  0.358509  0.181682  1
  O  O30  1  0.253831  0.141491  0.681682  1
  O  O31  1  0.746169  0.641491  0.818318  1
  O  O32  1  0.320602  0.876959  0.151301  1
  O  O33  1  0.679398  0.376959  0.348699  1
  O  O34  1  0.679398  0.123041  0.848699  1
  O  O35  1  0.320602  0.623041  0.651301  1
  O  O36  1  0.970540  0.582379  0.252528  1
  O  O37  1  0.029460  0.082379  0.247472  1
  O  O38  1  0.029460  0.417621  0.747472  1
  O  O39  1  0.970540  0.917621  0.752528  1
  O  O40  1  0.146788  0.878958  0.494375  1
  O  O41  1  0.853212  0.378958  0.005625  1
  O  O42  1  0.853212  0.121042  0.505625  1
  O  O43  1  0.146788  0.621042  0.994375  1
