# generated using pymatgen
data_Na2BeH4
_symmetry_space_group_name_H-M   'P 1'
_cell_length_a   5.07872829
_cell_length_b   4.99306949
_cell_length_c   6.85350187
_cell_angle_alpha   90.00000000
_cell_angle_beta   98.52291065
_cell_angle_gamma   90.00000000
_symmetry_Int_Tables_number   1
_chemical_formula_structural   Na2BeH4
_chemical_formula_sum   'Na4 Be2 H8'
_cell_volume   171.87487395
_cell_formula_units_Z   2
loop_
 _symmetry_equiv_pos_site_id
 _symmetry_equiv_pos_as_xyz
  1  'x, y, z'
loop_
 _atom_site_type_symbol
 _atom_site_label
 _atom_site_symmetry_multiplicity
 _atom_site_fract_x
 _atom_site_fract_y
 _atom_site_fract_z
 _atom_site_occupancy
  Na  Na0  1  0.269537  0.250000  0.974918  1
  Na  Na1  1  0.730463  0.750000  0.025082  1
  Na  Na2  1  0.735130  0.750000  0.524727  1
  Na  Na3  1  0.264870  0.250000  0.475273  1
  Be  Be4  1  0.722718  0.250000  0.778072  1
  Be  Be5  1  0.277282  0.750000  0.221928  1
  H  H6  1  0.061745  0.750000  0.337622  1
  H  H7  1  0.185510  0.750000  0.013340  1
  H  H8  1  0.446465  0.520773  0.265693  1
  H  H9  1  0.938255  0.250000  0.662378  1
  H  H10  1  0.446465  0.979227  0.265693  1
  H  H11  1  0.553535  0.020773  0.734307  1
  H  H12  1  0.553535  0.479227  0.734307  1
  H  H13  1  0.814490  0.250000  0.986660  1
