# generated using pymatgen
data_RbCdAuS2
_symmetry_space_group_name_H-M   'P 1'
_cell_length_a   5.91933712
_cell_length_b   6.96971953
_cell_length_c   13.96045199
_cell_angle_alpha   90.00000000
_cell_angle_beta   90.00000000
_cell_angle_gamma   90.00000000
_symmetry_Int_Tables_number   1
_chemical_formula_structural   RbCdAuS2
_chemical_formula_sum   'Rb4 Cd4 Au4 S8'
_cell_volume   575.95407599
_cell_formula_units_Z   4
loop_
 _symmetry_equiv_pos_site_id
 _symmetry_equiv_pos_as_xyz
  1  'x, y, z'
loop_
 _atom_site_type_symbol
 _atom_site_label
 _atom_site_symmetry_multiplicity
 _atom_site_fract_x
 _atom_site_fract_y
 _atom_site_fract_z
 _atom_site_occupancy
  Rb  Rb0  1  0.722694  0.750000  0.000000  1
  Rb  Rb1  1  0.722694  0.250000  0.500000  1
  Rb  Rb2  1  0.277306  0.750000  0.500000  1
  Rb  Rb3  1  0.277306  0.250000  0.000000  1
  Cd  Cd4  1  0.000000  0.562415  0.750000  1
  Cd  Cd5  1  0.000000  0.062415  0.750000  1
  Cd  Cd6  1  0.000000  0.937585  0.250000  1
  Cd  Cd7  1  0.000000  0.437585  0.250000  1
  Au  Au8  1  0.500000  0.315872  0.750000  1
  Au  Au9  1  0.500000  0.684128  0.250000  1
  Au  Au10  1  0.500000  0.815872  0.750000  1
  Au  Au11  1  0.500000  0.184128  0.250000  1
  S  S12  1  0.795091  0.315172  0.861211  1
  S  S13  1  0.795091  0.684828  0.361211  1
  S  S14  1  0.204909  0.315172  0.638789  1
  S  S15  1  0.795091  0.815172  0.638789  1
  S  S16  1  0.204909  0.184828  0.361211  1
  S  S17  1  0.204909  0.684828  0.138789  1
  S  S18  1  0.795091  0.184828  0.138789  1
  S  S19  1  0.204909  0.815172  0.861211  1
