# generated using pymatgen
data_SmCu(WO4)2
_symmetry_space_group_name_H-M   'P 1'
_cell_length_a   7.27690640
_cell_length_b   7.45564879
_cell_length_c   7.56061717
_cell_angle_alpha   114.37047795
_cell_angle_beta   115.52064855
_cell_angle_gamma   91.90101911
_symmetry_Int_Tables_number   1
_chemical_formula_structural   SmCu(WO4)2
_chemical_formula_sum   'Sm2 Cu2 W4 O16'
_cell_volume   325.89583925
_cell_formula_units_Z   2
loop_
 _symmetry_equiv_pos_site_id
 _symmetry_equiv_pos_as_xyz
  1  'x, y, z'
loop_
 _atom_site_type_symbol
 _atom_site_label
 _atom_site_symmetry_multiplicity
 _atom_site_fract_x
 _atom_site_fract_y
 _atom_site_fract_z
 _atom_site_occupancy
  Sm  Sm0  1  0.182686  0.284806  0.460032  1
  Sm  Sm1  1  0.817314  0.715194  0.539968  1
  Cu  Cu2  1  0.777138  0.328133  0.042289  1
  Cu  Cu3  1  0.222862  0.671867  0.957711  1
  W  W4  1  0.727841  0.703505  0.962246  1
  W  W5  1  0.351519  0.896248  0.706010  1
  W  W6  1  0.272159  0.296495  0.037754  1
  W  W7  1  0.648481  0.103752  0.293990  1
  O  O8  1  0.532554  0.464500  0.733109  1
  O  O9  1  0.467446  0.535500  0.266891  1
  O  O10  1  0.054722  0.309946  0.103255  1
  O  O11  1  0.945278  0.690054  0.896745  1
  O  O12  1  0.194816  0.360492  0.807812  1
  O  O13  1  0.805184  0.639508  0.192188  1
  O  O14  1  0.825554  0.362535  0.451491  1
  O  O15  1  0.174446  0.637465  0.548509  1
  O  O16  1  0.612599  0.828863  0.737181  1
  O  O17  1  0.387401  0.171137  0.262819  1
  O  O18  1  0.478004  0.826068  0.005499  1
  O  O19  1  0.521996  0.173932  0.994501  1
  O  O20  1  0.141295  0.990091  0.800387  1
  O  O21  1  0.858705  0.009909  0.199613  1
  O  O22  1  0.288985  0.994763  0.513231  1
  O  O23  1  0.711015  0.005237  0.486769  1
