# generated using pymatgen
data_CaNb2(P2O7)3
_symmetry_space_group_name_H-M   'P 1'
_cell_length_a   8.63247026
_cell_length_b   8.63247026
_cell_length_c   12.61150197
_cell_angle_alpha   85.22598532
_cell_angle_beta   94.77401468
_cell_angle_gamma   102.75867847
_symmetry_Int_Tables_number   1
_chemical_formula_structural   CaNb2(P2O7)3
_chemical_formula_sum   'Ca2 Nb4 P12 O42'
_cell_volume   911.38334242
_cell_formula_units_Z   2
loop_
 _symmetry_equiv_pos_site_id
 _symmetry_equiv_pos_as_xyz
  1  'x, y, z'
loop_
 _atom_site_type_symbol
 _atom_site_label
 _atom_site_symmetry_multiplicity
 _atom_site_fract_x
 _atom_site_fract_y
 _atom_site_fract_z
 _atom_site_occupancy
  Ca  Ca0  1  0.775296  0.224704  0.862580  1
  Ca  Ca1  1  0.224704  0.775296  0.137420  1
  Nb  Nb2  1  0.714460  0.285540  0.179056  1
  Nb  Nb3  1  0.244961  0.244961  0.500000  1
  Nb  Nb4  1  0.755039  0.755039  0.500000  1
  Nb  Nb5  1  0.285540  0.714460  0.820944  1
  P  P6  1  0.797335  0.677870  0.102692  1
  P  P7  1  0.859503  0.140497  0.590044  1
  P  P8  1  0.656740  0.343260  0.456975  1
  P  P9  1  0.322130  0.202665  0.102692  1
  P  P10  1  0.130085  0.350352  0.233602  1
  P  P11  1  0.869915  0.649648  0.766398  1
  P  P12  1  0.202665  0.322130  0.897308  1
  P  P13  1  0.343260  0.656740  0.543025  1
  P  P14  1  0.350352  0.130085  0.766398  1
  P  P15  1  0.649648  0.869915  0.233602  1
  P  P16  1  0.140497  0.859503  0.409956  1
  P  P17  1  0.677870  0.797335  0.897308  1
  O  O18  1  0.183565  0.296588  0.349802  1
  O  O19  1  0.296588  0.183565  0.650198  1
  O  O20  1  0.779959  0.828563  0.162293  1
  O  O21  1  0.220041  0.171437  0.837707  1
  O  O22  1  0.214507  0.016773  0.464901  1
  O  O23  1  0.274050  0.725950  0.958496  1
  O  O24  1  0.471037  0.266966  0.173544  1
  O  O25  1  0.037449  0.296504  0.929615  1
  O  O26  1  0.785493  0.983227  0.535099  1
  O  O27  1  0.016773  0.214507  0.535099  1
  O  O28  1  0.703412  0.816435  0.349802  1
  O  O29  1  0.733034  0.528963  0.173544  1
  O  O30  1  0.286974  0.477160  0.526691  1
  O  O31  1  0.816435  0.703412  0.650198  1
  O  O32  1  0.171437  0.220041  0.162293  1
  O  O33  1  0.703496  0.962551  0.929615  1
  O  O34  1  0.485097  0.788488  0.200721  1
  O  O35  1  0.701094  0.298906  0.353868  1
  O  O36  1  0.528963  0.733034  0.826456  1
  O  O37  1  0.788488  0.485097  0.799279  1
  O  O38  1  0.872113  0.127887  0.708503  1
  O  O39  1  0.315031  0.948112  0.775929  1
  O  O40  1  0.962551  0.703496  0.070385  1
  O  O41  1  0.266966  0.471037  0.826456  1
  O  O42  1  0.514903  0.211512  0.799279  1
  O  O43  1  0.713026  0.522840  0.473309  1
  O  O44  1  0.522840  0.713026  0.526691  1
  O  O45  1  0.051888  0.684969  0.775929  1
  O  O46  1  0.983227  0.785493  0.464901  1
  O  O47  1  0.671374  0.671374  0.000000  1
  O  O48  1  0.828563  0.779959  0.837707  1
  O  O49  1  0.740915  0.259085  0.556101  1
  O  O50  1  0.211512  0.514903  0.200721  1
  O  O51  1  0.948112  0.315031  0.224071  1
  O  O52  1  0.725950  0.274050  0.041504  1
  O  O53  1  0.477160  0.286974  0.473309  1
  O  O54  1  0.296504  0.037449  0.070385  1
  O  O55  1  0.127887  0.872113  0.291497  1
  O  O56  1  0.259085  0.740915  0.443899  1
  O  O57  1  0.298906  0.701094  0.646132  1
  O  O58  1  0.684969  0.051888  0.224071  1
  O  O59  1  0.328626  0.328626  0.000000  1
