# generated using pymatgen
data_NaV2Bi3O10
_symmetry_space_group_name_H-M   'P 1'
_cell_length_a   5.66659854
_cell_length_b   7.11509910
_cell_length_c   7.22332330
_cell_angle_alpha   111.17295169
_cell_angle_beta   85.45152308
_cell_angle_gamma   111.33984254
_symmetry_Int_Tables_number   1
_chemical_formula_structural   NaV2Bi3O10
_chemical_formula_sum   'Na1 V2 Bi3 O10'
_cell_volume   252.49753055
_cell_formula_units_Z   1
loop_
 _symmetry_equiv_pos_site_id
 _symmetry_equiv_pos_as_xyz
  1  'x, y, z'
loop_
 _atom_site_type_symbol
 _atom_site_label
 _atom_site_symmetry_multiplicity
 _atom_site_fract_x
 _atom_site_fract_y
 _atom_site_fract_z
 _atom_site_occupancy
  Na  Na0  1  0.088699  0.955784  0.475827  1
  V  V1  1  0.742463  0.315782  0.381956  1
  V  V2  1  0.326416  0.604978  0.072228  1
  Bi  Bi3  1  0.976443  0.970140  0.975848  1
  Bi  Bi4  1  0.435212  0.661753  0.594848  1
  Bi  Bi5  1  0.611266  0.234950  0.843255  1
  O  O6  1  0.588058  0.667722  0.924791  1
  O  O7  1  0.775356  0.580567  0.417960  1
  O  O8  1  0.084696  0.645376  0.986197  1
  O  O9  1  0.276933  0.936142  0.753997  1
  O  O10  1  0.015093  0.301206  0.450795  1
  O  O11  1  0.253423  0.324850  0.015179  1
  O  O12  1  0.667924  0.152737  0.125075  1
  O  O13  1  0.390632  0.747524  0.327913  1
  O  O14  1  0.501603  0.237718  0.537804  1
  O  O15  1  0.782383  0.971172  0.723227  1
