# generated using pymatgen
data_Zn8B3H3O14
_symmetry_space_group_name_H-M   'P 1'
_cell_length_a   7.62428957
_cell_length_b   7.62428957
_cell_length_c   7.62428957
_cell_angle_alpha   65.40775170
_cell_angle_beta   65.40775170
_cell_angle_gamma   65.40775170
_symmetry_Int_Tables_number   1
_chemical_formula_structural   Zn8B3H3O14
_chemical_formula_sum   'Zn8 B3 H3 O14'
_cell_volume   350.26261175
_cell_formula_units_Z   1
loop_
 _symmetry_equiv_pos_site_id
 _symmetry_equiv_pos_as_xyz
  1  'x, y, z'
loop_
 _atom_site_type_symbol
 _atom_site_label
 _atom_site_symmetry_multiplicity
 _atom_site_fract_x
 _atom_site_fract_y
 _atom_site_fract_z
 _atom_site_occupancy
  Zn  Zn0  1  0.591774  0.591774  0.591774  1
  Zn  Zn1  1  0.482680  0.229343  0.044255  1
  Zn  Zn2  1  0.229343  0.044255  0.482680  1
  Zn  Zn3  1  0.517320  0.955745  0.770657  1
  Zn  Zn4  1  0.044255  0.482680  0.229343  1
  Zn  Zn5  1  0.770657  0.517320  0.955745  1
  Zn  Zn6  1  0.408226  0.408226  0.408226  1
  Zn  Zn7  1  0.955745  0.770657  0.517320  1
  B  B8  1  0.201891  0.500000  0.798109  1
  B  B9  1  0.798109  0.201891  0.500000  1
  B  B10  1  0.500000  0.798109  0.201891  1
  H  H11  1  0.000000  0.860281  0.139720  1
  H  H12  1  0.139720  1.000000  0.860280  1
  H  H13  1  0.860280  0.139720  0.000000  1
  O  O14  1  0.256878  0.000000  0.743122  1
  O  O15  1  0.296499  0.296499  0.296499  1
  O  O16  1  0.000000  0.743122  0.256878  1
  O  O17  1  0.542250  0.611418  0.181459  1
  O  O18  1  0.611418  0.181459  0.542250  1
  O  O19  1  0.967689  0.032311  0.500000  1
  O  O20  1  0.457750  0.818541  0.388582  1
  O  O21  1  0.743122  0.256878  1.000000  1
  O  O22  1  0.818541  0.388582  0.457750  1
  O  O23  1  0.181459  0.542250  0.611418  1
  O  O24  1  0.032311  0.500000  0.967689  1
  O  O25  1  0.703501  0.703501  0.703501  1
  O  O26  1  0.388582  0.457750  0.818541  1
  O  O27  1  0.500000  0.967689  0.032311  1
