# generated using pymatgen
data_AgBi2S3Cl
_symmetry_space_group_name_H-M   'P 1'
_cell_length_a   7.85124215
_cell_length_b   4.02846261
_cell_length_c   10.91463800
_cell_angle_alpha   90.00000000
_cell_angle_beta   102.88083976
_cell_angle_gamma   90.00000000
_symmetry_Int_Tables_number   1
_chemical_formula_structural   AgBi2S3Cl
_chemical_formula_sum   'Ag2 Bi4 S6 Cl2'
_cell_volume   336.52591507
_cell_formula_units_Z   2
loop_
 _symmetry_equiv_pos_site_id
 _symmetry_equiv_pos_as_xyz
  1  'x, y, z'
loop_
 _atom_site_type_symbol
 _atom_site_label
 _atom_site_symmetry_multiplicity
 _atom_site_fract_x
 _atom_site_fract_y
 _atom_site_fract_z
 _atom_site_occupancy
  Ag  Ag0  1  0.941144  0.250000  0.593690  1
  Ag  Ag1  1  0.058856  0.750000  0.406310  1
  Bi  Bi2  1  0.459176  0.250000  0.654106  1
  Bi  Bi3  1  0.540824  0.750000  0.345894  1
  Bi  Bi4  1  0.187004  0.750000  0.927113  1
  Bi  Bi5  1  0.812996  0.250000  0.072887  1
  S  S6  1  0.959508  0.250000  0.854165  1
  S  S7  1  0.682247  0.750000  0.586410  1
  S  S8  1  0.317753  0.250000  0.413590  1
  S  S9  1  0.040492  0.750000  0.145835  1
  S  S10  1  0.199953  0.750000  0.661810  1
  S  S11  1  0.800047  0.250000  0.338190  1
  Cl  Cl12  1  0.404303  0.250000  0.102056  1
  Cl  Cl13  1  0.595697  0.750000  0.897944  1
