# generated using pymatgen
data_CuMo3Cl7
_symmetry_space_group_name_H-M   'P 1'
_cell_length_a   13.09423052
_cell_length_b   13.09423052
_cell_length_c   13.09423052
_cell_angle_alpha   90.00000000
_cell_angle_beta   90.00000000
_cell_angle_gamma   90.00000000
_symmetry_Int_Tables_number   1
_chemical_formula_structural   CuMo3Cl7
_chemical_formula_sum   'Cu8 Mo24 Cl56'
_cell_volume   2245.12200659
_cell_formula_units_Z   8
loop_
 _symmetry_equiv_pos_site_id
 _symmetry_equiv_pos_as_xyz
  1  'x, y, z'
loop_
 _atom_site_type_symbol
 _atom_site_label
 _atom_site_symmetry_multiplicity
 _atom_site_fract_x
 _atom_site_fract_y
 _atom_site_fract_z
 _atom_site_occupancy
  Cu  Cu0  1  0.188094  0.188094  0.188094  1
  Cu  Cu1  1  0.311906  0.688094  0.688094  1
  Cu  Cu2  1  0.688094  0.311906  0.688094  1
  Cu  Cu3  1  0.188094  0.811906  0.811906  1
  Cu  Cu4  1  0.311906  0.311906  0.311906  1
  Cu  Cu5  1  0.688094  0.688094  0.311906  1
  Cu  Cu6  1  0.811906  0.811906  0.188094  1
  Cu  Cu7  1  0.811906  0.188094  0.811906  1
  Mo  Mo8  1  0.614010  0.775259  0.718400  1
  Mo  Mo9  1  0.385990  0.224741  0.718400  1
  Mo  Mo10  1  0.718400  0.614010  0.775259  1
  Mo  Mo11  1  0.781600  0.114010  0.275259  1
  Mo  Mo12  1  0.885990  0.275259  0.218400  1
  Mo  Mo13  1  0.724741  0.781600  0.885990  1
  Mo  Mo14  1  0.224741  0.718400  0.385990  1
  Mo  Mo15  1  0.718400  0.385990  0.224741  1
  Mo  Mo16  1  0.724741  0.218400  0.114010  1
  Mo  Mo17  1  0.218400  0.885990  0.275259  1
  Mo  Mo18  1  0.775259  0.281600  0.385990  1
  Mo  Mo19  1  0.114010  0.724741  0.218400  1
  Mo  Mo20  1  0.275259  0.218400  0.885990  1
  Mo  Mo21  1  0.281600  0.385990  0.775259  1
  Mo  Mo22  1  0.218400  0.114010  0.724741  1
  Mo  Mo23  1  0.885990  0.724741  0.781600  1
  Mo  Mo24  1  0.275259  0.781600  0.114010  1
  Mo  Mo25  1  0.114010  0.275259  0.781600  1
  Mo  Mo26  1  0.781600  0.885990  0.724741  1
  Mo  Mo27  1  0.224741  0.281600  0.614010  1
  Mo  Mo28  1  0.281600  0.614010  0.224741  1
  Mo  Mo29  1  0.775259  0.718400  0.614010  1
  Mo  Mo30  1  0.385990  0.775259  0.281600  1
  Mo  Mo31  1  0.614010  0.224741  0.281600  1
  Cl  Cl32  1  0.432120  0.676143  0.126246  1
  Cl  Cl33  1  0.176143  0.373754  0.932120  1
  Cl  Cl34  1  0.884955  0.115045  0.115045  1
  Cl  Cl35  1  0.323857  0.873754  0.432120  1
  Cl  Cl36  1  0.873754  0.432120  0.323857  1
  Cl  Cl37  1  0.115045  0.884955  0.115045  1
  Cl  Cl38  1  0.066737  0.309270  0.171098  1
  Cl  Cl39  1  0.433263  0.190730  0.328902  1
  Cl  Cl40  1  0.932120  0.823857  0.626246  1
  Cl  Cl41  1  0.309270  0.828902  0.933263  1
  Cl  Cl42  1  0.309270  0.171098  0.066737  1
  Cl  Cl43  1  0.115045  0.115045  0.884955  1
  Cl  Cl44  1  0.676143  0.873754  0.567880  1
  Cl  Cl45  1  0.933263  0.690730  0.171098  1
  Cl  Cl46  1  0.615045  0.615045  0.615045  1
  Cl  Cl47  1  0.126246  0.567880  0.323857  1
  Cl  Cl48  1  0.066737  0.690730  0.828902  1
  Cl  Cl49  1  0.873754  0.567880  0.676143  1
  Cl  Cl50  1  0.567880  0.323857  0.126246  1
  Cl  Cl51  1  0.328902  0.433263  0.190730  1
  Cl  Cl52  1  0.823857  0.373754  0.067880  1
  Cl  Cl53  1  0.176143  0.626246  0.067880  1
  Cl  Cl54  1  0.373754  0.932120  0.176143  1
  Cl  Cl55  1  0.384955  0.384955  0.615045  1
  Cl  Cl56  1  0.126246  0.432120  0.676143  1
  Cl  Cl57  1  0.809270  0.671098  0.433263  1
  Cl  Cl58  1  0.433263  0.809270  0.671098  1
  Cl  Cl59  1  0.384955  0.615045  0.384955  1
  Cl  Cl60  1  0.566737  0.190730  0.671098  1
  Cl  Cl61  1  0.932120  0.176143  0.373754  1
  Cl  Cl62  1  0.432120  0.323857  0.873754  1
  Cl  Cl63  1  0.373754  0.067880  0.823857  1
  Cl  Cl64  1  0.626246  0.932120  0.823857  1
  Cl  Cl65  1  0.171098  0.066737  0.309270  1
  Cl  Cl66  1  0.566737  0.809270  0.328902  1
  Cl  Cl67  1  0.823857  0.626246  0.932120  1
  Cl  Cl68  1  0.933263  0.309270  0.828902  1
  Cl  Cl69  1  0.690730  0.171098  0.933263  1
  Cl  Cl70  1  0.067880  0.823857  0.373754  1
  Cl  Cl71  1  0.323857  0.126246  0.567880  1
  Cl  Cl72  1  0.676143  0.126246  0.432120  1
  Cl  Cl73  1  0.615045  0.384955  0.384955  1
  Cl  Cl74  1  0.884955  0.884955  0.884955  1
  Cl  Cl75  1  0.809270  0.328902  0.566737  1
  Cl  Cl76  1  0.171098  0.933263  0.690730  1
  Cl  Cl77  1  0.190730  0.671098  0.566737  1
  Cl  Cl78  1  0.671098  0.433263  0.809270  1
  Cl  Cl79  1  0.328902  0.566737  0.809270  1
  Cl  Cl80  1  0.671098  0.566737  0.190730  1
  Cl  Cl81  1  0.828902  0.933263  0.309270  1
  Cl  Cl82  1  0.190730  0.328902  0.433263  1
  Cl  Cl83  1  0.690730  0.828902  0.066737  1
  Cl  Cl84  1  0.067880  0.176143  0.626246  1
  Cl  Cl85  1  0.828902  0.066737  0.690730  1
  Cl  Cl86  1  0.626246  0.067880  0.176143  1
  Cl  Cl87  1  0.567880  0.676143  0.873754  1
