# generated using pymatgen
data_Na2SiH16O11
_symmetry_space_group_name_H-M   'P 1'
_cell_length_a   8.93720941
_cell_length_b   13.54014816
_cell_length_c   10.05433559
_cell_angle_alpha   90.00000000
_cell_angle_beta   119.40299552
_cell_angle_gamma   90.00000000
_symmetry_Int_Tables_number   1
_chemical_formula_structural   Na2SiH16O11
_chemical_formula_sum   'Na8 Si4 H64 O44'
_cell_volume   1059.96294777
_cell_formula_units_Z   4
loop_
 _symmetry_equiv_pos_site_id
 _symmetry_equiv_pos_as_xyz
  1  'x, y, z'
loop_
 _atom_site_type_symbol
 _atom_site_label
 _atom_site_symmetry_multiplicity
 _atom_site_fract_x
 _atom_site_fract_y
 _atom_site_fract_z
 _atom_site_occupancy
  Na  Na0  1  0.338774  0.765795  0.256594  1
  Na  Na1  1  0.661226  0.265795  0.243406  1
  Na  Na2  1  0.661226  0.234205  0.743406  1
  Na  Na3  1  0.338774  0.734205  0.756594  1
  Na  Na4  1  0.347643  0.924636  0.987610  1
  Na  Na5  1  0.652357  0.424636  0.512390  1
  Na  Na6  1  0.652357  0.075364  0.012390  1
  Na  Na7  1  0.347643  0.575364  0.487610  1
  Si  Si8  1  0.711448  0.921151  0.505194  1
  Si  Si9  1  0.288552  0.421151  0.994806  1
  Si  Si10  1  0.288552  0.078849  0.494806  1
  Si  Si11  1  0.711448  0.578849  0.005194  1
  H  H12  1  0.958607  0.969863  0.722348  1
  H  H13  1  0.041393  0.469863  0.777652  1
  H  H14  1  0.041393  0.030137  0.277652  1
  H  H15  1  0.958607  0.530137  0.222348  1
  H  H16  1  0.465186  0.904647  0.518370  1
  H  H17  1  0.534814  0.404647  0.981630  1
  H  H18  1  0.534814  0.095353  0.481630  1
  H  H19  1  0.465186  0.595353  0.018370  1
  H  H20  1  0.049068  0.819144  0.773670  1
  H  H21  1  0.950932  0.319144  0.726330  1
  H  H22  1  0.950932  0.180856  0.226330  1
  H  H23  1  0.049068  0.680856  0.273670  1
  H  H24  1  0.142463  0.745078  0.915683  1
  H  H25  1  0.857537  0.245078  0.584317  1
  H  H26  1  0.857537  0.254922  0.084317  1
  H  H27  1  0.142463  0.754922  0.415683  1
  H  H28  1  0.451302  0.945034  0.744150  1
  H  H29  1  0.548698  0.445034  0.755850  1
  H  H30  1  0.548698  0.054966  0.255850  1
  H  H31  1  0.451302  0.554966  0.244150  1
  H  H32  1  0.616023  0.892222  0.881376  1
  H  H33  1  0.383977  0.392222  0.618624  1
  H  H34  1  0.383977  0.107778  0.118624  1
  H  H35  1  0.616023  0.607778  0.381376  1
  H  H36  1  0.187358  0.968097  0.192833  1
  H  H37  1  0.812642  0.468097  0.307167  1
  H  H38  1  0.812642  0.031903  0.807167  1
  H  H39  1  0.187358  0.531903  0.692833  1
  H  H40  1  0.069212  0.890002  0.070168  1
  H  H41  1  0.930788  0.390002  0.429832  1
  H  H42  1  0.930788  0.109998  0.929832  1
  H  H43  1  0.069212  0.609998  0.570168  1
  H  H44  1  0.207712  0.888722  0.539486  1
  H  H45  1  0.792288  0.388722  0.960514  1
  H  H46  1  0.792288  0.111278  0.460514  1
  H  H47  1  0.207712  0.611278  0.039486  1
  H  H48  1  0.018038  0.847311  0.502671  1
  H  H49  1  0.981962  0.347311  0.997329  1
  H  H50  1  0.981962  0.152689  0.497329  1
  H  H51  1  0.018038  0.652689  0.002671  1
  H  H52  1  0.632298  0.818011  0.250433  1
  H  H53  1  0.367702  0.318011  0.249567  1
  H  H54  1  0.367702  0.181989  0.749567  1
  H  H55  1  0.632298  0.681989  0.750433  1
  H  H56  1  0.549921  0.742441  0.107309  1
  H  H57  1  0.450079  0.242441  0.392691  1
  H  H58  1  0.450079  0.257559  0.892691  1
  H  H59  1  0.549921  0.757559  0.607309  1
  H  H60  1  0.836155  0.923269  0.285566  1
  H  H61  1  0.163845  0.423269  0.214434  1
  H  H62  1  0.163845  0.076731  0.714434  1
  H  H63  1  0.836155  0.576731  0.785566  1
  H  H64  1  0.858256  0.906304  0.139202  1
  H  H65  1  0.141744  0.406304  0.360798  1
  H  H66  1  0.141744  0.093696  0.860798  1
  H  H67  1  0.858256  0.593696  0.639202  1
  H  H68  1  0.825922  0.766452  0.942241  1
  H  H69  1  0.174078  0.266452  0.557759  1
  H  H70  1  0.174078  0.233548  0.057759  1
  H  H71  1  0.825922  0.733548  0.442241  1
  H  H72  1  0.841549  0.863605  0.857038  1
  H  H73  1  0.158451  0.363605  0.642962  1
  H  H74  1  0.158451  0.136395  0.142962  1
  H  H75  1  0.841549  0.636395  0.357038  1
  O  O76  1  0.652207  0.032229  0.440522  1
  O  O77  1  0.347793  0.532229  0.059478  1
  O  O78  1  0.347793  0.967771  0.559478  1
  O  O79  1  0.652207  0.467771  0.940522  1
  O  O80  1  0.796189  0.857692  0.420688  1
  O  O81  1  0.203811  0.357692  0.079312  1
  O  O82  1  0.203811  0.142308  0.579312  1
  O  O83  1  0.796189  0.642308  0.920688  1
  O  O84  1  0.855879  0.927201  0.696379  1
  O  O85  1  0.144121  0.427201  0.803621  1
  O  O86  1  0.144121  0.072799  0.303621  1
  O  O87  1  0.855879  0.572799  0.196379  1
  O  O88  1  0.545352  0.859344  0.497857  1
  O  O89  1  0.454648  0.359344  0.002143  1
  O  O90  1  0.454648  0.140656  0.502143  1
  O  O91  1  0.545352  0.640656  0.997857  1
  O  O92  1  0.161024  0.791666  0.846050  1
  O  O93  1  0.838976  0.291666  0.653950  1
  O  O94  1  0.838976  0.208334  0.153950  1
  O  O95  1  0.161024  0.708334  0.346050  1
  O  O96  1  0.507180  0.925701  0.855896  1
  O  O97  1  0.492820  0.425701  0.644104  1
  O  O98  1  0.492820  0.074299  0.144104  1
  O  O99  1  0.507180  0.574299  0.355896  1
  O  O100  1  0.188011  0.915259  0.125988  1
  O  O101  1  0.811989  0.415259  0.374012  1
  O  O102  1  0.811989  0.084741  0.874012  1
  O  O103  1  0.188011  0.584741  0.625988  1
  O  O104  1  0.139462  0.828007  0.537832  1
  O  O105  1  0.860538  0.328007  0.962168  1
  O  O106  1  0.860538  0.171993  0.462168  1
  O  O107  1  0.139462  0.671993  0.037832  1
  O  O108  1  0.523831  0.798355  0.156591  1
  O  O109  1  0.476169  0.298355  0.343409  1
  O  O110  1  0.476169  0.201645  0.843409  1
  O  O111  1  0.523831  0.701645  0.656591  1
  O  O112  1  0.859756  0.957337  0.209170  1
  O  O113  1  0.140244  0.457337  0.290830  1
  O  O114  1  0.140244  0.042663  0.790830  1
  O  O115  1  0.859756  0.542663  0.709170  1
  O  O116  1  0.839145  0.840945  0.949652  1
  O  O117  1  0.160855  0.340945  0.550348  1
  O  O118  1  0.160855  0.159055  0.050348  1
  O  O119  1  0.839145  0.659055  0.449652  1
