# generated using pymatgen
data_ZnS
_symmetry_space_group_name_H-M   'P 1'
_cell_length_a   3.85340603
_cell_length_b   3.85340603
_cell_length_c   25.18961855
_cell_angle_alpha   90.00000000
_cell_angle_beta   90.00000000
_cell_angle_gamma   120.00000000
_symmetry_Int_Tables_number   1
_chemical_formula_structural   ZnS
_chemical_formula_sum   'Zn8 S8'
_cell_volume   323.92298719
_cell_formula_units_Z   8
loop_
 _symmetry_equiv_pos_site_id
 _symmetry_equiv_pos_as_xyz
  1  'x, y, z'
loop_
 _atom_site_type_symbol
 _atom_site_label
 _atom_site_symmetry_multiplicity
 _atom_site_fract_x
 _atom_site_fract_y
 _atom_site_fract_z
 _atom_site_occupancy
  Zn  Zn0  1  0.333333  0.666667  0.750007  1
  Zn  Zn1  1  0.333333  0.666667  0.125006  1
  Zn  Zn2  1  0.000000  0.000000  0.000016  1
  Zn  Zn3  1  0.666667  0.333333  0.875046  1
  Zn  Zn4  1  0.666667  0.333333  0.250007  1
  Zn  Zn5  1  0.333333  0.666667  0.375046  1
  Zn  Zn6  1  0.000000  0.000000  0.500016  1
  Zn  Zn7  1  0.666667  0.333333  0.625006  1
  S  S8  1  0.000000  0.000000  0.593784  1
  S  S9  1  0.666667  0.333333  0.968779  1
  S  S10  1  0.333333  0.666667  0.218714  1
  S  S11  1  0.666667  0.333333  0.343848  1
  S  S12  1  0.333333  0.666667  0.843848  1
  S  S13  1  0.333333  0.666667  0.468779  1
  S  S14  1  0.666667  0.333333  0.718714  1
  S  S15  1  0.000000  0.000000  0.093784  1
