# generated using pymatgen
data_Sr2NiSe2(ClO3)2
_symmetry_space_group_name_H-M   'P 1'
_cell_length_a   5.41324256
_cell_length_b   6.53099118
_cell_length_c   13.28200687
_cell_angle_alpha   90.00000000
_cell_angle_beta   111.03897216
_cell_angle_gamma   90.00000000
_symmetry_Int_Tables_number   1
_chemical_formula_structural   Sr2NiSe2(ClO3)2
_chemical_formula_sum   'Sr4 Ni2 Se4 Cl4 O12'
_cell_volume   438.26673946
_cell_formula_units_Z   2
loop_
 _symmetry_equiv_pos_site_id
 _symmetry_equiv_pos_as_xyz
  1  'x, y, z'
loop_
 _atom_site_type_symbol
 _atom_site_label
 _atom_site_symmetry_multiplicity
 _atom_site_fract_x
 _atom_site_fract_y
 _atom_site_fract_z
 _atom_site_occupancy
  Sr  Sr0  1  0.780813  0.798753  0.265950  1
  Sr  Sr1  1  0.219187  0.201247  0.734050  1
  Sr  Sr2  1  0.219187  0.298753  0.234050  1
  Sr  Sr3  1  0.780813  0.701247  0.765950  1
  Ni  Ni4  1  0.500000  0.500000  0.000000  1
  Ni  Ni5  1  0.500000  0.000000  0.500000  1
  Se  Se6  1  0.920919  0.260713  0.426435  1
  Se  Se7  1  0.920919  0.239287  0.926435  1
  Se  Se8  1  0.079081  0.760713  0.073565  1
  Se  Se9  1  0.079081  0.739287  0.573565  1
  Cl  Cl10  1  0.443431  0.820288  0.897327  1
  Cl  Cl11  1  0.556569  0.179712  0.102673  1
  Cl  Cl12  1  0.556569  0.320288  0.602673  1
  Cl  Cl13  1  0.443431  0.679712  0.397327  1
  O  O14  1  0.622316  0.373630  0.878780  1
  O  O15  1  0.115980  0.076067  0.394028  1
  O  O16  1  0.885198  0.070360  0.824326  1
  O  O17  1  0.377684  0.626370  0.121220  1
  O  O18  1  0.115980  0.423933  0.894028  1
  O  O19  1  0.114802  0.570360  0.675674  1
  O  O20  1  0.885198  0.429640  0.324326  1
  O  O21  1  0.114802  0.929640  0.175674  1
  O  O22  1  0.884020  0.576067  0.105972  1
  O  O23  1  0.622316  0.126370  0.378780  1
  O  O24  1  0.377684  0.873630  0.621220  1
  O  O25  1  0.884020  0.923933  0.605972  1
