# generated using pymatgen
data_Ca4Mn3B3CO15
_symmetry_space_group_name_H-M   'P 1'
_cell_length_a   10.73243410
_cell_length_b   10.73243410
_cell_length_c   5.98860571
_cell_angle_alpha   90.00000000
_cell_angle_beta   90.00000000
_cell_angle_gamma   120.00000000
_symmetry_Int_Tables_number   1
_chemical_formula_structural   Ca4Mn3B3CO15
_chemical_formula_sum   'Ca8 Mn6 B6 C2 O30'
_cell_volume   597.38293531
_cell_formula_units_Z   2
loop_
 _symmetry_equiv_pos_site_id
 _symmetry_equiv_pos_as_xyz
  1  'x, y, z'
loop_
 _atom_site_type_symbol
 _atom_site_label
 _atom_site_symmetry_multiplicity
 _atom_site_fract_x
 _atom_site_fract_y
 _atom_site_fract_z
 _atom_site_occupancy
  Ca  Ca0  1  0.698068  0.868717  0.179964  1
  Ca  Ca1  1  0.868717  0.170649  0.679964  1
  Ca  Ca2  1  0.131283  0.829351  0.179964  1
  Ca  Ca3  1  0.666667  0.333333  0.684685  1
  Ca  Ca4  1  0.333333  0.666667  0.184685  1
  Ca  Ca5  1  0.170649  0.301932  0.179964  1
  Ca  Ca6  1  0.829351  0.698068  0.679964  1
  Ca  Ca7  1  0.301932  0.131283  0.679964  1
  Mn  Mn8  1  0.500284  0.499746  0.930538  1
  Mn  Mn9  1  0.499716  0.500254  0.430538  1
  Mn  Mn10  1  0.499746  0.999462  0.430538  1
  Mn  Mn11  1  0.500254  0.000538  0.930538  1
  Mn  Mn12  1  0.000538  0.500284  0.430538  1
  Mn  Mn13  1  0.999462  0.499716  0.930538  1
  B  B14  1  0.553024  0.783173  0.680487  1
  B  B15  1  0.230148  0.446976  0.680487  1
  B  B16  1  0.783173  0.230148  0.180487  1
  B  B17  1  0.216827  0.769852  0.680487  1
  B  B18  1  0.446976  0.216827  0.180487  1
  B  B19  1  0.769852  0.553024  0.180487  1
  C  C20  1  0.000000  0.000000  0.495470  1
  C  C21  1  0.000000  0.000000  0.995470  1
  O  O22  1  0.471458  0.170124  0.976511  1
  O  O23  1  0.861922  0.950030  0.499387  1
  O  O24  1  0.399736  0.315866  0.182461  1
  O  O25  1  0.088108  0.138078  0.499387  1
  O  O26  1  0.170124  0.698666  0.476511  1
  O  O27  1  0.095758  0.474278  0.180060  1
  O  O28  1  0.916130  0.600264  0.182461  1
  O  O29  1  0.684134  0.083870  0.182461  1
  O  O30  1  0.300577  0.467030  0.884541  1
  O  O31  1  0.138078  0.049970  0.999387  1
  O  O32  1  0.166453  0.699423  0.884541  1
  O  O33  1  0.528542  0.829876  0.476511  1
  O  O34  1  0.315866  0.916130  0.682461  1
  O  O35  1  0.829876  0.301334  0.976511  1
  O  O36  1  0.911892  0.861922  0.999387  1
  O  O37  1  0.833547  0.300577  0.384541  1
  O  O38  1  0.301334  0.471458  0.476511  1
  O  O39  1  0.532970  0.833547  0.884541  1
  O  O40  1  0.467030  0.166453  0.384541  1
  O  O41  1  0.600264  0.684134  0.682461  1
  O  O42  1  0.083870  0.399736  0.682461  1
  O  O43  1  0.049970  0.911892  0.499387  1
  O  O44  1  0.525722  0.621480  0.180060  1
  O  O45  1  0.621480  0.095758  0.680060  1
  O  O46  1  0.474278  0.378520  0.680060  1
  O  O47  1  0.699423  0.532970  0.384541  1
  O  O48  1  0.904242  0.525722  0.680060  1
  O  O49  1  0.698666  0.528542  0.976511  1
  O  O50  1  0.950030  0.088108  0.999387  1
  O  O51  1  0.378520  0.904242  0.180060  1
