# generated using pymatgen
data_Rb2CO3
_symmetry_space_group_name_H-M   'P 1'
_cell_length_a   6.03579086
_cell_length_b   7.61849143
_cell_length_c   10.12631738
_cell_angle_alpha   90.00000000
_cell_angle_beta   90.00000000
_cell_angle_gamma   90.00000000
_symmetry_Int_Tables_number   1
_chemical_formula_structural   Rb2CO3
_chemical_formula_sum   'Rb8 C4 O12'
_cell_volume   465.64473992
_cell_formula_units_Z   4
loop_
 _symmetry_equiv_pos_site_id
 _symmetry_equiv_pos_as_xyz
  1  'x, y, z'
loop_
 _atom_site_type_symbol
 _atom_site_label
 _atom_site_symmetry_multiplicity
 _atom_site_fract_x
 _atom_site_fract_y
 _atom_site_fract_z
 _atom_site_occupancy
  Rb  Rb0  1  0.750000  0.807715  0.080243  1
  Rb  Rb1  1  0.250000  0.692285  0.580243  1
  Rb  Rb2  1  0.250000  0.535484  0.230177  1
  Rb  Rb3  1  0.750000  0.307715  0.419757  1
  Rb  Rb4  1  0.750000  0.964516  0.730177  1
  Rb  Rb5  1  0.250000  0.035484  0.269823  1
  Rb  Rb6  1  0.250000  0.192285  0.919757  1
  Rb  Rb7  1  0.750000  0.464516  0.769823  1
  C  C8  1  0.750000  0.747912  0.415364  1
  C  C9  1  0.250000  0.252088  0.584636  1
  C  C10  1  0.250000  0.752088  0.915364  1
  C  C11  1  0.750000  0.247912  0.084636  1
  O  O12  1  0.937567  0.281708  0.143603  1
  O  O13  1  0.062433  0.218292  0.643603  1
  O  O14  1  0.062433  0.718292  0.856397  1
  O  O15  1  0.562433  0.781708  0.356397  1
  O  O16  1  0.750000  0.177868  0.966362  1
  O  O17  1  0.250000  0.822132  0.033638  1
  O  O18  1  0.937567  0.781708  0.356397  1
  O  O19  1  0.750000  0.677868  0.533638  1
  O  O20  1  0.562433  0.281708  0.143603  1
  O  O21  1  0.250000  0.322132  0.466362  1
  O  O22  1  0.437567  0.718292  0.856397  1
  O  O23  1  0.437567  0.218292  0.643603  1
