# generated using pymatgen
data_AlInS3
_symmetry_space_group_name_H-M   'P 1'
_cell_length_a   6.83364592
_cell_length_b   6.83364592
_cell_length_c   18.08916613
_cell_angle_alpha   90.00000000
_cell_angle_beta   90.00000000
_cell_angle_gamma   120.00000000
_symmetry_Int_Tables_number   1
_chemical_formula_structural   AlInS3
_chemical_formula_sum   'Al6 In6 S18'
_cell_volume   731.56702942
_cell_formula_units_Z   6
loop_
 _symmetry_equiv_pos_site_id
 _symmetry_equiv_pos_as_xyz
  1  'x, y, z'
loop_
 _atom_site_type_symbol
 _atom_site_label
 _atom_site_symmetry_multiplicity
 _atom_site_fract_x
 _atom_site_fract_y
 _atom_site_fract_z
 _atom_site_occupancy
  Al  Al0  1  0.669511  0.987231  0.487051  1
  Al  Al1  1  0.317720  0.330489  0.153718  1
  Al  Al2  1  0.330489  0.012769  0.987051  1
  Al  Al3  1  0.682280  0.669511  0.653718  1
  Al  Al4  1  0.987231  0.317720  0.320384  1
  Al  Al5  1  0.012769  0.682280  0.820384  1
  In  In6  1  0.671842  0.668078  0.291950  1
  In  In7  1  0.668078  0.996237  0.125284  1
  In  In8  1  0.996237  0.328158  0.958617  1
  In  In9  1  0.003763  0.671842  0.458617  1
  In  In10  1  0.331922  0.003763  0.625284  1
  In  In11  1  0.328158  0.331922  0.791950  1
  S  S12  1  0.961298  0.330177  0.809691  1
  S  S13  1  0.294655  0.002086  0.113826  1
  S  S14  1  0.366620  0.334386  0.940182  1
  S  S15  1  0.002086  0.707430  0.947160  1
  S  S16  1  0.330177  0.368879  0.643024  1
  S  S17  1  0.967766  0.633380  0.606848  1
  S  S18  1  0.997914  0.292570  0.447160  1
  S  S19  1  0.633380  0.665614  0.440182  1
  S  S20  1  0.669823  0.631121  0.143024  1
  S  S21  1  0.292570  0.294655  0.280493  1
  S  S22  1  0.631121  0.961298  0.976357  1
  S  S23  1  0.707430  0.705345  0.780493  1
  S  S24  1  0.334386  0.967766  0.773515  1
  S  S25  1  0.368879  0.038702  0.476357  1
  S  S26  1  0.705345  0.997914  0.613826  1
  S  S27  1  0.038702  0.669823  0.309691  1
  S  S28  1  0.032234  0.366620  0.106848  1
  S  S29  1  0.665614  0.032234  0.273515  1
