# generated using pymatgen
data_CsSbO2
_symmetry_space_group_name_H-M   'P 1'
_cell_length_a   6.55079667
_cell_length_b   6.55079667
_cell_length_c   5.67497244
_cell_angle_alpha   70.26985952
_cell_angle_beta   109.73014048
_cell_angle_gamma   78.57169156
_symmetry_Int_Tables_number   1
_chemical_formula_structural   CsSbO2
_chemical_formula_sum   'Cs2 Sb2 O4'
_cell_volume   201.94502440
_cell_formula_units_Z   2
loop_
 _symmetry_equiv_pos_site_id
 _symmetry_equiv_pos_as_xyz
  1  'x, y, z'
loop_
 _atom_site_type_symbol
 _atom_site_label
 _atom_site_symmetry_multiplicity
 _atom_site_fract_x
 _atom_site_fract_y
 _atom_site_fract_z
 _atom_site_occupancy
  Cs  Cs0  1  0.647402  0.647402  0.750000  1
  Cs  Cs1  1  0.352598  0.352598  0.250000  1
  Sb  Sb2  1  0.921995  0.921995  0.250000  1
  Sb  Sb3  1  0.078005  0.078005  0.750000  1
  O  O4  1  0.785930  0.127212  0.796951  1
  O  O5  1  0.214070  0.872788  0.203049  1
  O  O6  1  0.127212  0.785930  0.703049  1
  O  O7  1  0.872788  0.214070  0.296951  1
