# generated using pymatgen
data_SiHg3(SF3)2
_symmetry_space_group_name_H-M   'P 1'
_cell_length_a   7.40494298
_cell_length_b   7.40494298
_cell_length_c   4.90985000
_cell_angle_alpha   90.00000000
_cell_angle_beta   90.00000000
_cell_angle_gamma   120.00000000
_symmetry_Int_Tables_number   1
_chemical_formula_structural   SiHg3(SF3)2
_chemical_formula_sum   'Si1 Hg3 S2 F6'
_cell_volume   233.15369024
_cell_formula_units_Z   1
loop_
 _symmetry_equiv_pos_site_id
 _symmetry_equiv_pos_as_xyz
  1  'x, y, z'
loop_
 _atom_site_type_symbol
 _atom_site_label
 _atom_site_symmetry_multiplicity
 _atom_site_fract_x
 _atom_site_fract_y
 _atom_site_fract_z
 _atom_site_occupancy
  Si  Si0  1  0.000000  0.000000  0.500000  1
  Hg  Hg1  1  0.500000  0.000000  0.000000  1
  Hg  Hg2  1  0.000000  0.500000  0.000000  1
  Hg  Hg3  1  0.500000  0.500000  0.000000  1
  S  S4  1  0.333333  0.666667  0.213947  1
  S  S5  1  0.666667  0.333333  0.786053  1
  F  F6  1  0.110225  0.889775  0.298764  1
  F  F7  1  0.889775  0.110225  0.701236  1
  F  F8  1  0.110225  0.220450  0.298764  1
  F  F9  1  0.889775  0.779550  0.701236  1
  F  F10  1  0.220450  0.110225  0.701236  1
  F  F11  1  0.779550  0.889775  0.298764  1
