# generated using pymatgen
data_NaSmSe2O7
_symmetry_space_group_name_H-M   'P 1'
_cell_length_a   8.34516416
_cell_length_b   7.00171741
_cell_length_c   10.92291151
_cell_angle_alpha   90.00000000
_cell_angle_beta   91.36088517
_cell_angle_gamma   90.00000000
_symmetry_Int_Tables_number   1
_chemical_formula_structural   NaSmSe2O7
_chemical_formula_sum   'Na4 Sm4 Se8 O28'
_cell_volume   638.05095338
_cell_formula_units_Z   4
loop_
 _symmetry_equiv_pos_site_id
 _symmetry_equiv_pos_as_xyz
  1  'x, y, z'
loop_
 _atom_site_type_symbol
 _atom_site_label
 _atom_site_symmetry_multiplicity
 _atom_site_fract_x
 _atom_site_fract_y
 _atom_site_fract_z
 _atom_site_occupancy
  Na  Na0  1  0.811435  0.373931  0.062933  1
  Na  Na1  1  0.688565  0.873931  0.937067  1
  Na  Na2  1  0.188565  0.626069  0.937067  1
  Na  Na3  1  0.311435  0.126069  0.062933  1
  Sm  Sm4  1  0.195107  0.851202  0.413934  1
  Sm  Sm5  1  0.304893  0.351202  0.586066  1
  Sm  Sm6  1  0.804893  0.148798  0.586066  1
  Sm  Sm7  1  0.695107  0.648798  0.413934  1
  Se  Se8  1  0.056357  0.329626  0.331937  1
  Se  Se9  1  0.556357  0.170374  0.331937  1
  Se  Se10  1  0.943643  0.670374  0.668063  1
  Se  Se11  1  0.043359  0.142263  0.838594  1
  Se  Se12  1  0.443643  0.829626  0.668063  1
  Se  Se13  1  0.543359  0.357737  0.838594  1
  Se  Se14  1  0.456641  0.642263  0.161406  1
  Se  Se15  1  0.956641  0.857737  0.161406  1
  O  O16  1  0.077782  0.222978  0.694953  1
  O  O17  1  0.935080  0.841220  0.549701  1
  O  O18  1  0.641568  0.884911  0.660074  1
  O  O19  1  0.422218  0.722978  0.305047  1
  O  O20  1  0.337512  0.005033  0.586934  1
  O  O21  1  0.644089  0.560480  0.189578  1
  O  O22  1  0.328918  0.472328  0.118476  1
  O  O23  1  0.837512  0.494967  0.586934  1
  O  O24  1  0.355911  0.439520  0.810422  1
  O  O25  1  0.141568  0.615089  0.660074  1
  O  O26  1  0.064920  0.158780  0.450299  1
  O  O27  1  0.577782  0.277022  0.694953  1
  O  O28  1  0.144089  0.939520  0.189578  1
  O  O29  1  0.046980  0.316022  0.942360  1
  O  O30  1  0.358432  0.115089  0.339926  1
  O  O31  1  0.858432  0.384911  0.339926  1
  O  O32  1  0.828918  0.027672  0.118476  1
  O  O33  1  0.162488  0.505033  0.413066  1
  O  O34  1  0.435080  0.658780  0.549701  1
  O  O35  1  0.855911  0.060480  0.810422  1
  O  O36  1  0.564920  0.341220  0.450299  1
  O  O37  1  0.453020  0.816022  0.057640  1
  O  O38  1  0.171082  0.972328  0.881524  1
  O  O39  1  0.546980  0.183978  0.942360  1
  O  O40  1  0.671082  0.527672  0.881524  1
  O  O41  1  0.662488  0.994967  0.413066  1
  O  O42  1  0.922218  0.777022  0.305047  1
  O  O43  1  0.953020  0.683978  0.057640  1
