# generated using pymatgen
data_Ca4Nb2O9
_symmetry_space_group_name_H-M   'P 1'
_cell_length_a   8.09693034
_cell_length_b   9.86572442
_cell_length_c   11.42548399
_cell_angle_alpha   107.31906858
_cell_angle_beta   88.56073759
_cell_angle_gamma   112.84671422
_symmetry_Int_Tables_number   1
_chemical_formula_structural   Ca4Nb2O9
_chemical_formula_sum   'Ca16 Nb8 O36'
_cell_volume   798.69797880
_cell_formula_units_Z   4
loop_
 _symmetry_equiv_pos_site_id
 _symmetry_equiv_pos_as_xyz
  1  'x, y, z'
loop_
 _atom_site_type_symbol
 _atom_site_label
 _atom_site_symmetry_multiplicity
 _atom_site_fract_x
 _atom_site_fract_y
 _atom_site_fract_z
 _atom_site_occupancy
  Ca  Ca0  1  0.162910  0.828952  0.832201  1
  Ca  Ca1  1  0.299053  0.523374  0.761047  1
  Ca  Ca2  1  0.780145  0.534691  0.783856  1
  Ca  Ca3  1  0.503931  0.506332  0.500970  1
  Ca  Ca4  1  0.535368  0.127893  0.902437  1
  Ca  Ca5  1  0.055670  0.151632  0.902454  1
  Ca  Ca6  1  0.831216  0.167119  0.668552  1
  Ca  Ca7  1  0.605773  0.178014  0.433176  1
  Ca  Ca8  1  0.130413  0.200917  0.444463  1
  Ca  Ca9  1  0.833357  0.164544  0.167998  1
  Ca  Ca10  1  0.890717  0.803681  0.552366  1
  Ca  Ca11  1  0.364921  0.815187  0.573766  1
  Ca  Ca12  1  0.957429  0.841777  0.093616  1
  Ca  Ca13  1  0.452322  0.859697  0.096870  1
  Ca  Ca14  1  0.208694  0.466041  0.234947  1
  Ca  Ca15  1  0.702924  0.478556  0.240826  1
  Nb  Nb16  1  0.003797  0.483477  0.998473  1
  Nb  Nb17  1  0.679278  0.837174  0.824547  1
  Nb  Nb18  1  0.347764  0.183577  0.677074  1
  Nb  Nb19  1  0.986515  0.494392  0.509283  1
  Nb  Nb20  1  0.666041  0.853186  0.337610  1
  Nb  Nb21  1  0.152097  0.824634  0.330190  1
  Nb  Nb22  1  0.327541  0.162525  0.170805  1
  Nb  Nb23  1  0.512335  0.508290  0.012858  1
  O  O24  1  0.214599  0.430938  0.994577  1
  O  O25  1  0.509138  0.666648  0.944063  1
  O  O26  1  0.885667  0.812994  0.893958  1
  O  O27  1  0.614207  0.630158  0.701687  1
  O  O28  1  0.487693  0.367357  0.816974  1
  O  O29  1  0.247522  0.059790  0.789923  1
  O  O30  1  0.077591  0.596921  0.877286  1
  O  O31  1  0.848964  0.293302  0.880083  1
  O  O32  1  0.691716  0.008578  0.973316  1
  O  O33  1  0.525489  0.087737  0.640139  1
  O  O34  1  0.436125  0.824639  0.775575  1
  O  O35  1  0.841998  0.371832  0.604388  1
  O  O36  1  0.824459  0.962348  0.730764  1
  O  O37  1  0.231342  0.509958  0.558780  1
  O  O38  1  0.137167  0.240218  0.679899  1
  O  O39  1  0.978974  0.323441  0.362219  1
  O  O40  1  0.816773  0.042238  0.454986  1
  O  O41  1  0.589211  0.737914  0.455979  1
  O  O42  1  0.418845  0.273444  0.539149  1
  O  O43  1  0.180318  0.961965  0.501363  1
  O  O44  1  0.055625  0.704563  0.630652  1
  O  O45  1  0.890692  0.768464  0.314839  1
  O  O46  1  0.783354  0.522045  0.441042  1
  O  O47  1  0.191986  0.023661  0.269673  1
  O  O48  1  0.155770  0.660582  0.385625  1
  O  O49  1  0.566828  0.175835  0.227992  1
  O  O50  1  0.451614  0.900040  0.334710  1
  O  O51  1  0.306587  0.983384  0.024907  1
  O  O52  1  0.147146  0.714248  0.146685  1
  O  O53  1  0.920415  0.410646  0.139850  1
  O  O54  1  0.744621  0.918476  0.192293  1
  O  O55  1  0.515229  0.618652  0.183939  1
  O  O56  1  0.374692  0.359509  0.303837  1
  O  O57  1  0.104260  0.166056  0.105707  1
  O  O58  1  0.471698  0.313494  0.057079  1
  O  O59  1  0.771474  0.562262  0.015677  1
