# generated using pymatgen
data_PbI2
_symmetry_space_group_name_H-M   'P 1'
_cell_length_a   4.66129393
_cell_length_b   4.66129393
_cell_length_c   22.30473096
_cell_angle_alpha   90.00000000
_cell_angle_beta   90.00000000
_cell_angle_gamma   120.00000000
_symmetry_Int_Tables_number   1
_chemical_formula_structural   PbI2
_chemical_formula_sum   'Pb3 I6'
_cell_volume   419.70157505
_cell_formula_units_Z   3
loop_
 _symmetry_equiv_pos_site_id
 _symmetry_equiv_pos_as_xyz
  1  'x, y, z'
loop_
 _atom_site_type_symbol
 _atom_site_label
 _atom_site_symmetry_multiplicity
 _atom_site_fract_x
 _atom_site_fract_y
 _atom_site_fract_z
 _atom_site_occupancy
  Pb  Pb0  1  0.000000  0.000000  0.666210  1
  Pb  Pb1  1  0.333333  0.666667  0.333706  1
  Pb  Pb2  1  0.333333  0.666667  0.000029  1
  I  I3  1  0.666667  0.333333  0.417798  1
  I  I4  1  0.666667  0.333333  0.084334  1
  I  I5  1  0.333333  0.666667  0.582070  1
  I  I6  1  0.000000  0.000000  0.915879  1
  I  I7  1  0.000000  0.000000  0.249563  1
  I  I8  1  0.666667  0.333333  0.750411  1
