# generated using pymatgen
data_KMoIO6
_symmetry_space_group_name_H-M   'P 1'
_cell_length_a   7.49523784
_cell_length_b   8.00926727
_cell_length_c   19.77962654
_cell_angle_alpha   90.00000000
_cell_angle_beta   90.00000000
_cell_angle_gamma   90.00000000
_symmetry_Int_Tables_number   1
_chemical_formula_structural   KMoIO6
_chemical_formula_sum   'K8 Mo8 I8 O48'
_cell_volume   1187.39794306
_cell_formula_units_Z   8
loop_
 _symmetry_equiv_pos_site_id
 _symmetry_equiv_pos_as_xyz
  1  'x, y, z'
loop_
 _atom_site_type_symbol
 _atom_site_label
 _atom_site_symmetry_multiplicity
 _atom_site_fract_x
 _atom_site_fract_y
 _atom_site_fract_z
 _atom_site_occupancy
  K  K0  1  0.165165  0.190128  0.429068  1
  K  K1  1  0.334835  0.690128  0.570932  1
  K  K2  1  0.665165  0.309872  0.429068  1
  K  K3  1  0.834835  0.309872  0.929068  1
  K  K4  1  0.834835  0.809872  0.570932  1
  K  K5  1  0.665165  0.809872  0.070932  1
  K  K6  1  0.165165  0.690128  0.070932  1
  K  K7  1  0.334835  0.190128  0.929068  1
  Mo  Mo8  1  0.420822  0.220172  0.607004  1
  Mo  Mo9  1  0.920822  0.279828  0.607004  1
  Mo  Mo10  1  0.579178  0.279828  0.107004  1
  Mo  Mo11  1  0.079178  0.220172  0.107004  1
  Mo  Mo12  1  0.079178  0.720172  0.392996  1
  Mo  Mo13  1  0.920822  0.779828  0.892996  1
  Mo  Mo14  1  0.579178  0.779828  0.392996  1
  Mo  Mo15  1  0.420822  0.720172  0.892996  1
  I  I16  1  0.076925  0.994826  0.723724  1
  I  I17  1  0.423075  0.994826  0.223724  1
  I  I18  1  0.576925  0.505174  0.723724  1
  I  I19  1  0.423075  0.494826  0.276276  1
  I  I20  1  0.576925  0.005174  0.776276  1
  I  I21  1  0.923075  0.005174  0.276276  1
  I  I22  1  0.923075  0.505174  0.223724  1
  I  I23  1  0.076925  0.494826  0.776276  1
  O  O24  1  0.372737  0.441783  0.675129  1
  O  O25  1  0.627263  0.558217  0.324871  1
  O  O26  1  0.858560  0.683534  0.173766  1
  O  O27  1  0.943194  0.881143  0.787434  1
  O  O28  1  0.013233  0.524262  0.422108  1
  O  O29  1  0.127263  0.441783  0.175129  1
  O  O30  1  0.169749  0.686113  0.874092  1
  O  O31  1  0.513233  0.475738  0.077892  1
  O  O32  1  0.858560  0.183534  0.326234  1
  O  O33  1  0.443194  0.118857  0.712566  1
  O  O34  1  0.986767  0.975738  0.922108  1
  O  O35  1  0.358560  0.816466  0.173766  1
  O  O36  1  0.669749  0.813887  0.874092  1
  O  O37  1  0.892767  0.165215  0.531811  1
  O  O38  1  0.443194  0.618857  0.787434  1
  O  O39  1  0.556806  0.381143  0.212566  1
  O  O40  1  0.141440  0.316466  0.826234  1
  O  O41  1  0.392767  0.834785  0.968189  1
  O  O42  1  0.486767  0.024262  0.577892  1
  O  O43  1  0.892767  0.665215  0.968189  1
  O  O44  1  0.607233  0.665215  0.468189  1
  O  O45  1  0.141440  0.816466  0.673766  1
  O  O46  1  0.330251  0.186113  0.125908  1
  O  O47  1  0.392767  0.334785  0.531811  1
  O  O48  1  0.556806  0.881143  0.287434  1
  O  O49  1  0.056806  0.618857  0.287434  1
  O  O50  1  0.641440  0.183534  0.826234  1
  O  O51  1  0.358560  0.316466  0.326234  1
  O  O52  1  0.486767  0.524262  0.922108  1
  O  O53  1  0.669749  0.313887  0.625908  1
  O  O54  1  0.013233  0.024262  0.077892  1
  O  O55  1  0.372737  0.941783  0.824871  1
  O  O56  1  0.872737  0.558217  0.824871  1
  O  O57  1  0.641440  0.683534  0.673766  1
  O  O58  1  0.513233  0.975738  0.422108  1
  O  O59  1  0.830251  0.813887  0.374092  1
  O  O60  1  0.107233  0.834785  0.468189  1
  O  O61  1  0.607233  0.165215  0.031811  1
  O  O62  1  0.330251  0.686113  0.374092  1
  O  O63  1  0.056806  0.118857  0.212566  1
  O  O64  1  0.107233  0.334785  0.031811  1
  O  O65  1  0.127263  0.941783  0.324871  1
  O  O66  1  0.830251  0.313887  0.125908  1
  O  O67  1  0.627263  0.058217  0.175129  1
  O  O68  1  0.943194  0.381143  0.712566  1
  O  O69  1  0.986767  0.475738  0.577892  1
  O  O70  1  0.169749  0.186113  0.625908  1
  O  O71  1  0.872737  0.058217  0.675129  1
