# generated using pymatgen
data_GaHg2SbCl4
_symmetry_space_group_name_H-M   'P 1'
_cell_length_a   8.98096150
_cell_length_b   12.50565666
_cell_length_c   18.03982028
_cell_angle_alpha   90.00000000
_cell_angle_beta   90.00000000
_cell_angle_gamma   90.00000000
_symmetry_Int_Tables_number   1
_chemical_formula_structural   GaHg2SbCl4
_chemical_formula_sum   'Ga8 Hg16 Sb8 Cl32'
_cell_volume   2026.10310590
_cell_formula_units_Z   8
loop_
 _symmetry_equiv_pos_site_id
 _symmetry_equiv_pos_as_xyz
  1  'x, y, z'
loop_
 _atom_site_type_symbol
 _atom_site_label
 _atom_site_symmetry_multiplicity
 _atom_site_fract_x
 _atom_site_fract_y
 _atom_site_fract_z
 _atom_site_occupancy
  Ga  Ga0  1  0.331639  0.989580  0.622579  1
  Ga  Ga1  1  0.337752  0.210002  0.865542  1
  Ga  Ga2  1  0.168361  0.989580  0.122579  1
  Ga  Ga3  1  0.662248  0.710002  0.134458  1
  Ga  Ga4  1  0.831639  0.489580  0.877421  1
  Ga  Ga5  1  0.668361  0.489580  0.377421  1
  Ga  Ga6  1  0.837752  0.710002  0.634458  1
  Ga  Ga7  1  0.162248  0.210002  0.365542  1
  Hg  Hg8  1  0.918388  0.833230  0.375705  1
  Hg  Hg9  1  0.581612  0.833230  0.875705  1
  Hg  Hg10  1  0.755099  0.101050  0.492492  1
  Hg  Hg11  1  0.703350  0.096495  0.243358  1
  Hg  Hg12  1  0.203350  0.596495  0.256642  1
  Hg  Hg13  1  0.255099  0.601050  0.007508  1
  Hg  Hg14  1  0.419270  0.863101  0.378835  1
  Hg  Hg15  1  0.796650  0.096495  0.743358  1
  Hg  Hg16  1  0.080730  0.863101  0.878835  1
  Hg  Hg17  1  0.919270  0.363101  0.121165  1
  Hg  Hg18  1  0.081612  0.333230  0.624295  1
  Hg  Hg19  1  0.418388  0.333230  0.124295  1
  Hg  Hg20  1  0.580730  0.363101  0.621165  1
  Hg  Hg21  1  0.744901  0.101050  0.992492  1
  Hg  Hg22  1  0.296650  0.596495  0.756642  1
  Hg  Hg23  1  0.244901  0.601050  0.507508  1
  Sb  Sb24  1  0.184671  0.475537  0.129070  1
  Sb  Sb25  1  0.816701  0.221774  0.617787  1
  Sb  Sb26  1  0.316701  0.721774  0.882213  1
  Sb  Sb27  1  0.684671  0.975537  0.370930  1
  Sb  Sb28  1  0.183299  0.721774  0.382213  1
  Sb  Sb29  1  0.315329  0.475537  0.629070  1
  Sb  Sb30  1  0.815329  0.975537  0.870930  1
  Sb  Sb31  1  0.683299  0.221774  0.117787  1
  Cl  Cl32  1  0.925422  0.630883  0.935676  1
  Cl  Cl33  1  0.639399  0.693205  0.704327  1
  Cl  Cl34  1  0.092324  0.015558  0.634118  1
  Cl  Cl35  1  0.592324  0.515558  0.865882  1
  Cl  Cl36  1  0.622624  0.344526  0.443961  1
  Cl  Cl37  1  0.056710  0.970844  0.230253  1
  Cl  Cl38  1  0.139399  0.193205  0.795673  1
  Cl  Cl39  1  0.615543  0.560984  0.072701  1
  Cl  Cl40  1  0.877376  0.344526  0.943961  1
  Cl  Cl41  1  0.306727  0.340666  0.946496  1
  Cl  Cl42  1  0.556710  0.470844  0.269747  1
  Cl  Cl43  1  0.468378  0.749744  0.205308  1
  Cl  Cl44  1  0.031622  0.749744  0.705308  1
  Cl  Cl45  1  0.407676  0.015558  0.134118  1
  Cl  Cl46  1  0.193273  0.340666  0.446496  1
  Cl  Cl47  1  0.860601  0.693205  0.204327  1
  Cl  Cl48  1  0.425422  0.130883  0.564324  1
  Cl  Cl49  1  0.907676  0.515558  0.365882  1
  Cl  Cl50  1  0.531622  0.249744  0.794692  1
  Cl  Cl51  1  0.806727  0.840666  0.553504  1
  Cl  Cl52  1  0.115543  0.060984  0.427299  1
  Cl  Cl53  1  0.122624  0.844526  0.056039  1
  Cl  Cl54  1  0.884457  0.560984  0.572701  1
  Cl  Cl55  1  0.968378  0.249744  0.294692  1
  Cl  Cl56  1  0.943290  0.470844  0.769747  1
  Cl  Cl57  1  0.074578  0.130883  0.064324  1
  Cl  Cl58  1  0.384457  0.060984  0.927299  1
  Cl  Cl59  1  0.360601  0.193205  0.295673  1
  Cl  Cl60  1  0.574578  0.630883  0.435676  1
  Cl  Cl61  1  0.377376  0.844526  0.556039  1
  Cl  Cl62  1  0.693273  0.840666  0.053504  1
  Cl  Cl63  1  0.443290  0.970844  0.730253  1
