# generated using pymatgen
data_SiO2
_symmetry_space_group_name_H-M   'P 1'
_cell_length_a   15.78795916
_cell_length_b   15.78795916
_cell_length_c   15.78795916
_cell_angle_alpha   148.45885732
_cell_angle_beta   104.63612645
_cell_angle_gamma   83.97604688
_symmetry_Int_Tables_number   1
_chemical_formula_structural   SiO2
_chemical_formula_sum   'Si32 O64'
_cell_volume   1943.83178152
_cell_formula_units_Z   32
loop_
 _symmetry_equiv_pos_site_id
 _symmetry_equiv_pos_as_xyz
  1  'x, y, z'
loop_
 _atom_site_type_symbol
 _atom_site_label
 _atom_site_symmetry_multiplicity
 _atom_site_fract_x
 _atom_site_fract_y
 _atom_site_fract_z
 _atom_site_occupancy
  Si  Si0  1  0.872369  0.657548  0.082021  1
  Si  Si1  1  0.127631  0.709652  0.285179  1
  Si  Si2  1  0.116440  0.050668  0.934229  1
  Si  Si3  1  0.746237  0.179769  0.433532  1
  Si  Si4  1  0.883560  0.317789  0.434229  1
  Si  Si5  1  0.921274  0.127385  0.919708  1
  Si  Si6  1  0.792323  0.498434  0.419708  1
  Si  Si7  1  0.921274  0.501566  0.293889  1
  Si  Si8  1  0.883560  0.949332  0.065771  1
  Si  Si9  1  0.575527  0.657548  0.785179  1
  Si  Si10  1  0.609092  0.898961  0.842520  1
  Si  Si11  1  0.872369  0.290348  0.714821  1
  Si  Si12  1  0.943559  0.101039  0.710131  1
  Si  Si13  1  0.056441  0.266572  0.657480  1
  Si  Si14  1  0.424473  0.709652  0.582021  1
  Si  Si15  1  0.792323  0.872615  0.793889  1
  Si  Si16  1  0.078726  0.498434  0.706111  1
  Si  Si17  1  0.424473  0.342452  0.214821  1
  Si  Si18  1  0.078726  0.872615  0.080292  1
  Si  Si19  1  0.207677  0.127385  0.206111  1
  Si  Si20  1  0.943559  0.733428  0.342520  1
  Si  Si21  1  0.253763  0.187295  0.933532  1
  Si  Si22  1  0.253763  0.820231  0.566468  1
  Si  Si23  1  0.207677  0.501566  0.580292  1
  Si  Si24  1  0.609092  0.266572  0.210131  1
  Si  Si25  1  0.575527  0.290348  0.417979  1
  Si  Si26  1  0.390908  0.733428  0.789869  1
  Si  Si27  1  0.116440  0.682211  0.565771  1
  Si  Si28  1  0.127631  0.342452  0.917979  1
  Si  Si29  1  0.056441  0.898961  0.289869  1
  Si  Si30  1  0.746237  0.812705  0.066468  1
  Si  Si31  1  0.390908  0.101039  0.157480  1
  O  O32  1  0.615766  0.072674  0.043092  1
  O  O33  1  0.157583  0.572372  0.550271  1
  O  O34  1  0.185049  0.141052  0.956003  1
  O  O35  1  0.127382  0.287916  0.772104  1
  O  O36  1  0.515812  0.287916  0.160534  1
  O  O37  1  0.150768  1.000000  0.150768  1
  O  O38  1  0.965210  0.753077  0.141072  1
  O  O39  1  0.977899  0.892687  0.050271  1
  O  O40  1  0.022101  0.107313  0.949729  1
  O  O41  1  0.270029  0.020029  0.750000  1
  O  O42  1  0.849232  1.000000  0.849232  1
  O  O43  1  0.101659  0.914543  0.221201  1
  O  O44  1  0.650918  0.234488  0.447795  1
  O  O45  1  0.977899  0.427628  0.585212  1
  O  O46  1  0.157583  0.107313  0.085212  1
  O  O47  1  0.213307  0.296877  0.947795  1
  O  O48  1  0.384234  0.927326  0.956908  1
  O  O49  1  0.872618  0.712084  0.227896  1
  O  O50  1  0.349082  0.296877  0.083570  1
  O  O51  1  0.213307  0.765512  0.416430  1
  O  O52  1  0.842417  0.892687  0.914788  1
  O  O53  1  0.552932  0.459016  0.593916  1
  O  O54  1  0.101659  0.380458  0.687115  1
  O  O55  1  0.484188  0.712084  0.839466  1
  O  O56  1  0.814951  0.858948  0.043997  1
  O  O57  1  0.447068  0.540984  0.406084  1
  O  O58  1  0.865100  0.459016  0.906084  1
  O  O59  1  0.786693  0.703123  0.052205  1
  O  O60  1  0.086703  0.684354  0.902349  1
  O  O61  1  0.872618  0.144722  0.660534  1
  O  O62  1  0.127382  0.855278  0.339466  1
  O  O63  1  0.612005  0.324138  0.358928  1
  O  O64  1  0.693342  0.380458  0.278799  1
  O  O65  1  0.849232  0.500000  0.349232  1
  O  O66  1  0.612005  0.753077  0.787867  1
  O  O67  1  0.217995  0.315646  0.402349  1
  O  O68  1  0.034790  0.246923  0.858928  1
  O  O69  1  0.913297  0.315646  0.097651  1
  O  O70  1  0.387995  0.246923  0.212133  1
  O  O71  1  0.484188  0.144722  0.272104  1
  O  O72  1  0.515812  0.855278  0.727896  1
  O  O73  1  0.034790  0.675862  0.287867  1
  O  O74  1  0.782005  0.684354  0.597651  1
  O  O75  1  0.099872  0.849872  0.750000  1
  O  O76  1  0.387995  0.675862  0.641072  1
  O  O77  1  0.185049  0.729047  0.543997  1
  O  O78  1  0.814951  0.270953  0.456003  1
  O  O79  1  0.898341  0.619542  0.312885  1
  O  O80  1  0.306658  0.619542  0.721201  1
  O  O81  1  0.900128  0.150128  0.250000  1
  O  O82  1  0.306658  0.085457  0.187115  1
  O  O83  1  0.029582  0.072674  0.456908  1
  O  O84  1  0.022101  0.572372  0.414788  1
  O  O85  1  0.786693  0.234488  0.583570  1
  O  O86  1  0.150768  0.500000  0.650768  1
  O  O87  1  0.349082  0.765512  0.552205  1
  O  O88  1  0.650918  0.703123  0.916430  1
  O  O89  1  0.693342  0.914543  0.812885  1
  O  O90  1  0.842417  0.427628  0.449729  1
  O  O91  1  0.965210  0.324138  0.712133  1
  O  O92  1  0.134900  0.540984  0.093916  1
  O  O93  1  0.898341  0.085457  0.778799  1
  O  O94  1  0.729971  0.979971  0.250000  1
  O  O95  1  0.970418  0.927326  0.543092  1
