# generated using pymatgen
data_KBi(PSe3)2
_symmetry_space_group_name_H-M   'P 1'
_cell_length_a   12.64685263
_cell_length_b   7.74437113
_cell_length_c   12.80255984
_cell_angle_alpha   90.00000000
_cell_angle_beta   111.34080617
_cell_angle_gamma   90.00000000
_symmetry_Int_Tables_number   1
_chemical_formula_structural   KBi(PSe3)2
_chemical_formula_sum   'K4 Bi4 P8 Se24'
_cell_volume   1167.92973640
_cell_formula_units_Z   4
loop_
 _symmetry_equiv_pos_site_id
 _symmetry_equiv_pos_as_xyz
  1  'x, y, z'
loop_
 _atom_site_type_symbol
 _atom_site_label
 _atom_site_symmetry_multiplicity
 _atom_site_fract_x
 _atom_site_fract_y
 _atom_site_fract_z
 _atom_site_occupancy
  K  K0  1  0.091951  0.582925  0.362720  1
  K  K1  1  0.908049  0.417075  0.637280  1
  K  K2  1  0.091951  0.917075  0.862720  1
  K  K3  1  0.908049  0.082925  0.137280  1
  Bi  Bi4  1  0.618513  0.654732  0.831419  1
  Bi  Bi5  1  0.381487  0.154732  0.668581  1
  Bi  Bi6  1  0.381487  0.345268  0.168581  1
  Bi  Bi7  1  0.618513  0.845268  0.331419  1
  P  P8  1  0.262265  0.094321  0.315511  1
  P  P9  1  0.264452  0.626467  0.697514  1
  P  P10  1  0.264452  0.873533  0.197514  1
  P  P11  1  0.735548  0.126467  0.802486  1
  P  P12  1  0.262265  0.405679  0.815511  1
  P  P13  1  0.737735  0.594321  0.184489  1
  P  P14  1  0.735548  0.373533  0.302486  1
  P  P15  1  0.737735  0.905679  0.684489  1
  Se  Se16  1  0.336730  0.504085  0.578563  1
  Se  Se17  1  0.905335  0.231818  0.881317  1
  Se  Se18  1  0.835398  0.701365  0.802747  1
  Se  Se19  1  0.612635  0.315235  0.690480  1
  Se  Se20  1  0.663270  0.495915  0.421437  1
  Se  Se21  1  0.612635  0.184765  0.190480  1
  Se  Se22  1  0.164602  0.201365  0.697253  1
  Se  Se23  1  0.835398  0.798635  0.302747  1
  Se  Se24  1  0.094665  0.731818  0.618683  1
  Se  Se25  1  0.194324  0.495581  0.939624  1
  Se  Se26  1  0.905335  0.268182  0.381317  1
  Se  Se27  1  0.558024  0.811527  0.615544  1
  Se  Se28  1  0.387365  0.815235  0.809520  1
  Se  Se29  1  0.805676  0.504419  0.060376  1
  Se  Se30  1  0.164602  0.298635  0.197253  1
  Se  Se31  1  0.441976  0.311527  0.884456  1
  Se  Se32  1  0.441976  0.188473  0.384456  1
  Se  Se33  1  0.387365  0.684765  0.309520  1
  Se  Se34  1  0.336730  0.995915  0.078563  1
  Se  Se35  1  0.663270  0.004085  0.921437  1
  Se  Se36  1  0.805676  0.995581  0.560376  1
  Se  Se37  1  0.558024  0.688473  0.115544  1
  Se  Se38  1  0.194324  0.004419  0.439624  1
  Se  Se39  1  0.094665  0.768182  0.118683  1
