# generated using pymatgen
data_Na4Zr2(GeO4)3
_symmetry_space_group_name_H-M   'P 1'
_cell_length_a   9.38760154
_cell_length_b   9.38760154
_cell_length_c   9.38760154
_cell_angle_alpha   61.54124896
_cell_angle_beta   61.54124896
_cell_angle_gamma   61.54124896
_symmetry_Int_Tables_number   1
_chemical_formula_structural   Na4Zr2(GeO4)3
_chemical_formula_sum   'Na8 Zr4 Ge6 O24'
_cell_volume   605.22379157
_cell_formula_units_Z   2
loop_
 _symmetry_equiv_pos_site_id
 _symmetry_equiv_pos_as_xyz
  1  'x, y, z'
loop_
 _atom_site_type_symbol
 _atom_site_label
 _atom_site_symmetry_multiplicity
 _atom_site_fract_x
 _atom_site_fract_y
 _atom_site_fract_z
 _atom_site_occupancy
  Na  Na0  1  0.124527  0.368604  0.750172  1
  Na  Na1  1  0.875473  0.631396  0.249828  1
  Na  Na2  1  0.631396  0.249828  0.875473  1
  Na  Na3  1  0.750172  0.124527  0.368604  1
  Na  Na4  1  0.000000  0.000000  0.000000  1
  Na  Na5  1  0.249828  0.875473  0.631396  1
  Na  Na6  1  0.368604  0.750172  0.124527  1
  Na  Na7  1  0.500000  0.500000  0.500000  1
  Zr  Zr8  1  0.855756  0.855756  0.855756  1
  Zr  Zr9  1  0.644455  0.644455  0.644455  1
  Zr  Zr10  1  0.144244  0.144244  0.144244  1
  Zr  Zr11  1  0.355545  0.355545  0.355545  1
  Ge  Ge12  1  0.750356  0.455381  0.045098  1
  Ge  Ge13  1  0.544619  0.954902  0.249644  1
  Ge  Ge14  1  0.455381  0.045098  0.750356  1
  Ge  Ge15  1  0.249644  0.544619  0.954902  1
  Ge  Ge16  1  0.954902  0.249644  0.544619  1
  Ge  Ge17  1  0.045098  0.750356  0.455381  1
  O  O18  1  0.801389  0.630617  0.008690  1
  O  O19  1  0.008690  0.801389  0.630617  1
  O  O20  1  0.369383  0.991310  0.198611  1
  O  O21  1  0.574097  0.444444  0.235956  1
  O  O22  1  0.067575  0.918015  0.257798  1
  O  O23  1  0.555556  0.764044  0.425903  1
  O  O24  1  0.918015  0.257798  0.067575  1
  O  O25  1  0.135262  0.291285  0.511302  1
  O  O26  1  0.764044  0.425903  0.555556  1
  O  O27  1  0.488698  0.864738  0.708715  1
  O  O28  1  0.932425  0.081985  0.742202  1
  O  O29  1  0.742202  0.932425  0.081985  1
  O  O30  1  0.864738  0.708715  0.488698  1
  O  O31  1  0.991310  0.198611  0.369383  1
  O  O32  1  0.291285  0.511302  0.135262  1
  O  O33  1  0.257798  0.067575  0.918015  1
  O  O34  1  0.081985  0.742202  0.932425  1
  O  O35  1  0.198611  0.369383  0.991310  1
  O  O36  1  0.630617  0.008690  0.801389  1
  O  O37  1  0.708716  0.488698  0.864738  1
  O  O38  1  0.444444  0.235956  0.574097  1
  O  O39  1  0.235956  0.574097  0.444444  1
  O  O40  1  0.511302  0.135262  0.291285  1
  O  O41  1  0.425903  0.555556  0.764044  1
