# generated using pymatgen
data_Na3LiBe2F8
_symmetry_space_group_name_H-M   'P 1'
_cell_length_a   6.59964190
_cell_length_b   9.84780253
_cell_length_c   10.05712902
_cell_angle_alpha   90.00000000
_cell_angle_beta   93.76230610
_cell_angle_gamma   90.00000000
_symmetry_Int_Tables_number   1
_chemical_formula_structural   Na3LiBe2F8
_chemical_formula_sum   'Na12 Li4 Be8 F32'
_cell_volume   652.22395560
_cell_formula_units_Z   4
loop_
 _symmetry_equiv_pos_site_id
 _symmetry_equiv_pos_as_xyz
  1  'x, y, z'
loop_
 _atom_site_type_symbol
 _atom_site_label
 _atom_site_symmetry_multiplicity
 _atom_site_fract_x
 _atom_site_fract_y
 _atom_site_fract_z
 _atom_site_occupancy
  Na  Na0  1  0.355260  0.216960  0.632797  1
  Na  Na1  1  0.166775  0.922997  0.392153  1
  Na  Na2  1  0.644740  0.716960  0.867203  1
  Na  Na3  1  0.833225  0.422997  0.107847  1
  Na  Na4  1  0.643948  0.389934  0.420822  1
  Na  Na5  1  0.356052  0.610066  0.579178  1
  Na  Na6  1  0.644740  0.783040  0.367203  1
  Na  Na7  1  0.355260  0.283040  0.132797  1
  Na  Na8  1  0.166775  0.577003  0.892153  1
  Na  Na9  1  0.643948  0.110066  0.920822  1
  Na  Na10  1  0.833225  0.077003  0.607847  1
  Na  Na11  1  0.356052  0.889934  0.079178  1
  Li  Li12  1  0.952207  0.123956  0.199150  1
  Li  Li13  1  0.952207  0.376044  0.699150  1
  Li  Li14  1  0.047793  0.876044  0.800850  1
  Li  Li15  1  0.047793  0.623956  0.300850  1
  Be  Be16  1  0.377150  0.582096  0.161841  1
  Be  Be17  1  0.377150  0.917904  0.661841  1
  Be  Be18  1  0.896832  0.837520  0.088977  1
  Be  Be19  1  0.622850  0.082096  0.338159  1
  Be  Be20  1  0.103168  0.162480  0.911023  1
  Be  Be21  1  0.622850  0.417904  0.838159  1
  Be  Be22  1  0.103168  0.337520  0.411023  1
  Be  Be23  1  0.896832  0.662480  0.588977  1
  F  F24  1  0.146559  0.222295  0.309556  1
  F  F25  1  0.675664  0.183637  0.223256  1
  F  F26  1  0.695663  0.903851  0.029419  1
  F  F27  1  0.695663  0.596149  0.529419  1
  F  F28  1  0.041991  0.944345  0.161633  1
  F  F29  1  0.990366  0.279222  0.533015  1
  F  F30  1  0.460730  0.522105  0.785000  1
  F  F31  1  0.460730  0.977895  0.285000  1
  F  F32  1  0.304337  0.096149  0.970581  1
  F  F33  1  0.990366  0.220778  0.033015  1
  F  F34  1  0.324336  0.683637  0.276744  1
  F  F35  1  0.009634  0.779222  0.966985  1
  F  F36  1  0.675664  0.316363  0.723256  1
  F  F37  1  0.041991  0.555655  0.661633  1
  F  F38  1  0.176933  0.501571  0.116750  1
  F  F39  1  0.176933  0.998429  0.616750  1
  F  F40  1  0.438533  0.664927  0.039700  1
  F  F41  1  0.324336  0.816363  0.776744  1
  F  F42  1  0.561467  0.164927  0.460300  1
  F  F43  1  0.958009  0.444345  0.338367  1
  F  F44  1  0.438533  0.835073  0.539700  1
  F  F45  1  0.539270  0.477895  0.215000  1
  F  F46  1  0.823067  0.001571  0.383250  1
  F  F47  1  0.823067  0.498429  0.883250  1
  F  F48  1  0.561467  0.335073  0.960300  1
  F  F49  1  0.146559  0.277705  0.809556  1
  F  F50  1  0.539270  0.022105  0.715000  1
  F  F51  1  0.304337  0.403851  0.470581  1
  F  F52  1  0.853441  0.777705  0.690444  1
  F  F53  1  0.853441  0.722295  0.190444  1
  F  F54  1  0.009634  0.720778  0.466985  1
  F  F55  1  0.958009  0.055655  0.838367  1
