# generated using pymatgen
data_SiO2
_symmetry_space_group_name_H-M   'P 1'
_cell_length_a   13.60433149
_cell_length_b   13.60433149
_cell_length_c   13.60433149
_cell_angle_alpha   60.00000000
_cell_angle_beta   60.00000000
_cell_angle_gamma   60.00000000
_symmetry_Int_Tables_number   1
_chemical_formula_structural   SiO2
_chemical_formula_sum   'Si24 O48'
_cell_volume   1780.39603679
_cell_formula_units_Z   24
loop_
 _symmetry_equiv_pos_site_id
 _symmetry_equiv_pos_as_xyz
  1  'x, y, z'
loop_
 _atom_site_type_symbol
 _atom_site_label
 _atom_site_symmetry_multiplicity
 _atom_site_fract_x
 _atom_site_fract_y
 _atom_site_fract_z
 _atom_site_occupancy
  Si  Si0  1  0.419035  0.199541  0.962389  1
  Si  Si1  1  0.037611  0.580965  0.800459  1
  Si  Si2  1  0.962389  0.419035  0.419035  1
  Si  Si3  1  0.962389  0.419035  0.199541  1
  Si  Si4  1  0.419035  0.199541  0.419035  1
  Si  Si5  1  0.580965  0.037611  0.800459  1
  Si  Si6  1  0.580965  0.037611  0.580965  1
  Si  Si7  1  0.037611  0.800459  0.580965  1
  Si  Si8  1  0.419035  0.962389  0.419035  1
  Si  Si9  1  0.580965  0.800459  0.037611  1
  Si  Si10  1  0.419035  0.419035  0.962389  1
  Si  Si11  1  0.800459  0.037611  0.580965  1
  Si  Si12  1  0.419035  0.962389  0.199541  1
  Si  Si13  1  0.199541  0.962389  0.419035  1
  Si  Si14  1  0.580965  0.800459  0.580965  1
  Si  Si15  1  0.580965  0.580965  0.037611  1
  Si  Si16  1  0.037611  0.580965  0.580965  1
  Si  Si17  1  0.800459  0.580965  0.037611  1
  Si  Si18  1  0.419035  0.419035  0.199541  1
  Si  Si19  1  0.580965  0.580965  0.800459  1
  Si  Si20  1  0.800459  0.580965  0.580965  1
  Si  Si21  1  0.199541  0.419035  0.419035  1
  Si  Si22  1  0.962389  0.199541  0.419035  1
  Si  Si23  1  0.199541  0.419035  0.962389  1
  O  O24  1  0.913069  0.913069  0.586931  1
  O  O25  1  0.477753  0.956526  0.282860  1
  O  O26  1  0.500000  0.500000  0.848478  1
  O  O27  1  0.500000  0.151522  0.848478  1
  O  O28  1  0.477753  0.282860  0.282860  1
  O  O29  1  0.500000  0.848478  0.151522  1
  O  O30  1  0.717140  0.043474  0.717140  1
  O  O31  1  0.282860  0.956526  0.282860  1
  O  O32  1  0.522247  0.043474  0.717140  1
  O  O33  1  0.848478  0.500000  0.500000  1
  O  O34  1  0.848478  0.151522  0.500000  1
  O  O35  1  0.043474  0.717140  0.522247  1
  O  O36  1  0.586931  0.586931  0.913069  1
  O  O37  1  0.717140  0.717140  0.522247  1
  O  O38  1  0.913069  0.586931  0.913069  1
  O  O39  1  0.086931  0.413069  0.413069  1
  O  O40  1  0.586931  0.913069  0.913069  1
  O  O41  1  0.151522  0.500000  0.500000  1
  O  O42  1  0.500000  0.151522  0.500000  1
  O  O43  1  0.086931  0.086931  0.413069  1
  O  O44  1  0.500000  0.500000  0.151522  1
  O  O45  1  0.282860  0.956526  0.477753  1
  O  O46  1  0.717140  0.522247  0.717140  1
  O  O47  1  0.500000  0.848478  0.500000  1
  O  O48  1  0.282860  0.282860  0.956526  1
  O  O49  1  0.913069  0.586931  0.586931  1
  O  O50  1  0.586931  0.913069  0.586931  1
  O  O51  1  0.956526  0.282860  0.282860  1
  O  O52  1  0.717140  0.043474  0.522247  1
  O  O53  1  0.151522  0.848478  0.500000  1
  O  O54  1  0.413069  0.413069  0.086931  1
  O  O55  1  0.522247  0.717140  0.717140  1
  O  O56  1  0.151522  0.500000  0.848478  1
  O  O57  1  0.956526  0.282860  0.477753  1
  O  O58  1  0.043474  0.522247  0.717140  1
  O  O59  1  0.717140  0.522247  0.043474  1
  O  O60  1  0.086931  0.413069  0.086931  1
  O  O61  1  0.043474  0.717140  0.717140  1
  O  O62  1  0.413069  0.086931  0.086931  1
  O  O63  1  0.848478  0.500000  0.151522  1
  O  O64  1  0.956526  0.477753  0.282860  1
  O  O65  1  0.282860  0.477753  0.282860  1
  O  O66  1  0.477753  0.282860  0.956526  1
  O  O67  1  0.522247  0.717140  0.043474  1
  O  O68  1  0.717140  0.717140  0.043474  1
  O  O69  1  0.413069  0.086931  0.413069  1
  O  O70  1  0.282860  0.282860  0.477753  1
  O  O71  1  0.282860  0.477753  0.956526  1
