# generated using pymatgen
data_ZnS
_symmetry_space_group_name_H-M   'P 1'
_cell_length_a   3.85227812
_cell_length_b   3.85227812
_cell_length_c   50.39897303
_cell_angle_alpha   90.00000000
_cell_angle_beta   90.00000000
_cell_angle_gamma   120.00000000
_symmetry_Int_Tables_number   1
_chemical_formula_structural   ZnS
_chemical_formula_sum   'Zn16 S16'
_cell_volume   647.72041754
_cell_formula_units_Z   16
loop_
 _symmetry_equiv_pos_site_id
 _symmetry_equiv_pos_as_xyz
  1  'x, y, z'
loop_
 _atom_site_type_symbol
 _atom_site_label
 _atom_site_symmetry_multiplicity
 _atom_site_fract_x
 _atom_site_fract_y
 _atom_site_fract_z
 _atom_site_occupancy
  Zn  Zn0  1  0.333333  0.666667  0.625009  1
  Zn  Zn1  1  0.666667  0.333333  0.125015  1
  Zn  Zn2  1  0.000000  0.000000  0.437512  1
  Zn  Zn3  1  0.333333  0.666667  0.062523  1
  Zn  Zn4  1  0.666667  0.333333  0.500009  1
  Zn  Zn5  1  0.333333  0.666667  0.250007  1
  Zn  Zn6  1  0.666667  0.333333  0.312505  1
  Zn  Zn7  1  0.000000  0.000000  0.812508  1
  Zn  Zn8  1  0.666667  0.333333  0.687513  1
  Zn  Zn9  1  0.000000  0.000000  0.187517  1
  Zn  Zn10  1  0.333333  0.666667  0.375028  1
  Zn  Zn11  1  0.333333  0.666667  0.937513  1
  Zn  Zn12  1  0.000000  0.000000  0.562523  1
  Zn  Zn13  1  0.666667  0.333333  0.875013  1
  Zn  Zn14  1  0.333333  0.666667  0.750027  1
  Zn  Zn15  1  0.000000  0.000000  0.000009  1
  S  S16  1  0.000000  0.000000  0.234348  1
  S  S17  1  0.333333  0.666667  0.296815  1
  S  S18  1  0.666667  0.333333  0.359397  1
  S  S19  1  0.666667  0.333333  0.546896  1
  S  S20  1  0.333333  0.666667  0.109355  1
  S  S21  1  0.666667  0.333333  0.734390  1
  S  S22  1  0.333333  0.666667  0.984321  1
  S  S23  1  0.666667  0.333333  0.921855  1
  S  S24  1  0.000000  0.000000  0.859359  1
  S  S25  1  0.333333  0.666667  0.671822  1
  S  S26  1  0.000000  0.000000  0.484319  1
  S  S27  1  0.333333  0.666667  0.796850  1
  S  S28  1  0.000000  0.000000  0.609354  1
  S  S29  1  0.000000  0.000000  0.046895  1
  S  S30  1  0.666667  0.333333  0.171859  1
  S  S31  1  0.333333  0.666667  0.421854  1
