# generated using pymatgen
data_BaLiBS3
_symmetry_space_group_name_H-M   'P 1'
_cell_length_a   7.66384290
_cell_length_b   8.77522422
_cell_length_c   8.79226140
_cell_angle_alpha   90.00000000
_cell_angle_beta   116.35982852
_cell_angle_gamma   90.00000000
_symmetry_Int_Tables_number   1
_chemical_formula_structural   BaLiBS3
_chemical_formula_sum   'Ba4 Li4 B4 S12'
_cell_volume   529.81555311
_cell_formula_units_Z   4
loop_
 _symmetry_equiv_pos_site_id
 _symmetry_equiv_pos_as_xyz
  1  'x, y, z'
loop_
 _atom_site_type_symbol
 _atom_site_label
 _atom_site_symmetry_multiplicity
 _atom_site_fract_x
 _atom_site_fract_y
 _atom_site_fract_z
 _atom_site_occupancy
  Ba  Ba0  1  0.686340  0.131467  0.311688  1
  Ba  Ba1  1  0.686340  0.368533  0.811688  1
  Ba  Ba2  1  0.313660  0.868533  0.688312  1
  Ba  Ba3  1  0.313660  0.631467  0.188312  1
  Li  Li4  1  0.111859  0.074031  0.204580  1
  Li  Li5  1  0.888141  0.574031  0.295420  1
  Li  Li6  1  0.111859  0.425969  0.704580  1
  Li  Li7  1  0.888141  0.925969  0.795420  1
  B  B8  1  0.771000  0.840970  0.079630  1
  B  B9  1  0.771000  0.659030  0.579630  1
  B  B10  1  0.229000  0.340970  0.420370  1
  B  B11  1  0.229000  0.159030  0.920370  1
  S  S12  1  0.382774  0.172478  0.490781  1
  S  S13  1  0.985051  0.843393  0.287811  1
  S  S14  1  0.014949  0.156607  0.712189  1
  S  S15  1  0.617226  0.827522  0.509219  1
  S  S16  1  0.014949  0.343393  0.212189  1
  S  S17  1  0.285656  0.984799  0.046127  1
  S  S18  1  0.714344  0.015201  0.953873  1
  S  S19  1  0.285656  0.515201  0.546127  1
  S  S20  1  0.382774  0.327522  0.990781  1
  S  S21  1  0.714344  0.484799  0.453873  1
  S  S22  1  0.617226  0.672478  0.009219  1
  S  S23  1  0.985051  0.656607  0.787811  1
