# generated using pymatgen
data_Ba3Zn6Si4TeO20
_symmetry_space_group_name_H-M   'P 1'
_cell_length_a   9.97815503
_cell_length_b   9.97815503
_cell_length_c   5.20855845
_cell_angle_alpha   76.01574031
_cell_angle_beta   103.98425969
_cell_angle_gamma   108.37077401
_symmetry_Int_Tables_number   1
_chemical_formula_structural   Ba3Zn6Si4TeO20
_chemical_formula_sum   'Ba3 Zn6 Si4 Te1 O20'
_cell_volume   469.79300940
_cell_formula_units_Z   1
loop_
 _symmetry_equiv_pos_site_id
 _symmetry_equiv_pos_as_xyz
  1  'x, y, z'
loop_
 _atom_site_type_symbol
 _atom_site_label
 _atom_site_symmetry_multiplicity
 _atom_site_fract_x
 _atom_site_fract_y
 _atom_site_fract_z
 _atom_site_occupancy
  Ba  Ba0  1  0.212982  0.787018  0.747496  1
  Ba  Ba1  1  0.787018  0.212982  0.252504  1
  Ba  Ba2  1  0.500000  0.500000  0.000000  1
  Zn  Zn3  1  0.156133  0.156133  0.500000  1
  Zn  Zn4  1  0.843867  0.843867  0.500000  1
  Zn  Zn5  1  0.076720  0.364201  0.827632  1
  Zn  Zn6  1  0.364201  0.076720  0.172368  1
  Zn  Zn7  1  0.923280  0.635799  0.172368  1
  Zn  Zn8  1  0.635799  0.923280  0.827632  1
  Si  Si9  1  0.219398  0.519414  0.341675  1
  Si  Si10  1  0.519414  0.219398  0.658325  1
  Si  Si11  1  0.780602  0.480586  0.658325  1
  Si  Si12  1  0.480586  0.780602  0.341675  1
  Te  Te13  1  0.000000  0.000000  0.000000  1
  O  O14  1  0.115938  0.616819  0.341374  1
  O  O15  1  0.616819  0.115938  0.658626  1
  O  O16  1  0.884062  0.383181  0.658626  1
  O  O17  1  0.383181  0.884062  0.341374  1
  O  O18  1  0.184950  0.365545  0.550674  1
  O  O19  1  0.365545  0.184950  0.449326  1
  O  O20  1  0.815050  0.634455  0.449326  1
  O  O21  1  0.634455  0.815050  0.550674  1
  O  O22  1  0.222752  0.505445  0.036130  1
  O  O23  1  0.505445  0.222752  0.963870  1
  O  O24  1  0.777248  0.494555  0.963870  1
  O  O25  1  0.494555  0.777248  0.036130  1
  O  O26  1  0.070070  0.929930  0.366955  1
  O  O27  1  0.929930  0.070070  0.633045  1
  O  O28  1  0.047032  0.189011  0.107081  1
  O  O29  1  0.189011  0.047032  0.892919  1
  O  O30  1  0.952968  0.810989  0.892919  1
  O  O31  1  0.810989  0.952968  0.107081  1
  O  O32  1  0.389955  0.610045  0.463607  1
  O  O33  1  0.610045  0.389955  0.536393  1
