# generated using pymatgen
data_KCa4(BO3)3
_symmetry_space_group_name_H-M   'P 1'
_cell_length_a   6.68953236
_cell_length_b   6.68953236
_cell_length_c   10.72920808
_cell_angle_alpha   90.00000000
_cell_angle_beta   90.00000000
_cell_angle_gamma   121.19454122
_symmetry_Int_Tables_number   1
_chemical_formula_structural   KCa4(BO3)3
_chemical_formula_sum   'K2 Ca8 B6 O18'
_cell_volume   410.71006125
_cell_formula_units_Z   2
loop_
 _symmetry_equiv_pos_site_id
 _symmetry_equiv_pos_as_xyz
  1  'x, y, z'
loop_
 _atom_site_type_symbol
 _atom_site_label
 _atom_site_symmetry_multiplicity
 _atom_site_fract_x
 _atom_site_fract_y
 _atom_site_fract_z
 _atom_site_occupancy
  K  K0  1  0.106011  0.266609  0.750000  1
  K  K1  1  0.266609  0.106011  0.250000  1
  Ca  Ca2  1  0.718949  0.718949  0.000000  1
  Ca  Ca3  1  0.865578  0.291899  0.470487  1
  Ca  Ca4  1  0.295833  0.600730  0.250000  1
  Ca  Ca5  1  0.291899  0.865578  0.529513  1
  Ca  Ca6  1  0.291899  0.865578  0.970487  1
  Ca  Ca7  1  0.600730  0.295833  0.750000  1
  Ca  Ca8  1  0.718949  0.718949  0.500000  1
  Ca  Ca9  1  0.865578  0.291899  0.029513  1
  B  B10  1  0.044408  0.694682  0.750000  1
  B  B11  1  0.622057  0.865950  0.750000  1
  B  B12  1  0.291219  0.291219  0.000000  1
  B  B13  1  0.291219  0.291219  0.500000  1
  B  B14  1  0.694682  0.044408  0.250000  1
  B  B15  1  0.865950  0.622057  0.250000  1
  O  O16  1  0.989732  0.656628  0.362228  1
  O  O17  1  0.638987  0.569686  0.250000  1
  O  O18  1  0.497207  0.296146  0.528280  1
  O  O19  1  0.081337  0.081337  0.000000  1
  O  O20  1  0.497207  0.296146  0.971720  1
  O  O21  1  0.571364  0.956939  0.361790  1
  O  O22  1  0.296146  0.497207  0.028280  1
  O  O23  1  0.924939  0.222509  0.250000  1
  O  O24  1  0.956939  0.571364  0.638210  1
  O  O25  1  0.571364  0.956939  0.138210  1
  O  O26  1  0.656628  0.989732  0.637772  1
  O  O27  1  0.656628  0.989732  0.862228  1
  O  O28  1  0.956939  0.571364  0.861790  1
  O  O29  1  0.569686  0.638987  0.750000  1
  O  O30  1  0.296146  0.497207  0.471720  1
  O  O31  1  0.081337  0.081337  0.500000  1
  O  O32  1  0.989732  0.656628  0.137772  1
  O  O33  1  0.222509  0.924939  0.750000  1
