# generated using pymatgen
data_TlIn5S6
_symmetry_space_group_name_H-M   'P 1'
_cell_length_a   8.94111633
_cell_length_b   3.98442037
_cell_length_c   17.87615516
_cell_angle_alpha   90.00000000
_cell_angle_beta   94.94900698
_cell_angle_gamma   90.00000000
_symmetry_Int_Tables_number   1
_chemical_formula_structural   TlIn5S6
_chemical_formula_sum   'Tl2 In10 S12'
_cell_volume   634.46677115
_cell_formula_units_Z   2
loop_
 _symmetry_equiv_pos_site_id
 _symmetry_equiv_pos_as_xyz
  1  'x, y, z'
loop_
 _atom_site_type_symbol
 _atom_site_label
 _atom_site_symmetry_multiplicity
 _atom_site_fract_x
 _atom_site_fract_y
 _atom_site_fract_z
 _atom_site_occupancy
  Tl  Tl0  1  0.375248  0.750000  0.784481  1
  Tl  Tl1  1  0.624752  0.250000  0.215519  1
  In  In2  1  0.657509  0.750000  0.455614  1
  In  In3  1  0.342491  0.250000  0.544386  1
  In  In4  1  0.765917  0.750000  0.685316  1
  In  In5  1  0.234083  0.250000  0.314684  1
  In  In6  1  0.034502  0.750000  0.616650  1
  In  In7  1  0.965498  0.250000  0.383350  1
  In  In8  1  0.113522  0.750000  0.114142  1
  In  In9  1  0.886478  0.250000  0.885858  1
  In  In10  1  0.304610  0.750000  0.995516  1
  In  In11  1  0.695390  0.250000  0.004484  1
  S  S12  1  0.797673  0.750000  0.332406  1
  S  S13  1  0.202327  0.250000  0.667594  1
  S  S14  1  0.163153  0.750000  0.495036  1
  S  S15  1  0.836847  0.250000  0.504964  1
  S  S16  1  0.305914  0.750000  0.234892  1
  S  S17  1  0.694086  0.250000  0.765108  1
  S  S18  1  0.594719  0.750000  0.074039  1
  S  S19  1  0.405281  0.250000  0.925961  1
  S  S20  1  0.533595  0.750000  0.586373  1
  S  S21  1  0.466405  0.250000  0.413627  1
  S  S22  1  0.052042  0.750000  0.868178  1
  S  S23  1  0.947958  0.250000  0.131822  1
