# generated using pymatgen
data_LiBeH8CNOF4
_symmetry_space_group_name_H-M   'P 1'
_cell_length_a   10.13216969
_cell_length_b   4.92041148
_cell_length_c   12.67915490
_cell_angle_alpha   90.00000000
_cell_angle_beta   100.51209638
_cell_angle_gamma   90.00000000
_symmetry_Int_Tables_number   1
_chemical_formula_structural   LiBeH8CNOF4
_chemical_formula_sum   'Li4 Be4 H32 C4 N4 O4 F16'
_cell_volume   621.50310738
_cell_formula_units_Z   4
loop_
 _symmetry_equiv_pos_site_id
 _symmetry_equiv_pos_as_xyz
  1  'x, y, z'
loop_
 _atom_site_type_symbol
 _atom_site_label
 _atom_site_symmetry_multiplicity
 _atom_site_fract_x
 _atom_site_fract_y
 _atom_site_fract_z
 _atom_site_occupancy
  Li  Li0  1  0.853098  0.315140  0.504140  1
  Li  Li1  1  0.146902  0.684860  0.495860  1
  Li  Li2  1  0.646902  0.815140  0.495860  1
  Li  Li3  1  0.353098  0.184860  0.504140  1
  Be  Be4  1  0.126919  0.192631  0.631862  1
  Be  Be5  1  0.373081  0.692631  0.368138  1
  Be  Be6  1  0.873081  0.807369  0.368138  1
  Be  Be7  1  0.626919  0.307369  0.631862  1
  H  H8  1  0.923820  0.756246  0.900125  1
  H  H9  1  0.051767  0.935590  0.848415  1
  H  H10  1  0.076180  0.243754  0.099875  1
  H  H11  1  0.168334  0.385252  0.282614  1
  H  H12  1  0.043761  0.572264  0.840287  1
  H  H13  1  0.838841  0.956016  0.723789  1
  H  H14  1  0.954703  0.778260  0.671162  1
  H  H15  1  0.249485  0.900241  0.013662  1
  H  H16  1  0.956239  0.427736  0.159713  1
  H  H17  1  0.331666  0.885252  0.717386  1
  H  H18  1  0.661159  0.456016  0.276211  1
  H  H19  1  0.545297  0.278260  0.328838  1
  H  H20  1  0.257578  0.736659  0.123234  1
  H  H21  1  0.576180  0.256246  0.099875  1
  H  H22  1  0.338841  0.543984  0.723789  1
  H  H23  1  0.551767  0.564410  0.848415  1
  H  H24  1  0.742422  0.263341  0.876766  1
  H  H25  1  0.543761  0.927736  0.840287  1
  H  H26  1  0.668334  0.114748  0.282614  1
  H  H27  1  0.749485  0.599759  0.013662  1
  H  H28  1  0.423820  0.743754  0.900125  1
  H  H29  1  0.448233  0.435590  0.151585  1
  H  H30  1  0.242422  0.236659  0.876766  1
  H  H31  1  0.161159  0.043984  0.276211  1
  H  H32  1  0.045297  0.221740  0.328838  1
  H  H33  1  0.454703  0.721740  0.671162  1
  H  H34  1  0.948233  0.064410  0.151585  1
  H  H35  1  0.250515  0.400241  0.986338  1
  H  H36  1  0.757578  0.763341  0.123234  1
  H  H37  1  0.750515  0.099759  0.986338  1
  H  H38  1  0.831666  0.614748  0.717386  1
  H  H39  1  0.456239  0.072264  0.159713  1
  C  C40  1  0.984961  0.759324  0.837381  1
  C  C41  1  0.015039  0.240676  0.162619  1
  C  C42  1  0.484961  0.740676  0.837381  1
  C  C43  1  0.515039  0.259324  0.162619  1
  N  N44  1  0.396156  0.721265  0.730234  1
  N  N45  1  0.603844  0.278735  0.269766  1
  N  N46  1  0.896156  0.778735  0.730234  1
  N  N47  1  0.103844  0.221265  0.269766  1
  O  O48  1  0.250222  0.714730  0.045173  1
  O  O49  1  0.749778  0.285270  0.954827  1
  O  O50  1  0.750222  0.785270  0.045173  1
  O  O51  1  0.249778  0.214730  0.954827  1
  F  F52  1  0.015482  0.693822  0.370453  1
  F  F53  1  0.769974  0.743351  0.262129  1
  F  F54  1  0.230026  0.256649  0.737871  1
  F  F55  1  0.813002  0.683211  0.464663  1
  F  F56  1  0.269974  0.756649  0.262129  1
  F  F57  1  0.617941  0.624506  0.618318  1
  F  F58  1  0.686998  0.183211  0.535337  1
  F  F59  1  0.117941  0.875494  0.618318  1
  F  F60  1  0.984518  0.306178  0.629547  1
  F  F61  1  0.382059  0.375494  0.381682  1
  F  F62  1  0.882059  0.124506  0.381682  1
  F  F63  1  0.730026  0.243351  0.737871  1
  F  F64  1  0.186998  0.316789  0.535337  1
  F  F65  1  0.515482  0.806178  0.370453  1
  F  F66  1  0.313002  0.816789  0.464663  1
  F  F67  1  0.484518  0.193822  0.629547  1
