# generated using pymatgen
data_RbNaSi2O5
_symmetry_space_group_name_H-M   'P 1'
_cell_length_a   4.94374600
_cell_length_b   13.78082135
_cell_length_c   7.91320173
_cell_angle_alpha   90.00000000
_cell_angle_beta   90.99906590
_cell_angle_gamma   90.00000000
_symmetry_Int_Tables_number   1
_chemical_formula_structural   RbNaSi2O5
_chemical_formula_sum   'Rb4 Na4 Si8 O20'
_cell_volume   539.03561749
_cell_formula_units_Z   4
loop_
 _symmetry_equiv_pos_site_id
 _symmetry_equiv_pos_as_xyz
  1  'x, y, z'
loop_
 _atom_site_type_symbol
 _atom_site_label
 _atom_site_symmetry_multiplicity
 _atom_site_fract_x
 _atom_site_fract_y
 _atom_site_fract_z
 _atom_site_occupancy
  Rb  Rb0  1  0.279939  0.802884  0.215565  1
  Rb  Rb1  1  0.279939  0.697116  0.715565  1
  Rb  Rb2  1  0.720061  0.302884  0.284435  1
  Rb  Rb3  1  0.720061  0.197116  0.784435  1
  Na  Na4  1  0.229800  0.092263  0.038979  1
  Na  Na5  1  0.229800  0.407737  0.538979  1
  Na  Na6  1  0.770200  0.907737  0.961021  1
  Na  Na7  1  0.770200  0.592263  0.461021  1
  Si  Si8  1  0.297244  0.545381  0.210302  1
  Si  Si9  1  0.792347  0.630671  0.020677  1
  Si  Si10  1  0.207653  0.130671  0.479323  1
  Si  Si11  1  0.702756  0.045381  0.289698  1
  Si  Si12  1  0.207653  0.369329  0.979323  1
  Si  Si13  1  0.702756  0.454619  0.789698  1
  Si  Si14  1  0.297244  0.954619  0.710302  1
  Si  Si15  1  0.792347  0.869329  0.520677  1
  O  O16  1  0.617566  0.927908  0.667163  1
  O  O17  1  0.758411  0.065239  0.095171  1
  O  O18  1  0.617566  0.572092  0.167163  1
  O  O19  1  0.884999  0.111366  0.425068  1
  O  O20  1  0.241589  0.565239  0.404829  1
  O  O21  1  0.382434  0.072092  0.332837  1
  O  O22  1  0.745581  0.571477  0.837365  1
  O  O23  1  0.745581  0.928523  0.337365  1
  O  O24  1  0.728243  0.742543  0.000229  1
  O  O25  1  0.115001  0.888634  0.574932  1
  O  O26  1  0.254419  0.071477  0.662635  1
  O  O27  1  0.382434  0.427908  0.832837  1
  O  O28  1  0.254419  0.428523  0.162635  1
  O  O29  1  0.115001  0.611366  0.074932  1
  O  O30  1  0.271757  0.257457  0.999771  1
  O  O31  1  0.758411  0.434761  0.595171  1
  O  O32  1  0.728243  0.757457  0.500229  1
  O  O33  1  0.241589  0.934761  0.904829  1
  O  O34  1  0.884999  0.388634  0.925068  1
  O  O35  1  0.271757  0.242543  0.499771  1
