# generated using pymatgen
data_Nd4Ga2S5O4
_symmetry_space_group_name_H-M   'P 1'
_cell_length_a   5.82966213
_cell_length_b   18.59544958
_cell_length_c   22.90048376
_cell_angle_alpha   90.00000000
_cell_angle_beta   90.00000000
_cell_angle_gamma   90.00000000
_symmetry_Int_Tables_number   1
_chemical_formula_structural   Nd4Ga2S5O4
_chemical_formula_sum   'Nd32 Ga16 S40 O32'
_cell_volume   2482.53125203
_cell_formula_units_Z   8
loop_
 _symmetry_equiv_pos_site_id
 _symmetry_equiv_pos_as_xyz
  1  'x, y, z'
loop_
 _atom_site_type_symbol
 _atom_site_label
 _atom_site_symmetry_multiplicity
 _atom_site_fract_x
 _atom_site_fract_y
 _atom_site_fract_z
 _atom_site_occupancy
  Nd  Nd0  1  0.483725  0.447879  0.929831  1
  Nd  Nd1  1  0.516275  0.552121  0.070169  1
  Nd  Nd2  1  0.974837  0.463596  0.810710  1
  Nd  Nd3  1  0.530861  0.411671  0.183804  1
  Nd  Nd4  1  0.025163  0.963596  0.689290  1
  Nd  Nd5  1  0.985968  0.927927  0.447603  1
  Nd  Nd6  1  0.985968  0.572073  0.947603  1
  Nd  Nd7  1  0.483725  0.052121  0.429831  1
  Nd  Nd8  1  0.474837  0.463596  0.689290  1
  Nd  Nd9  1  0.469139  0.911671  0.316196  1
  Nd  Nd10  1  0.514032  0.427927  0.447603  1
  Nd  Nd11  1  0.016275  0.552121  0.429831  1
  Nd  Nd12  1  0.983725  0.447879  0.570169  1
  Nd  Nd13  1  0.514032  0.072073  0.947603  1
  Nd  Nd14  1  0.969139  0.588329  0.683804  1
  Nd  Nd15  1  0.516275  0.947879  0.570169  1
  Nd  Nd16  1  0.025163  0.536404  0.189290  1
  Nd  Nd17  1  0.030861  0.088329  0.816196  1
  Nd  Nd18  1  0.030861  0.411671  0.316196  1
  Nd  Nd19  1  0.525163  0.963596  0.810710  1
  Nd  Nd20  1  0.474837  0.036404  0.189290  1
  Nd  Nd21  1  0.525163  0.536404  0.310710  1
  Nd  Nd22  1  0.530861  0.088329  0.683804  1
  Nd  Nd23  1  0.014032  0.072073  0.552397  1
  Nd  Nd24  1  0.016275  0.947879  0.929831  1
  Nd  Nd25  1  0.485968  0.927927  0.052397  1
  Nd  Nd26  1  0.014032  0.427927  0.052397  1
  Nd  Nd27  1  0.485968  0.572073  0.552397  1
  Nd  Nd28  1  0.974837  0.036404  0.310710  1
  Nd  Nd29  1  0.469139  0.588329  0.816196  1
  Nd  Nd30  1  0.969139  0.911671  0.183804  1
  Nd  Nd31  1  0.983725  0.052121  0.070169  1
  Ga  Ga32  1  0.530196  0.731183  0.200881  1
  Ga  Ga33  1  0.969804  0.268817  0.700881  1
  Ga  Ga34  1  0.030196  0.731183  0.299119  1
  Ga  Ga35  1  0.030196  0.768817  0.799119  1
  Ga  Ga36  1  0.364112  0.767611  0.946039  1
  Ga  Ga37  1  0.469804  0.268817  0.799119  1
  Ga  Ga38  1  0.864112  0.767611  0.553961  1
  Ga  Ga39  1  0.135888  0.267611  0.946039  1
  Ga  Ga40  1  0.635888  0.232389  0.053961  1
  Ga  Ga41  1  0.364112  0.732389  0.446039  1
  Ga  Ga42  1  0.635888  0.267611  0.553961  1
  Ga  Ga43  1  0.530196  0.768817  0.700881  1
  Ga  Ga44  1  0.969804  0.231183  0.200881  1
  Ga  Ga45  1  0.469804  0.231183  0.299119  1
  Ga  Ga46  1  0.135888  0.232389  0.446039  1
  Ga  Ga47  1  0.864112  0.732389  0.053961  1
  S  S48  1  0.044238  0.888915  0.807853  1
  S  S49  1  0.455762  0.388915  0.807853  1
  S  S50  1  0.396289  0.181971  0.513173  1
  S  S51  1  0.896289  0.318029  0.486827  1
  S  S52  1  0.527418  0.626979  0.423469  1
  S  S53  1  0.972582  0.373021  0.923469  1
  S  S54  1  0.837357  0.270013  0.289626  1
  S  S55  1  0.162478  0.701134  0.878269  1
  S  S56  1  0.603711  0.681971  0.986827  1
  S  S57  1  0.837357  0.229987  0.789626  1
  S  S58  1  0.837522  0.298866  0.121731  1
  S  S59  1  0.337522  0.201134  0.878269  1
  S  S60  1  0.472582  0.373021  0.576531  1
  S  S61  1  0.337357  0.229987  0.710374  1
  S  S62  1  0.527418  0.873021  0.923469  1
  S  S63  1  0.162643  0.729987  0.710374  1
  S  S64  1  0.455762  0.111085  0.307853  1
  S  S65  1  0.044238  0.611085  0.307853  1
  S  S66  1  0.027418  0.873021  0.576531  1
  S  S67  1  0.162478  0.798866  0.378269  1
  S  S68  1  0.103711  0.818029  0.013173  1
  S  S69  1  0.544238  0.888915  0.692147  1
  S  S70  1  0.337522  0.298866  0.378269  1
  S  S71  1  0.955762  0.111085  0.192147  1
  S  S72  1  0.662643  0.770013  0.289626  1
  S  S73  1  0.896289  0.181971  0.986827  1
  S  S74  1  0.603711  0.818029  0.486827  1
  S  S75  1  0.162643  0.770013  0.210374  1
  S  S76  1  0.662478  0.701134  0.621731  1
  S  S77  1  0.544238  0.611085  0.192147  1
  S  S78  1  0.337357  0.270013  0.210374  1
  S  S79  1  0.472582  0.126979  0.076531  1
  S  S80  1  0.837522  0.201134  0.621731  1
  S  S81  1  0.955762  0.388915  0.692147  1
  S  S82  1  0.662478  0.798866  0.121731  1
  S  S83  1  0.027418  0.626979  0.076531  1
  S  S84  1  0.662643  0.729987  0.789626  1
  S  S85  1  0.972582  0.126979  0.423469  1
  S  S86  1  0.396289  0.318029  0.013173  1
  S  S87  1  0.103711  0.681971  0.513173  1
  O  O88  1  0.726905  0.523503  0.623355  1
  O  O89  1  0.728332  0.528203  0.876314  1
  O  O90  1  0.221068  0.965579  0.250648  1
  O  O91  1  0.778932  0.034421  0.749352  1
  O  O92  1  0.773095  0.023503  0.623355  1
  O  O93  1  0.756358  0.503854  0.499956  1
  O  O94  1  0.271668  0.471797  0.123686  1
  O  O95  1  0.726905  0.976497  0.123355  1
  O  O96  1  0.743642  0.003854  0.499956  1
  O  O97  1  0.743642  0.496146  0.999956  1
  O  O98  1  0.273095  0.023503  0.876645  1
  O  O99  1  0.228332  0.971797  0.123686  1
  O  O100  1  0.243642  0.496146  0.500044  1
  O  O101  1  0.721068  0.534421  0.749352  1
  O  O102  1  0.226905  0.976497  0.376645  1
  O  O103  1  0.773095  0.476497  0.123355  1
  O  O104  1  0.256358  0.503854  0.000044  1
  O  O105  1  0.756358  0.996146  0.999956  1
  O  O106  1  0.271668  0.028203  0.623686  1
  O  O107  1  0.256358  0.996146  0.500044  1
  O  O108  1  0.778932  0.465579  0.249352  1
  O  O109  1  0.771668  0.028203  0.876314  1
  O  O110  1  0.228332  0.528203  0.623686  1
  O  O111  1  0.721068  0.965579  0.249352  1
  O  O112  1  0.273095  0.476497  0.376645  1
  O  O113  1  0.728332  0.971797  0.376314  1
  O  O114  1  0.278932  0.034421  0.750648  1
  O  O115  1  0.221068  0.534421  0.750648  1
  O  O116  1  0.278932  0.465579  0.250648  1
  O  O117  1  0.226905  0.523503  0.876645  1
  O  O118  1  0.243642  0.003854  0.000044  1
  O  O119  1  0.771668  0.471797  0.376314  1
