# generated using pymatgen
data_Zn3(BO3)2
_symmetry_space_group_name_H-M   'P 1'
_cell_length_a   12.54097291
_cell_length_b   12.54097291
_cell_length_c   8.48316326
_cell_angle_alpha   76.82810429
_cell_angle_beta   103.17189571
_cell_angle_gamma   156.60086447
_symmetry_Int_Tables_number   1
_chemical_formula_structural   Zn3(BO3)2
_chemical_formula_sum   'Zn12 B8 O24'
_cell_volume   515.30914507
_cell_formula_units_Z   4
loop_
 _symmetry_equiv_pos_site_id
 _symmetry_equiv_pos_as_xyz
  1  'x, y, z'
loop_
 _atom_site_type_symbol
 _atom_site_label
 _atom_site_symmetry_multiplicity
 _atom_site_fract_x
 _atom_site_fract_y
 _atom_site_fract_z
 _atom_site_occupancy
  Zn  Zn0  1  0.444460  0.190075  0.379885  1
  Zn  Zn1  1  0.190075  0.444460  0.120115  1
  Zn  Zn2  1  0.555540  0.809925  0.620115  1
  Zn  Zn3  1  0.809925  0.555540  0.879885  1
  Zn  Zn4  1  0.873868  0.775921  0.174907  1
  Zn  Zn5  1  0.775921  0.873868  0.325093  1
  Zn  Zn6  1  0.126132  0.224079  0.825093  1
  Zn  Zn7  1  0.224079  0.126132  0.674907  1
  Zn  Zn8  1  0.518511  0.099309  0.712212  1
  Zn  Zn9  1  0.099309  0.518511  0.787788  1
  Zn  Zn10  1  0.481489  0.900691  0.287788  1
  Zn  Zn11  1  0.900691  0.481489  0.212212  1
  B  B12  1  0.610820  0.741424  0.962724  1
  B  B13  1  0.741424  0.610820  0.537276  1
  B  B14  1  0.389180  0.258576  0.037276  1
  B  B15  1  0.258576  0.389180  0.462724  1
  B  B16  1  0.002280  0.627495  0.520178  1
  B  B17  1  0.627495  0.002280  0.979822  1
  B  B18  1  0.997720  0.372505  0.479822  1
  B  B19  1  0.372505  0.997720  0.020178  1
  O  O20  1  0.763573  0.835660  0.100946  1
  O  O21  1  0.835660  0.763573  0.399054  1
  O  O22  1  0.236427  0.164340  0.899054  1
  O  O23  1  0.164340  0.236427  0.600946  1
  O  O24  1  0.494483  0.332419  0.539843  1
  O  O25  1  0.332419  0.494483  0.960157  1
  O  O26  1  0.505517  0.667581  0.460157  1
  O  O27  1  0.667581  0.505517  0.039843  1
  O  O28  1  0.261536  0.100808  0.180037  1
  O  O29  1  0.100808  0.261536  0.319963  1
  O  O30  1  0.738464  0.899192  0.819963  1
  O  O31  1  0.899192  0.738464  0.680037  1
  O  O32  1  0.838504  0.511030  0.379784  1
  O  O33  1  0.511030  0.838504  0.120216  1
  O  O34  1  0.161496  0.488970  0.620216  1
  O  O35  1  0.488970  0.161496  0.879784  1
  O  O36  1  0.471122  0.902276  0.839944  1
  O  O37  1  0.902276  0.471122  0.660056  1
  O  O38  1  0.528878  0.097724  0.160056  1
  O  O39  1  0.097724  0.528878  0.339944  1
  O  O40  1  0.270518  0.903009  0.520441  1
  O  O41  1  0.903009  0.270518  0.979559  1
  O  O42  1  0.729482  0.096991  0.479559  1
  O  O43  1  0.096991  0.729482  0.020441  1
