# generated using pymatgen
data_Sn4SI6
_symmetry_space_group_name_H-M   'P 1'
_cell_length_a   7.66384572
_cell_length_b   7.66384572
_cell_length_c   25.76732819
_cell_angle_alpha   86.30191482
_cell_angle_beta   93.69808518
_cell_angle_gamma   146.17514502
_symmetry_Int_Tables_number   1
_chemical_formula_structural   Sn4SI6
_chemical_formula_sum   'Sn8 S2 I12'
_cell_volume   840.54448147
_cell_formula_units_Z   2
loop_
 _symmetry_equiv_pos_site_id
 _symmetry_equiv_pos_as_xyz
  1  'x, y, z'
loop_
 _atom_site_type_symbol
 _atom_site_label
 _atom_site_symmetry_multiplicity
 _atom_site_fract_x
 _atom_site_fract_y
 _atom_site_fract_z
 _atom_site_occupancy
  Sn  Sn0  1  0.704678  0.295322  0.143570  1
  Sn  Sn1  1  0.295322  0.704678  0.856430  1
  Sn  Sn2  1  0.778572  0.221428  0.583130  1
  Sn  Sn3  1  0.221428  0.778572  0.416870  1
  Sn  Sn4  1  0.632864  0.367136  0.983279  1
  Sn  Sn5  1  0.367136  0.632864  0.016721  1
  Sn  Sn6  1  0.464463  0.535537  0.283664  1
  Sn  Sn7  1  0.535537  0.464463  0.716336  1
  S  S8  1  0.224003  0.775997  0.948567  1
  S  S9  1  0.775997  0.224003  0.051433  1
  I  I10  1  0.071013  0.928987  0.080875  1
  I  I11  1  0.928987  0.071013  0.919125  1
  I  I12  1  0.853886  0.146114  0.474658  1
  I  I13  1  0.146114  0.853886  0.525342  1
  I  I14  1  0.823463  0.176537  0.318362  1
  I  I15  1  0.176537  0.823463  0.681638  1
  I  I16  1  0.565564  0.434436  0.397618  1
  I  I17  1  0.434436  0.565564  0.602382  1
  I  I18  1  0.098923  0.901077  0.247619  1
  I  I19  1  0.901077  0.098923  0.752381  1
  I  I20  1  0.357314  0.642686  0.165819  1
  I  I21  1  0.642686  0.357314  0.834181  1
