# generated using pymatgen
data_SrTiGeO5
_symmetry_space_group_name_H-M   'P 1'
_cell_length_a   6.89623324
_cell_length_b   9.16685980
_cell_length_c   7.34878247
_cell_angle_alpha   90.00000000
_cell_angle_beta   113.96444928
_cell_angle_gamma   90.00000000
_symmetry_Int_Tables_number   1
_chemical_formula_structural   SrTiGeO5
_chemical_formula_sum   'Sr4 Ti4 Ge4 O20'
_cell_volume   424.51980996
_cell_formula_units_Z   4
loop_
 _symmetry_equiv_pos_site_id
 _symmetry_equiv_pos_as_xyz
  1  'x, y, z'
loop_
 _atom_site_type_symbol
 _atom_site_label
 _atom_site_symmetry_multiplicity
 _atom_site_fract_x
 _atom_site_fract_y
 _atom_site_fract_z
 _atom_site_occupancy
  Sr  Sr0  1  0.250030  0.921630  0.242507  1
  Sr  Sr1  1  0.250030  0.578370  0.742507  1
  Sr  Sr2  1  0.749970  0.078370  0.757493  1
  Sr  Sr3  1  0.749970  0.421630  0.257493  1
  Ti  Ti4  1  0.253291  0.245871  0.485705  1
  Ti  Ti5  1  0.253291  0.254129  0.985705  1
  Ti  Ti6  1  0.746709  0.745871  0.014295  1
  Ti  Ti7  1  0.746709  0.754129  0.514295  1
  Ge  Ge8  1  0.247454  0.563581  0.246389  1
  Ge  Ge9  1  0.752546  0.436419  0.753611  1
  Ge  Ge10  1  0.752546  0.063581  0.253611  1
  Ge  Ge11  1  0.247454  0.936419  0.746389  1
  O  O12  1  0.440561  0.814710  0.911685  1
  O  O13  1  0.652521  0.542244  0.899235  1
  O  O14  1  0.559439  0.314710  0.588315  1
  O  O15  1  0.049987  0.683950  0.084327  1
  O  O16  1  0.950013  0.183950  0.415673  1
  O  O17  1  0.255094  0.308315  0.751970  1
  O  O18  1  0.744906  0.808315  0.748030  1
  O  O19  1  0.347479  0.042244  0.600765  1
  O  O20  1  0.652521  0.957756  0.399235  1
  O  O21  1  0.559439  0.185290  0.088315  1
  O  O22  1  0.255094  0.191685  0.251970  1
  O  O23  1  0.153553  0.454049  0.394108  1
  O  O24  1  0.049987  0.816050  0.584327  1
  O  O25  1  0.846447  0.954049  0.105892  1
  O  O26  1  0.347479  0.457756  0.100765  1
  O  O27  1  0.744906  0.691685  0.248030  1
  O  O28  1  0.153553  0.045951  0.894108  1
  O  O29  1  0.950013  0.316050  0.915673  1
  O  O30  1  0.846447  0.545951  0.605892  1
  O  O31  1  0.440561  0.685290  0.411685  1
