# generated using pymatgen
data_K2PrCl5
_symmetry_space_group_name_H-M   'P 1'
_cell_length_a   8.16227920
_cell_length_b   8.85108160
_cell_length_c   13.03368979
_cell_angle_alpha   90.00000000
_cell_angle_beta   90.00000000
_cell_angle_gamma   90.00000000
_symmetry_Int_Tables_number   1
_chemical_formula_structural   K2PrCl5
_chemical_formula_sum   'K8 Pr4 Cl20'
_cell_volume   941.61890899
_cell_formula_units_Z   4
loop_
 _symmetry_equiv_pos_site_id
 _symmetry_equiv_pos_as_xyz
  1  'x, y, z'
loop_
 _atom_site_type_symbol
 _atom_site_label
 _atom_site_symmetry_multiplicity
 _atom_site_fract_x
 _atom_site_fract_y
 _atom_site_fract_z
 _atom_site_occupancy
  K  K0  1  0.950542  0.495125  0.827973  1
  K  K1  1  0.950542  0.004875  0.827973  1
  K  K2  1  0.450542  0.504875  0.672027  1
  K  K3  1  0.450542  0.995125  0.672027  1
  K  K4  1  0.049458  0.504875  0.172027  1
  K  K5  1  0.549458  0.495125  0.327973  1
  K  K6  1  0.049458  0.995125  0.172027  1
  K  K7  1  0.549458  0.004875  0.327973  1
  Pr  Pr8  1  0.076220  0.250000  0.494513  1
  Pr  Pr9  1  0.923780  0.750000  0.505487  1
  Pr  Pr10  1  0.423780  0.250000  0.994513  1
  Pr  Pr11  1  0.576220  0.750000  0.005487  1
  Cl  Cl12  1  0.836609  0.042777  0.577671  1
  Cl  Cl13  1  0.663391  0.042777  0.077671  1
  Cl  Cl14  1  0.163391  0.542777  0.422329  1
  Cl  Cl15  1  0.578470  0.750000  0.507817  1
  Cl  Cl16  1  0.421530  0.250000  0.492183  1
  Cl  Cl17  1  0.163391  0.957223  0.422329  1
  Cl  Cl18  1  0.921530  0.750000  0.007817  1
  Cl  Cl19  1  0.336609  0.542777  0.922329  1
  Cl  Cl20  1  0.336609  0.957223  0.922329  1
  Cl  Cl21  1  0.836551  0.750000  0.296412  1
  Cl  Cl22  1  0.163449  0.250000  0.703588  1
  Cl  Cl23  1  0.836609  0.457223  0.577671  1
  Cl  Cl24  1  0.336551  0.250000  0.203588  1
  Cl  Cl25  1  0.873500  0.250000  0.320970  1
  Cl  Cl26  1  0.078470  0.250000  0.992183  1
  Cl  Cl27  1  0.663449  0.750000  0.796412  1
  Cl  Cl28  1  0.626500  0.250000  0.820970  1
  Cl  Cl29  1  0.663391  0.457223  0.077671  1
  Cl  Cl30  1  0.373500  0.750000  0.179030  1
  Cl  Cl31  1  0.126500  0.750000  0.679030  1
