# generated using pymatgen
data_Ba6Ru2Pt(ClO6)2
_symmetry_space_group_name_H-M   'P 1'
_cell_length_a   5.90743793
_cell_length_b   5.90743793
_cell_length_c   15.28070023
_cell_angle_alpha   90.00000000
_cell_angle_beta   90.00000000
_cell_angle_gamma   120.00000000
_symmetry_Int_Tables_number   1
_chemical_formula_structural   Ba6Ru2Pt(ClO6)2
_chemical_formula_sum   'Ba6 Ru2 Pt1 Cl2 O12'
_cell_volume   461.81945206
_cell_formula_units_Z   1
loop_
 _symmetry_equiv_pos_site_id
 _symmetry_equiv_pos_as_xyz
  1  'x, y, z'
loop_
 _atom_site_type_symbol
 _atom_site_label
 _atom_site_symmetry_multiplicity
 _atom_site_fract_x
 _atom_site_fract_y
 _atom_site_fract_z
 _atom_site_occupancy
  Ba  Ba0  1  0.666667  0.333333  0.214145  1
  Ba  Ba1  1  0.333333  0.666667  0.081044  1
  Ba  Ba2  1  0.666667  0.333333  0.634360  1
  Ba  Ba3  1  0.666667  0.333333  0.918956  1
  Ba  Ba4  1  0.333333  0.666667  0.365640  1
  Ba  Ba5  1  0.333333  0.666667  0.785855  1
  Ru  Ru6  1  0.000000  0.000000  0.817278  1
  Ru  Ru7  1  0.000000  0.000000  0.182722  1
  Pt  Pt8  1  0.000000  0.000000  0.000000  1
  Cl  Cl9  1  0.666667  0.333333  0.422247  1
  Cl  Cl10  1  0.333333  0.666667  0.577753  1
  O  O11  1  0.303211  0.151606  0.087102  1
  O  O12  1  0.696789  0.848394  0.912898  1
  O  O13  1  0.160877  0.839123  0.243992  1
  O  O14  1  0.678245  0.839123  0.243992  1
  O  O15  1  0.839123  0.678245  0.756008  1
  O  O16  1  0.321755  0.160877  0.756008  1
  O  O17  1  0.160877  0.321755  0.243992  1
  O  O18  1  0.848394  0.696789  0.087102  1
  O  O19  1  0.151606  0.303211  0.912898  1
  O  O20  1  0.839123  0.160877  0.756008  1
  O  O21  1  0.848394  0.151606  0.087102  1
  O  O22  1  0.151606  0.848394  0.912898  1
