# generated using pymatgen
data_RbNd(PO3)4
_symmetry_space_group_name_H-M   'P 1'
_cell_length_a   10.64689138
_cell_length_b   9.17061773
_cell_length_c   13.06285855
_cell_angle_alpha   90.00000000
_cell_angle_beta   125.04350641
_cell_angle_gamma   90.00000000
_symmetry_Int_Tables_number   1
_chemical_formula_structural   RbNd(PO3)4
_chemical_formula_sum   'Rb4 Nd4 P16 O48'
_cell_volume   1044.22253557
_cell_formula_units_Z   4
loop_
 _symmetry_equiv_pos_site_id
 _symmetry_equiv_pos_as_xyz
  1  'x, y, z'
loop_
 _atom_site_type_symbol
 _atom_site_label
 _atom_site_symmetry_multiplicity
 _atom_site_fract_x
 _atom_site_fract_y
 _atom_site_fract_z
 _atom_site_occupancy
  Rb  Rb0  1  0.759399  0.070848  0.958531  1
  Rb  Rb1  1  0.240601  0.570848  0.541469  1
  Rb  Rb2  1  0.240601  0.929152  0.041469  1
  Rb  Rb3  1  0.759399  0.429152  0.458531  1
  Nd  Nd4  1  0.684602  0.726738  0.184082  1
  Nd  Nd5  1  0.315398  0.226738  0.315918  1
  Nd  Nd6  1  0.315398  0.273262  0.815918  1
  Nd  Nd7  1  0.684602  0.773262  0.684082  1
  P  P8  1  0.026158  0.972547  0.275309  1
  P  P9  1  0.973842  0.472547  0.224691  1
  P  P10  1  0.973842  0.027453  0.724691  1
  P  P11  1  0.026158  0.527453  0.775309  1
  P  P12  1  0.679860  0.172829  0.640997  1
  P  P13  1  0.320140  0.672829  0.859003  1
  P  P14  1  0.320140  0.827171  0.359003  1
  P  P15  1  0.679860  0.327171  0.140997  1
  P  P16  1  0.615322  0.405665  0.760140  1
  P  P17  1  0.384678  0.905665  0.739860  1
  P  P18  1  0.384678  0.594335  0.239860  1
  P  P19  1  0.615322  0.094335  0.260140  1
  P  P20  1  0.801441  0.602999  0.978909  1
  P  P21  1  0.198559  0.102999  0.521091  1
  P  P22  1  0.198559  0.397001  0.021091  1
  P  P23  1  0.801441  0.897001  0.478909  1
  O  O24  1  0.724712  0.293049  0.748461  1
  O  O25  1  0.275288  0.793049  0.751539  1
  O  O26  1  0.275288  0.706951  0.251539  1
  O  O27  1  0.724712  0.206951  0.248461  1
  O  O28  1  0.932247  0.916999  0.785953  1
  O  O29  1  0.067753  0.416999  0.714047  1
  O  O30  1  0.067753  0.083001  0.214047  1
  O  O31  1  0.932247  0.583001  0.285953  1
  O  O32  1  0.486448  0.321615  0.747469  1
  O  O33  1  0.513552  0.821615  0.752531  1
  O  O34  1  0.513552  0.678385  0.252531  1
  O  O35  1  0.486448  0.178385  0.247469  1
  O  O36  1  0.637943  0.034783  0.676292  1
  O  O37  1  0.362057  0.534783  0.823708  1
  O  O38  1  0.362057  0.965217  0.323708  1
  O  O39  1  0.637943  0.465217  0.176292  1
  O  O40  1  0.423395  0.035132  0.823452  1
  O  O41  1  0.576605  0.535132  0.676548  1
  O  O42  1  0.576605  0.964868  0.176548  1
  O  O43  1  0.423395  0.464868  0.323452  1
  O  O44  1  0.869823  0.905221  0.195829  1
  O  O45  1  0.130177  0.405221  0.304171  1
  O  O46  1  0.130177  0.094779  0.804171  1
  O  O47  1  0.869823  0.594779  0.695829  1
  O  O48  1  0.699455  0.655290  0.015824  1
  O  O49  1  0.300545  0.155290  0.484176  1
  O  O50  1  0.300545  0.344710  0.984176  1
  O  O51  1  0.699455  0.844710  0.515824  1
  O  O52  1  0.846612  0.342534  0.164293  1
  O  O53  1  0.153388  0.842534  0.335707  1
  O  O54  1  0.153388  0.657466  0.835707  1
  O  O55  1  0.846612  0.157466  0.664293  1
  O  O56  1  0.737260  0.449283  0.904392  1
  O  O57  1  0.262740  0.949283  0.595608  1
  O  O58  1  0.262740  0.550717  0.095608  1
  O  O59  1  0.737260  0.050717  0.404392  1
  O  O60  1  0.424212  0.739897  0.985925  1
  O  O61  1  0.575788  0.239897  0.514075  1
  O  O62  1  0.575788  0.260103  0.014075  1
  O  O63  1  0.424212  0.760103  0.485925  1
  O  O64  1  0.837902  0.794128  0.409866  1
  O  O65  1  0.162098  0.294128  0.090134  1
  O  O66  1  0.162098  0.205872  0.590134  1
  O  O67  1  0.837902  0.705872  0.909866  1
  O  O68  1  0.041711  0.041277  0.396947  1
  O  O69  1  0.958289  0.541277  0.103053  1
  O  O70  1  0.958289  0.958723  0.603053  1
  O  O71  1  0.041711  0.458723  0.896947  1
