# generated using pymatgen
data_Sr3MgGeN4
_symmetry_space_group_name_H-M   'P 1'
_cell_length_a   5.99256934
_cell_length_b   9.69183070
_cell_length_c   10.41232946
_cell_angle_alpha   90.00000000
_cell_angle_beta   90.00000000
_cell_angle_gamma   90.00000000
_symmetry_Int_Tables_number   1
_chemical_formula_structural   Sr3MgGeN4
_chemical_formula_sum   'Sr12 Mg4 Ge4 N16'
_cell_volume   604.73734432
_cell_formula_units_Z   4
loop_
 _symmetry_equiv_pos_site_id
 _symmetry_equiv_pos_as_xyz
  1  'x, y, z'
loop_
 _atom_site_type_symbol
 _atom_site_label
 _atom_site_symmetry_multiplicity
 _atom_site_fract_x
 _atom_site_fract_y
 _atom_site_fract_z
 _atom_site_occupancy
  Sr  Sr0  1  0.750000  0.407278  0.000000  1
  Sr  Sr1  1  0.112578  0.909711  0.846852  1
  Sr  Sr2  1  0.387422  0.590289  0.346852  1
  Sr  Sr3  1  0.887422  0.090289  0.153148  1
  Sr  Sr4  1  0.887422  0.409711  0.346852  1
  Sr  Sr5  1  0.750000  0.092722  0.500000  1
  Sr  Sr6  1  0.387422  0.909711  0.153148  1
  Sr  Sr7  1  0.612578  0.409711  0.653148  1
  Sr  Sr8  1  0.250000  0.592722  0.000000  1
  Sr  Sr9  1  0.112578  0.590289  0.653148  1
  Sr  Sr10  1  0.612578  0.090289  0.846852  1
  Sr  Sr11  1  0.250000  0.907278  0.500000  1
  Mg  Mg12  1  0.156959  0.250000  0.750000  1
  Mg  Mg13  1  0.843041  0.750000  0.250000  1
  Mg  Mg14  1  0.343041  0.250000  0.250000  1
  Mg  Mg15  1  0.656959  0.750000  0.750000  1
  Ge  Ge16  1  0.750000  0.768412  0.500000  1
  Ge  Ge17  1  0.750000  0.731588  0.000000  1
  Ge  Ge18  1  0.250000  0.268412  0.000000  1
  Ge  Ge19  1  0.250000  0.231588  0.500000  1
  N  N20  1  0.985602  0.663583  0.416127  1
  N  N21  1  0.383271  0.372210  0.863551  1
  N  N22  1  0.883271  0.872210  0.636449  1
  N  N23  1  0.014398  0.163583  0.916127  1
  N  N24  1  0.485602  0.163583  0.083873  1
  N  N25  1  0.485602  0.336417  0.416127  1
  N  N26  1  0.985602  0.836417  0.083873  1
  N  N27  1  0.014398  0.336417  0.583873  1
  N  N28  1  0.883271  0.627790  0.863551  1
  N  N29  1  0.514398  0.663583  0.583873  1
  N  N30  1  0.616729  0.627790  0.136449  1
  N  N31  1  0.383271  0.127790  0.636449  1
  N  N32  1  0.616729  0.872210  0.363551  1
  N  N33  1  0.116729  0.372210  0.136449  1
  N  N34  1  0.116729  0.127790  0.363551  1
  N  N35  1  0.514398  0.836417  0.916127  1
