# generated using pymatgen
data_AsS
_symmetry_space_group_name_H-M   'P 1'
_cell_length_a   7.27688705
_cell_length_b   7.27688705
_cell_length_c   9.54793691
_cell_angle_alpha   80.92679192
_cell_angle_beta   99.07320808
_cell_angle_gamma   94.96914058
_symmetry_Int_Tables_number   1
_chemical_formula_structural   AsS
_chemical_formula_sum   'As8 S8'
_cell_volume   492.03003285
_cell_formula_units_Z   8
loop_
 _symmetry_equiv_pos_site_id
 _symmetry_equiv_pos_as_xyz
  1  'x, y, z'
loop_
 _atom_site_type_symbol
 _atom_site_label
 _atom_site_symmetry_multiplicity
 _atom_site_fract_x
 _atom_site_fract_y
 _atom_site_fract_z
 _atom_site_occupancy
  As  As0  1  0.791900  0.786075  0.434254  1
  As  As1  1  0.786075  0.791900  0.065746  1
  As  As2  1  0.208100  0.213925  0.565746  1
  As  As3  1  0.213925  0.208100  0.934254  1
  As  As4  1  0.751273  0.446515  0.363244  1
  As  As5  1  0.446515  0.751273  0.136756  1
  As  As6  1  0.248727  0.553485  0.636756  1
  As  As7  1  0.553485  0.248727  0.863244  1
  S  S8  1  0.933249  0.933249  0.250000  1
  S  S9  1  0.066751  0.066751  0.750000  1
  S  S10  1  0.453839  0.453839  0.250000  1
  S  S11  1  0.546161  0.546161  0.750000  1
  S  S12  1  0.881729  0.505373  0.160887  1
  S  S13  1  0.505373  0.881729  0.339113  1
  S  S14  1  0.118271  0.494627  0.839113  1
  S  S15  1  0.494627  0.118271  0.660887  1
