# generated using pymatgen
data_CdMoPO6
_symmetry_space_group_name_H-M   'P 1'
_cell_length_a   4.98769998
_cell_length_b   8.67668227
_cell_length_c   11.84035916
_cell_angle_alpha   90.00000000
_cell_angle_beta   109.00158639
_cell_angle_gamma   90.00000000
_symmetry_Int_Tables_number   1
_chemical_formula_structural   CdMoPO6
_chemical_formula_sum   'Cd4 Mo4 P4 O24'
_cell_volume   484.49000017
_cell_formula_units_Z   4
loop_
 _symmetry_equiv_pos_site_id
 _symmetry_equiv_pos_as_xyz
  1  'x, y, z'
loop_
 _atom_site_type_symbol
 _atom_site_label
 _atom_site_symmetry_multiplicity
 _atom_site_fract_x
 _atom_site_fract_y
 _atom_site_fract_z
 _atom_site_occupancy
  Cd  Cd0  1  0.671461  0.828317  0.576019  1
  Cd  Cd1  1  0.328539  0.328317  0.923981  1
  Cd  Cd2  1  0.671461  0.671683  0.076019  1
  Cd  Cd3  1  0.328539  0.171683  0.423981  1
  Mo  Mo4  1  0.988752  0.910229  0.886115  1
  Mo  Mo5  1  0.011248  0.089771  0.113885  1
  Mo  Mo6  1  0.011248  0.410229  0.613885  1
  Mo  Mo7  1  0.988752  0.589771  0.386115  1
  P  P8  1  0.681425  0.557590  0.790622  1
  P  P9  1  0.318575  0.442410  0.209378  1
  P  P10  1  0.318575  0.057590  0.709378  1
  P  P11  1  0.681425  0.942410  0.290622  1
  O  O12  1  0.127747  0.390073  0.465219  1
  O  O13  1  0.590348  0.019590  0.811122  1
  O  O14  1  0.059452  0.536391  0.223104  1
  O  O15  1  0.940548  0.463609  0.776896  1
  O  O16  1  0.657194  0.981197  0.414031  1
  O  O17  1  0.940548  0.036391  0.276896  1
  O  O18  1  0.872253  0.609927  0.534781  1
  O  O19  1  0.342806  0.481197  0.085969  1
  O  O20  1  0.590348  0.480410  0.311122  1
  O  O21  1  0.409652  0.980410  0.188878  1
  O  O22  1  0.409652  0.519590  0.688878  1
  O  O23  1  0.127747  0.109927  0.965219  1
  O  O24  1  0.278067  0.713239  0.438163  1
  O  O25  1  0.261184  0.232388  0.723882  1
  O  O26  1  0.657194  0.518803  0.914031  1
  O  O27  1  0.261184  0.267612  0.223882  1
  O  O28  1  0.738816  0.767612  0.276118  1
  O  O29  1  0.721933  0.286761  0.561837  1
  O  O30  1  0.738816  0.732388  0.776118  1
  O  O31  1  0.059452  0.963609  0.723104  1
  O  O32  1  0.872253  0.890073  0.034781  1
  O  O33  1  0.342806  0.018803  0.585969  1
  O  O34  1  0.721933  0.213239  0.061837  1
  O  O35  1  0.278067  0.786761  0.938163  1
