# generated using pymatgen
data_CrBiO3
_symmetry_space_group_name_H-M   'P 1'
_cell_length_a   5.46381369
_cell_length_b   5.67445166
_cell_length_c   7.83542075
_cell_angle_alpha   90.00000000
_cell_angle_beta   90.00000000
_cell_angle_gamma   90.00000000
_symmetry_Int_Tables_number   1
_chemical_formula_structural   CrBiO3
_chemical_formula_sum   'Cr4 Bi4 O12'
_cell_volume   242.93053411
_cell_formula_units_Z   4
loop_
 _symmetry_equiv_pos_site_id
 _symmetry_equiv_pos_as_xyz
  1  'x, y, z'
loop_
 _atom_site_type_symbol
 _atom_site_label
 _atom_site_symmetry_multiplicity
 _atom_site_fract_x
 _atom_site_fract_y
 _atom_site_fract_z
 _atom_site_occupancy
  Cr  Cr0  1  0.000000  0.500000  0.500000  1
  Cr  Cr1  1  0.500000  0.000000  0.000000  1
  Cr  Cr2  1  0.000000  0.500000  0.000000  1
  Cr  Cr3  1  0.500000  0.000000  0.500000  1
  Bi  Bi4  1  0.009915  0.947056  0.750000  1
  Bi  Bi5  1  0.990085  0.052944  0.250000  1
  Bi  Bi6  1  0.509915  0.552944  0.250000  1
  Bi  Bi7  1  0.490085  0.447056  0.750000  1
  O  O8  1  0.908435  0.526378  0.750000  1
  O  O9  1  0.408435  0.973622  0.250000  1
  O  O10  1  0.091565  0.473622  0.250000  1
  O  O11  1  0.591565  0.026378  0.750000  1
  O  O12  1  0.801808  0.798081  0.455670  1
  O  O13  1  0.698192  0.298081  0.044330  1
  O  O14  1  0.698192  0.298081  0.455670  1
  O  O15  1  0.301808  0.701919  0.544330  1
  O  O16  1  0.801808  0.798081  0.044330  1
  O  O17  1  0.198192  0.201919  0.544330  1
  O  O18  1  0.198192  0.201919  0.955670  1
  O  O19  1  0.301808  0.701919  0.955670  1
