# generated using pymatgen
data_Mg3(PO4)2
_symmetry_space_group_name_H-M   'P 1'
_cell_length_a   5.98219579
_cell_length_b   4.79092082
_cell_length_c   10.32981904
_cell_angle_alpha   90.00000000
_cell_angle_beta   90.32791856
_cell_angle_gamma   90.00000000
_symmetry_Int_Tables_number   1
_chemical_formula_structural   Mg3(PO4)2
_chemical_formula_sum   'Mg6 P4 O16'
_cell_volume   296.05010322
_cell_formula_units_Z   2
loop_
 _symmetry_equiv_pos_site_id
 _symmetry_equiv_pos_as_xyz
  1  'x, y, z'
loop_
 _atom_site_type_symbol
 _atom_site_label
 _atom_site_symmetry_multiplicity
 _atom_site_fract_x
 _atom_site_fract_y
 _atom_site_fract_z
 _atom_site_occupancy
  Mg  Mg0  1  0.761538  0.508576  0.222166  1
  Mg  Mg1  1  0.238462  0.008576  0.277834  1
  Mg  Mg2  1  0.761538  0.991424  0.722166  1
  Mg  Mg3  1  0.500000  0.000000  0.000000  1
  Mg  Mg4  1  0.238462  0.491424  0.777834  1
  Mg  Mg5  1  0.500000  0.500000  0.500000  1
  P  P6  1  0.256854  0.927238  0.597659  1
  P  P7  1  0.743146  0.427238  0.902341  1
  P  P8  1  0.743146  0.072762  0.402341  1
  P  P9  1  0.256854  0.572762  0.097659  1
  O  O10  1  0.722965  0.747338  0.895343  1
  O  O11  1  0.255968  0.685866  0.957036  1
  O  O12  1  0.277035  0.252662  0.104657  1
  O  O13  1  0.533229  0.228415  0.338576  1
  O  O14  1  0.060208  0.815052  0.678653  1
  O  O15  1  0.060208  0.684948  0.178653  1
  O  O16  1  0.939792  0.315052  0.821347  1
  O  O17  1  0.744032  0.314134  0.042964  1
  O  O18  1  0.744032  0.185866  0.542964  1
  O  O19  1  0.939792  0.184948  0.321347  1
  O  O20  1  0.533229  0.271585  0.838576  1
  O  O21  1  0.277035  0.247338  0.604657  1
  O  O22  1  0.466771  0.728415  0.161424  1
  O  O23  1  0.466771  0.771585  0.661424  1
  O  O24  1  0.722965  0.752662  0.395343  1
  O  O25  1  0.255968  0.814134  0.457036  1
