# generated using pymatgen
data_KMg4(PO4)3
_symmetry_space_group_name_H-M   'P 1'
_cell_length_a   6.23398505
_cell_length_b   9.67637085
_cell_length_c   16.56205728
_cell_angle_alpha   90.00000000
_cell_angle_beta   90.00000000
_cell_angle_gamma   90.00000000
_symmetry_Int_Tables_number   1
_chemical_formula_structural   KMg4(PO4)3
_chemical_formula_sum   'K4 Mg16 P12 O48'
_cell_volume   999.06223612
_cell_formula_units_Z   4
loop_
 _symmetry_equiv_pos_site_id
 _symmetry_equiv_pos_as_xyz
  1  'x, y, z'
loop_
 _atom_site_type_symbol
 _atom_site_label
 _atom_site_symmetry_multiplicity
 _atom_site_fract_x
 _atom_site_fract_y
 _atom_site_fract_z
 _atom_site_occupancy
  K  K0  1  0.000000  0.200806  0.965186  1
  K  K1  1  0.500000  0.299194  0.465186  1
  K  K2  1  0.000000  0.799194  0.034814  1
  K  K3  1  0.500000  0.700806  0.534814  1
  Mg  Mg4  1  0.246821  0.249029  0.201812  1
  Mg  Mg5  1  0.000000  0.519257  0.641897  1
  Mg  Mg6  1  0.253179  0.250971  0.701812  1
  Mg  Mg7  1  0.253179  0.749029  0.298188  1
  Mg  Mg8  1  0.746821  0.749029  0.298188  1
  Mg  Mg9  1  0.000000  0.036495  0.408121  1
  Mg  Mg10  1  0.500000  0.536495  0.091879  1
  Mg  Mg11  1  0.000000  0.480743  0.358103  1
  Mg  Mg12  1  0.246821  0.750971  0.798188  1
  Mg  Mg13  1  0.753179  0.249029  0.201812  1
  Mg  Mg14  1  0.500000  0.463505  0.908121  1
  Mg  Mg15  1  0.000000  0.963505  0.591879  1
  Mg  Mg16  1  0.753179  0.750971  0.798188  1
  Mg  Mg17  1  0.500000  0.980743  0.141897  1
  Mg  Mg18  1  0.746821  0.250971  0.701812  1
  Mg  Mg19  1  0.500000  0.019257  0.858103  1
  P  P20  1  0.500000  0.456176  0.278791  1
  P  P21  1  0.000000  0.708984  0.463814  1
  P  P22  1  0.500000  0.044367  0.333603  1
  P  P23  1  0.500000  0.543824  0.721209  1
  P  P24  1  0.000000  0.043824  0.778791  1
  P  P25  1  0.500000  0.791016  0.963814  1
  P  P26  1  0.000000  0.956176  0.221209  1
  P  P27  1  0.500000  0.208984  0.036186  1
  P  P28  1  0.000000  0.544367  0.166397  1
  P  P29  1  0.000000  0.455633  0.833603  1
  P  P30  1  0.500000  0.955633  0.666397  1
  P  P31  1  0.000000  0.291016  0.536186  1
  O  O32  1  0.000000  0.132583  0.520567  1
  O  O33  1  0.797766  0.410024  0.878273  1
  O  O34  1  0.303461  0.836044  0.910856  1
  O  O35  1  0.196539  0.336044  0.589144  1
  O  O36  1  0.706660  0.600339  0.682190  1
  O  O37  1  0.793340  0.100339  0.817810  1
  O  O38  1  0.500000  0.115586  0.245793  1
  O  O39  1  0.706660  0.399661  0.317810  1
  O  O40  1  0.206660  0.100339  0.817810  1
  O  O41  1  0.500000  0.616504  0.273302  1
  O  O42  1  0.500000  0.367417  0.020567  1
  O  O43  1  0.696539  0.163956  0.089144  1
  O  O44  1  0.500000  0.607481  0.809522  1
  O  O45  1  0.202234  0.589976  0.121727  1
  O  O46  1  0.297766  0.089976  0.378273  1
  O  O47  1  0.793340  0.899661  0.182190  1
  O  O48  1  0.803461  0.663956  0.410856  1
  O  O49  1  0.000000  0.883496  0.773302  1
  O  O50  1  0.702234  0.089976  0.378273  1
  O  O51  1  0.202234  0.410024  0.878273  1
  O  O52  1  0.206660  0.899661  0.182190  1
  O  O53  1  0.196539  0.663956  0.410856  1
  O  O54  1  0.000000  0.107481  0.690478  1
  O  O55  1  0.500000  0.392519  0.190478  1
  O  O56  1  0.303461  0.163956  0.089144  1
  O  O57  1  0.297766  0.910024  0.621727  1
  O  O58  1  0.000000  0.384414  0.745793  1
  O  O59  1  0.000000  0.616166  0.820005  1
  O  O60  1  0.500000  0.884414  0.754207  1
  O  O61  1  0.000000  0.638275  0.545861  1
  O  O62  1  0.500000  0.383496  0.726698  1
  O  O63  1  0.500000  0.116166  0.679995  1
  O  O64  1  0.000000  0.383834  0.179995  1
  O  O65  1  0.000000  0.892519  0.309522  1
  O  O66  1  0.696539  0.836044  0.910856  1
  O  O67  1  0.293340  0.600339  0.682190  1
  O  O68  1  0.500000  0.861725  0.045861  1
  O  O69  1  0.500000  0.138275  0.954139  1
  O  O70  1  0.702234  0.910024  0.621727  1
  O  O71  1  0.293340  0.399661  0.317810  1
  O  O72  1  0.803461  0.336044  0.589144  1
  O  O73  1  0.000000  0.116504  0.226698  1
  O  O74  1  0.000000  0.615586  0.254207  1
  O  O75  1  0.000000  0.867417  0.479433  1
  O  O76  1  0.000000  0.361725  0.454139  1
  O  O77  1  0.797766  0.589976  0.121727  1
  O  O78  1  0.500000  0.632583  0.979433  1
  O  O79  1  0.500000  0.883834  0.320005  1
