# generated using pymatgen
data_Na2DyMoPO8
_symmetry_space_group_name_H-M   'P 1'
_cell_length_a   11.50283980
_cell_length_b   11.50283980
_cell_length_c   11.50283980
_cell_angle_alpha   144.79158403
_cell_angle_beta   115.83530849
_cell_angle_gamma   75.35400868
_symmetry_Int_Tables_number   1
_chemical_formula_structural   Na2DyMoPO8
_chemical_formula_sum   'Na8 Dy4 Mo4 P4 O32'
_cell_volume   774.02526382
_cell_formula_units_Z   4
loop_
 _symmetry_equiv_pos_site_id
 _symmetry_equiv_pos_as_xyz
  1  'x, y, z'
loop_
 _atom_site_type_symbol
 _atom_site_label
 _atom_site_symmetry_multiplicity
 _atom_site_fract_x
 _atom_site_fract_y
 _atom_site_fract_z
 _atom_site_occupancy
  Na  Na0  1  0.790662  0.356643  0.953811  1
  Na  Na1  1  0.902832  0.856643  0.565981  1
  Na  Na2  1  0.290662  0.836851  0.934019  1
  Na  Na3  1  0.402832  0.336851  0.546189  1
  Na  Na4  1  0.597168  0.663149  0.453811  1
  Na  Na5  1  0.709338  0.163149  0.065981  1
  Na  Na6  1  0.209338  0.643357  0.046189  1
  Na  Na7  1  0.097168  0.143357  0.434019  1
  Dy  Dy8  1  0.822083  0.250000  0.572083  1
  Dy  Dy9  1  0.177917  0.750000  0.427917  1
  Dy  Dy10  1  0.322083  0.250000  0.072083  1
  Dy  Dy11  1  0.677917  0.750000  0.927917  1
  Mo  Mo12  1  0.072006  0.322006  0.250000  1
  Mo  Mo13  1  0.427994  0.177994  0.750000  1
  Mo  Mo14  1  0.927994  0.677994  0.750000  1
  Mo  Mo15  1  0.572006  0.822006  0.250000  1
  P  P16  1  0.930835  0.750000  0.180835  1
  P  P17  1  0.069165  0.250000  0.819165  1
  P  P18  1  0.569165  0.250000  0.319165  1
  P  P19  1  0.430835  0.750000  0.680835  1
  O  O20  1  0.859645  0.932445  0.276020  1
  O  O21  1  0.061456  0.305279  0.730669  1
  O  O22  1  0.938544  0.694721  0.269331  1
  O  O23  1  0.653584  0.088432  0.484189  1
  O  O24  1  0.561456  0.330788  0.256177  1
  O  O25  1  0.843575  0.567555  0.927200  1
  O  O26  1  0.637902  0.726753  0.328309  1
  O  O27  1  0.359645  0.583626  0.427200  1
  O  O28  1  0.438544  0.669212  0.743823  1
  O  O29  1  0.343575  0.916374  0.776020  1
  O  O30  1  0.846416  0.830606  0.934849  1
  O  O31  1  0.604243  0.669394  0.015811  1
  O  O32  1  0.074610  0.805279  0.243823  1
  O  O33  1  0.137902  0.309593  0.411150  1
  O  O34  1  0.656425  0.083626  0.223980  1
  O  O35  1  0.153584  0.169394  0.065151  1
  O  O36  1  0.362098  0.273247  0.671691  1
  O  O37  1  0.925390  0.194721  0.756177  1
  O  O38  1  0.156425  0.432445  0.072800  1
  O  O39  1  0.395757  0.330606  0.984189  1
  O  O40  1  0.640355  0.416374  0.572800  1
  O  O41  1  0.601557  0.190407  0.828309  1
  O  O42  1  0.425390  0.169212  0.230669  1
  O  O43  1  0.101557  0.773247  0.911150  1
  O  O44  1  0.862098  0.690407  0.588850  1
  O  O45  1  0.895757  0.411568  0.565151  1
  O  O46  1  0.398443  0.809593  0.171691  1
  O  O47  1  0.574610  0.830788  0.769331  1
  O  O48  1  0.104243  0.588432  0.434849  1
  O  O49  1  0.140355  0.067555  0.723980  1
  O  O50  1  0.898443  0.226753  0.088850  1
  O  O51  1  0.346416  0.911568  0.515811  1
