# generated using pymatgen
data_Ba3Dy2(PS4)4
_symmetry_space_group_name_H-M   'P 1'
_cell_length_a   10.42251992
_cell_length_b   12.76390162
_cell_length_c   19.44652421
_cell_angle_alpha   90.00000000
_cell_angle_beta   90.00000000
_cell_angle_gamma   90.00000000
_symmetry_Int_Tables_number   1
_chemical_formula_structural   Ba3Dy2(PS4)4
_chemical_formula_sum   'Ba12 Dy8 P16 S64'
_cell_volume   2587.01037608
_cell_formula_units_Z   4
loop_
 _symmetry_equiv_pos_site_id
 _symmetry_equiv_pos_as_xyz
  1  'x, y, z'
loop_
 _atom_site_type_symbol
 _atom_site_label
 _atom_site_symmetry_multiplicity
 _atom_site_fract_x
 _atom_site_fract_y
 _atom_site_fract_z
 _atom_site_occupancy
  Ba  Ba0  1  0.210458  0.108242  0.727233  1
  Ba  Ba1  1  0.116915  0.750000  0.500000  1
  Ba  Ba2  1  0.616915  0.750000  0.000000  1
  Ba  Ba3  1  0.210458  0.391758  0.272767  1
  Ba  Ba4  1  0.289542  0.608242  0.772767  1
  Ba  Ba5  1  0.289542  0.891758  0.227233  1
  Ba  Ba6  1  0.710458  0.108242  0.772767  1
  Ba  Ba7  1  0.710458  0.391758  0.227233  1
  Ba  Ba8  1  0.383085  0.250000  0.000000  1
  Ba  Ba9  1  0.883085  0.250000  0.500000  1
  Ba  Ba10  1  0.789542  0.608242  0.727233  1
  Ba  Ba11  1  0.789542  0.891758  0.272767  1
  Dy  Dy12  1  0.628581  0.887392  0.573462  1
  Dy  Dy13  1  0.871419  0.387392  0.926538  1
  Dy  Dy14  1  0.128581  0.887392  0.926538  1
  Dy  Dy15  1  0.371419  0.112608  0.426538  1
  Dy  Dy16  1  0.628581  0.612608  0.426538  1
  Dy  Dy17  1  0.128581  0.612608  0.073462  1
  Dy  Dy18  1  0.371419  0.387392  0.573462  1
  Dy  Dy19  1  0.871419  0.112608  0.073462  1
  P  P20  1  0.995816  0.639832  0.897888  1
  P  P21  1  0.436997  0.548498  0.131000  1
  P  P22  1  0.063003  0.451502  0.631000  1
  P  P23  1  0.495816  0.639832  0.602112  1
  P  P24  1  0.936997  0.951502  0.631000  1
  P  P25  1  0.004184  0.360168  0.102112  1
  P  P26  1  0.495816  0.860168  0.397888  1
  P  P27  1  0.063003  0.048498  0.369000  1
  P  P28  1  0.504184  0.139832  0.602112  1
  P  P29  1  0.563003  0.451502  0.869000  1
  P  P30  1  0.436997  0.951502  0.869000  1
  P  P31  1  0.995816  0.860168  0.102112  1
  P  P32  1  0.004184  0.139832  0.897888  1
  P  P33  1  0.936997  0.548498  0.369000  1
  P  P34  1  0.504184  0.360168  0.397888  1
  P  P35  1  0.563003  0.048498  0.131000  1
  S  S36  1  0.995533  0.014439  0.833126  1
  S  S37  1  0.679515  0.669453  0.568013  1
  S  S38  1  0.388499  0.598704  0.516771  1
  S  S39  1  0.114490  0.605699  0.350295  1
  S  S40  1  0.385510  0.394301  0.850295  1
  S  S41  1  0.111501  0.098704  0.983229  1
  S  S42  1  0.614490  0.605699  0.149705  1
  S  S43  1  0.569327  0.887996  0.147048  1
  S  S44  1  0.611501  0.098704  0.516771  1
  S  S45  1  0.820485  0.169453  0.931987  1
  S  S46  1  0.291240  0.886660  0.808839  1
  S  S47  1  0.004467  0.985561  0.166874  1
  S  S48  1  0.930673  0.112004  0.647048  1
  S  S49  1  0.120143  0.414490  0.532599  1
  S  S50  1  0.708760  0.113340  0.191161  1
  S  S51  1  0.791240  0.886660  0.691161  1
  S  S52  1  0.879857  0.585510  0.467401  1
  S  S53  1  0.564210  0.269862  0.651035  1
  S  S54  1  0.791240  0.613340  0.308839  1
  S  S55  1  0.935790  0.730138  0.151035  1
  S  S56  1  0.388499  0.901296  0.483229  1
  S  S57  1  0.291240  0.613340  0.191161  1
  S  S58  1  0.885510  0.105699  0.350295  1
  S  S59  1  0.888499  0.901296  0.016771  1
  S  S60  1  0.995533  0.485561  0.166874  1
  S  S61  1  0.495533  0.014439  0.666874  1
  S  S62  1  0.885510  0.394301  0.649705  1
  S  S63  1  0.179515  0.669453  0.931987  1
  S  S64  1  0.435790  0.769862  0.651035  1
  S  S65  1  0.379857  0.585510  0.032599  1
  S  S66  1  0.004467  0.514439  0.833126  1
  S  S67  1  0.435790  0.730138  0.348965  1
  S  S68  1  0.614490  0.894301  0.850295  1
  S  S69  1  0.879857  0.914490  0.532599  1
  S  S70  1  0.208760  0.386660  0.691161  1
  S  S71  1  0.620143  0.414490  0.967401  1
  S  S72  1  0.620143  0.085510  0.032599  1
  S  S73  1  0.504467  0.514439  0.666874  1
  S  S74  1  0.114490  0.894301  0.649705  1
  S  S75  1  0.888499  0.598704  0.983229  1
  S  S76  1  0.379857  0.914490  0.967401  1
  S  S77  1  0.069327  0.887996  0.352952  1
  S  S78  1  0.069327  0.612004  0.647048  1
  S  S79  1  0.564210  0.230138  0.348965  1
  S  S80  1  0.930673  0.387996  0.352952  1
  S  S81  1  0.495533  0.485561  0.333126  1
  S  S82  1  0.504467  0.985561  0.333126  1
  S  S83  1  0.430673  0.387996  0.147048  1
  S  S84  1  0.611501  0.401296  0.483229  1
  S  S85  1  0.320485  0.169453  0.568013  1
  S  S86  1  0.064210  0.269862  0.848965  1
  S  S87  1  0.385510  0.105699  0.149705  1
  S  S88  1  0.430673  0.112004  0.852952  1
  S  S89  1  0.820485  0.330547  0.068013  1
  S  S90  1  0.320485  0.330547  0.431987  1
  S  S91  1  0.179515  0.830547  0.068013  1
  S  S92  1  0.120143  0.085510  0.467401  1
  S  S93  1  0.064210  0.230138  0.151035  1
  S  S94  1  0.935790  0.769862  0.848965  1
  S  S95  1  0.679515  0.830547  0.431987  1
  S  S96  1  0.208760  0.113340  0.308839  1
  S  S97  1  0.708760  0.386660  0.808839  1
  S  S98  1  0.569327  0.612004  0.852952  1
  S  S99  1  0.111501  0.401296  0.016771  1
