# generated using pymatgen
data_CrBiO3
_symmetry_space_group_name_H-M   'P 1'
_cell_length_a   5.61625423
_cell_length_b   5.61625423
_cell_length_c   5.61625423
_cell_angle_alpha   59.82221051
_cell_angle_beta   59.82221051
_cell_angle_gamma   59.82221051
_symmetry_Int_Tables_number   1
_chemical_formula_structural   CrBiO3
_chemical_formula_sum   'Cr2 Bi2 O6'
_cell_volume   124.75822083
_cell_formula_units_Z   2
loop_
 _symmetry_equiv_pos_site_id
 _symmetry_equiv_pos_as_xyz
  1  'x, y, z'
loop_
 _atom_site_type_symbol
 _atom_site_label
 _atom_site_symmetry_multiplicity
 _atom_site_fract_x
 _atom_site_fract_y
 _atom_site_fract_z
 _atom_site_occupancy
  Cr  Cr0  1  0.771664  0.771664  0.771664  1
  Cr  Cr1  1  0.271664  0.271664  0.271664  1
  Bi  Bi2  1  0.495159  0.495159  0.495159  1
  Bi  Bi3  1  0.995159  0.995159  0.995159  1
  O  O4  1  0.449399  0.051881  0.598917  1
  O  O5  1  0.098917  0.551881  0.949399  1
  O  O6  1  0.551881  0.949399  0.098917  1
  O  O7  1  0.949399  0.098917  0.551881  1
  O  O8  1  0.598917  0.449399  0.051881  1
  O  O9  1  0.051881  0.598917  0.449399  1
