# generated using pymatgen
data_Nb2Te4Cl10O
_symmetry_space_group_name_H-M   'P 1'
_cell_length_a   6.86361617
_cell_length_b   8.71683526
_cell_length_c   9.23611635
_cell_angle_alpha   99.19766755
_cell_angle_beta   88.93386816
_cell_angle_gamma   105.24081551
_symmetry_Int_Tables_number   1
_chemical_formula_structural   Nb2Te4Cl10O
_chemical_formula_sum   'Nb2 Te4 Cl10 O1'
_cell_volume   526.13901155
_cell_formula_units_Z   1
loop_
 _symmetry_equiv_pos_site_id
 _symmetry_equiv_pos_as_xyz
  1  'x, y, z'
loop_
 _atom_site_type_symbol
 _atom_site_label
 _atom_site_symmetry_multiplicity
 _atom_site_fract_x
 _atom_site_fract_y
 _atom_site_fract_z
 _atom_site_occupancy
  Nb  Nb0  1  0.487094  0.642779  0.365142  1
  Nb  Nb1  1  0.512906  0.357221  0.634858  1
  Te  Te2  1  0.815693  0.904076  0.834987  1
  Te  Te3  1  0.917425  0.195702  0.011865  1
  Te  Te4  1  0.082575  0.804298  0.988135  1
  Te  Te5  1  0.184307  0.095924  0.165013  1
  Cl  Cl6  1  0.543461  0.172524  0.810517  1
  Cl  Cl7  1  0.614085  0.483225  0.170505  1
  Cl  Cl8  1  0.182051  0.199305  0.574944  1
  Cl  Cl9  1  0.852382  0.522225  0.715335  1
  Cl  Cl10  1  0.385915  0.516775  0.829495  1
  Cl  Cl11  1  0.656999  0.201878  0.454061  1
  Cl  Cl12  1  0.147618  0.477775  0.284665  1
  Cl  Cl13  1  0.343001  0.798122  0.545939  1
  Cl  Cl14  1  0.817949  0.800695  0.425056  1
  Cl  Cl15  1  0.456539  0.827476  0.189483  1
  O  O16  1  0.500000  0.500000  0.500000  1
