# generated using pymatgen
data_Ga2H6(SeO4)3
_symmetry_space_group_name_H-M   'P 1'
_cell_length_a   8.62331700
_cell_length_b   8.62331700
_cell_length_c   8.62331700
_cell_angle_alpha   65.96884506
_cell_angle_beta   65.96884506
_cell_angle_gamma   65.96884506
_symmetry_Int_Tables_number   1
_chemical_formula_structural   Ga2H6(SeO4)3
_chemical_formula_sum   'Ga4 H12 Se6 O24'
_cell_volume   512.01340095
_cell_formula_units_Z   2
loop_
 _symmetry_equiv_pos_site_id
 _symmetry_equiv_pos_as_xyz
  1  'x, y, z'
loop_
 _atom_site_type_symbol
 _atom_site_label
 _atom_site_symmetry_multiplicity
 _atom_site_fract_x
 _atom_site_fract_y
 _atom_site_fract_z
 _atom_site_occupancy
  Ga  Ga0  1  0.876891  0.876891  0.876891  1
  Ga  Ga1  1  0.376891  0.376891  0.376891  1
  Ga  Ga2  1  0.641069  0.641069  0.641069  1
  Ga  Ga3  1  0.141069  0.141069  0.141069  1
  H  H4  1  0.811232  0.667571  0.289761  1
  H  H5  1  0.289761  0.811232  0.667571  1
  H  H6  1  0.667571  0.289761  0.811232  1
  H  H7  1  0.167571  0.311232  0.789761  1
  H  H8  1  0.789761  0.167571  0.311232  1
  H  H9  1  0.311232  0.789761  0.167571  1
  H  H10  1  0.622759  0.638199  0.340307  1
  H  H11  1  0.340307  0.622759  0.638199  1
  H  H12  1  0.638199  0.340307  0.622759  1
  H  H13  1  0.138199  0.122759  0.840307  1
  H  H14  1  0.840307  0.138199  0.122759  1
  H  H15  1  0.122759  0.840307  0.138199  1
  Se  Se16  1  0.535202  0.081833  0.152709  1
  Se  Se17  1  0.152709  0.535202  0.081833  1
  Se  Se18  1  0.081833  0.152709  0.535202  1
  Se  Se19  1  0.581833  0.035202  0.652709  1
  Se  Se20  1  0.652709  0.581833  0.035202  1
  Se  Se21  1  0.035202  0.652709  0.581833  1
  O  O22  1  0.737040  0.083102  0.981781  1
  O  O23  1  0.981781  0.737040  0.083102  1
  O  O24  1  0.083102  0.981781  0.737040  1
  O  O25  1  0.583102  0.237040  0.481781  1
  O  O26  1  0.481781  0.583102  0.237040  1
  O  O27  1  0.237040  0.481781  0.583102  1
  O  O28  1  0.670428  0.782106  0.015917  1
  O  O29  1  0.015917  0.670428  0.782106  1
  O  O30  1  0.782106  0.015917  0.670428  1
  O  O31  1  0.282106  0.170428  0.515917  1
  O  O32  1  0.515917  0.282106  0.170428  1
  O  O33  1  0.170428  0.515917  0.282106  1
  O  O34  1  0.386777  0.152310  0.032543  1
  O  O35  1  0.032543  0.386777  0.152310  1
  O  O36  1  0.152310  0.032543  0.386777  1
  O  O37  1  0.652310  0.886777  0.532543  1
  O  O38  1  0.532543  0.652310  0.886777  1
  O  O39  1  0.886777  0.532543  0.652310  1
  O  O40  1  0.715308  0.621393  0.389829  1
  O  O41  1  0.389829  0.715308  0.621393  1
  O  O42  1  0.621393  0.389829  0.715308  1
  O  O43  1  0.121393  0.215308  0.889829  1
  O  O44  1  0.889829  0.121393  0.215308  1
  O  O45  1  0.215308  0.889829  0.121393  1
