# generated using pymatgen
data_NaH5SO4
_symmetry_space_group_name_H-M   'P 1'
_cell_length_a   5.99173588
_cell_length_b   21.56037886
_cell_length_c   7.62628077
_cell_angle_alpha   90.00000000
_cell_angle_beta   104.23824137
_cell_angle_gamma   90.00000000
_symmetry_Int_Tables_number   1
_chemical_formula_structural   NaH5SO4
_chemical_formula_sum   'Na8 H40 S8 O32'
_cell_volume   954.93040454
_cell_formula_units_Z   8
loop_
 _symmetry_equiv_pos_site_id
 _symmetry_equiv_pos_as_xyz
  1  'x, y, z'
loop_
 _atom_site_type_symbol
 _atom_site_label
 _atom_site_symmetry_multiplicity
 _atom_site_fract_x
 _atom_site_fract_y
 _atom_site_fract_z
 _atom_site_occupancy
  Na  Na0  1  0.725045  0.659410  0.081960  1
  Na  Na1  1  0.274955  0.159410  0.418040  1
  Na  Na2  1  0.274955  0.340590  0.918040  1
  Na  Na3  1  0.725045  0.840590  0.581960  1
  Na  Na4  1  0.255375  0.591791  0.214921  1
  Na  Na5  1  0.744625  0.091791  0.285079  1
  Na  Na6  1  0.744625  0.408209  0.785079  1
  Na  Na7  1  0.255375  0.908209  0.714921  1
  H  H8  1  0.476810  0.778409  0.130107  1
  H  H9  1  0.523190  0.278409  0.369893  1
  H  H10  1  0.523190  0.221591  0.869893  1
  H  H11  1  0.476810  0.721591  0.630107  1
  H  H12  1  0.741795  0.789739  0.187266  1
  H  H13  1  0.258205  0.289739  0.312734  1
  H  H14  1  0.258205  0.210261  0.812734  1
  H  H15  1  0.741795  0.710261  0.687266  1
  H  H16  1  0.138466  0.728065  0.244377  1
  H  H17  1  0.861534  0.228065  0.255623  1
  H  H18  1  0.861534  0.271935  0.755623  1
  H  H19  1  0.138466  0.771935  0.744377  1
  H  H20  1  0.111311  0.689511  0.412063  1
  H  H21  1  0.888689  0.189511  0.087937  1
  H  H22  1  0.888689  0.310489  0.587937  1
  H  H23  1  0.111311  0.810489  0.912063  1
  H  H24  1  0.612389  0.670340  0.435757  1
  H  H25  1  0.387611  0.170340  0.064243  1
  H  H26  1  0.387611  0.329660  0.564243  1
  H  H27  1  0.612389  0.829660  0.935757  1
  H  H28  1  0.753690  0.609743  0.425784  1
  H  H29  1  0.246310  0.109743  0.074216  1
  H  H30  1  0.246310  0.390257  0.574216  1
  H  H31  1  0.753690  0.890257  0.925784  1
  H  H32  1  0.851997  0.516820  0.185492  1
  H  H33  1  0.148003  0.016820  0.314508  1
  H  H34  1  0.148003  0.483180  0.814508  1
  H  H35  1  0.851997  0.983180  0.685492  1
  H  H36  1  0.785668  0.537803  0.981745  1
  H  H37  1  0.214332  0.037803  0.518255  1
  H  H38  1  0.214332  0.462197  0.018255  1
  H  H39  1  0.785668  0.962197  0.481745  1
  H  H40  1  0.755128  0.962879  0.189002  1
  H  H41  1  0.244872  0.462879  0.310998  1
  H  H42  1  0.244872  0.037121  0.810998  1
  H  H43  1  0.755128  0.537121  0.689002  1
  H  H44  1  0.495506  0.965267  0.203619  1
  H  H45  1  0.504494  0.465267  0.296381  1
  H  H46  1  0.504494  0.034733  0.796381  1
  H  H47  1  0.495506  0.534733  0.703619  1
  S  S48  1  0.097714  0.933505  0.111141  1
  S  S49  1  0.902286  0.433505  0.388859  1
  S  S50  1  0.902286  0.066495  0.888859  1
  S  S51  1  0.097714  0.566495  0.611141  1
  S  S52  1  0.146134  0.857358  0.277084  1
  S  S53  1  0.853866  0.357358  0.222916  1
  S  S54  1  0.853866  0.142642  0.722916  1
  S  S55  1  0.146134  0.642642  0.777084  1
  O  O56  1  0.336723  0.870638  0.436263  1
  O  O57  1  0.663277  0.370638  0.063737  1
  O  O58  1  0.663277  0.129362  0.563737  1
  O  O59  1  0.336723  0.629362  0.936263  1
  O  O60  1  0.929661  0.843307  0.330615  1
  O  O61  1  0.070339  0.343307  0.169385  1
  O  O62  1  0.070339  0.156693  0.669385  1
  O  O63  1  0.929661  0.656693  0.830615  1
  O  O64  1  0.203870  0.804125  0.168783  1
  O  O65  1  0.796130  0.304125  0.331217  1
  O  O66  1  0.796130  0.195875  0.831217  1
  O  O67  1  0.203870  0.695875  0.668783  1
  O  O68  1  0.620710  0.768335  0.094894  1
  O  O69  1  0.379290  0.268335  0.405106  1
  O  O70  1  0.379290  0.231665  0.905106  1
  O  O71  1  0.620710  0.731665  0.594894  1
  O  O72  1  0.091869  0.686952  0.280256  1
  O  O73  1  0.908131  0.186952  0.219744  1
  O  O74  1  0.908131  0.313048  0.719744  1
  O  O75  1  0.091869  0.813048  0.780256  1
  O  O76  1  0.617474  0.633058  0.359706  1
  O  O77  1  0.382526  0.133058  0.140294  1
  O  O78  1  0.382526  0.366942  0.640294  1
  O  O79  1  0.617474  0.866942  0.859706  1
  O  O80  1  0.861937  0.552188  0.105746  1
  O  O81  1  0.138063  0.052188  0.394254  1
  O  O82  1  0.138063  0.447812  0.894254  1
  O  O83  1  0.861937  0.947812  0.605746  1
  O  O84  1  0.649477  0.983628  0.251686  1
  O  O85  1  0.350523  0.483628  0.248314  1
  O  O86  1  0.350523  0.016372  0.748314  1
  O  O87  1  0.649477  0.516372  0.751686  1
