# generated using pymatgen
data_IN2O4F5
_symmetry_space_group_name_H-M   'P 1'
_cell_length_a   4.99416675
_cell_length_b   8.05037408
_cell_length_c   9.95787016
_cell_angle_alpha   110.37744197
_cell_angle_beta   97.75928889
_cell_angle_gamma   90.44747746
_symmetry_Int_Tables_number   1
_chemical_formula_structural   IN2O4F5
_chemical_formula_sum   'I2 N4 O8 F10'
_cell_volume   371.21619473
_cell_formula_units_Z   2
loop_
 _symmetry_equiv_pos_site_id
 _symmetry_equiv_pos_as_xyz
  1  'x, y, z'
loop_
 _atom_site_type_symbol
 _atom_site_label
 _atom_site_symmetry_multiplicity
 _atom_site_fract_x
 _atom_site_fract_y
 _atom_site_fract_z
 _atom_site_occupancy
  I  I0  1  0.966787  0.817340  0.199287  1
  I  I1  1  0.033213  0.182660  0.800713  1
  N  N2  1  0.577234  0.388337  0.332792  1
  N  N3  1  0.118187  0.288529  0.486320  1
  N  N4  1  0.422766  0.611663  0.667208  1
  N  N5  1  0.881813  0.711471  0.513680  1
  O  O6  1  0.936878  0.174006  0.473425  1
  O  O7  1  0.063122  0.825994  0.526575  1
  O  O8  1  0.468939  0.661469  0.788307  1
  O  O9  1  0.531061  0.338531  0.211693  1
  O  O10  1  0.134375  0.354264  0.389634  1
  O  O11  1  0.865625  0.645736  0.610366  1
  O  O12  1  0.292873  0.340194  0.603462  1
  O  O13  1  0.707127  0.659806  0.396538  1
  F  F14  1  0.105274  0.751125  0.024646  1
  F  F15  1  0.324714  0.346814  0.918832  1
  F  F16  1  0.158426  0.616868  0.216018  1
  F  F17  1  0.691915  0.040505  0.731606  1
  F  F18  1  0.810381  0.994747  0.128034  1
  F  F19  1  0.308085  0.959495  0.268394  1
  F  F20  1  0.189619  0.005253  0.871966  1
  F  F21  1  0.675286  0.653186  0.081168  1
  F  F22  1  0.894726  0.248875  0.975354  1
  F  F23  1  0.841574  0.383132  0.783982  1
