# generated using pymatgen
data_CoAgPO4
_symmetry_space_group_name_H-M   'P 1'
_cell_length_a   5.71207299
_cell_length_b   6.62821012
_cell_length_c   9.61339639
_cell_angle_alpha   74.81866716
_cell_angle_beta   79.41496912
_cell_angle_gamma   78.60587140
_symmetry_Int_Tables_number   1
_chemical_formula_structural   CoAgPO4
_chemical_formula_sum   'Co4 Ag4 P4 O16'
_cell_volume   340.98012265
_cell_formula_units_Z   4
loop_
 _symmetry_equiv_pos_site_id
 _symmetry_equiv_pos_as_xyz
  1  'x, y, z'
loop_
 _atom_site_type_symbol
 _atom_site_label
 _atom_site_symmetry_multiplicity
 _atom_site_fract_x
 _atom_site_fract_y
 _atom_site_fract_z
 _atom_site_occupancy
  Co  Co0  1  0.785189  0.172941  0.564517  1
  Co  Co1  1  0.214811  0.827059  0.435483  1
  Co  Co2  1  0.332838  0.941112  0.789253  1
  Co  Co3  1  0.667162  0.058888  0.210747  1
  Ag  Ag4  1  0.676035  0.383775  0.874012  1
  Ag  Ag5  1  0.323965  0.616225  0.125988  1
  Ag  Ag6  1  0.172483  0.475776  0.758925  1
  Ag  Ag7  1  0.827517  0.524224  0.241075  1
  P  P8  1  0.680465  0.717153  0.531559  1
  P  P9  1  0.319535  0.282847  0.468441  1
  P  P10  1  0.813368  0.861929  0.901458  1
  P  P11  1  0.186632  0.138071  0.098542  1
  O  O12  1  0.868569  0.842916  0.553867  1
  O  O13  1  0.131431  0.157084  0.446133  1
  O  O14  1  0.649249  0.775992  0.364831  1
  O  O15  1  0.350751  0.224008  0.635169  1
  O  O16  1  0.756931  0.478534  0.586154  1
  O  O17  1  0.243069  0.521466  0.413846  1
  O  O18  1  0.422108  0.792365  0.607767  1
  O  O19  1  0.577892  0.207635  0.392233  1
  O  O20  1  0.788863  0.080389  0.788889  1
  O  O21  1  0.211137  0.919611  0.211111  1
  O  O22  1  0.764925  0.886668  0.059054  1
  O  O23  1  0.235075  0.113332  0.940946  1
  O  O24  1  0.076634  0.742487  0.871121  1
  O  O25  1  0.923366  0.257513  0.128879  1
  O  O26  1  0.623820  0.735116  0.878375  1
  O  O27  1  0.376180  0.264884  0.121625  1
