# generated using pymatgen
data_Pr6Ti2S7O6
_symmetry_space_group_name_H-M   'P 1'
_cell_length_a   12.14015158
_cell_length_b   3.93272478
_cell_length_c   16.68130856
_cell_angle_alpha   90.00000000
_cell_angle_beta   97.72665027
_cell_angle_gamma   90.00000000
_symmetry_Int_Tables_number   1
_chemical_formula_structural   Pr6Ti2S7O6
_chemical_formula_sum   'Pr12 Ti4 S14 O12'
_cell_volume   789.19933651
_cell_formula_units_Z   2
loop_
 _symmetry_equiv_pos_site_id
 _symmetry_equiv_pos_as_xyz
  1  'x, y, z'
loop_
 _atom_site_type_symbol
 _atom_site_label
 _atom_site_symmetry_multiplicity
 _atom_site_fract_x
 _atom_site_fract_y
 _atom_site_fract_z
 _atom_site_occupancy
  Pr  Pr0  1  0.406347  0.750000  0.880794  1
  Pr  Pr1  1  0.935823  0.250000  0.108430  1
  Pr  Pr2  1  0.593653  0.250000  0.119206  1
  Pr  Pr3  1  0.281146  0.250000  0.123476  1
  Pr  Pr4  1  0.023995  0.750000  0.624150  1
  Pr  Pr5  1  0.525945  0.250000  0.709079  1
  Pr  Pr6  1  0.322068  0.250000  0.472805  1
  Pr  Pr7  1  0.718854  0.750000  0.876524  1
  Pr  Pr8  1  0.677932  0.750000  0.527195  1
  Pr  Pr9  1  0.064177  0.750000  0.891570  1
  Pr  Pr10  1  0.474055  0.750000  0.290921  1
  Pr  Pr11  1  0.976005  0.250000  0.375850  1
  Ti  Ti12  1  0.221865  0.250000  0.764462  1
  Ti  Ti13  1  0.203332  0.750000  0.312717  1
  Ti  Ti14  1  0.796668  0.250000  0.687283  1
  Ti  Ti15  1  0.778135  0.750000  0.235538  1
  S  S16  1  0.202736  0.250000  0.625727  1
  S  S17  1  0.447514  0.750000  0.579932  1
  S  S18  1  0.115842  0.750000  0.462915  1
  S  S19  1  0.003115  0.250000  0.755190  1
  S  S20  1  0.552486  0.250000  0.420068  1
  S  S21  1  0.098870  0.750000  0.067533  1
  S  S22  1  0.578706  0.250000  0.941263  1
  S  S23  1  0.901130  0.250000  0.932467  1
  S  S24  1  0.766371  0.750000  0.070980  1
  S  S25  1  0.797264  0.750000  0.374273  1
  S  S26  1  0.996885  0.750000  0.244810  1
  S  S27  1  0.884158  0.250000  0.537085  1
  S  S28  1  0.421294  0.750000  0.058737  1
  S  S29  1  0.233629  0.250000  0.929020  1
  O  O30  1  0.180590  0.250000  0.328746  1
  O  O31  1  0.628135  0.750000  0.210828  1
  O  O32  1  0.794278  0.250000  0.217132  1
  O  O33  1  0.451720  0.250000  0.213869  1
  O  O34  1  0.332881  0.750000  0.385709  1
  O  O35  1  0.548280  0.750000  0.786131  1
  O  O36  1  0.667119  0.250000  0.614291  1
  O  O37  1  0.272932  0.750000  0.222953  1
  O  O38  1  0.727068  0.250000  0.777047  1
  O  O39  1  0.371865  0.250000  0.789172  1
  O  O40  1  0.819410  0.750000  0.671254  1
  O  O41  1  0.205722  0.750000  0.782868  1
