# generated using pymatgen
data_Hg2SeO3
_symmetry_space_group_name_H-M   'P 1'
_cell_length_a   9.11570991
_cell_length_b   9.11570991
_cell_length_c   9.11570991
_cell_angle_alpha   126.68580170
_cell_angle_beta   106.48529913
_cell_angle_gamma   96.82309658
_symmetry_Int_Tables_number   1
_chemical_formula_structural   Hg2SeO3
_chemical_formula_sum   'Hg8 Se4 O12'
_cell_volume   539.97265802
_cell_formula_units_Z   4
loop_
 _symmetry_equiv_pos_site_id
 _symmetry_equiv_pos_as_xyz
  1  'x, y, z'
loop_
 _atom_site_type_symbol
 _atom_site_label
 _atom_site_symmetry_multiplicity
 _atom_site_fract_x
 _atom_site_fract_y
 _atom_site_fract_z
 _atom_site_occupancy
  Hg  Hg0  1  0.438755  0.851688  0.075352  1
  Hg  Hg1  1  0.223664  0.136597  0.575352  1
  Hg  Hg2  1  0.438755  0.363403  0.587067  1
  Hg  Hg3  1  0.561245  0.636597  0.412933  1
  Hg  Hg4  1  0.776336  0.351688  0.912933  1
  Hg  Hg5  1  0.561245  0.148312  0.924648  1
  Hg  Hg6  1  0.776336  0.863403  0.424648  1
  Hg  Hg7  1  0.223664  0.648312  0.087067  1
  Se  Se8  1  0.836705  0.298771  0.537934  1
  Se  Se9  1  0.760837  0.798771  0.962066  1
  Se  Se10  1  0.163295  0.701229  0.462066  1
  Se  Se11  1  0.239163  0.201229  0.037934  1
  O  O12  1  0.353912  0.384250  0.304238  1
  O  O13  1  0.638381  0.175069  0.463312  1
  O  O14  1  0.080012  0.884250  0.530338  1
  O  O15  1  0.711756  0.675069  0.036688  1
  O  O16  1  0.361619  0.824931  0.536688  1
  O  O17  1  0.646088  0.615750  0.695762  1
  O  O18  1  0.646088  0.950326  0.030338  1
  O  O19  1  0.919988  0.450326  0.804238  1
  O  O20  1  0.080012  0.549674  0.195762  1
  O  O21  1  0.288244  0.324931  0.963312  1
  O  O22  1  0.353912  0.049674  0.969662  1
  O  O23  1  0.919988  0.115750  0.469662  1
