# generated using pymatgen
data_CsNb(CuTe2)2
_symmetry_space_group_name_H-M   'P 1'
_cell_length_a   6.05765220
_cell_length_b   8.34499565
_cell_length_c   21.03435105
_cell_angle_alpha   90.00000000
_cell_angle_beta   90.00000000
_cell_angle_gamma   90.00000000
_symmetry_Int_Tables_number   1
_chemical_formula_structural   CsNb(CuTe2)2
_chemical_formula_sum   'Cs4 Nb4 Cu8 Te16'
_cell_volume   1063.30918914
_cell_formula_units_Z   4
loop_
 _symmetry_equiv_pos_site_id
 _symmetry_equiv_pos_as_xyz
  1  'x, y, z'
loop_
 _atom_site_type_symbol
 _atom_site_label
 _atom_site_symmetry_multiplicity
 _atom_site_fract_x
 _atom_site_fract_y
 _atom_site_fract_z
 _atom_site_occupancy
  Cs  Cs0  1  0.014817  0.703572  0.438359  1
  Cs  Cs1  1  0.514817  0.296428  0.561641  1
  Cs  Cs2  1  0.514817  0.796428  0.938359  1
  Cs  Cs3  1  0.014817  0.203572  0.061641  1
  Nb  Nb4  1  0.259116  0.703554  0.147259  1
  Nb  Nb5  1  0.759116  0.296446  0.852741  1
  Nb  Nb6  1  0.759116  0.796446  0.647259  1
  Nb  Nb7  1  0.259116  0.203554  0.352741  1
  Cu  Cu8  1  0.266610  0.961411  0.247168  1
  Cu  Cu9  1  0.766610  0.038589  0.752832  1
  Cu  Cu10  1  0.766610  0.538589  0.747168  1
  Cu  Cu11  1  0.266610  0.461411  0.252832  1
  Cu  Cu12  1  0.259338  0.795732  0.647002  1
  Cu  Cu13  1  0.759338  0.204268  0.352998  1
  Cu  Cu14  1  0.759338  0.704268  0.147002  1
  Cu  Cu15  1  0.259338  0.295732  0.852998  1
  Te  Te16  1  0.512132  0.963043  0.144093  1
  Te  Te17  1  0.012132  0.036957  0.855907  1
  Te  Te18  1  0.012132  0.536957  0.644093  1
  Te  Te19  1  0.512132  0.463043  0.355907  1
  Te  Te20  1  0.513361  0.946356  0.349045  1
  Te  Te21  1  0.013361  0.053644  0.650955  1
  Te  Te22  1  0.013361  0.553644  0.849045  1
  Te  Te23  1  0.513361  0.446356  0.150955  1
  Te  Te24  1  0.002202  0.711037  0.250449  1
  Te  Te25  1  0.502202  0.288963  0.749551  1
  Te  Te26  1  0.502202  0.788963  0.750449  1
  Te  Te27  1  0.002202  0.211037  0.249551  1
  Te  Te28  1  0.006923  0.690734  0.045199  1
  Te  Te29  1  0.506923  0.309266  0.954801  1
  Te  Te30  1  0.506923  0.809266  0.545199  1
  Te  Te31  1  0.006923  0.190734  0.454801  1
