# generated using pymatgen
data_BaMo2(PO4)4
_symmetry_space_group_name_H-M   'P 1'
_cell_length_a   6.54752041
_cell_length_b   12.60619000
_cell_length_c   9.34999410
_cell_angle_alpha   90.00000000
_cell_angle_beta   123.47187884
_cell_angle_gamma   90.00000000
_symmetry_Int_Tables_number   1
_chemical_formula_structural   BaMo2(PO4)4
_chemical_formula_sum   'Ba2 Mo4 P8 O32'
_cell_volume   643.75356202
_cell_formula_units_Z   2
loop_
 _symmetry_equiv_pos_site_id
 _symmetry_equiv_pos_as_xyz
  1  'x, y, z'
loop_
 _atom_site_type_symbol
 _atom_site_label
 _atom_site_symmetry_multiplicity
 _atom_site_fract_x
 _atom_site_fract_y
 _atom_site_fract_z
 _atom_site_occupancy
  Ba  Ba0  1  0.000000  0.000000  0.500000  1
  Ba  Ba1  1  0.000000  0.500000  0.000000  1
  Mo  Mo2  1  0.540612  0.310493  0.337201  1
  Mo  Mo3  1  0.459388  0.689507  0.662799  1
  Mo  Mo4  1  0.540612  0.189507  0.837201  1
  Mo  Mo5  1  0.459388  0.810493  0.162799  1
  P  P6  1  0.872951  0.693164  0.563826  1
  P  P7  1  0.655937  0.556604  0.251093  1
  P  P8  1  0.344063  0.056604  0.248907  1
  P  P9  1  0.655937  0.943396  0.751093  1
  P  P10  1  0.344063  0.443396  0.748907  1
  P  P11  1  0.872951  0.806836  0.063826  1
  P  P12  1  0.127049  0.306836  0.436174  1
  P  P13  1  0.127049  0.193164  0.936174  1
  O  O14  1  0.180027  0.468436  0.807605  1
  O  O15  1  0.180027  0.031564  0.307605  1
  O  O16  1  0.273256  0.283877  0.059722  1
  O  O17  1  0.195291  0.328664  0.305733  1
  O  O18  1  0.533812  0.147318  0.345403  1
  O  O19  1  0.816609  0.587335  0.452512  1
  O  O20  1  0.183391  0.412665  0.547488  1
  O  O21  1  0.318390  0.656365  0.452608  1
  O  O22  1  0.150207  0.710458  0.663376  1
  O  O23  1  0.318390  0.843635  0.952608  1
  O  O24  1  0.466188  0.852682  0.654597  1
  O  O25  1  0.681610  0.156365  0.047392  1
  O  O26  1  0.726744  0.716123  0.940278  1
  O  O27  1  0.505165  0.962575  0.257084  1
  O  O28  1  0.819973  0.531564  0.192395  1
  O  O29  1  0.849793  0.289542  0.336624  1
  O  O30  1  0.681610  0.343635  0.547392  1
  O  O31  1  0.804709  0.828664  0.194267  1
  O  O32  1  0.494835  0.462575  0.242916  1
  O  O33  1  0.183391  0.087335  0.047488  1
  O  O34  1  0.816609  0.912665  0.952512  1
  O  O35  1  0.726744  0.783877  0.440278  1
  O  O36  1  0.849793  0.210458  0.836624  1
  O  O37  1  0.804709  0.671336  0.694267  1
  O  O38  1  0.819973  0.968436  0.692395  1
  O  O39  1  0.505165  0.537425  0.757084  1
  O  O40  1  0.494835  0.037425  0.742916  1
  O  O41  1  0.533812  0.352682  0.845403  1
  O  O42  1  0.150207  0.789542  0.163376  1
  O  O43  1  0.195291  0.171336  0.805733  1
  O  O44  1  0.466188  0.647318  0.154597  1
  O  O45  1  0.273256  0.216123  0.559722  1
