# generated using pymatgen
data_K6Se2O9
_symmetry_space_group_name_H-M   'P 1'
_cell_length_a   8.27520247
_cell_length_b   8.27520247
_cell_length_c   17.77098832
_cell_angle_alpha   90.00000000
_cell_angle_beta   90.00000000
_cell_angle_gamma   90.00000000
_symmetry_Int_Tables_number   1
_chemical_formula_structural   K6Se2O9
_chemical_formula_sum   'K24 Se8 O36'
_cell_volume   1216.93908123
_cell_formula_units_Z   4
loop_
 _symmetry_equiv_pos_site_id
 _symmetry_equiv_pos_as_xyz
  1  'x, y, z'
loop_
 _atom_site_type_symbol
 _atom_site_label
 _atom_site_symmetry_multiplicity
 _atom_site_fract_x
 _atom_site_fract_y
 _atom_site_fract_z
 _atom_site_occupancy
  K  K0  1  0.456334  0.499941  0.645914  1
  K  K1  1  0.790625  0.775731  0.253554  1
  K  K2  1  0.290625  0.724269  0.496446  1
  K  K3  1  0.002041  0.475587  0.372844  1
  K  K4  1  0.502041  0.024413  0.377156  1
  K  K5  1  0.224269  0.209375  0.246446  1
  K  K6  1  0.275731  0.709375  0.003554  1
  K  K7  1  0.975587  0.497959  0.122844  1
  K  K8  1  0.043666  0.999941  0.604086  1
  K  K9  1  0.956334  0.000059  0.104086  1
  K  K10  1  0.999941  0.043666  0.395914  1
  K  K11  1  0.499941  0.456334  0.354086  1
  K  K12  1  0.475587  0.002041  0.627156  1
  K  K13  1  0.775731  0.790625  0.746446  1
  K  K14  1  0.024413  0.502041  0.622844  1
  K  K15  1  0.500059  0.543666  0.854086  1
  K  K16  1  0.497959  0.975587  0.877156  1
  K  K17  1  0.997959  0.524413  0.872844  1
  K  K18  1  0.543666  0.500059  0.145914  1
  K  K19  1  0.724269  0.290625  0.503554  1
  K  K20  1  0.000059  0.956334  0.895914  1
  K  K21  1  0.709375  0.275731  0.996446  1
  K  K22  1  0.209375  0.224269  0.753554  1
  K  K23  1  0.524413  0.997959  0.127156  1
  Se  Se24  1  0.245657  0.754343  0.750000  1
  Se  Se25  1  0.734038  0.265962  0.750000  1
  Se  Se26  1  0.765962  0.765962  0.500000  1
  Se  Se27  1  0.754343  0.245657  0.250000  1
  Se  Se28  1  0.745657  0.745657  0.000000  1
  Se  Se29  1  0.234038  0.234038  0.000000  1
  Se  Se30  1  0.254343  0.254343  0.500000  1
  Se  Se31  1  0.265962  0.734038  0.250000  1
  O  O32  1  0.964240  0.735175  0.485856  1
  O  O33  1  0.404938  0.404938  0.500000  1
  O  O34  1  0.757861  0.247456  0.146613  1
  O  O35  1  0.095062  0.904938  0.750000  1
  O  O36  1  0.546822  0.198997  0.248366  1
  O  O37  1  0.035760  0.264825  0.985856  1
  O  O38  1  0.535760  0.235175  0.764144  1
  O  O39  1  0.209064  0.837635  0.173356  1
  O  O40  1  0.242139  0.752544  0.646613  1
  O  O41  1  0.747456  0.742139  0.896613  1
  O  O42  1  0.235175  0.535760  0.235856  1
  O  O43  1  0.837635  0.209064  0.826644  1
  O  O44  1  0.247456  0.757861  0.853387  1
  O  O45  1  0.337635  0.290936  0.923356  1
  O  O46  1  0.257861  0.252544  0.603387  1
  O  O47  1  0.764825  0.464240  0.735856  1
  O  O48  1  0.709064  0.662365  0.576644  1
  O  O49  1  0.264825  0.035760  0.014144  1
  O  O50  1  0.790936  0.162365  0.673356  1
  O  O51  1  0.453178  0.801003  0.748366  1
  O  O52  1  0.301003  0.046822  0.498366  1
  O  O53  1  0.046822  0.301003  0.501634  1
  O  O54  1  0.595062  0.595062  0.000000  1
  O  O55  1  0.252544  0.257861  0.396613  1
  O  O56  1  0.698997  0.953178  0.998366  1
  O  O57  1  0.464240  0.764825  0.264144  1
  O  O58  1  0.735175  0.964240  0.514144  1
  O  O59  1  0.290936  0.337635  0.076644  1
  O  O60  1  0.742139  0.747456  0.103387  1
  O  O61  1  0.801003  0.453178  0.251634  1
  O  O62  1  0.162365  0.790936  0.326644  1
  O  O63  1  0.752544  0.242139  0.353387  1
  O  O64  1  0.198997  0.546822  0.751634  1
  O  O65  1  0.662365  0.709064  0.423356  1
  O  O66  1  0.904938  0.095062  0.250000  1
  O  O67  1  0.953178  0.698997  0.001634  1
