# generated using pymatgen
data_LiMnF4
_symmetry_space_group_name_H-M   'P 1'
_cell_length_a   5.53378314
_cell_length_b   4.73684255
_cell_length_c   5.82388550
_cell_angle_alpha   90.00000000
_cell_angle_beta   113.47015626
_cell_angle_gamma   90.00000000
_symmetry_Int_Tables_number   1
_chemical_formula_structural   LiMnF4
_chemical_formula_sum   'Li2 Mn2 F8'
_cell_volume   140.02964551
_cell_formula_units_Z   2
loop_
 _symmetry_equiv_pos_site_id
 _symmetry_equiv_pos_as_xyz
  1  'x, y, z'
loop_
 _atom_site_type_symbol
 _atom_site_label
 _atom_site_symmetry_multiplicity
 _atom_site_fract_x
 _atom_site_fract_y
 _atom_site_fract_z
 _atom_site_occupancy
  Li  Li0  1  0.500000  0.500000  0.500000  1
  Li  Li1  1  0.500000  0.000000  0.000000  1
  Mn  Mn2  1  0.000000  0.000000  0.500000  1
  Mn  Mn3  1  0.000000  0.500000  0.000000  1
  F  F4  1  0.851951  0.218333  0.141001  1
  F  F5  1  0.326173  0.180848  0.642200  1
  F  F6  1  0.148049  0.781667  0.858999  1
  F  F7  1  0.148049  0.718333  0.358999  1
  F  F8  1  0.851951  0.281667  0.641001  1
  F  F9  1  0.673827  0.819152  0.357800  1
  F  F10  1  0.326173  0.319152  0.142200  1
  F  F11  1  0.673827  0.680848  0.857800  1
