# generated using pymatgen
data_Sc2PbSe4
_symmetry_space_group_name_H-M   'P 1'
_cell_length_a   3.94300350
_cell_length_b   12.35381368
_cell_length_c   14.40348855
_cell_angle_alpha   90.00000000
_cell_angle_beta   90.00000000
_cell_angle_gamma   90.00000000
_symmetry_Int_Tables_number   1
_chemical_formula_structural   Sc2PbSe4
_chemical_formula_sum   'Sc8 Pb4 Se16'
_cell_volume   701.61021155
_cell_formula_units_Z   4
loop_
 _symmetry_equiv_pos_site_id
 _symmetry_equiv_pos_as_xyz
  1  'x, y, z'
loop_
 _atom_site_type_symbol
 _atom_site_label
 _atom_site_symmetry_multiplicity
 _atom_site_fract_x
 _atom_site_fract_y
 _atom_site_fract_z
 _atom_site_occupancy
  Sc  Sc0  1  0.750000  0.552695  0.388690  1
  Sc  Sc1  1  0.250000  0.447305  0.611310  1
  Sc  Sc2  1  0.750000  0.052695  0.111310  1
  Sc  Sc3  1  0.250000  0.947305  0.888690  1
  Sc  Sc4  1  0.750000  0.582942  0.906114  1
  Sc  Sc5  1  0.250000  0.417058  0.093886  1
  Sc  Sc6  1  0.750000  0.082942  0.593886  1
  Sc  Sc7  1  0.250000  0.917058  0.406114  1
  Pb  Pb8  1  0.750000  0.240126  0.323363  1
  Pb  Pb9  1  0.250000  0.759874  0.676637  1
  Pb  Pb10  1  0.750000  0.740126  0.176637  1
  Pb  Pb11  1  0.250000  0.259874  0.823363  1
  Se  Se12  1  0.750000  0.798026  0.843478  1
  Se  Se13  1  0.250000  0.201974  0.156522  1
  Se  Se14  1  0.750000  0.298026  0.656522  1
  Se  Se15  1  0.250000  0.701974  0.343478  1
  Se  Se16  1  0.750000  0.876708  0.531279  1
  Se  Se17  1  0.250000  0.123292  0.468721  1
  Se  Se18  1  0.750000  0.376708  0.968721  1
  Se  Se19  1  0.250000  0.623292  0.031279  1
  Se  Se20  1  0.750000  0.466289  0.215101  1
  Se  Se21  1  0.250000  0.533711  0.784899  1
  Se  Se22  1  0.750000  0.966289  0.284899  1
  Se  Se23  1  0.250000  0.033711  0.715101  1
  Se  Se24  1  0.750000  0.591585  0.572162  1
  Se  Se25  1  0.250000  0.408415  0.427838  1
  Se  Se26  1  0.750000  0.091585  0.927838  1
  Se  Se27  1  0.250000  0.908415  0.072162  1
