# generated using pymatgen
data_CuHgSeCl
_symmetry_space_group_name_H-M   'P 1'
_cell_length_a   4.25160870
_cell_length_b   7.17399218
_cell_length_c   13.08780877
_cell_angle_alpha   90.00000000
_cell_angle_beta   90.00000000
_cell_angle_gamma   90.00000000
_symmetry_Int_Tables_number   1
_chemical_formula_structural   CuHgSeCl
_chemical_formula_sum   'Cu4 Hg4 Se4 Cl4'
_cell_volume   399.19135432
_cell_formula_units_Z   4
loop_
 _symmetry_equiv_pos_site_id
 _symmetry_equiv_pos_as_xyz
  1  'x, y, z'
loop_
 _atom_site_type_symbol
 _atom_site_label
 _atom_site_symmetry_multiplicity
 _atom_site_fract_x
 _atom_site_fract_y
 _atom_site_fract_z
 _atom_site_occupancy
  Cu  Cu0  1  0.500000  0.751250  0.457611  1
  Cu  Cu1  1  0.500000  0.251250  0.042389  1
  Cu  Cu2  1  0.500000  0.248750  0.542389  1
  Cu  Cu3  1  0.500000  0.748750  0.957611  1
  Hg  Hg4  1  0.000000  0.606330  0.236742  1
  Hg  Hg5  1  0.000000  0.106330  0.263258  1
  Hg  Hg6  1  0.000000  0.393670  0.763258  1
  Hg  Hg7  1  0.000000  0.893670  0.736742  1
  Se  Se8  1  0.000000  0.832205  0.388766  1
  Se  Se9  1  0.000000  0.667795  0.888766  1
  Se  Se10  1  0.000000  0.167795  0.611234  1
  Se  Se11  1  0.000000  0.332205  0.111234  1
  Cl  Cl12  1  0.500000  0.853449  0.119313  1
  Cl  Cl13  1  0.500000  0.353449  0.380687  1
  Cl  Cl14  1  0.500000  0.146551  0.880687  1
  Cl  Cl15  1  0.500000  0.646551  0.619313  1
