# generated using pymatgen
data_Bi2Se4Cl7
_symmetry_space_group_name_H-M   'P 1'
_cell_length_a   10.75908260
_cell_length_b   12.09464281
_cell_length_c   13.93255945
_cell_angle_alpha   104.22232217
_cell_angle_beta   86.27284150
_cell_angle_gamma   112.09925298
_symmetry_Int_Tables_number   1
_chemical_formula_structural   Bi2Se4Cl7
_chemical_formula_sum   'Bi8 Se16 Cl28'
_cell_volume   1627.56470161
_cell_formula_units_Z   4
loop_
 _symmetry_equiv_pos_site_id
 _symmetry_equiv_pos_as_xyz
  1  'x, y, z'
loop_
 _atom_site_type_symbol
 _atom_site_label
 _atom_site_symmetry_multiplicity
 _atom_site_fract_x
 _atom_site_fract_y
 _atom_site_fract_z
 _atom_site_occupancy
  Bi  Bi0  1  0.998355  0.167762  0.309545  1
  Bi  Bi1  1  0.787707  0.952756  0.996256  1
  Bi  Bi2  1  0.212293  0.047244  0.003744  1
  Bi  Bi3  1  0.001645  0.832238  0.690455  1
  Bi  Bi4  1  0.326052  0.061600  0.510177  1
  Bi  Bi5  1  0.641204  0.156471  0.818198  1
  Bi  Bi6  1  0.358796  0.843529  0.181802  1
  Bi  Bi7  1  0.673948  0.938400  0.489823  1
  Se  Se8  1  0.251131  0.547805  0.581121  1
  Se  Se9  1  0.132708  0.396652  0.914056  1
  Se  Se10  1  0.748869  0.452195  0.418879  1
  Se  Se11  1  0.603785  0.304681  0.287837  1
  Se  Se12  1  0.144661  0.386117  0.659744  1
  Se  Se13  1  0.932216  0.513453  0.195752  1
  Se  Se14  1  0.067784  0.486547  0.804248  1
  Se  Se15  1  0.410014  0.422325  0.764389  1
  Se  Se16  1  0.867292  0.603348  0.085944  1
  Se  Se17  1  0.396215  0.695319  0.712163  1
  Se  Se18  1  0.589986  0.577675  0.235611  1
  Se  Se19  1  0.855339  0.613883  0.340256  1
  Se  Se20  1  0.640542  0.469282  0.082554  1
  Se  Se21  1  0.359458  0.530718  0.917446  1
  Se  Se22  1  0.462223  0.416315  0.311559  1
  Se  Se23  1  0.537777  0.583685  0.688441  1
  Cl  Cl24  1  0.796801  0.228066  0.972114  1
  Cl  Cl25  1  0.531352  0.010720  0.372827  1
  Cl  Cl26  1  0.585522  0.919416  0.868940  1
  Cl  Cl27  1  0.765067  0.795790  0.573801  1
  Cl  Cl28  1  0.702808  0.384902  0.821448  1
  Cl  Cl29  1  0.174923  0.874234  0.301147  1
  Cl  Cl30  1  0.980856  0.941788  0.113193  1
  Cl  Cl31  1  0.175875  0.096349  0.660502  1
  Cl  Cl32  1  0.602896  0.802764  0.088803  1
  Cl  Cl33  1  0.019144  0.058212  0.886807  1
  Cl  Cl34  1  0.802817  0.152316  0.199325  1
  Cl  Cl35  1  0.806862  0.758162  0.883499  1
  Cl  Cl36  1  0.234933  0.204210  0.426199  1
  Cl  Cl37  1  0.193138  0.241838  0.116501  1
  Cl  Cl38  1  0.297192  0.615098  0.178552  1
  Cl  Cl39  1  0.873656  0.202456  0.470925  1
  Cl  Cl40  1  0.097836  0.401341  0.338319  1
  Cl  Cl41  1  0.414478  0.080584  0.131060  1
  Cl  Cl42  1  0.397104  0.197236  0.911197  1
  Cl  Cl43  1  0.203199  0.771934  0.027886  1
  Cl  Cl44  1  0.825077  0.125766  0.698853  1
  Cl  Cl45  1  0.514028  0.271689  0.574152  1
  Cl  Cl46  1  0.126344  0.797544  0.529075  1
  Cl  Cl47  1  0.902164  0.598659  0.661681  1
  Cl  Cl48  1  0.197183  0.847684  0.800675  1
  Cl  Cl49  1  0.468648  0.989280  0.627173  1
  Cl  Cl50  1  0.824125  0.903651  0.339498  1
  Cl  Cl51  1  0.485972  0.728311  0.425848  1
