# generated using pymatgen
data_CrP(HO)5
_symmetry_space_group_name_H-M   'P 1'
_cell_length_a   6.82348103
_cell_length_b   7.63402531
_cell_length_c   9.32778036
_cell_angle_alpha   90.00000000
_cell_angle_beta   90.00000000
_cell_angle_gamma   90.00000000
_symmetry_Int_Tables_number   1
_chemical_formula_structural   CrP(HO)5
_chemical_formula_sum   'Cr4 P4 H20 O20'
_cell_volume   485.88992640
_cell_formula_units_Z   4
loop_
 _symmetry_equiv_pos_site_id
 _symmetry_equiv_pos_as_xyz
  1  'x, y, z'
loop_
 _atom_site_type_symbol
 _atom_site_label
 _atom_site_symmetry_multiplicity
 _atom_site_fract_x
 _atom_site_fract_y
 _atom_site_fract_z
 _atom_site_occupancy
  Cr  Cr0  1  0.225949  0.532613  0.594544  1
  Cr  Cr1  1  0.725949  0.967387  0.405456  1
  Cr  Cr2  1  0.774051  0.032613  0.905456  1
  Cr  Cr3  1  0.274051  0.467387  0.094544  1
  P  P4  1  0.481174  0.178942  0.650262  1
  P  P5  1  0.981174  0.321058  0.349738  1
  P  P6  1  0.518826  0.678942  0.849738  1
  P  P7  1  0.018826  0.821058  0.150262  1
  H  H8  1  0.628666  0.299495  0.613977  1
  H  H9  1  0.128666  0.200505  0.386023  1
  H  H10  1  0.371334  0.799495  0.886023  1
  H  H11  1  0.871334  0.700505  0.113977  1
  H  H12  1  0.308724  0.876901  0.534451  1
  H  H13  1  0.808724  0.623099  0.465549  1
  H  H14  1  0.691276  0.376901  0.965549  1
  H  H15  1  0.191276  0.123099  0.034451  1
  H  H16  1  0.122454  0.820782  0.436959  1
  H  H17  1  0.622454  0.679218  0.563041  1
  H  H18  1  0.877546  0.320782  0.063041  1
  H  H19  1  0.377546  0.179218  0.936959  1
  H  H20  1  0.527188  0.555877  0.344270  1
  H  H21  1  0.027188  0.944123  0.655730  1
  H  H22  1  0.472812  0.055877  0.155730  1
  H  H23  1  0.972812  0.444123  0.844270  1
  H  H24  1  0.574907  0.359325  0.320585  1
  H  H25  1  0.074907  0.140675  0.679415  1
  H  H26  1  0.425093  0.859325  0.179415  1
  H  H27  1  0.925093  0.640675  0.820585  1
  O  O28  1  0.493591  0.027264  0.540699  1
  O  O29  1  0.993591  0.472736  0.459301  1
  O  O30  1  0.506409  0.527264  0.959301  1
  O  O31  1  0.006409  0.972736  0.040699  1
  O  O32  1  0.281013  0.272401  0.643180  1
  O  O33  1  0.781013  0.227599  0.356820  1
  O  O34  1  0.718987  0.772401  0.856820  1
  O  O35  1  0.218987  0.727599  0.143180  1
  O  O36  1  0.519828  0.115996  0.805399  1
  O  O37  1  0.019828  0.384004  0.194601  1
  O  O38  1  0.480172  0.615996  0.694601  1
  O  O39  1  0.980172  0.884004  0.305399  1
  O  O40  1  0.192308  0.796320  0.530311  1
  O  O41  1  0.692308  0.703680  0.469689  1
  O  O42  1  0.807692  0.296320  0.969689  1
  O  O43  1  0.307692  0.203680  0.030311  1
  O  O44  1  0.468419  0.447185  0.307280  1
  O  O45  1  0.968419  0.052815  0.692720  1
  O  O46  1  0.531581  0.947185  0.192720  1
  O  O47  1  0.031581  0.552815  0.807280  1
