# generated using pymatgen
data_KEr(PO3)4
_symmetry_space_group_name_H-M   'P 1'
_cell_length_a   10.38235890
_cell_length_b   8.93721084
_cell_length_c   12.76954222
_cell_angle_alpha   90.00000000
_cell_angle_beta   124.87099090
_cell_angle_gamma   90.00000000
_symmetry_Int_Tables_number   1
_chemical_formula_structural   KEr(PO3)4
_chemical_formula_sum   'K4 Er4 P16 O48'
_cell_volume   972.12242918
_cell_formula_units_Z   4
loop_
 _symmetry_equiv_pos_site_id
 _symmetry_equiv_pos_as_xyz
  1  'x, y, z'
loop_
 _atom_site_type_symbol
 _atom_site_label
 _atom_site_symmetry_multiplicity
 _atom_site_fract_x
 _atom_site_fract_y
 _atom_site_fract_z
 _atom_site_occupancy
  K  K0  1  0.745659  0.567248  0.041272  1
  K  K1  1  0.254341  0.067248  0.458728  1
  K  K2  1  0.254341  0.432752  0.958728  1
  K  K3  1  0.745659  0.932752  0.541272  1
  Er  Er4  1  0.815236  0.272404  0.315877  1
  Er  Er5  1  0.184764  0.772404  0.184123  1
  Er  Er6  1  0.184764  0.727596  0.684123  1
  Er  Er7  1  0.815236  0.227596  0.815877  1
  P  P8  1  0.698545  0.388566  0.521798  1
  P  P9  1  0.301455  0.888566  0.978202  1
  P  P10  1  0.301455  0.611434  0.478202  1
  P  P11  1  0.698545  0.111434  0.021798  1
  P  P12  1  0.889920  0.592412  0.741821  1
  P  P13  1  0.110080  0.092412  0.758179  1
  P  P14  1  0.110080  0.407588  0.258179  1
  P  P15  1  0.889920  0.907588  0.241821  1
  P  P16  1  0.520946  0.522881  0.273611  1
  P  P17  1  0.479054  0.022881  0.226389  1
  P  P18  1  0.479054  0.477119  0.726389  1
  P  P19  1  0.520946  0.977119  0.773611  1
  P  P20  1  0.822429  0.669277  0.363240  1
  P  P21  1  0.177571  0.169277  0.136760  1
  P  P22  1  0.177571  0.330723  0.636760  1
  P  P23  1  0.822429  0.830723  0.863240  1
  O  O24  1  0.798177  0.332424  0.479960  1
  O  O25  1  0.201823  0.832424  0.020040  1
  O  O26  1  0.201823  0.667576  0.520040  1
  O  O27  1  0.798177  0.167576  0.979960  1
  O  O28  1  0.535811  0.449920  0.396854  1
  O  O29  1  0.464189  0.949920  0.103146  1
  O  O30  1  0.464189  0.550080  0.603146  1
  O  O31  1  0.535811  0.050080  0.896854  1
  O  O32  1  0.650837  0.656196  0.337798  1
  O  O33  1  0.349163  0.156196  0.162202  1
  O  O34  1  0.349163  0.343804  0.662202  1
  O  O35  1  0.650837  0.843804  0.837798  1
  O  O36  1  0.566224  0.411987  0.211195  1
  O  O37  1  0.433776  0.911987  0.288805  1
  O  O38  1  0.433776  0.588013  0.788805  1
  O  O39  1  0.566224  0.088013  0.711195  1
  O  O40  1  0.664917  0.286384  0.596739  1
  O  O41  1  0.335083  0.786384  0.903261  1
  O  O42  1  0.335083  0.713616  0.403261  1
  O  O43  1  0.664917  0.213616  0.096739  1
  O  O44  1  0.927050  0.459432  0.826643  1
  O  O45  1  0.072950  0.959432  0.673357  1
  O  O46  1  0.072950  0.540568  0.173357  1
  O  O47  1  0.927050  0.040568  0.326643  1
  O  O48  1  0.778532  0.709793  0.752550  1
  O  O49  1  0.221468  0.209793  0.747450  1
  O  O50  1  0.221468  0.290207  0.247450  1
  O  O51  1  0.778532  0.790207  0.252550  1
  O  O52  1  0.976656  0.322253  0.243468  1
  O  O53  1  0.023344  0.822253  0.256532  1
  O  O54  1  0.023344  0.677747  0.756532  1
  O  O55  1  0.976656  0.177747  0.743468  1
  O  O56  1  0.864894  0.526206  0.328457  1
  O  O57  1  0.135106  0.026206  0.171543  1
  O  O58  1  0.135106  0.473794  0.671543  1
  O  O59  1  0.864894  0.973794  0.828457  1
  O  O60  1  0.767050  0.547156  0.594994  1
  O  O61  1  0.232950  0.047156  0.905006  1
  O  O62  1  0.232950  0.452844  0.405006  1
  O  O63  1  0.767050  0.952844  0.094994  1
  O  O64  1  0.639257  0.408631  0.807601  1
  O  O65  1  0.360743  0.908631  0.692399  1
  O  O66  1  0.360743  0.591369  0.192399  1
  O  O67  1  0.639257  0.091369  0.307601  1
  O  O68  1  0.927880  0.738882  0.492382  1
  O  O69  1  0.072120  0.238882  0.007618  1
  O  O70  1  0.072120  0.261118  0.507618  1
  O  O71  1  0.927880  0.761118  0.992382  1
