# generated using pymatgen
data_LiCu(PO3)3
_symmetry_space_group_name_H-M   'P 1'
_cell_length_a   9.59125098
_cell_length_b   9.60524401
_cell_length_c   9.62705181
_cell_angle_alpha   105.86045236
_cell_angle_beta   106.85713727
_cell_angle_gamma   112.67707472
_symmetry_Int_Tables_number   1
_chemical_formula_structural   LiCu(PO3)3
_chemical_formula_sum   'Li4 Cu4 P12 O36'
_cell_volume   704.77951672
_cell_formula_units_Z   4
loop_
 _symmetry_equiv_pos_site_id
 _symmetry_equiv_pos_as_xyz
  1  'x, y, z'
loop_
 _atom_site_type_symbol
 _atom_site_label
 _atom_site_symmetry_multiplicity
 _atom_site_fract_x
 _atom_site_fract_y
 _atom_site_fract_z
 _atom_site_occupancy
  Li  Li0  1  0.652261  0.068284  0.501347  1
  Li  Li1  1  0.638231  0.833104  0.681168  1
  Li  Li2  1  0.361769  0.166896  0.318832  1
  Li  Li3  1  0.347739  0.931716  0.498653  1
  Cu  Cu4  1  0.102357  0.292938  0.213745  1
  Cu  Cu5  1  0.897643  0.707062  0.786255  1
  Cu  Cu6  1  0.258141  0.769558  0.718180  1
  Cu  Cu7  1  0.741859  0.230442  0.281820  1
  P  P8  1  0.424104  0.664428  0.295819  1
  P  P9  1  0.013251  0.395076  0.646745  1
  P  P10  1  0.812776  0.916279  0.076384  1
  P  P11  1  0.986749  0.604924  0.353255  1
  P  P12  1  0.683209  0.569471  0.411199  1
  P  P13  1  0.187224  0.083721  0.923616  1
  P  P14  1  0.316791  0.430529  0.588801  1
  P  P15  1  0.953311  0.212844  0.843615  1
  P  P16  1  0.512814  0.148312  0.899278  1
  P  P17  1  0.487186  0.851688  0.100722  1
  P  P18  1  0.575896  0.335572  0.704181  1
  P  P19  1  0.046689  0.787156  0.156385  1
  O  O20  1  0.505732  0.176315  0.556703  1
  O  O21  1  0.211597  0.927003  0.294619  1
  O  O22  1  0.944591  0.428377  0.325080  1
  O  O23  1  0.433208  0.385228  0.704504  1
  O  O24  1  0.437670  0.985623  0.749878  1
  O  O25  1  0.960381  0.269449  0.007864  1
  O  O26  1  0.788403  0.072997  0.705381  1
  O  O27  1  0.395436  0.615273  0.641752  1
  O  O28  1  0.841271  0.639652  0.370172  1
  O  O29  1  0.104532  0.177467  0.845309  1
  O  O30  1  0.984650  0.623976  0.193577  1
  O  O31  1  0.634092  0.172652  0.053235  1
  O  O32  1  0.262050  0.312957  0.416414  1
  O  O33  1  0.264382  0.517626  0.258548  1
  O  O34  1  0.895468  0.822533  0.154691  1
  O  O35  1  0.055409  0.571623  0.674920  1
  O  O36  1  0.786723  0.869965  0.905789  1
  O  O37  1  0.365015  0.177679  0.918915  1
  O  O38  1  0.365908  0.827348  0.946765  1
  O  O39  1  0.093006  0.901166  0.802733  1
  O  O40  1  0.154674  0.743623  0.494282  1
  O  O41  1  0.604564  0.384727  0.358248  1
  O  O42  1  0.039619  0.730551  0.992136  1
  O  O43  1  0.494268  0.823685  0.443297  1
  O  O44  1  0.608226  0.301838  0.863031  1
  O  O45  1  0.213277  0.130035  0.094211  1
  O  O46  1  0.562330  0.014377  0.250122  1
  O  O47  1  0.634985  0.822321  0.081085  1
  O  O48  1  0.158729  0.360348  0.629828  1
  O  O49  1  0.015350  0.376024  0.806423  1
  O  O50  1  0.566792  0.614772  0.295496  1
  O  O51  1  0.906994  0.098834  0.197267  1
  O  O52  1  0.845326  0.256377  0.505718  1
  O  O53  1  0.735618  0.482374  0.741452  1
  O  O54  1  0.737950  0.687043  0.583586  1
  O  O55  1  0.391774  0.698162  0.136969  1
