# generated using pymatgen
data_Mg5B3O9F
_symmetry_space_group_name_H-M   'P 1'
_cell_length_a   4.57346946
_cell_length_b   10.18582009
_cell_length_c   15.00284350
_cell_angle_alpha   90.00000000
_cell_angle_beta   90.00000000
_cell_angle_gamma   90.00000000
_symmetry_Int_Tables_number   1
_chemical_formula_structural   Mg5B3O9F
_chemical_formula_sum   'Mg20 B12 O36 F4'
_cell_volume   698.90051973
_cell_formula_units_Z   4
loop_
 _symmetry_equiv_pos_site_id
 _symmetry_equiv_pos_as_xyz
  1  'x, y, z'
loop_
 _atom_site_type_symbol
 _atom_site_label
 _atom_site_symmetry_multiplicity
 _atom_site_fract_x
 _atom_site_fract_y
 _atom_site_fract_z
 _atom_site_occupancy
  Mg  Mg0  1  0.500472  0.369296  0.057399  1
  Mg  Mg1  1  0.010180  0.848670  0.851479  1
  Mg  Mg2  1  0.000472  0.130704  0.557399  1
  Mg  Mg3  1  0.000472  0.130704  0.942601  1
  Mg  Mg4  1  0.997663  0.580059  0.750000  1
  Mg  Mg5  1  0.500472  0.369296  0.442601  1
  Mg  Mg6  1  0.499528  0.630704  0.557399  1
  Mg  Mg7  1  0.489820  0.348670  0.648521  1
  Mg  Mg8  1  0.002337  0.419941  0.250000  1
  Mg  Mg9  1  0.489820  0.348670  0.851479  1
  Mg  Mg10  1  0.999528  0.869296  0.057399  1
  Mg  Mg11  1  0.497663  0.919941  0.250000  1
  Mg  Mg12  1  0.510180  0.651330  0.148521  1
  Mg  Mg13  1  0.010180  0.848670  0.648521  1
  Mg  Mg14  1  0.510180  0.651330  0.351479  1
  Mg  Mg15  1  0.989820  0.151330  0.351479  1
  Mg  Mg16  1  0.499528  0.630704  0.942601  1
  Mg  Mg17  1  0.999528  0.869296  0.442601  1
  Mg  Mg18  1  0.989820  0.151330  0.148521  1
  Mg  Mg19  1  0.502337  0.080059  0.750000  1
  B  B20  1  0.465460  0.924949  0.576300  1
  B  B21  1  0.965460  0.575051  0.076300  1
  B  B22  1  0.954631  0.221924  0.750000  1
  B  B23  1  0.454631  0.278076  0.250000  1
  B  B24  1  0.534540  0.075051  0.076300  1
  B  B25  1  0.034540  0.424949  0.576300  1
  B  B26  1  0.545369  0.721924  0.750000  1
  B  B27  1  0.965460  0.575051  0.423700  1
  B  B28  1  0.534540  0.075051  0.423700  1
  B  B29  1  0.045369  0.778076  0.250000  1
  B  B30  1  0.465460  0.924949  0.923700  1
  B  B31  1  0.034540  0.424949  0.923700  1
  O  O32  1  0.744078  0.445719  0.945796  1
  O  O33  1  0.188519  0.507446  0.865332  1
  O  O34  1  0.701497  0.700712  0.828915  1
  O  O35  1  0.244078  0.054281  0.445796  1
  O  O36  1  0.255922  0.554281  0.054204  1
  O  O37  1  0.193180  0.315343  0.545864  1
  O  O38  1  0.744078  0.445719  0.554204  1
  O  O39  1  0.806820  0.684657  0.454136  1
  O  O40  1  0.306820  0.815343  0.545864  1
  O  O41  1  0.249095  0.252636  0.750000  1
  O  O42  1  0.798503  0.200712  0.671085  1
  O  O43  1  0.188519  0.507446  0.634668  1
  O  O44  1  0.193180  0.315343  0.954136  1
  O  O45  1  0.244078  0.054281  0.054204  1
  O  O46  1  0.755922  0.945719  0.554204  1
  O  O47  1  0.255922  0.554281  0.445796  1
  O  O48  1  0.693180  0.184657  0.454136  1
  O  O49  1  0.811481  0.492554  0.365332  1
  O  O50  1  0.688519  0.992554  0.134668  1
  O  O51  1  0.750905  0.747364  0.250000  1
  O  O52  1  0.798503  0.200712  0.828915  1
  O  O53  1  0.298503  0.299288  0.328915  1
  O  O54  1  0.811481  0.492554  0.134668  1
  O  O55  1  0.201497  0.799288  0.171085  1
  O  O56  1  0.250905  0.752636  0.750000  1
  O  O57  1  0.298503  0.299288  0.171085  1
  O  O58  1  0.755922  0.945719  0.945796  1
  O  O59  1  0.306820  0.815343  0.954136  1
  O  O60  1  0.311481  0.007446  0.865332  1
  O  O61  1  0.201497  0.799288  0.328915  1
  O  O62  1  0.806820  0.684657  0.045864  1
  O  O63  1  0.749095  0.247364  0.250000  1
  O  O64  1  0.688519  0.992554  0.365332  1
  O  O65  1  0.701497  0.700712  0.671085  1
  O  O66  1  0.693180  0.184657  0.045864  1
  O  O67  1  0.311481  0.007446  0.634668  1
  F  F68  1  0.315181  0.557913  0.250000  1
  F  F69  1  0.684819  0.442087  0.750000  1
  F  F70  1  0.184819  0.057913  0.250000  1
  F  F71  1  0.815181  0.942087  0.750000  1
