# generated using pymatgen
data_Ba17Dy16Zn8Pt4O57
_symmetry_space_group_name_H-M   'P 1'
_cell_length_a   16.61414802
_cell_length_b   16.61414802
_cell_length_c   16.61414802
_cell_angle_alpha   91.72895022
_cell_angle_beta   91.72895022
_cell_angle_gamma   159.99410243
_symmetry_Int_Tables_number   1
_chemical_formula_structural   Ba17Dy16Zn8Pt4O57
_chemical_formula_sum   'Ba17 Dy16 Zn8 Pt4 O57'
_cell_volume   1545.09870430
_cell_formula_units_Z   1
loop_
 _symmetry_equiv_pos_site_id
 _symmetry_equiv_pos_as_xyz
  1  'x, y, z'
loop_
 _atom_site_type_symbol
 _atom_site_label
 _atom_site_symmetry_multiplicity
 _atom_site_fract_x
 _atom_site_fract_y
 _atom_site_fract_z
 _atom_site_occupancy
  Ba  Ba0  1  0.932406  0.441659  0.374065  1
  Ba  Ba1  1  0.723372  0.888098  0.611470  1
  Ba  Ba2  1  0.658254  0.649565  0.307820  1
  Ba  Ba3  1  0.067594  0.558341  0.625935  1
  Ba  Ba4  1  0.810828  0.732309  0.543137  1
  Ba  Ba5  1  0.732309  0.189172  0.921481  1
  Ba  Ba6  1  0.350435  0.658254  0.008689  1
  Ba  Ba7  1  0.649565  0.341746  0.991311  1
  Ba  Ba8  1  0.888098  0.276628  0.164727  1
  Ba  Ba9  1  0.189172  0.267691  0.456863  1
  Ba  Ba10  1  0.267691  0.810828  0.078519  1
  Ba  Ba11  1  0.558341  0.932406  0.490747  1
  Ba  Ba12  1  0.441659  0.067594  0.509253  1
  Ba  Ba13  1  0.341746  0.350435  0.692180  1
  Ba  Ba14  1  0.276628  0.111902  0.388530  1
  Ba  Ba15  1  0.000000  0.000000  0.000000  1
  Ba  Ba16  1  0.111902  0.723372  0.835273  1
  Dy  Dy17  1  0.511616  0.400345  0.911961  1
  Dy  Dy18  1  0.250392  0.493725  0.744117  1
  Dy  Dy19  1  0.673756  0.049773  0.723528  1
  Dy  Dy20  1  0.950227  0.673756  0.623983  1
  Dy  Dy21  1  0.749608  0.506275  0.255883  1
  Dy  Dy22  1  0.488384  0.599655  0.088039  1
  Dy  Dy23  1  0.493725  0.749608  0.243332  1
  Dy  Dy24  1  0.049773  0.326244  0.376017  1
  Dy  Dy25  1  0.052340  0.172046  0.224386  1
  Dy  Dy26  1  0.599655  0.511616  0.111272  1
  Dy  Dy27  1  0.506275  0.250392  0.756668  1
  Dy  Dy28  1  0.827954  0.052340  0.880294  1
  Dy  Dy29  1  0.400345  0.488384  0.888728  1
  Dy  Dy30  1  0.172046  0.947660  0.119706  1
  Dy  Dy31  1  0.947660  0.827954  0.775614  1
  Dy  Dy32  1  0.326244  0.950227  0.276472  1
  Zn  Zn33  1  0.866427  0.924274  0.790701  1
  Zn  Zn34  1  0.075726  0.866427  0.942154  1
  Zn  Zn35  1  0.212317  0.620900  0.833217  1
  Zn  Zn36  1  0.133573  0.075726  0.209299  1
  Zn  Zn37  1  0.924274  0.133573  0.057846  1
  Zn  Zn38  1  0.620900  0.787683  0.408583  1
  Zn  Zn39  1  0.379100  0.212317  0.591417  1
  Zn  Zn40  1  0.787683  0.379100  0.166783  1
  Pt  Pt41  1  0.855689  0.582944  0.438633  1
  Pt  Pt42  1  0.144311  0.417056  0.561367  1
  Pt  Pt43  1  0.582944  0.144311  0.727255  1
  Pt  Pt44  1  0.417056  0.855689  0.272745  1
  O  O45  1  0.176898  0.000941  0.680786  1
  O  O46  1  0.280327  0.925229  0.689241  1
  O  O47  1  0.683900  0.659705  0.844927  1
  O  O48  1  0.320156  0.496112  0.319214  1
  O  O49  1  0.700978  0.760453  0.461430  1
  O  O50  1  0.391972  0.768930  0.160903  1
  O  O51  1  0.723594  0.927172  0.148300  1
  O  O52  1  0.814778  0.838974  0.155073  1
  O  O53  1  0.878819  0.111351  0.479464  1
  O  O54  1  0.999059  0.679844  0.175956  1
  O  O55  1  0.823102  0.999059  0.319214  1
  O  O56  1  0.679844  0.503888  0.680786  1
  O  O57  1  0.564554  0.055119  0.619673  1
  O  O58  1  0.719673  0.074771  0.310759  1
  O  O59  1  0.608028  0.231070  0.839097  1
  O  O60  1  0.927172  0.778872  0.203578  1
  O  O61  1  0.185222  0.161026  0.844927  1
  O  O62  1  0.231070  0.391972  0.623042  1
  O  O63  1  0.778872  0.575294  0.851700  1
  O  O64  1  0.764012  0.408914  0.689241  1
  O  O65  1  0.944881  0.564554  0.509435  1
  O  O66  1  0.435446  0.944881  0.380327  1
  O  O67  1  0.591086  0.280327  0.355098  1
  O  O68  1  0.239547  0.700978  0.940525  1
  O  O69  1  0.408914  0.719673  0.644902  1
  O  O70  1  0.159681  0.157654  0.317335  1
  O  O71  1  0.842346  0.159681  0.002026  1
  O  O72  1  0.121181  0.888649  0.520536  1
  O  O73  1  0.157654  0.840319  0.997974  1
  O  O74  1  0.600646  0.121181  0.232533  1
  O  O75  1  0.074771  0.764012  0.355098  1
  O  O76  1  0.500000  0.500000  0.000000  1
  O  O77  1  0.235988  0.591086  0.310759  1
  O  O78  1  0.072828  0.221128  0.796422  1
  O  O79  1  0.840319  0.842346  0.682665  1
  O  O80  1  0.424706  0.276406  0.203578  1
  O  O81  1  0.631887  0.399354  0.520536  1
  O  O82  1  0.888649  0.368113  0.767467  1
  O  O83  1  0.000941  0.320156  0.824044  1
  O  O84  1  0.768930  0.608028  0.376958  1
  O  O85  1  0.340295  0.185222  0.024196  1
  O  O86  1  0.575294  0.723594  0.796422  1
  O  O87  1  0.111351  0.631887  0.232533  1
  O  O88  1  0.838974  0.683900  0.024196  1
  O  O89  1  0.276406  0.072828  0.851700  1
  O  O90  1  0.299023  0.239547  0.538570  1
  O  O91  1  0.659705  0.814778  0.975804  1
  O  O92  1  0.368113  0.600646  0.479464  1
  O  O93  1  0.496112  0.176898  0.175956  1
  O  O94  1  0.221128  0.424706  0.148300  1
  O  O95  1  0.503888  0.823102  0.824044  1
  O  O96  1  0.161026  0.316100  0.975804  1
  O  O97  1  0.399354  0.878819  0.767467  1
  O  O98  1  0.055119  0.435446  0.490565  1
  O  O99  1  0.925229  0.235988  0.644902  1
  O  O100  1  0.316100  0.340295  0.155073  1
  O  O101  1  0.760453  0.299023  0.059475  1
