# generated using pymatgen
data_Co(NO3)2
_symmetry_space_group_name_H-M   'P 1'
_cell_length_a   7.53045672
_cell_length_b   7.53045672
_cell_length_c   7.53045672
_cell_angle_alpha   90.19206894
_cell_angle_beta   90.19206894
_cell_angle_gamma   90.19206894
_symmetry_Int_Tables_number   1
_chemical_formula_structural   Co(NO3)2
_chemical_formula_sum   'Co4 N8 O24'
_cell_volume   427.02825668
_cell_formula_units_Z   4
loop_
 _symmetry_equiv_pos_site_id
 _symmetry_equiv_pos_as_xyz
  1  'x, y, z'
loop_
 _atom_site_type_symbol
 _atom_site_label
 _atom_site_symmetry_multiplicity
 _atom_site_fract_x
 _atom_site_fract_y
 _atom_site_fract_z
 _atom_site_occupancy
  Co  Co0  1  0.500000  0.000000  0.500000  1
  Co  Co1  1  1.000000  0.500000  0.500000  1
  Co  Co2  1  0.500000  0.500000  1.000000  1
  Co  Co3  1  0.000000  0.000000  0.000000  1
  N  N4  1  0.336505  0.336505  0.336505  1
  N  N5  1  0.663495  0.663495  0.663495  1
  N  N6  1  0.841794  0.158617  0.348750  1
  N  N7  1  0.158617  0.348750  0.841794  1
  N  N8  1  0.348750  0.841794  0.158617  1
  N  N9  1  0.158206  0.841383  0.651250  1
  N  N10  1  0.841383  0.651250  0.158206  1
  N  N11  1  0.651250  0.158206  0.841383  1
  O  O12  1  0.457067  0.220320  0.333313  1
  O  O13  1  0.220320  0.333313  0.457067  1
  O  O14  1  0.333313  0.457067  0.220320  1
  O  O15  1  0.542933  0.779680  0.666687  1
  O  O16  1  0.779680  0.666687  0.542933  1
  O  O17  1  0.666687  0.542933  0.779680  1
  O  O18  1  0.540199  0.172122  0.715330  1
  O  O19  1  0.172122  0.715330  0.540199  1
  O  O20  1  0.715330  0.540199  0.172122  1
  O  O21  1  0.459801  0.827878  0.284670  1
  O  O22  1  0.827878  0.284670  0.459801  1
  O  O23  1  0.284670  0.459801  0.827878  1
  O  O24  1  0.215995  0.943230  0.174669  1
  O  O25  1  0.943230  0.174669  0.215995  1
  O  O26  1  0.174669  0.215995  0.943230  1
  O  O27  1  0.784005  0.056770  0.825331  1
  O  O28  1  0.056770  0.825331  0.784005  1
  O  O29  1  0.825331  0.784005  0.056770  1
  O  O30  1  0.755113  0.016444  0.372698  1
  O  O31  1  0.016444  0.372698  0.755113  1
  O  O32  1  0.372698  0.755113  0.016444  1
  O  O33  1  0.244887  0.983556  0.627302  1
  O  O34  1  0.983556  0.627302  0.244887  1
  O  O35  1  0.627302  0.244887  0.983556  1
