# generated using pymatgen
data_Nb3Se10Br3
_symmetry_space_group_name_H-M   'P 1'
_cell_length_a   8.02314036
_cell_length_b   19.57805924
_cell_length_c   12.91742276
_cell_angle_alpha   90.00000000
_cell_angle_beta   97.57880505
_cell_angle_gamma   90.00000000
_symmetry_Int_Tables_number   1
_chemical_formula_structural   Nb3Se10Br3
_chemical_formula_sum   'Nb12 Se40 Br12'
_cell_volume   2011.31183622
_cell_formula_units_Z   4
loop_
 _symmetry_equiv_pos_site_id
 _symmetry_equiv_pos_as_xyz
  1  'x, y, z'
loop_
 _atom_site_type_symbol
 _atom_site_label
 _atom_site_symmetry_multiplicity
 _atom_site_fract_x
 _atom_site_fract_y
 _atom_site_fract_z
 _atom_site_occupancy
  Nb  Nb0  1  0.661951  0.851830  0.668331  1
  Nb  Nb1  1  0.747758  0.999888  0.749894  1
  Nb  Nb2  1  0.252242  0.499888  0.250106  1
  Nb  Nb3  1  0.821871  0.147848  0.835326  1
  Nb  Nb4  1  0.747758  0.500112  0.749894  1
  Nb  Nb5  1  0.821871  0.352152  0.835326  1
  Nb  Nb6  1  0.252242  0.000112  0.250106  1
  Nb  Nb7  1  0.661951  0.648170  0.668331  1
  Nb  Nb8  1  0.338049  0.351830  0.331669  1
  Nb  Nb9  1  0.338049  0.148170  0.331669  1
  Nb  Nb10  1  0.178129  0.852152  0.164674  1
  Nb  Nb11  1  0.178129  0.647848  0.164674  1
  Se  Se12  1  0.951381  0.586319  0.659492  1
  Se  Se13  1  0.715168  0.609340  0.868454  1
  Se  Se14  1  0.108506  0.250000  0.281376  1
  Se  Se15  1  0.981068  0.087971  0.694353  1
  Se  Se16  1  0.891494  0.750000  0.718624  1
  Se  Se17  1  0.967529  0.542397  0.137178  1
  Se  Se18  1  0.142273  0.750000  0.304086  1
  Se  Se19  1  0.048619  0.086319  0.340508  1
  Se  Se20  1  0.048619  0.413681  0.340508  1
  Se  Se21  1  0.236157  0.250000  0.454898  1
  Se  Se22  1  0.451536  0.607980  0.291409  1
  Se  Se23  1  0.715168  0.890660  0.868454  1
  Se  Se24  1  0.721402  0.541255  0.550966  1
  Se  Se25  1  0.056987  0.250000  0.845564  1
  Se  Se26  1  0.416317  0.571007  0.113380  1
  Se  Se27  1  0.018932  0.587971  0.305647  1
  Se  Se28  1  0.463624  0.926823  0.762533  1
  Se  Se29  1  0.284832  0.109340  0.131546  1
  Se  Se30  1  0.536376  0.426823  0.237467  1
  Se  Se31  1  0.583683  0.071007  0.886620  1
  Se  Se32  1  0.278598  0.041255  0.449034  1
  Se  Se33  1  0.548464  0.107980  0.708591  1
  Se  Se34  1  0.943013  0.750000  0.154436  1
  Se  Se35  1  0.583683  0.428993  0.886620  1
  Se  Se36  1  0.857727  0.250000  0.695914  1
  Se  Se37  1  0.463624  0.573177  0.762533  1
  Se  Se38  1  0.018932  0.912029  0.305647  1
  Se  Se39  1  0.981068  0.412029  0.694353  1
  Se  Se40  1  0.416317  0.928993  0.113380  1
  Se  Se41  1  0.032471  0.042397  0.862822  1
  Se  Se42  1  0.721402  0.958745  0.550966  1
  Se  Se43  1  0.536376  0.073177  0.237467  1
  Se  Se44  1  0.451536  0.892020  0.291409  1
  Se  Se45  1  0.763843  0.750000  0.545102  1
  Se  Se46  1  0.032471  0.457603  0.862822  1
  Se  Se47  1  0.284832  0.390660  0.131546  1
  Se  Se48  1  0.967529  0.957603  0.137178  1
  Se  Se49  1  0.548464  0.392020  0.708591  1
  Se  Se50  1  0.278598  0.458745  0.449034  1
  Se  Se51  1  0.951381  0.913681  0.659492  1
  Br  Br52  1  0.387842  0.646717  0.518437  1
  Br  Br53  1  0.612158  0.146717  0.481563  1
  Br  Br54  1  0.619171  0.250000  0.893434  1
  Br  Br55  1  0.909956  0.354326  0.046682  1
  Br  Br56  1  0.612158  0.353283  0.481563  1
  Br  Br57  1  0.474830  0.750000  0.740529  1
  Br  Br58  1  0.090044  0.645674  0.953318  1
  Br  Br59  1  0.525170  0.250000  0.259471  1
  Br  Br60  1  0.380829  0.750000  0.106566  1
  Br  Br61  1  0.090044  0.854326  0.953318  1
  Br  Br62  1  0.387842  0.853283  0.518437  1
  Br  Br63  1  0.909956  0.145674  0.046682  1
