# generated using pymatgen
data_Na2AlZnF7
_symmetry_space_group_name_H-M   'P 1'
_cell_length_a   7.30556270
_cell_length_b   7.30556270
_cell_length_c   7.30556270
_cell_angle_alpha   120.92068536
_cell_angle_beta   118.42418898
_cell_angle_gamma   90.58176051
_symmetry_Int_Tables_number   1
_chemical_formula_structural   Na2AlZnF7
_chemical_formula_sum   'Na4 Al2 Zn2 F14'
_cell_volume   276.89310378
_cell_formula_units_Z   2
loop_
 _symmetry_equiv_pos_site_id
 _symmetry_equiv_pos_as_xyz
  1  'x, y, z'
loop_
 _atom_site_type_symbol
 _atom_site_label
 _atom_site_symmetry_multiplicity
 _atom_site_fract_x
 _atom_site_fract_y
 _atom_site_fract_z
 _atom_site_occupancy
  Na  Na0  1  0.000000  0.000000  0.000000  1
  Na  Na1  1  1.000000  1.000000  0.500000  1
  Na  Na2  1  1.000000  0.500000  0.000000  1
  Na  Na3  1  0.500000  0.500000  0.000000  1
  Al  Al4  1  0.500000  1.000000  0.500000  1
  Al  Al5  1  1.000000  0.500000  0.500000  1
  Zn  Zn6  1  0.500000  1.000000  1.000000  1
  Zn  Zn7  1  0.500000  0.500000  0.500000  1
  F  F8  1  0.175437  0.426656  0.379110  1
  F  F9  1  0.804121  0.082848  0.721273  1
  F  F10  1  0.547546  0.926656  0.251219  1
  F  F11  1  0.861575  0.582848  0.278727  1
  F  F12  1  0.452454  0.073344  0.748781  1
  F  F13  1  0.138425  0.417152  0.721273  1
  F  F14  1  0.175437  0.796327  0.748781  1
  F  F15  1  0.623848  0.750000  0.873848  1
  F  F16  1  0.376152  0.250000  0.126152  1
  F  F17  1  0.824563  0.573344  0.620890  1
  F  F18  1  0.452454  0.703672  0.379110  1
  F  F19  1  0.824563  0.203672  0.251219  1
  F  F20  1  0.547546  0.296327  0.620890  1
  F  F21  1  0.195879  0.917152  0.278727  1
