# generated using pymatgen
data_SiO2
_symmetry_space_group_name_H-M   'P 1'
_cell_length_a   15.94091043
_cell_length_b   15.94091043
_cell_length_c   15.94091043
_cell_angle_alpha   100.50687454
_cell_angle_beta   100.50687454
_cell_angle_gamma   129.44171936
_symmetry_Int_Tables_number   1
_chemical_formula_structural   SiO2
_chemical_formula_sum   'Si48 O96'
_cell_volume   2828.73323203
_cell_formula_units_Z   48
loop_
 _symmetry_equiv_pos_site_id
 _symmetry_equiv_pos_as_xyz
  1  'x, y, z'
loop_
 _atom_site_type_symbol
 _atom_site_label
 _atom_site_symmetry_multiplicity
 _atom_site_fract_x
 _atom_site_fract_y
 _atom_site_fract_z
 _atom_site_occupancy
  Si  Si0  1  0.708017  0.089611  0.769615  1
  Si  Si1  1  0.061597  0.291983  0.381593  1
  Si  Si2  1  0.572183  0.872783  0.147889  1
  Si  Si3  1  0.923903  0.309310  0.234504  1
  Si  Si4  1  0.739643  0.284150  0.304179  1
  Si  Si5  1  0.129501  0.036170  0.465174  1
  Si  Si6  1  0.589676  0.062008  0.914413  1
  Si  Si7  1  0.587691  0.284877  0.148199  1
  Si  Si8  1  0.570996  0.664327  0.534826  1
  Si  Si9  1  0.560508  0.412309  0.697186  1
  Si  Si10  1  0.564536  0.260357  0.544507  1
  Si  Si11  1  0.715123  0.863323  0.302814  1
  Si  Si12  1  0.937992  0.852404  0.527668  1
  Si  Si13  1  0.571887  0.026819  0.302473  1
  Si  Si14  1  0.321561  0.699624  0.992107  1
  Si  Si15  1  0.136677  0.439492  0.851801  1
  Si  Si16  1  0.690690  0.925194  0.614592  1
  Si  Si17  1  0.949359  0.016932  0.688555  1
  Si  Si18  1  0.310602  0.076097  0.385408  1
  Si  Si19  1  0.910389  0.680004  0.618407  1
  Si  Si20  1  0.724346  0.269415  0.697527  1
  Si  Si21  1  0.927462  0.081397  0.999835  1
  Si  Si22  1  0.319996  0.938403  0.230385  1
  Si  Si23  1  0.575706  0.427817  0.300599  1
  Si  Si24  1  0.964109  0.270724  0.935495  1
  Si  Si25  1  0.335230  0.028615  0.064505  1
  Si  Si26  1  0.324736  0.410324  0.472332  1
  Si  Si27  1  0.739196  0.050641  0.067573  1
  Si  Si28  1  0.335673  0.870499  0.906669  1
  Si  Si29  1  0.707517  0.329454  0.007893  1
  Si  Si30  1  0.973181  0.275654  0.545069  1
  Si  Si31  1  0.724894  0.424294  0.852111  1
  Si  Si32  1  0.072373  0.072538  0.153935  1
  Si  Si33  1  0.670546  0.678439  0.378062  1
  Si  Si34  1  0.730585  0.428113  0.454931  1
  Si  Si35  1  0.729276  0.664770  0.693385  1
  Si  Si36  1  0.081562  0.927627  0.000165  1
  Si  Si37  1  0.979971  0.435464  0.695821  1
  Si  Si38  1  0.074806  0.689398  0.765496  1
  Si  Si39  1  0.983068  0.671623  0.932427  1
  Si  Si40  1  0.971385  0.035891  0.306615  1
  Si  Si41  1  0.328377  0.260804  0.311445  1
  Si  Si42  1  0.963830  0.429004  0.093331  1
  Si  Si43  1  0.300376  0.292483  0.621938  1
  Si  Si44  1  0.127217  0.275106  0.699401  1
  Si  Si45  1  0.715850  0.020029  0.455493  1
  Si  Si46  1  0.918603  0.918438  0.846065  1
  Si  Si47  1  0.147596  0.675264  0.085587  1
  O  O48  1  0.858793  0.327042  0.292753  1
  O  O49  1  0.167485  0.383160  0.783738  1
  O  O50  1  0.326771  0.171057  0.346971  1
  O  O51  1  0.828943  0.175914  0.155714  1
  O  O52  1  0.688377  0.378105  0.932998  1
  O  O53  1  0.653165  0.340918  0.080768  1
  O  O54  1  0.599422  0.383747  0.216262  1
  O  O55  1  0.635831  0.549747  0.714280  1
  O  O56  1  0.590532  0.654312  0.438148  1
  O  O57  1  0.207093  0.190413  0.224374  1
  O  O58  1  0.042394  0.247625  0.602188  1
  O  O59  1  0.331069  0.938430  0.992524  1
  O  O60  1  0.220322  0.007622  0.019082  1
  O  O61  1  0.447349  0.963479  0.882195  1
  O  O62  1  0.953758  0.779171  0.575301  1
  O  O63  1  0.798760  0.779678  0.787300  1
  O  O64  1  0.078449  0.364169  0.913916  1
  O  O65  1  0.217810  0.794776  0.813555  1
  O  O66  1  0.672958  0.965711  0.531751  1
  O  O67  1  0.661455  0.668931  0.607361  1
  O  O68  1  0.886741  0.977327  0.910371  1
  O  O69  1  0.220829  0.796130  0.174587  1
  O  O70  1  0.638401  0.192459  0.954883  1
  O  O71  1  0.030183  0.331781  0.304299  1
  O  O72  1  0.956130  0.951027  0.603800  1
  O  O73  1  0.056075  0.158536  0.723476  1
  O  O74  1  0.433960  0.141207  0.468249  1
  O  O75  1  0.558425  0.350795  0.602015  1
  O  O76  1  0.237576  0.683519  0.045117  1
  O  O77  1  0.847616  0.409468  0.063780  1
  O  O78  1  0.668219  0.972518  0.698401  1
  O  O79  1  0.023629  0.113259  0.090585  1
  O  O80  1  0.205224  0.018778  0.423034  1
  O  O81  1  0.034289  0.566040  0.707247  1
  O  O82  1  0.616840  0.400578  0.784325  1
  O  O83  1  0.621543  0.046242  0.825413  1
  O  O84  1  0.845660  0.178428  0.840145  1
  O  O85  1  0.616253  0.832515  0.215675  1
  O  O86  1  0.667400  0.943925  0.102461  1
  O  O87  1  0.427603  0.346835  0.687753  1
  O  O88  1  0.988540  0.201240  0.980918  1
  O  O89  1  0.061570  0.054094  0.392639  1
  O  O90  1  0.647671  0.043870  0.994897  1
  O  O91  1  0.003335  0.389183  0.611830  1
  O  O92  1  0.435061  0.332600  0.276524  1
  O  O93  1  0.809587  0.033961  0.016680  1
  O  O94  1  0.841464  0.564939  0.897539  1
  O  O95  1  0.824086  0.979800  0.653029  1
  O  O96  1  0.610817  0.222648  0.614152  1
  O  O97  1  0.081284  0.565154  0.117805  1
  O  O98  1  0.020200  0.673229  0.844286  1
  O  O99  1  0.043589  0.441575  0.792370  1
  O  O100  1  0.748780  0.956411  0.397985  1
  O  O101  1  0.015786  0.305965  0.461366  1
  O  O102  1  0.838792  0.344446  0.670666  1
  O  O103  1  0.694035  0.155401  0.709821  1
  O  O104  1  0.216164  0.152384  0.561852  1
  O  O105  1  0.608495  0.996665  0.385848  1
  O  O106  1  0.347226  0.352329  0.396200  1
  O  O107  1  0.649205  0.251220  0.207630  1
  O  O108  1  0.445107  0.755380  0.067002  1
  O  O109  1  0.036521  0.918716  0.483870  1
  O  O110  1  0.992378  0.011460  0.212700  1
  O  O111  1  0.994485  0.154340  0.332768  1
  O  O112  1  0.022673  0.933044  0.909415  1
  O  O113  1  0.645437  0.440206  0.397812  1
  O  O114  1  0.659082  0.739850  0.312247  1
  O  O115  1  0.835467  0.921551  0.285720  1
  O  O116  1  0.655554  0.326220  0.494346  1
  O  O117  1  0.316481  0.361599  0.554057  1
  O  O118  1  0.274116  0.969817  0.301599  1
  O  O119  1  0.807541  0.762424  0.445943  1
  O  O120  1  0.203870  0.378457  0.424699  1
  O  O121  1  0.017282  0.792907  0.983320  1
  O  O122  1  0.966039  0.982718  0.775626  1
  O  O123  1  0.831874  0.161208  0.505654  1
  O  O124  1  0.777352  0.391505  0.388170  1
  O  O125  1  0.027482  0.725884  0.695701  1
  O  O126  1  0.821572  0.661717  0.667232  1
  O  O127  1  0.673780  0.168126  0.329334  1
  O  O128  1  0.260150  0.572397  0.919232  1
  O  O129  1  0.445580  0.984214  0.290179  1
  O  O130  1  0.752375  0.354563  0.794769  1
  O  O131  1  0.066956  0.976371  0.089629  1
  O  O132  1  0.345688  0.783836  0.936220  1
  O  O133  1  0.945906  0.338545  0.007476  1
  O  O134  1  0.338283  0.005515  0.159855  1
  O  O135  1  0.595744  0.782190  0.576966  1
  O  O136  1  0.048973  0.652774  0.005103  1
  O  O137  1  0.434846  0.552651  0.516130  1
  O  O138  1  0.981222  0.404256  0.186445  1
  O  O139  1  0.559794  0.957606  0.205231  1
  O  O140  1  0.844599  0.554420  0.538634  1
  O  O141  1  0.621895  0.554893  0.310273  1
  O  O142  1  0.244620  0.311623  0.689727  1
  O  O143  1  0.450253  0.164533  0.086084  1
