# generated using pymatgen
data_AlSBr3N
_symmetry_space_group_name_H-M   'P 1'
_cell_length_a   7.55275305
_cell_length_b   10.84219617
_cell_length_c   10.22440719
_cell_angle_alpha   90.00000000
_cell_angle_beta   112.44748511
_cell_angle_gamma   90.00000000
_symmetry_Int_Tables_number   1
_chemical_formula_structural   AlSBr3N
_chemical_formula_sum   'Al4 S4 Br12 N4'
_cell_volume   773.82132728
_cell_formula_units_Z   4
loop_
 _symmetry_equiv_pos_site_id
 _symmetry_equiv_pos_as_xyz
  1  'x, y, z'
loop_
 _atom_site_type_symbol
 _atom_site_label
 _atom_site_symmetry_multiplicity
 _atom_site_fract_x
 _atom_site_fract_y
 _atom_site_fract_z
 _atom_site_occupancy
  Al  Al0  1  0.725752  0.376572  0.342060  1
  Al  Al1  1  0.274248  0.623428  0.657940  1
  Al  Al2  1  0.274248  0.876572  0.157940  1
  Al  Al3  1  0.725752  0.123428  0.842060  1
  S  S4  1  0.637972  0.971996  0.108810  1
  S  S5  1  0.362028  0.028004  0.891190  1
  S  S6  1  0.362028  0.471996  0.391190  1
  S  S7  1  0.637972  0.528004  0.608810  1
  Br  Br8  1  0.086005  0.478987  0.708933  1
  Br  Br9  1  0.086005  0.021013  0.208933  1
  Br  Br10  1  0.436230  0.345861  0.152697  1
  Br  Br11  1  0.913995  0.521013  0.291067  1
  Br  Br12  1  0.913995  0.978987  0.791067  1
  Br  Br13  1  0.133324  0.802271  0.554003  1
  Br  Br14  1  0.563770  0.845861  0.347303  1
  Br  Br15  1  0.866676  0.302271  0.945997  1
  Br  Br16  1  0.563770  0.654139  0.847303  1
  Br  Br17  1  0.436230  0.154139  0.652697  1
  Br  Br18  1  0.866676  0.197729  0.445997  1
  Br  Br19  1  0.133324  0.697729  0.054003  1
  N  N20  1  0.401150  0.541706  0.545962  1
  N  N21  1  0.401150  0.958294  0.045962  1
  N  N22  1  0.598850  0.041706  0.954038  1
  N  N23  1  0.598850  0.458294  0.454038  1
