# generated using pymatgen
data_Ba2MnO3
_symmetry_space_group_name_H-M   'P 1'
_cell_length_a   6.59448071
_cell_length_b   6.59448071
_cell_length_c   12.82793109
_cell_angle_alpha   88.42811121
_cell_angle_beta   91.57188879
_cell_angle_gamma   54.69212420
_symmetry_Int_Tables_number   1
_chemical_formula_structural   Ba2MnO3
_chemical_formula_sum   'Ba8 Mn4 O12'
_cell_volume   454.42603882
_cell_formula_units_Z   4
loop_
 _symmetry_equiv_pos_site_id
 _symmetry_equiv_pos_as_xyz
  1  'x, y, z'
loop_
 _atom_site_type_symbol
 _atom_site_label
 _atom_site_symmetry_multiplicity
 _atom_site_fract_x
 _atom_site_fract_y
 _atom_site_fract_z
 _atom_site_occupancy
  Ba  Ba0  1  0.870613  0.340354  0.075387  1
  Ba  Ba1  1  0.340354  0.870613  0.424613  1
  Ba  Ba2  1  0.129387  0.659646  0.924613  1
  Ba  Ba3  1  0.659646  0.129387  0.575387  1
  Ba  Ba4  1  0.970477  0.441101  0.650273  1
  Ba  Ba5  1  0.558899  0.029523  0.150273  1
  Ba  Ba6  1  0.441101  0.970477  0.849727  1
  Ba  Ba7  1  0.029523  0.558899  0.349727  1
  Mn  Mn8  1  0.270547  0.722330  0.163503  1
  Mn  Mn9  1  0.722330  0.270547  0.336497  1
  Mn  Mn10  1  0.277670  0.729453  0.663503  1
  Mn  Mn11  1  0.729453  0.277670  0.836497  1
  O  O12  1  0.495999  0.153629  0.369709  1
  O  O13  1  0.846371  0.504001  0.869709  1
  O  O14  1  0.008182  0.008182  0.750000  1
  O  O15  1  0.991818  0.991818  0.250000  1
  O  O16  1  0.316240  0.882896  0.033139  1
  O  O17  1  0.117104  0.683760  0.533139  1
  O  O18  1  0.600786  0.600786  0.250000  1
  O  O19  1  0.882896  0.316240  0.466861  1
  O  O20  1  0.504001  0.846371  0.630291  1
  O  O21  1  0.153629  0.495999  0.130291  1
  O  O22  1  0.683760  0.117104  0.966861  1
  O  O23  1  0.399214  0.399214  0.750000  1
