# generated using pymatgen
data_ICl
_symmetry_space_group_name_H-M   'P 1'
_cell_length_a   8.90511004
_cell_length_b   8.48548450
_cell_length_c   9.34424574
_cell_angle_alpha   90.00000000
_cell_angle_beta   94.27975908
_cell_angle_gamma   90.00000000
_symmetry_Int_Tables_number   1
_chemical_formula_structural   ICl
_chemical_formula_sum   'I8 Cl8'
_cell_volume   704.12131251
_cell_formula_units_Z   8
loop_
 _symmetry_equiv_pos_site_id
 _symmetry_equiv_pos_as_xyz
  1  'x, y, z'
loop_
 _atom_site_type_symbol
 _atom_site_label
 _atom_site_symmetry_multiplicity
 _atom_site_fract_x
 _atom_site_fract_y
 _atom_site_fract_z
 _atom_site_occupancy
  I  I0  1  0.367897  0.475852  0.799637  1
  I  I1  1  0.745586  0.117504  0.513663  1
  I  I2  1  0.632103  0.524148  0.200363  1
  I  I3  1  0.754414  0.617504  0.486337  1
  I  I4  1  0.867897  0.024148  0.799637  1
  I  I5  1  0.245586  0.382496  0.513663  1
  I  I6  1  0.132103  0.975852  0.200363  1
  I  I7  1  0.254414  0.882496  0.486337  1
  Cl  Cl8  1  0.108710  0.707794  0.113457  1
  Cl  Cl9  1  0.864683  0.704798  0.735155  1
  Cl  Cl10  1  0.635317  0.204798  0.264845  1
  Cl  Cl11  1  0.608710  0.792206  0.113457  1
  Cl  Cl12  1  0.364683  0.795202  0.735155  1
  Cl  Cl13  1  0.391290  0.207794  0.886543  1
  Cl  Cl14  1  0.891290  0.292206  0.886543  1
  Cl  Cl15  1  0.135317  0.295202  0.264845  1
