# generated using pymatgen
data_Na2Fe3(PO4)3
_symmetry_space_group_name_H-M   'P 1'
_cell_length_a   8.69317498
_cell_length_b   8.69317498
_cell_length_c   6.61310828
_cell_angle_alpha   73.65423682
_cell_angle_beta   106.34576318
_cell_angle_gamma   86.57270004
_symmetry_Int_Tables_number   1
_chemical_formula_structural   Na2Fe3(PO4)3
_chemical_formula_sum   'Na4 Fe6 P6 O24'
_cell_volume   454.90529024
_cell_formula_units_Z   2
loop_
 _symmetry_equiv_pos_site_id
 _symmetry_equiv_pos_as_xyz
  1  'x, y, z'
loop_
 _atom_site_type_symbol
 _atom_site_label
 _atom_site_symmetry_multiplicity
 _atom_site_fract_x
 _atom_site_fract_y
 _atom_site_fract_z
 _atom_site_occupancy
  Na  Na0  1  0.984243  0.984243  0.250000  1
  Na  Na1  1  0.015757  0.015757  0.750000  1
  Na  Na2  1  0.500000  0.500000  0.500000  1
  Na  Na3  1  0.500000  0.500000  0.000000  1
  Fe  Fe4  1  0.943703  0.380628  0.375225  1
  Fe  Fe5  1  0.619372  0.056297  0.875225  1
  Fe  Fe6  1  0.056297  0.619372  0.624775  1
  Fe  Fe7  1  0.730311  0.730311  0.750000  1
  Fe  Fe8  1  0.269689  0.269689  0.250000  1
  Fe  Fe9  1  0.380628  0.943703  0.124775  1
  P  P10  1  0.125052  0.658151  0.117374  1
  P  P11  1  0.658151  0.125052  0.382626  1
  P  P12  1  0.291177  0.291177  0.750000  1
  P  P13  1  0.341849  0.874948  0.617374  1
  P  P14  1  0.708823  0.708823  0.250000  1
  P  P15  1  0.874948  0.341849  0.882626  1
  O  O16  1  0.604902  0.044157  0.195067  1
  O  O17  1  0.263500  0.469228  0.745202  1
  O  O18  1  0.528177  0.271015  0.332698  1
  O  O19  1  0.955843  0.395098  0.695067  1
  O  O20  1  0.271015  0.528177  0.167302  1
  O  O21  1  0.322794  0.003965  0.387577  1
  O  O22  1  0.530772  0.736500  0.245202  1
  O  O23  1  0.829650  0.172274  0.394054  1
  O  O24  1  0.677206  0.996035  0.612423  1
  O  O25  1  0.261805  0.178183  0.961813  1
  O  O26  1  0.996035  0.677206  0.887577  1
  O  O27  1  0.827726  0.170350  0.894054  1
  O  O28  1  0.471823  0.728985  0.667302  1
  O  O29  1  0.044157  0.604902  0.304933  1
  O  O30  1  0.736500  0.530772  0.254798  1
  O  O31  1  0.003965  0.322794  0.112423  1
  O  O32  1  0.469228  0.263500  0.754798  1
  O  O33  1  0.395098  0.955843  0.804933  1
  O  O34  1  0.172274  0.829650  0.105946  1
  O  O35  1  0.738195  0.821817  0.038187  1
  O  O36  1  0.170350  0.827726  0.605946  1
  O  O37  1  0.178183  0.261805  0.538187  1
  O  O38  1  0.821817  0.738195  0.461813  1
  O  O39  1  0.728985  0.471823  0.832698  1
