# generated using pymatgen
data_K2CrH2Cl5O
_symmetry_space_group_name_H-M   'P 1'
_cell_length_a   7.46962900
_cell_length_b   9.38129306
_cell_length_c   13.97787425
_cell_angle_alpha   90.00000000
_cell_angle_beta   90.00000000
_cell_angle_gamma   90.00000000
_symmetry_Int_Tables_number   1
_chemical_formula_structural   K2CrH2Cl5O
_chemical_formula_sum   'K8 Cr4 H8 Cl20 O4'
_cell_volume   979.49644474
_cell_formula_units_Z   4
loop_
 _symmetry_equiv_pos_site_id
 _symmetry_equiv_pos_as_xyz
  1  'x, y, z'
loop_
 _atom_site_type_symbol
 _atom_site_label
 _atom_site_symmetry_multiplicity
 _atom_site_fract_x
 _atom_site_fract_y
 _atom_site_fract_z
 _atom_site_occupancy
  K  K0  1  0.131293  0.002347  0.348659  1
  K  K1  1  0.631293  0.997653  0.151341  1
  K  K2  1  0.868707  0.502347  0.651341  1
  K  K3  1  0.368707  0.497653  0.848659  1
  K  K4  1  0.868707  0.997653  0.651341  1
  K  K5  1  0.368707  0.002347  0.848659  1
  K  K6  1  0.131293  0.497653  0.348659  1
  K  K7  1  0.631293  0.502347  0.151341  1
  Cr  Cr8  1  0.690023  0.750000  0.393671  1
  Cr  Cr9  1  0.190023  0.250000  0.106329  1
  Cr  Cr10  1  0.309977  0.250000  0.606329  1
  Cr  Cr11  1  0.809977  0.750000  0.893671  1
  H  H12  1  0.465222  0.835269  0.534323  1
  H  H13  1  0.965222  0.164731  0.965677  1
  H  H14  1  0.534778  0.335269  0.465677  1
  H  H15  1  0.034778  0.664731  0.034323  1
  H  H16  1  0.534778  0.164731  0.465677  1
  H  H17  1  0.034778  0.835269  0.034323  1
  H  H18  1  0.465222  0.664731  0.534323  1
  H  H19  1  0.965222  0.335269  0.965677  1
  Cl  Cl20  1  0.691328  0.004006  0.398226  1
  Cl  Cl21  1  0.191328  0.995994  0.101774  1
  Cl  Cl22  1  0.308672  0.504006  0.601774  1
  Cl  Cl23  1  0.808672  0.495994  0.898226  1
  Cl  Cl24  1  0.308672  0.995994  0.601774  1
  Cl  Cl25  1  0.808672  0.004006  0.898226  1
  Cl  Cl26  1  0.691328  0.495994  0.398226  1
  Cl  Cl27  1  0.191328  0.504006  0.101774  1
  Cl  Cl28  1  0.427296  0.750000  0.296111  1
  Cl  Cl29  1  0.927296  0.250000  0.203889  1
  Cl  Cl30  1  0.572704  0.250000  0.703889  1
  Cl  Cl31  1  0.072704  0.750000  0.796111  1
  Cl  Cl32  1  0.874378  0.750000  0.255666  1
  Cl  Cl33  1  0.374378  0.250000  0.244334  1
  Cl  Cl34  1  0.125622  0.250000  0.744334  1
  Cl  Cl35  1  0.625622  0.750000  0.755666  1
  Cl  Cl36  1  0.953930  0.750000  0.492506  1
  Cl  Cl37  1  0.453930  0.250000  0.007494  1
  Cl  Cl38  1  0.046070  0.250000  0.507494  1
  Cl  Cl39  1  0.546070  0.750000  0.992506  1
  O  O40  1  0.535404  0.750000  0.515681  1
  O  O41  1  0.035404  0.250000  0.984319  1
  O  O42  1  0.464596  0.250000  0.484319  1
  O  O43  1  0.964596  0.750000  0.015681  1
