# generated using pymatgen
data_RbNa2AuO2
_symmetry_space_group_name_H-M   'P 1'
_cell_length_a   4.12824278
_cell_length_b   5.66298783
_cell_length_c   10.08263470
_cell_angle_alpha   90.00000000
_cell_angle_beta   90.00000000
_cell_angle_gamma   90.00000000
_symmetry_Int_Tables_number   1
_chemical_formula_structural   RbNa2AuO2
_chemical_formula_sum   'Rb2 Na4 Au2 O4'
_cell_volume   235.71373583
_cell_formula_units_Z   2
loop_
 _symmetry_equiv_pos_site_id
 _symmetry_equiv_pos_as_xyz
  1  'x, y, z'
loop_
 _atom_site_type_symbol
 _atom_site_label
 _atom_site_symmetry_multiplicity
 _atom_site_fract_x
 _atom_site_fract_y
 _atom_site_fract_z
 _atom_site_occupancy
  Rb  Rb0  1  0.500000  0.500000  0.000000  1
  Rb  Rb1  1  0.000000  0.000000  0.500000  1
  Na  Na2  1  0.500000  0.077612  0.229857  1
  Na  Na3  1  0.000000  0.577612  0.270143  1
  Na  Na4  1  0.500000  0.922388  0.770143  1
  Na  Na5  1  0.000000  0.422388  0.729857  1
  Au  Au6  1  0.000000  0.000000  0.000000  1
  Au  Au7  1  0.500000  0.500000  0.500000  1
  O  O8  1  0.500000  0.727262  0.342653  1
  O  O9  1  0.500000  0.272738  0.657347  1
  O  O10  1  0.000000  0.772738  0.842653  1
  O  O11  1  0.000000  0.227262  0.157347  1
