# generated using pymatgen
data_Cs2Cd3Te4
_symmetry_space_group_name_H-M   'P 1'
_cell_length_a   10.92144300
_cell_length_b   10.92144300
_cell_length_c   10.92144300
_cell_angle_alpha   143.23138767
_cell_angle_beta   104.09129883
_cell_angle_gamma   87.44793975
_symmetry_Int_Tables_number   1
_chemical_formula_structural   Cs2Cd3Te4
_chemical_formula_sum   'Cs4 Cd6 Te8'
_cell_volume   730.44978488
_cell_formula_units_Z   2
loop_
 _symmetry_equiv_pos_site_id
 _symmetry_equiv_pos_as_xyz
  1  'x, y, z'
loop_
 _atom_site_type_symbol
 _atom_site_label
 _atom_site_symmetry_multiplicity
 _atom_site_fract_x
 _atom_site_fract_y
 _atom_site_fract_z
 _atom_site_occupancy
  Cs  Cs0  1  0.122721  0.268489  0.391210  1
  Cs  Cs1  1  0.622721  0.231511  0.854232  1
  Cs  Cs2  1  0.377279  0.768489  0.145768  1
  Cs  Cs3  1  0.877279  0.731511  0.608790  1
  Cd  Cd4  1  0.521983  0.250000  0.271983  1
  Cd  Cd5  1  0.750000  0.750000  0.000000  1
  Cd  Cd6  1  0.021983  0.750000  0.271983  1
  Cd  Cd7  1  0.978017  0.250000  0.728017  1
  Cd  Cd8  1  0.250000  0.250000  0.000000  1
  Cd  Cd9  1  0.478017  0.750000  0.728017  1
  Te  Te10  1  0.011013  0.366466  0.092759  1
  Te  Te11  1  0.488987  0.581746  0.355453  1
  Te  Te12  1  0.511013  0.418254  0.644547  1
  Te  Te13  1  0.273707  0.918254  0.907241  1
  Te  Te14  1  0.988987  0.633534  0.907241  1
  Te  Te15  1  0.773707  0.866466  0.355453  1
  Te  Te16  1  0.226293  0.133534  0.644547  1
  Te  Te17  1  0.726293  0.081746  0.092759  1
