# generated using pymatgen
data_Rb2ZrS4
_symmetry_space_group_name_H-M   'P 1'
_cell_length_a   6.84295463
_cell_length_b   9.89575087
_cell_length_c   24.42251397
_cell_angle_alpha   90.00000000
_cell_angle_beta   90.00000000
_cell_angle_gamma   90.00000000
_symmetry_Int_Tables_number   1
_chemical_formula_structural   Rb2ZrS4
_chemical_formula_sum   'Rb16 Zr8 S32'
_cell_volume   1653.79921121
_cell_formula_units_Z   8
loop_
 _symmetry_equiv_pos_site_id
 _symmetry_equiv_pos_as_xyz
  1  'x, y, z'
loop_
 _atom_site_type_symbol
 _atom_site_label
 _atom_site_symmetry_multiplicity
 _atom_site_fract_x
 _atom_site_fract_y
 _atom_site_fract_z
 _atom_site_occupancy
  Rb  Rb0  1  0.450387  0.568776  0.800412  1
  Rb  Rb1  1  0.305341  0.358887  0.033574  1
  Rb  Rb2  1  0.049613  0.068776  0.199588  1
  Rb  Rb3  1  0.805341  0.641113  0.466426  1
  Rb  Rb4  1  0.950387  0.431224  0.699588  1
  Rb  Rb5  1  0.194659  0.858887  0.966426  1
  Rb  Rb6  1  0.549613  0.431224  0.199588  1
  Rb  Rb7  1  0.194659  0.358887  0.533574  1
  Rb  Rb8  1  0.450387  0.068776  0.699588  1
  Rb  Rb9  1  0.049613  0.568776  0.300412  1
  Rb  Rb10  1  0.694659  0.641113  0.966426  1
  Rb  Rb11  1  0.305341  0.858887  0.466426  1
  Rb  Rb12  1  0.805341  0.141113  0.033574  1
  Rb  Rb13  1  0.950387  0.931224  0.800412  1
  Rb  Rb14  1  0.549613  0.931224  0.300412  1
  Rb  Rb15  1  0.694659  0.141113  0.533574  1
  Zr  Zr16  1  0.037983  0.673778  0.130607  1
  Zr  Zr17  1  0.537983  0.326222  0.369393  1
  Zr  Zr18  1  0.962017  0.326222  0.869393  1
  Zr  Zr19  1  0.962017  0.826222  0.630607  1
  Zr  Zr20  1  0.462017  0.673778  0.630607  1
  Zr  Zr21  1  0.037983  0.173778  0.369393  1
  Zr  Zr22  1  0.537983  0.826222  0.130607  1
  Zr  Zr23  1  0.462017  0.173778  0.869393  1
  S  S24  1  0.721797  0.235038  0.799117  1
  S  S25  1  0.053721  0.419378  0.158509  1
  S  S26  1  0.847103  0.827222  0.067689  1
  S  S27  1  0.376985  0.542379  0.410487  1
  S  S28  1  0.278203  0.764962  0.200883  1
  S  S29  1  0.553721  0.080622  0.158509  1
  S  S30  1  0.152897  0.172778  0.932311  1
  S  S31  1  0.778203  0.735038  0.200883  1
  S  S32  1  0.623015  0.957621  0.910487  1
  S  S33  1  0.376985  0.042379  0.089513  1
  S  S34  1  0.446279  0.419378  0.658509  1
  S  S35  1  0.347103  0.672778  0.067689  1
  S  S36  1  0.623015  0.457621  0.589513  1
  S  S37  1  0.221797  0.764962  0.700883  1
  S  S38  1  0.946279  0.080622  0.658509  1
  S  S39  1  0.123015  0.542379  0.910487  1
  S  S40  1  0.553721  0.580622  0.341491  1
  S  S41  1  0.221797  0.264962  0.799117  1
  S  S42  1  0.847103  0.327222  0.432311  1
  S  S43  1  0.946279  0.580622  0.841491  1
  S  S44  1  0.876985  0.957621  0.410487  1
  S  S45  1  0.347103  0.172778  0.432311  1
  S  S46  1  0.876985  0.457621  0.089513  1
  S  S47  1  0.778203  0.235038  0.299117  1
  S  S48  1  0.152897  0.672778  0.567689  1
  S  S49  1  0.652897  0.327222  0.932311  1
  S  S50  1  0.721797  0.735038  0.700883  1
  S  S51  1  0.123015  0.042379  0.589513  1
  S  S52  1  0.446279  0.919378  0.841491  1
  S  S53  1  0.053721  0.919378  0.341491  1
  S  S54  1  0.652897  0.827222  0.567689  1
  S  S55  1  0.278203  0.264962  0.299117  1
