# generated using pymatgen
data_ZrV2O7
_symmetry_space_group_name_H-M   'P 1'
_cell_length_a   9.05729635
_cell_length_b   9.05729635
_cell_length_c   9.05729635
_cell_angle_alpha   90.00000000
_cell_angle_beta   90.00000000
_cell_angle_gamma   90.00000000
_symmetry_Int_Tables_number   1
_chemical_formula_structural   ZrV2O7
_chemical_formula_sum   'Zr4 V8 O28'
_cell_volume   743.01183868
_cell_formula_units_Z   4
loop_
 _symmetry_equiv_pos_site_id
 _symmetry_equiv_pos_as_xyz
  1  'x, y, z'
loop_
 _atom_site_type_symbol
 _atom_site_label
 _atom_site_symmetry_multiplicity
 _atom_site_fract_x
 _atom_site_fract_y
 _atom_site_fract_z
 _atom_site_occupancy
  Zr  Zr0  1  0.500000  0.000000  0.500000  1
  Zr  Zr1  1  0.000000  0.000000  0.000000  1
  Zr  Zr2  1  0.500000  0.500000  0.000000  1
  Zr  Zr3  1  0.000000  0.500000  0.500000  1
  V  V4  1  0.385685  0.385685  0.385685  1
  V  V5  1  0.614315  0.614315  0.614315  1
  V  V6  1  0.385685  0.114315  0.885685  1
  V  V7  1  0.114315  0.614315  0.885685  1
  V  V8  1  0.114315  0.885685  0.385685  1
  V  V9  1  0.885685  0.385685  0.114315  1
  V  V10  1  0.885685  0.114315  0.614315  1
  V  V11  1  0.614315  0.885685  0.114315  1
  O  O12  1  0.000000  0.000000  0.500000  1
  O  O13  1  0.500000  0.500000  0.500000  1
  O  O14  1  0.795712  0.908654  0.063209  1
  O  O15  1  0.563209  0.704288  0.091346  1
  O  O16  1  0.091346  0.936791  0.204288  1
  O  O17  1  0.500000  0.000000  0.000000  1
  O  O18  1  0.936791  0.295712  0.591346  1
  O  O19  1  0.204288  0.408654  0.436791  1
  O  O20  1  0.408654  0.063209  0.704288  1
  O  O21  1  0.908654  0.436791  0.295712  1
  O  O22  1  0.704288  0.408654  0.063209  1
  O  O23  1  0.295712  0.591346  0.936791  1
  O  O24  1  0.563209  0.795712  0.591346  1
  O  O25  1  0.063209  0.795712  0.908654  1
  O  O26  1  0.795712  0.591346  0.563209  1
  O  O27  1  0.408654  0.436791  0.204288  1
  O  O28  1  0.436791  0.204288  0.408654  1
  O  O29  1  0.908654  0.063209  0.795712  1
  O  O30  1  0.091346  0.563209  0.704288  1
  O  O31  1  0.591346  0.936791  0.295712  1
  O  O32  1  0.000000  0.500000  0.000000  1
  O  O33  1  0.704288  0.091346  0.563209  1
  O  O34  1  0.936791  0.204288  0.091346  1
  O  O35  1  0.204288  0.091346  0.936791  1
  O  O36  1  0.063209  0.704288  0.408654  1
  O  O37  1  0.295712  0.908654  0.436791  1
  O  O38  1  0.591346  0.563209  0.795712  1
  O  O39  1  0.436791  0.295712  0.908654  1
