# generated using pymatgen
data_CsFeI4
_symmetry_space_group_name_H-M   'P 1'
_cell_length_a   7.55450318
_cell_length_b   19.00120177
_cell_length_c   8.65886325
_cell_angle_alpha   90.00000000
_cell_angle_beta   107.81064493
_cell_angle_gamma   90.00000000
_symmetry_Int_Tables_number   1
_chemical_formula_structural   CsFeI4
_chemical_formula_sum   'Cs4 Fe4 I16'
_cell_volume   1183.36281214
_cell_formula_units_Z   4
loop_
 _symmetry_equiv_pos_site_id
 _symmetry_equiv_pos_as_xyz
  1  'x, y, z'
loop_
 _atom_site_type_symbol
 _atom_site_label
 _atom_site_symmetry_multiplicity
 _atom_site_fract_x
 _atom_site_fract_y
 _atom_site_fract_z
 _atom_site_occupancy
  Cs  Cs0  1  0.181280  0.366968  0.796520  1
  Cs  Cs1  1  0.818720  0.633032  0.203480  1
  Cs  Cs2  1  0.181280  0.133032  0.296520  1
  Cs  Cs3  1  0.818720  0.866968  0.703480  1
  Fe  Fe4  1  0.811763  0.127092  0.705004  1
  Fe  Fe5  1  0.188237  0.627092  0.794996  1
  Fe  Fe6  1  0.188237  0.872908  0.294996  1
  Fe  Fe7  1  0.811763  0.372908  0.205004  1
  I  I8  1  0.271481  0.944509  0.077659  1
  I  I9  1  0.164067  0.348460  0.295537  1
  I  I10  1  0.361231  0.743844  0.845576  1
  I  I11  1  0.835933  0.651540  0.704463  1
  I  I12  1  0.638769  0.243844  0.654424  1
  I  I13  1  0.727795  0.443627  0.939247  1
  I  I14  1  0.835933  0.848460  0.204463  1
  I  I15  1  0.272205  0.556373  0.060753  1
  I  I16  1  0.727795  0.056373  0.439247  1
  I  I17  1  0.272205  0.943627  0.560753  1
  I  I18  1  0.164067  0.151540  0.795537  1
  I  I19  1  0.271481  0.555491  0.577659  1
  I  I20  1  0.728519  0.055491  0.922341  1
  I  I21  1  0.361231  0.756156  0.345576  1
  I  I22  1  0.728519  0.444509  0.422341  1
  I  I23  1  0.638769  0.256156  0.154424  1
