# generated using pymatgen
data_V2Hg(P2O7)2
_symmetry_space_group_name_H-M   'P 1'
_cell_length_a   4.95188228
_cell_length_b   6.97298642
_cell_length_c   8.28905346
_cell_angle_alpha   92.88507978
_cell_angle_beta   94.02115527
_cell_angle_gamma   105.10991025
_symmetry_Int_Tables_number   1
_chemical_formula_structural   V2Hg(P2O7)2
_chemical_formula_sum   'V2 Hg1 P4 O14'
_cell_volume   274.94023628
_cell_formula_units_Z   1
loop_
 _symmetry_equiv_pos_site_id
 _symmetry_equiv_pos_as_xyz
  1  'x, y, z'
loop_
 _atom_site_type_symbol
 _atom_site_label
 _atom_site_symmetry_multiplicity
 _atom_site_fract_x
 _atom_site_fract_y
 _atom_site_fract_z
 _atom_site_occupancy
  V  V0  1  0.500000  0.500000  0.500000  1
  V  V1  1  0.000000  0.000000  0.000000  1
  Hg  Hg2  1  0.000000  0.000000  0.500000  1
  P  P3  1  0.013495  0.636631  0.256929  1
  P  P4  1  0.986505  0.363369  0.743071  1
  P  P5  1  0.618084  0.240197  0.195254  1
  P  P6  1  0.381916  0.759803  0.804746  1
  O  O7  1  0.780220  0.465523  0.153197  1
  O  O8  1  0.219780  0.534477  0.846803  1
  O  O9  1  0.534329  0.257873  0.371101  1
  O  O10  1  0.465671  0.742127  0.628899  1
  O  O11  1  0.244762  0.550304  0.323007  1
  O  O12  1  0.755238  0.449696  0.676993  1
  O  O13  1  0.848911  0.700112  0.401955  1
  O  O14  1  0.172974  0.887807  0.809225  1
  O  O15  1  0.827026  0.112193  0.190775  1
  O  O16  1  0.889120  0.191662  0.845221  1
  O  O17  1  0.110880  0.808338  0.154779  1
  O  O18  1  0.626151  0.813926  0.933019  1
  O  O19  1  0.373849  0.186074  0.066981  1
  O  O20  1  0.151089  0.299888  0.598045  1
