# generated using pymatgen
data_Tl3AsS4
_symmetry_space_group_name_H-M   'P 1'
_cell_length_a   9.27887093
_cell_length_b   9.34548956
_cell_length_c   11.13504387
_cell_angle_alpha   90.00000000
_cell_angle_beta   90.00000000
_cell_angle_gamma   90.00000000
_symmetry_Int_Tables_number   1
_chemical_formula_structural   Tl3AsS4
_chemical_formula_sum   'Tl12 As4 S16'
_cell_volume   965.58191451
_cell_formula_units_Z   4
loop_
 _symmetry_equiv_pos_site_id
 _symmetry_equiv_pos_as_xyz
  1  'x, y, z'
loop_
 _atom_site_type_symbol
 _atom_site_label
 _atom_site_symmetry_multiplicity
 _atom_site_fract_x
 _atom_site_fract_y
 _atom_site_fract_z
 _atom_site_occupancy
  Tl  Tl0  1  0.926469  0.194559  0.444160  1
  Tl  Tl1  1  0.426469  0.305441  0.055840  1
  Tl  Tl2  1  0.573531  0.694559  0.555840  1
  Tl  Tl3  1  0.073531  0.805441  0.944160  1
  Tl  Tl4  1  0.073531  0.805441  0.555840  1
  Tl  Tl5  1  0.573531  0.694559  0.944160  1
  Tl  Tl6  1  0.426469  0.305441  0.444160  1
  Tl  Tl7  1  0.926469  0.194559  0.055840  1
  Tl  Tl8  1  0.402514  0.105609  0.750000  1
  Tl  Tl9  1  0.902514  0.394391  0.750000  1
  Tl  Tl10  1  0.097486  0.605609  0.250000  1
  Tl  Tl11  1  0.597486  0.894391  0.250000  1
  As  As12  1  0.280226  0.526013  0.750000  1
  As  As13  1  0.219774  0.026013  0.250000  1
  As  As14  1  0.780226  0.973987  0.750000  1
  As  As15  1  0.719774  0.473987  0.250000  1
  S  S16  1  0.004325  0.930389  0.250000  1
  S  S17  1  0.495675  0.430389  0.750000  1
  S  S18  1  0.504325  0.569611  0.250000  1
  S  S19  1  0.995675  0.069611  0.750000  1
  S  S20  1  0.842276  0.533086  0.411068  1
  S  S21  1  0.342276  0.966914  0.088932  1
  S  S22  1  0.657724  0.033086  0.588932  1
  S  S23  1  0.157724  0.466914  0.911068  1
  S  S24  1  0.157724  0.466914  0.588932  1
  S  S25  1  0.657724  0.033086  0.911068  1
  S  S26  1  0.342276  0.966914  0.411068  1
  S  S27  1  0.842276  0.533086  0.088932  1
  S  S28  1  0.689439  0.238491  0.250000  1
  S  S29  1  0.189439  0.261509  0.250000  1
  S  S30  1  0.810561  0.738491  0.750000  1
  S  S31  1  0.310561  0.761509  0.750000  1
