# generated using pymatgen
data_SiO2
_symmetry_space_group_name_H-M   'P 1'
_cell_length_a   10.53584648
_cell_length_b   10.53584648
_cell_length_c   10.53584648
_cell_angle_alpha   90.00000000
_cell_angle_beta   90.00000000
_cell_angle_gamma   90.00000000
_symmetry_Int_Tables_number   1
_chemical_formula_structural   SiO2
_chemical_formula_sum   'Si24 O48'
_cell_volume   1169.52174588
_cell_formula_units_Z   24
loop_
 _symmetry_equiv_pos_site_id
 _symmetry_equiv_pos_as_xyz
  1  'x, y, z'
loop_
 _atom_site_type_symbol
 _atom_site_label
 _atom_site_symmetry_multiplicity
 _atom_site_fract_x
 _atom_site_fract_y
 _atom_site_fract_z
 _atom_site_occupancy
  Si  Si0  1  0.220272  0.049120  0.853362  1
  Si  Si1  1  0.549120  0.853362  0.279728  1
  Si  Si2  1  0.549120  0.646638  0.779728  1
  Si  Si3  1  0.220272  0.450880  0.353362  1
  Si  Si4  1  0.950880  0.353362  0.279728  1
  Si  Si5  1  0.853362  0.220272  0.049120  1
  Si  Si6  1  0.450880  0.146638  0.720272  1
  Si  Si7  1  0.450880  0.353362  0.220272  1
  Si  Si8  1  0.353362  0.220272  0.450880  1
  Si  Si9  1  0.353362  0.279728  0.950880  1
  Si  Si10  1  0.950880  0.146638  0.779728  1
  Si  Si11  1  0.279728  0.549120  0.853362  1
  Si  Si12  1  0.720272  0.049120  0.646638  1
  Si  Si13  1  0.779728  0.950880  0.146638  1
  Si  Si14  1  0.720272  0.450880  0.146638  1
  Si  Si15  1  0.779728  0.549120  0.646638  1
  Si  Si16  1  0.646638  0.779728  0.549120  1
  Si  Si17  1  0.853362  0.279728  0.549120  1
  Si  Si18  1  0.049120  0.853362  0.220272  1
  Si  Si19  1  0.146638  0.779728  0.950880  1
  Si  Si20  1  0.146638  0.720272  0.450880  1
  Si  Si21  1  0.646638  0.720272  0.049120  1
  Si  Si22  1  0.279728  0.950880  0.353362  1
  Si  Si23  1  0.049120  0.646638  0.720272  1
  O  O24  1  0.084850  0.071002  0.782458  1
  O  O25  1  0.665306  0.953021  0.251821  1
  O  O26  1  0.546979  0.748179  0.165306  1
  O  O27  1  0.584850  0.428998  0.217542  1
  O  O28  1  0.071002  0.717542  0.584850  1
  O  O29  1  0.953021  0.251821  0.665306  1
  O  O30  1  0.546979  0.751821  0.665306  1
  O  O31  1  0.751821  0.834694  0.046979  1
  O  O32  1  0.748179  0.334694  0.046979  1
  O  O33  1  0.453021  0.248179  0.334694  1
  O  O34  1  0.834694  0.046979  0.751821  1
  O  O35  1  0.084850  0.428998  0.282458  1
  O  O36  1  0.915150  0.571002  0.717542  1
  O  O37  1  0.248179  0.334694  0.453021  1
  O  O38  1  0.571002  0.782458  0.415150  1
  O  O39  1  0.717542  0.915150  0.571002  1
  O  O40  1  0.217542  0.584850  0.428998  1
  O  O41  1  0.046979  0.751821  0.834694  1
  O  O42  1  0.834694  0.453021  0.251821  1
  O  O43  1  0.251821  0.834694  0.453021  1
  O  O44  1  0.165306  0.953021  0.248179  1
  O  O45  1  0.165306  0.546979  0.748179  1
  O  O46  1  0.251821  0.665306  0.953021  1
  O  O47  1  0.415150  0.571002  0.782458  1
  O  O48  1  0.334694  0.046979  0.748179  1
  O  O49  1  0.928998  0.217542  0.915150  1
  O  O50  1  0.584850  0.071002  0.717542  1
  O  O51  1  0.248179  0.165306  0.953021  1
  O  O52  1  0.415150  0.928998  0.282458  1
  O  O53  1  0.782458  0.415150  0.571002  1
  O  O54  1  0.928998  0.282458  0.415150  1
  O  O55  1  0.282458  0.084850  0.428998  1
  O  O56  1  0.751821  0.665306  0.546979  1
  O  O57  1  0.571002  0.717542  0.915150  1
  O  O58  1  0.717542  0.584850  0.071002  1
  O  O59  1  0.915150  0.928998  0.217542  1
  O  O60  1  0.217542  0.915150  0.928998  1
  O  O61  1  0.428998  0.217542  0.584850  1
  O  O62  1  0.046979  0.748179  0.334694  1
  O  O63  1  0.748179  0.165306  0.546979  1
  O  O64  1  0.071002  0.782458  0.084850  1
  O  O65  1  0.782458  0.084850  0.071002  1
  O  O66  1  0.953021  0.248179  0.165306  1
  O  O67  1  0.453021  0.251821  0.834694  1
  O  O68  1  0.282458  0.415150  0.928998  1
  O  O69  1  0.428998  0.282458  0.084850  1
  O  O70  1  0.334694  0.453021  0.248179  1
  O  O71  1  0.665306  0.546979  0.751821  1
