# generated using pymatgen
data_Na3B6PO13
_symmetry_space_group_name_H-M   'P 1'
_cell_length_a   6.87986192
_cell_length_b   9.45386086
_cell_length_c   16.42343584
_cell_angle_alpha   90.00000000
_cell_angle_beta   90.00000000
_cell_angle_gamma   90.00000000
_symmetry_Int_Tables_number   1
_chemical_formula_structural   Na3B6PO13
_chemical_formula_sum   'Na12 B24 P4 O52'
_cell_volume   1068.20091667
_cell_formula_units_Z   4
loop_
 _symmetry_equiv_pos_site_id
 _symmetry_equiv_pos_as_xyz
  1  'x, y, z'
loop_
 _atom_site_type_symbol
 _atom_site_label
 _atom_site_symmetry_multiplicity
 _atom_site_fract_x
 _atom_site_fract_y
 _atom_site_fract_z
 _atom_site_occupancy
  Na  Na0  1  0.252214  0.060053  0.250000  1
  Na  Na1  1  0.242327  0.939699  0.865345  1
  Na  Na2  1  0.742327  0.560301  0.134655  1
  Na  Na3  1  0.257673  0.439699  0.634655  1
  Na  Na4  1  0.257673  0.439699  0.865345  1
  Na  Na5  1  0.747786  0.939947  0.750000  1
  Na  Na6  1  0.247786  0.560053  0.250000  1
  Na  Na7  1  0.757673  0.060301  0.365345  1
  Na  Na8  1  0.752214  0.439947  0.750000  1
  Na  Na9  1  0.242327  0.939699  0.634655  1
  Na  Na10  1  0.742327  0.560301  0.365345  1
  Na  Na11  1  0.757673  0.060301  0.134655  1
  B  B12  1  0.689696  0.316477  0.948498  1
  B  B13  1  0.194803  0.436154  0.446233  1
  B  B14  1  0.189696  0.183523  0.448498  1
  B  B15  1  0.035864  0.309637  0.329079  1
  B  B16  1  0.189696  0.183523  0.051502  1
  B  B17  1  0.305197  0.936154  0.053767  1
  B  B18  1  0.464136  0.809637  0.329079  1
  B  B19  1  0.194803  0.436154  0.053767  1
  B  B20  1  0.689696  0.316477  0.551502  1
  B  B21  1  0.305197  0.936154  0.446233  1
  B  B22  1  0.310304  0.683523  0.051502  1
  B  B23  1  0.694803  0.063846  0.946233  1
  B  B24  1  0.810304  0.816477  0.551502  1
  B  B25  1  0.535864  0.190363  0.829079  1
  B  B26  1  0.964136  0.690363  0.829079  1
  B  B27  1  0.805197  0.563846  0.946233  1
  B  B28  1  0.035864  0.309637  0.170921  1
  B  B29  1  0.464136  0.809637  0.170921  1
  B  B30  1  0.805197  0.563846  0.553767  1
  B  B31  1  0.964136  0.690363  0.670921  1
  B  B32  1  0.535864  0.190363  0.670921  1
  B  B33  1  0.810304  0.816477  0.948498  1
  B  B34  1  0.310304  0.683523  0.448498  1
  B  B35  1  0.694803  0.063846  0.553767  1
  P  P36  1  0.823001  0.810008  0.250000  1
  P  P37  1  0.323001  0.689992  0.750000  1
  P  P38  1  0.176999  0.189992  0.750000  1
  P  P39  1  0.676999  0.310008  0.250000  1
  O  O40  1  0.899362  0.560138  0.625940  1
  O  O41  1  0.318521  0.187283  0.672183  1
  O  O42  1  0.234043  0.310476  0.487836  1
  O  O43  1  0.405822  0.680385  0.123610  1
  O  O44  1  0.247370  0.058707  0.486239  1
  O  O45  1  0.252630  0.558707  0.013761  1
  O  O46  1  0.094178  0.180385  0.123610  1
  O  O47  1  0.594178  0.319615  0.623610  1
  O  O48  1  0.247370  0.058707  0.013761  1
  O  O49  1  0.234043  0.310476  0.012164  1
  O  O50  1  0.100638  0.439862  0.374060  1
  O  O51  1  0.437737  0.553472  0.750000  1
  O  O52  1  0.429334  0.830128  0.750000  1
  O  O53  1  0.681479  0.812717  0.327817  1
  O  O54  1  0.594178  0.319615  0.876390  1
  O  O55  1  0.681479  0.812717  0.172183  1
  O  O56  1  0.070666  0.330128  0.750000  1
  O  O57  1  0.094178  0.180385  0.376390  1
  O  O58  1  0.879146  0.694141  0.750000  1
  O  O59  1  0.318521  0.187283  0.827817  1
  O  O60  1  0.100638  0.439862  0.125940  1
  O  O61  1  0.899362  0.560138  0.874060  1
  O  O62  1  0.747370  0.441293  0.986239  1
  O  O63  1  0.600638  0.060138  0.625940  1
  O  O64  1  0.570666  0.169872  0.250000  1
  O  O65  1  0.399362  0.939862  0.374060  1
  O  O66  1  0.752630  0.941293  0.986239  1
  O  O67  1  0.765957  0.689524  0.987836  1
  O  O68  1  0.905822  0.819615  0.876390  1
  O  O69  1  0.252630  0.558707  0.486239  1
  O  O70  1  0.181479  0.687283  0.827817  1
  O  O71  1  0.265957  0.810476  0.012164  1
  O  O72  1  0.620854  0.194141  0.750000  1
  O  O73  1  0.734043  0.189524  0.987836  1
  O  O74  1  0.929334  0.669872  0.250000  1
  O  O75  1  0.818521  0.312717  0.172183  1
  O  O76  1  0.399362  0.939862  0.125940  1
  O  O77  1  0.562263  0.446528  0.250000  1
  O  O78  1  0.265957  0.810476  0.487836  1
  O  O79  1  0.818521  0.312717  0.327817  1
  O  O80  1  0.120854  0.305859  0.250000  1
  O  O81  1  0.734043  0.189524  0.512164  1
  O  O82  1  0.937737  0.946528  0.250000  1
  O  O83  1  0.405822  0.680385  0.376390  1
  O  O84  1  0.379146  0.805859  0.250000  1
  O  O85  1  0.062263  0.053472  0.750000  1
  O  O86  1  0.905822  0.819615  0.623610  1
  O  O87  1  0.765957  0.689524  0.512164  1
  O  O88  1  0.752630  0.941293  0.513761  1
  O  O89  1  0.600638  0.060138  0.874060  1
  O  O90  1  0.747370  0.441293  0.513761  1
  O  O91  1  0.181479  0.687283  0.672183  1
