# generated using pymatgen
data_Sr2SiCl2O3
_symmetry_space_group_name_H-M   'P 1'
_cell_length_a   9.33677702
_cell_length_b   9.33677702
_cell_length_c   9.33677702
_cell_angle_alpha   105.55989644
_cell_angle_beta   105.55989644
_cell_angle_gamma   117.61375682
_symmetry_Int_Tables_number   1
_chemical_formula_structural   Sr2SiCl2O3
_chemical_formula_sum   'Sr8 Si4 Cl8 O12'
_cell_volume   616.95374349
_cell_formula_units_Z   4
loop_
 _symmetry_equiv_pos_site_id
 _symmetry_equiv_pos_as_xyz
  1  'x, y, z'
loop_
 _atom_site_type_symbol
 _atom_site_label
 _atom_site_symmetry_multiplicity
 _atom_site_fract_x
 _atom_site_fract_y
 _atom_site_fract_z
 _atom_site_occupancy
  Sr  Sr0  1  0.148478  0.978890  0.667557  1
  Sr  Sr1  1  0.519079  0.851522  0.830412  1
  Sr  Sr2  1  0.480921  0.148478  0.169588  1
  Sr  Sr3  1  0.311333  0.480921  0.332443  1
  Sr  Sr4  1  0.978890  0.311333  0.830412  1
  Sr  Sr5  1  0.021110  0.688667  0.169588  1
  Sr  Sr6  1  0.851522  0.021110  0.332443  1
  Sr  Sr7  1  0.688667  0.519079  0.667557  1
  Si  Si8  1  0.596543  0.317949  0.914492  1
  Si  Si9  1  0.317949  0.403457  0.721406  1
  Si  Si10  1  0.682051  0.596543  0.278594  1
  Si  Si11  1  0.403457  0.682051  0.085508  1
  Cl  Cl12  1  0.096393  0.744899  0.841292  1
  Cl  Cl13  1  0.798981  0.798981  0.000000  1
  Cl  Cl14  1  0.744899  0.903607  0.648506  1
  Cl  Cl15  1  0.201019  0.201019  0.000000  1
  Cl  Cl16  1  0.255101  0.096393  0.351494  1
  Cl  Cl17  1  0.250000  0.750000  0.500000  1
  Cl  Cl18  1  0.903607  0.255101  0.158708  1
  Cl  Cl19  1  0.750000  0.250000  0.500000  1
  O  O20  1  0.449686  0.335892  0.785578  1
  O  O21  1  0.225009  0.599206  0.115657  1
  O  O22  1  0.483549  0.109353  0.884343  1
  O  O23  1  0.550314  0.664108  0.214422  1
  O  O24  1  0.400794  0.516451  0.625804  1
  O  O25  1  0.774991  0.400794  0.884343  1
  O  O26  1  0.599206  0.483549  0.374196  1
  O  O27  1  0.890647  0.774991  0.374196  1
  O  O28  1  0.109353  0.225009  0.625804  1
  O  O29  1  0.335892  0.550314  0.886205  1
  O  O30  1  0.664108  0.449686  0.113795  1
  O  O31  1  0.516451  0.890647  0.115657  1
