# generated using pymatgen
data_Pb3WCl2O5
_symmetry_space_group_name_H-M   'P 1'
_cell_length_a   7.23000063
_cell_length_b   7.23000063
_cell_length_c   11.27935253
_cell_angle_alpha   90.00000000
_cell_angle_beta   90.00000000
_cell_angle_gamma   133.35995033
_symmetry_Int_Tables_number   1
_chemical_formula_structural   Pb3WCl2O5
_chemical_formula_sum   'Pb6 W2 Cl4 O10'
_cell_volume   428.67481221
_cell_formula_units_Z   2
loop_
 _symmetry_equiv_pos_site_id
 _symmetry_equiv_pos_as_xyz
  1  'x, y, z'
loop_
 _atom_site_type_symbol
 _atom_site_label
 _atom_site_symmetry_multiplicity
 _atom_site_fract_x
 _atom_site_fract_y
 _atom_site_fract_z
 _atom_site_occupancy
  Pb  Pb0  1  0.903335  0.096665  0.750000  1
  Pb  Pb1  1  0.653505  0.346495  0.532265  1
  Pb  Pb2  1  0.346495  0.653505  0.467735  1
  Pb  Pb3  1  0.653505  0.346495  0.967735  1
  Pb  Pb4  1  0.346495  0.653505  0.032265  1
  Pb  Pb5  1  0.096665  0.903335  0.250000  1
  W  W6  1  0.763182  0.236818  0.250000  1
  W  W7  1  0.236818  0.763182  0.750000  1
  Cl  Cl8  1  0.526470  0.473530  0.250000  1
  Cl  Cl9  1  0.473530  0.526470  0.750000  1
  Cl  Cl10  1  0.000000  0.000000  0.500000  1
  Cl  Cl11  1  0.000000  0.000000  0.000000  1
  O  O12  1  0.104734  0.895266  0.750000  1
  O  O13  1  0.037856  0.495821  0.630309  1
  O  O14  1  0.495821  0.037856  0.369691  1
  O  O15  1  0.504179  0.962144  0.630309  1
  O  O16  1  0.962144  0.504179  0.369691  1
  O  O17  1  0.895266  0.104734  0.250000  1
  O  O18  1  0.037856  0.495821  0.869691  1
  O  O19  1  0.504179  0.962144  0.869691  1
  O  O20  1  0.962144  0.504179  0.130309  1
  O  O21  1  0.495821  0.037856  0.130309  1
