# generated using pymatgen
data_Li2PtO3
_symmetry_space_group_name_H-M   'P 1'
_cell_length_a   5.26993509
_cell_length_b   5.26993509
_cell_length_c   29.02091565
_cell_angle_alpha   89.99016369
_cell_angle_beta   90.00983631
_cell_angle_gamma   60.06791217
_symmetry_Int_Tables_number   1
_chemical_formula_structural   Li2PtO3
_chemical_formula_sum   'Li24 Pt12 O36'
_cell_volume   698.47206768
_cell_formula_units_Z   12
loop_
 _symmetry_equiv_pos_site_id
 _symmetry_equiv_pos_as_xyz
  1  'x, y, z'
loop_
 _atom_site_type_symbol
 _atom_site_label
 _atom_site_symmetry_multiplicity
 _atom_site_fract_x
 _atom_site_fract_y
 _atom_site_fract_z
 _atom_site_occupancy
  Li  Li0  1  0.333268  0.333268  0.500000  1
  Li  Li1  1  0.662898  0.005121  0.583176  1
  Li  Li2  1  0.335471  0.662445  0.583436  1
  Li  Li3  1  0.000006  0.334325  0.583130  1
  Li  Li4  1  0.667403  0.332955  0.666583  1
  Li  Li5  1  0.335362  0.335779  0.749998  1
  Li  Li6  1  0.999550  0.000648  0.749900  1
  Li  Li7  1  0.664539  0.664033  0.749953  1
  Li  Li8  1  0.333331  0.666689  0.833323  1
  Li  Li9  1  0.002551  0.669221  0.916666  1
  Li  Li10  1  0.666702  0.333321  0.916665  1
  Li  Li11  1  0.330782  0.997472  0.916667  1
  Li  Li12  1  0.000007  0.000007  0.000000  1
  Li  Li13  1  0.997472  0.330782  0.083333  1
  Li  Li14  1  0.333321  0.666702  0.083335  1
  Li  Li15  1  0.669221  0.002551  0.083334  1
  Li  Li16  1  0.666689  0.333331  0.166677  1
  Li  Li17  1  0.664033  0.664539  0.250047  1
  Li  Li18  1  0.000648  0.999550  0.250100  1
  Li  Li19  1  0.335779  0.335362  0.250002  1
  Li  Li20  1  0.332955  0.667403  0.333417  1
  Li  Li21  1  0.662445  0.335471  0.416564  1
  Li  Li22  1  0.005121  0.662898  0.416824  1
  Li  Li23  1  0.334325  0.000006  0.416870  1
  Pt  Pt24  1  0.666580  0.666580  0.500000  1
  Pt  Pt25  1  0.000067  0.000067  0.500000  1
  Pt  Pt26  1  0.999775  0.666807  0.666624  1
  Pt  Pt27  1  0.333028  0.000233  0.666623  1
  Pt  Pt28  1  0.666732  0.000010  0.833320  1
  Pt  Pt29  1  0.999994  0.333280  0.833320  1
  Pt  Pt30  1  0.333367  0.333367  0.000000  1
  Pt  Pt31  1  0.666650  0.666650  0.000000  1
  Pt  Pt32  1  0.000010  0.666732  0.166680  1
  Pt  Pt33  1  0.333280  0.999994  0.166680  1
  Pt  Pt34  1  0.666807  0.999775  0.333376  1
  Pt  Pt35  1  0.000233  0.333028  0.333377  1
  O  O36  1  0.681409  0.332552  0.539193  1
  O  O37  1  0.986291  0.679975  0.538667  1
  O  O38  1  0.333754  0.985896  0.538737  1
  O  O39  1  0.318823  0.333273  0.627410  1
  O  O40  1  0.666527  0.680711  0.627913  1
  O  O41  1  0.013657  0.986108  0.627821  1
  O  O42  1  0.318854  0.681592  0.705868  1
  O  O43  1  0.667075  0.985807  0.705332  1
  O  O44  1  0.013816  0.333348  0.705389  1
  O  O45  1  0.986215  0.666241  0.794609  1
  O  O46  1  0.333787  0.013838  0.794605  1
  O  O47  1  0.680949  0.319033  0.794011  1
  O  O48  1  0.985627  0.014385  0.872644  1
  O  O49  1  0.332984  0.319384  0.872034  1
  O  O50  1  0.680623  0.667016  0.872035  1
  O  O51  1  0.652791  0.999621  0.961290  1
  O  O52  1  0.000396  0.347224  0.961291  1
  O  O53  1  0.347729  0.652289  0.960683  1
  O  O54  1  0.652289  0.347729  0.039317  1
  O  O55  1  0.999621  0.652791  0.038710  1
  O  O56  1  0.347224  0.000396  0.038709  1
  O  O57  1  0.667016  0.680623  0.127965  1
  O  O58  1  0.319384  0.332984  0.127966  1
  O  O59  1  0.014385  0.985627  0.127356  1
  O  O60  1  0.319033  0.680949  0.205989  1
  O  O61  1  0.013838  0.333787  0.205395  1
  O  O62  1  0.666241  0.986215  0.205391  1
  O  O63  1  0.333348  0.013816  0.294611  1
  O  O64  1  0.985807  0.667075  0.294668  1
  O  O65  1  0.681592  0.318854  0.294132  1
  O  O66  1  0.986108  0.013657  0.372179  1
  O  O67  1  0.333273  0.318823  0.372590  1
  O  O68  1  0.680711  0.666527  0.372087  1
  O  O69  1  0.679975  0.986291  0.461333  1
  O  O70  1  0.985896  0.333754  0.461263  1
  O  O71  1  0.332552  0.681409  0.460807  1
