# generated using pymatgen
data_YAl3(Si5N8)3
_symmetry_space_group_name_H-M   'P 1'
_cell_length_a   7.87656432
_cell_length_b   7.90463455
_cell_length_c   17.19440129
_cell_angle_alpha   90.19792317
_cell_angle_beta   90.10904594
_cell_angle_gamma   119.82682437
_symmetry_Int_Tables_number   1
_chemical_formula_structural   YAl3(Si5N8)3
_chemical_formula_sum   'Y2 Al6 Si30 N48'
_cell_volume   928.72075468
_cell_formula_units_Z   2
loop_
 _symmetry_equiv_pos_site_id
 _symmetry_equiv_pos_as_xyz
  1  'x, y, z'
loop_
 _atom_site_type_symbol
 _atom_site_label
 _atom_site_symmetry_multiplicity
 _atom_site_fract_x
 _atom_site_fract_y
 _atom_site_fract_z
 _atom_site_occupancy
  Y  Y0  1  0.332168  0.669215  0.422389  1
  Y  Y1  1  0.333609  0.671867  0.084611  1
  Al  Al2  1  0.511221  0.095384  0.434154  1
  Al  Al3  1  0.513225  0.097857  0.098174  1
  Al  Al4  1  0.070736  0.502045  0.263276  1
  Al  Al5  1  0.165312  0.251028  0.830839  1
  Al  Al6  1  0.165781  0.244509  0.501334  1
  Al  Al7  1  0.170037  0.248442  0.164631  1
  Si  Si8  1  0.913359  0.750476  0.668558  1
  Si  Si9  1  0.921343  0.754185  0.334089  1
  Si  Si10  1  0.923770  0.758640  0.998715  1
  Si  Si11  1  0.915421  0.430844  0.762686  1
  Si  Si12  1  0.908752  0.426403  0.433126  1
  Si  Si13  1  0.913317  0.430781  0.094942  1
  Si  Si14  1  0.567090  0.485351  0.761595  1
  Si  Si15  1  0.575872  0.485972  0.431184  1
  Si  Si16  1  0.580138  0.489680  0.095065  1
  Si  Si17  1  0.834664  0.086372  0.667818  1
  Si  Si18  1  0.829831  0.080495  0.337430  1
  Si  Si19  1  0.831399  0.083835  0.999103  1
  Si  Si20  1  0.746071  0.909992  0.832064  1
  Si  Si21  1  0.745230  0.910765  0.502434  1
  Si  Si22  1  0.751453  0.919451  0.167392  1
  Si  Si23  1  0.512633  0.083290  0.762426  1
  Si  Si24  1  0.258243  0.168788  0.666757  1
  Si  Si25  1  0.257387  0.171842  0.331986  1
  Si  Si26  1  0.260816  0.172558  0.996248  1
  Si  Si27  1  0.430614  0.922823  0.926130  1
  Si  Si28  1  0.428718  0.911899  0.600078  1
  Si  Si29  1  0.433469  0.921606  0.264191  1
  Si  Si30  1  0.491736  0.565850  0.927132  1
  Si  Si31  1  0.482333  0.561059  0.600650  1
  Si  Si32  1  0.490830  0.566351  0.264982  1
  Si  Si33  1  0.082477  0.830680  0.832006  1
  Si  Si34  1  0.076132  0.825080  0.170370  1
  Si  Si35  1  0.076412  0.824472  0.504775  1
  Si  Si36  1  0.072253  0.508723  0.925606  1
  Si  Si37  1  0.079455  0.512713  0.599398  1
  N  N38  1  0.993294  0.679509  0.750627  1
  N  N39  1  0.012185  0.682368  0.416789  1
  N  N40  1  0.013272  0.686503  0.081237  1
  N  N41  1  0.952403  0.342868  0.672210  1
  N  N42  1  0.948289  0.334122  0.347118  1
  N  N43  1  0.950969  0.345738  0.004354  1
  N  N44  1  0.657895  0.617503  0.673423  1
  N  N45  1  0.661721  0.618123  0.342546  1
  N  N46  1  0.662778  0.622736  0.007063  1
  N  N47  1  0.006284  0.008694  0.999944  1
  N  N48  1  0.990247  0.985556  0.833225  1
  N  N49  1  0.002985  0.002686  0.666331  1
  N  N50  1  0.987443  0.981123  0.500160  1
  N  N51  1  0.004046  0.004827  0.334984  1
  N  N52  1  0.665509  0.333178  0.779082  1
  N  N53  1  0.992473  0.986302  0.165956  1
  N  N54  1  0.674553  0.348480  0.457657  1
  N  N55  1  0.679308  0.351630  0.121148  1
  N  N56  1  0.687101  0.006301  0.751508  1
  N  N57  1  0.670459  0.980578  0.418133  1
  N  N58  1  0.680502  0.992209  0.083100  1
  N  N59  1  0.679241  0.991702  0.917464  1
  N  N60  1  0.680411  0.994090  0.585636  1
  N  N61  1  0.686147  0.002434  0.251480  1
  N  N62  1  0.325608  0.316629  0.746859  1
  N  N63  1  0.327673  0.330667  0.413491  1
  N  N64  1  0.333735  0.330284  0.078421  1
  N  N65  1  0.387725  0.039064  0.672918  1
  N  N66  1  0.381912  0.039476  0.337570  1
  N  N67  1  0.381119  0.035568  0.002830  1
  N  N68  1  0.343109  0.950393  0.836705  1
  N  N69  1  0.332420  0.928876  0.508379  1
  N  N70  1  0.334625  0.926343  0.172644  1
  N  N71  1  0.604096  0.653025  0.837771  1
  N  N72  1  0.588484  0.651986  0.504869  1
  N  N73  1  0.591055  0.657549  0.169995  1
  N  N74  1  0.332146  0.665776  0.949388  1
  N  N75  1  0.331366  0.662500  0.616165  1
  N  N76  1  0.344978  0.673083  0.288657  1
  N  N77  1  0.006325  0.689288  0.918118  1
  N  N78  1  0.995822  0.679846  0.587364  1
  N  N79  1  0.990203  0.684197  0.251883  1
  N  N80  1  0.325903  0.323395  0.918686  1
  N  N81  1  0.325513  0.316370  0.586737  1
  N  N82  1  0.325174  0.322913  0.253024  1
  N  N83  1  0.039358  0.397045  0.838068  1
  N  N84  1  0.058510  0.412817  0.504950  1
  N  N85  1  0.066986  0.415659  0.162187  1
