# generated using pymatgen
data_Cs2Ba2(CO3)3
_symmetry_space_group_name_H-M   'P 1'
_cell_length_a   9.10776897
_cell_length_b   9.10776897
_cell_length_c   9.10776897
_cell_angle_alpha   109.47122063
_cell_angle_beta   109.47122063
_cell_angle_gamma   109.47122063
_symmetry_Int_Tables_number   1
_chemical_formula_structural   Cs2Ba2(CO3)3
_chemical_formula_sum   'Cs4 Ba4 C6 O18'
_cell_volume   581.58624402
_cell_formula_units_Z   2
loop_
 _symmetry_equiv_pos_site_id
 _symmetry_equiv_pos_as_xyz
  1  'x, y, z'
loop_
 _atom_site_type_symbol
 _atom_site_label
 _atom_site_symmetry_multiplicity
 _atom_site_fract_x
 _atom_site_fract_y
 _atom_site_fract_z
 _atom_site_occupancy
  Cs  Cs0  1  0.500000  1.000000  0.119877  1
  Cs  Cs1  1  1.000000  0.119877  0.500000  1
  Cs  Cs2  1  0.380123  0.380123  0.380123  1
  Cs  Cs3  1  0.119877  0.500000  0.000000  1
  Ba  Ba4  1  0.500000  1.000000  0.582833  1
  Ba  Ba5  1  0.582833  0.500000  1.000000  1
  Ba  Ba6  1  0.917167  0.917167  0.917167  1
  Ba  Ba7  1  1.000000  0.582833  0.500000  1
  C  C8  1  0.409378  0.659378  0.750000  1
  C  C9  1  0.250000  0.090622  0.840622  1
  C  C10  1  0.840622  0.250000  0.090622  1
  C  C11  1  0.750000  0.409378  0.659378  1
  C  C12  1  0.090622  0.840622  0.250000  1
  C  C13  1  0.659378  0.750000  0.409378  1
  O  O14  1  0.215268  0.965268  0.250000  1
  O  O15  1  0.965268  0.250000  0.215268  1
  O  O16  1  0.627440  0.364209  0.704158  1
  O  O17  1  0.704158  0.627440  0.364209  1
  O  O18  1  0.364209  0.704158  0.627440  1
  O  O19  1  0.250000  0.215268  0.965268  1
  O  O20  1  0.736769  0.872560  0.576717  1
  O  O21  1  0.923283  0.795842  0.160052  1
  O  O22  1  0.339948  0.135791  0.763231  1
  O  O23  1  0.763231  0.339948  0.135791  1
  O  O24  1  0.160052  0.923283  0.795842  1
  O  O25  1  0.795842  0.160052  0.923283  1
  O  O26  1  0.750000  0.284732  0.534732  1
  O  O27  1  0.534732  0.750000  0.284732  1
  O  O28  1  0.135791  0.763231  0.339948  1
  O  O29  1  0.872560  0.576717  0.736769  1
  O  O30  1  0.284732  0.534732  0.750000  1
  O  O31  1  0.576717  0.736769  0.872560  1
