# generated using pymatgen
data_Rb7NaZn2O6
_symmetry_space_group_name_H-M   'P 1'
_cell_length_a   7.20949522
_cell_length_b   9.59673621
_cell_length_c   11.44272721
_cell_angle_alpha   105.94762117
_cell_angle_beta   91.99618392
_cell_angle_gamma   108.73215102
_symmetry_Int_Tables_number   1
_chemical_formula_structural   Rb7NaZn2O6
_chemical_formula_sum   'Rb14 Na2 Zn4 O12'
_cell_volume   714.28870374
_cell_formula_units_Z   2
loop_
 _symmetry_equiv_pos_site_id
 _symmetry_equiv_pos_as_xyz
  1  'x, y, z'
loop_
 _atom_site_type_symbol
 _atom_site_label
 _atom_site_symmetry_multiplicity
 _atom_site_fract_x
 _atom_site_fract_y
 _atom_site_fract_z
 _atom_site_occupancy
  Rb  Rb0  1  0.952483  0.664851  0.592701  1
  Rb  Rb1  1  0.563553  0.339155  0.019143  1
  Rb  Rb2  1  0.034830  0.516356  0.188308  1
  Rb  Rb3  1  0.475825  0.484225  0.686737  1
  Rb  Rb4  1  0.436447  0.660845  0.980857  1
  Rb  Rb5  1  0.047517  0.335149  0.407299  1
  Rb  Rb6  1  0.524175  0.515775  0.313263  1
  Rb  Rb7  1  0.028555  0.868238  0.365338  1
  Rb  Rb8  1  0.206711  0.929073  0.908197  1
  Rb  Rb9  1  0.488521  0.123348  0.683572  1
  Rb  Rb10  1  0.793289  0.070927  0.091803  1
  Rb  Rb11  1  0.511479  0.876652  0.316428  1
  Rb  Rb12  1  0.965170  0.483644  0.811692  1
  Rb  Rb13  1  0.971445  0.131762  0.634662  1
  Na  Na14  1  0.306520  0.114619  0.215429  1
  Na  Na15  1  0.693480  0.885381  0.784571  1
  Zn  Zn16  1  0.580845  0.254341  0.438493  1
  Zn  Zn17  1  0.419155  0.745659  0.561507  1
  Zn  Zn18  1  0.092848  0.248350  0.941020  1
  Zn  Zn19  1  0.907152  0.751650  0.058980  1
  O  O20  1  0.186594  0.826490  0.120216  1
  O  O21  1  0.229031  0.664495  0.416433  1
  O  O22  1  0.185525  0.255700  0.105077  1
  O  O23  1  0.770969  0.335505  0.583567  1
  O  O24  1  0.300296  0.172641  0.444497  1
  O  O25  1  0.718661  0.680747  0.163767  1
  O  O26  1  0.814475  0.744300  0.894923  1
  O  O27  1  0.656561  0.248704  0.276480  1
  O  O28  1  0.813406  0.173510  0.879784  1
  O  O29  1  0.343439  0.751296  0.723520  1
  O  O30  1  0.281339  0.319253  0.836233  1
  O  O31  1  0.699704  0.827359  0.555503  1
