# generated using pymatgen
data_S
_symmetry_space_group_name_H-M   'P 1'
_cell_length_a   8.49984809
_cell_length_b   14.99678413
_cell_length_c   19.00802134
_cell_angle_alpha   90.00000000
_cell_angle_beta   102.53242266
_cell_angle_gamma   90.00000000
_symmetry_Int_Tables_number   1
_chemical_formula_structural   S
_chemical_formula_sum   S72
_cell_volume   2365.22887226
_cell_formula_units_Z   72
loop_
 _symmetry_equiv_pos_site_id
 _symmetry_equiv_pos_as_xyz
  1  'x, y, z'
loop_
 _atom_site_type_symbol
 _atom_site_label
 _atom_site_symmetry_multiplicity
 _atom_site_fract_x
 _atom_site_fract_y
 _atom_site_fract_z
 _atom_site_occupancy
  S  S0  1  0.623809  0.977159  0.638813  1
  S  S1  1  0.241936  0.525965  0.372033  1
  S  S2  1  0.764437  0.248379  0.650332  1
  S  S3  1  0.376191  0.022841  0.361187  1
  S  S4  1  0.780577  0.678368  0.358251  1
  S  S5  1  0.235563  0.748379  0.849668  1
  S  S6  1  0.219423  0.178368  0.141749  1
  S  S7  1  0.384657  0.121464  0.436020  1
  S  S8  1  0.996748  0.521971  0.874169  1
  S  S9  1  0.235563  0.751621  0.349668  1
  S  S10  1  0.856641  0.736668  0.666038  1
  S  S11  1  0.159418  0.582989  0.120938  1
  S  S12  1  0.991390  0.209257  0.901482  1
  S  S13  1  0.840582  0.082989  0.379062  1
  S  S14  1  0.705499  0.350860  0.578563  1
  S  S15  1  0.294501  0.850860  0.921437  1
  S  S16  1  0.780577  0.821632  0.858251  1
  S  S17  1  0.950671  0.325746  0.954932  1
  S  S18  1  0.138597  0.490889  0.802623  1
  S  S19  1  0.143359  0.236668  0.833962  1
  S  S20  1  0.861403  0.509111  0.197377  1
  S  S21  1  0.587900  0.262451  0.211396  1
  S  S22  1  0.615343  0.878536  0.563980  1
  S  S23  1  0.370545  0.287104  0.142011  1
  S  S24  1  0.950671  0.174254  0.454932  1
  S  S25  1  0.259565  0.414190  0.567424  1
  S  S26  1  0.412100  0.762451  0.288604  1
  S  S27  1  0.705499  0.149140  0.078563  1
  S  S28  1  0.615343  0.621464  0.063980  1
  S  S29  1  0.138597  0.009111  0.302623  1
  S  S30  1  0.049329  0.674254  0.045068  1
  S  S31  1  0.159418  0.917011  0.620938  1
  S  S32  1  0.003252  0.478029  0.125831  1
  S  S33  1  0.376191  0.477159  0.861187  1
  S  S34  1  0.583207  0.491846  0.687316  1
  S  S35  1  0.370545  0.212896  0.642011  1
  S  S36  1  0.621121  0.747363  0.109915  1
  S  S37  1  0.740435  0.585810  0.432576  1
  S  S38  1  0.856641  0.763332  0.166038  1
  S  S39  1  0.003252  0.021971  0.625831  1
  S  S40  1  0.621121  0.752637  0.609915  1
  S  S41  1  0.583207  0.008154  0.187316  1
  S  S42  1  0.629455  0.787104  0.357989  1
  S  S43  1  0.364952  0.526360  0.623497  1
  S  S44  1  0.996748  0.978029  0.374169  1
  S  S45  1  0.416793  0.508154  0.312684  1
  S  S46  1  0.635048  0.026360  0.876503  1
  S  S47  1  0.384657  0.378536  0.936020  1
  S  S48  1  0.259565  0.085810  0.067424  1
  S  S49  1  0.629455  0.712896  0.857989  1
  S  S50  1  0.416793  0.991846  0.812684  1
  S  S51  1  0.412100  0.737549  0.788604  1
  S  S52  1  0.991390  0.290743  0.401482  1
  S  S53  1  0.740435  0.914190  0.932576  1
  S  S54  1  0.623809  0.522841  0.138813  1
  S  S55  1  0.143359  0.263332  0.333962  1
  S  S56  1  0.758064  0.025965  0.127967  1
  S  S57  1  0.635048  0.473640  0.376503  1
  S  S58  1  0.764437  0.251621  0.150332  1
  S  S59  1  0.219423  0.321632  0.641749  1
  S  S60  1  0.008610  0.790743  0.098518  1
  S  S61  1  0.840582  0.417011  0.879062  1
  S  S62  1  0.861403  0.990889  0.697377  1
  S  S63  1  0.364952  0.973640  0.123497  1
  S  S64  1  0.378879  0.252637  0.890085  1
  S  S65  1  0.758064  0.474035  0.627967  1
  S  S66  1  0.049329  0.825746  0.545068  1
  S  S67  1  0.294501  0.649140  0.421437  1
  S  S68  1  0.008610  0.709257  0.598518  1
  S  S69  1  0.587900  0.237549  0.711396  1
  S  S70  1  0.241936  0.974035  0.872033  1
  S  S71  1  0.378879  0.247363  0.390085  1
