# generated using pymatgen
data_Ba2Nb2TeO10
_symmetry_space_group_name_H-M   'P 1'
_cell_length_a   7.37873038
_cell_length_b   10.06887926
_cell_length_c   12.70173708
_cell_angle_alpha   90.00000000
_cell_angle_beta   90.00000000
_cell_angle_gamma   90.00000000
_symmetry_Int_Tables_number   1
_chemical_formula_structural   Ba2Nb2TeO10
_chemical_formula_sum   'Ba8 Nb8 Te4 O40'
_cell_volume   943.68248247
_cell_formula_units_Z   4
loop_
 _symmetry_equiv_pos_site_id
 _symmetry_equiv_pos_as_xyz
  1  'x, y, z'
loop_
 _atom_site_type_symbol
 _atom_site_label
 _atom_site_symmetry_multiplicity
 _atom_site_fract_x
 _atom_site_fract_y
 _atom_site_fract_z
 _atom_site_occupancy
  Ba  Ba0  1  0.484850  0.611350  0.140807  1
  Ba  Ba1  1  0.015150  0.611350  0.640807  1
  Ba  Ba2  1  0.515150  0.888650  0.640807  1
  Ba  Ba3  1  0.015150  0.111350  0.859193  1
  Ba  Ba4  1  0.484850  0.111350  0.359193  1
  Ba  Ba5  1  0.984850  0.388650  0.359193  1
  Ba  Ba6  1  0.984850  0.888650  0.140807  1
  Ba  Ba7  1  0.515150  0.388650  0.859193  1
  Nb  Nb8  1  0.211262  0.743556  0.895136  1
  Nb  Nb9  1  0.211262  0.243556  0.604864  1
  Nb  Nb10  1  0.788738  0.256444  0.104864  1
  Nb  Nb11  1  0.288738  0.243556  0.104864  1
  Nb  Nb12  1  0.288738  0.743556  0.395136  1
  Nb  Nb13  1  0.711262  0.756444  0.895136  1
  Nb  Nb14  1  0.788738  0.756444  0.395136  1
  Nb  Nb15  1  0.711262  0.256444  0.604864  1
  Te  Te16  1  0.000000  0.000000  0.500000  1
  Te  Te17  1  0.500000  0.000000  0.000000  1
  Te  Te18  1  0.500000  0.500000  0.500000  1
  Te  Te19  1  0.000000  0.500000  0.000000  1
  O  O20  1  0.278673  0.295685  0.242240  1
  O  O21  1  0.444771  0.165839  0.583487  1
  O  O22  1  0.733153  0.595063  0.486169  1
  O  O23  1  0.778673  0.704315  0.257760  1
  O  O24  1  0.233153  0.404937  0.013831  1
  O  O25  1  0.221327  0.295685  0.742240  1
  O  O26  1  0.379200  0.153888  0.944588  1
  O  O27  1  0.055229  0.165839  0.083487  1
  O  O28  1  0.120800  0.653888  0.055412  1
  O  O29  1  0.278673  0.795685  0.257760  1
  O  O30  1  0.879200  0.346112  0.944588  1
  O  O31  1  0.120800  0.153888  0.444588  1
  O  O32  1  0.733153  0.095063  0.013831  1
  O  O33  1  0.266847  0.904937  0.986169  1
  O  O34  1  0.778673  0.204315  0.242240  1
  O  O35  1  0.421991  0.569586  0.361848  1
  O  O36  1  0.379200  0.653888  0.555412  1
  O  O37  1  0.078009  0.569586  0.861848  1
  O  O38  1  0.421991  0.069586  0.138152  1
  O  O39  1  0.620800  0.346112  0.444588  1
  O  O40  1  0.078009  0.069586  0.638152  1
  O  O41  1  0.721327  0.204315  0.742240  1
  O  O42  1  0.620800  0.846112  0.055412  1
  O  O43  1  0.444771  0.665839  0.916513  1
  O  O44  1  0.721327  0.704315  0.757760  1
  O  O45  1  0.921991  0.430414  0.138152  1
  O  O46  1  0.766847  0.595063  0.986169  1
  O  O47  1  0.233153  0.904937  0.486169  1
  O  O48  1  0.766847  0.095063  0.513831  1
  O  O49  1  0.578009  0.430414  0.638152  1
  O  O50  1  0.555229  0.334161  0.083487  1
  O  O51  1  0.555229  0.834161  0.416513  1
  O  O52  1  0.921991  0.930414  0.361848  1
  O  O53  1  0.944771  0.834161  0.916513  1
  O  O54  1  0.055229  0.665839  0.416513  1
  O  O55  1  0.944771  0.334161  0.583487  1
  O  O56  1  0.879200  0.846112  0.555412  1
  O  O57  1  0.221327  0.795685  0.757760  1
  O  O58  1  0.578009  0.930414  0.861848  1
  O  O59  1  0.266847  0.404937  0.513831  1
