# generated using pymatgen
data_SClO2F
_symmetry_space_group_name_H-M   'P 1'
_cell_length_a   7.97947805
_cell_length_b   9.34626956
_cell_length_c   11.19383348
_cell_angle_alpha   90.00000000
_cell_angle_beta   90.00000000
_cell_angle_gamma   90.00000000
_symmetry_Int_Tables_number   1
_chemical_formula_structural   SClO2F
_chemical_formula_sum   'S8 Cl8 O16 F8'
_cell_volume   834.81766249
_cell_formula_units_Z   8
loop_
 _symmetry_equiv_pos_site_id
 _symmetry_equiv_pos_as_xyz
  1  'x, y, z'
loop_
 _atom_site_type_symbol
 _atom_site_label
 _atom_site_symmetry_multiplicity
 _atom_site_fract_x
 _atom_site_fract_y
 _atom_site_fract_z
 _atom_site_occupancy
  S  S0  1  0.005789  0.191796  0.553798  1
  S  S1  1  0.515914  0.099864  0.195593  1
  S  S2  1  0.484086  0.099864  0.695593  1
  S  S3  1  0.515914  0.599864  0.304407  1
  S  S4  1  0.994211  0.691796  0.446202  1
  S  S5  1  0.994211  0.191796  0.053798  1
  S  S6  1  0.005789  0.691796  0.946202  1
  S  S7  1  0.484086  0.599864  0.804407  1
  Cl  Cl8  1  0.512894  0.442619  0.924021  1
  Cl  Cl9  1  0.512894  0.942619  0.575979  1
  Cl  Cl10  1  0.004942  0.346222  0.177476  1
  Cl  Cl11  1  0.995058  0.846222  0.822524  1
  Cl  Cl12  1  0.995058  0.346222  0.677476  1
  Cl  Cl13  1  0.487106  0.442619  0.424021  1
  Cl  Cl14  1  0.004942  0.846222  0.322524  1
  Cl  Cl15  1  0.487106  0.942619  0.075979  1
  O  O16  1  0.537839  0.731860  0.855582  1
  O  O17  1  0.939758  0.062420  0.602217  1
  O  O18  1  0.939758  0.562420  0.897783  1
  O  O19  1  0.838074  0.698599  0.507717  1
  O  O20  1  0.462161  0.231860  0.144418  1
  O  O21  1  0.161926  0.198599  0.492283  1
  O  O22  1  0.060242  0.062420  0.102217  1
  O  O23  1  0.537839  0.231860  0.644418  1
  O  O24  1  0.672207  0.083533  0.255602  1
  O  O25  1  0.327793  0.583533  0.744398  1
  O  O26  1  0.462161  0.731860  0.355582  1
  O  O27  1  0.672207  0.583533  0.244398  1
  O  O28  1  0.838074  0.198599  0.992283  1
  O  O29  1  0.060242  0.562420  0.397783  1
  O  O30  1  0.161926  0.698599  0.007717  1
  O  O31  1  0.327793  0.083533  0.755602  1
  F  F32  1  0.867695  0.252711  0.465025  1
  F  F33  1  0.625578  0.053125  0.787399  1
  F  F34  1  0.374422  0.053125  0.287399  1
  F  F35  1  0.867695  0.752711  0.034975  1
  F  F36  1  0.132305  0.752711  0.534975  1
  F  F37  1  0.374422  0.553125  0.212601  1
  F  F38  1  0.132305  0.252711  0.965025  1
  F  F39  1  0.625578  0.553125  0.712601  1
