# generated using pymatgen
data_AlTlBr4
_symmetry_space_group_name_H-M   'P 1'
_cell_length_a   9.30641784
_cell_length_b   7.63355545
_cell_length_c   13.37901185
_cell_angle_alpha   90.00000000
_cell_angle_beta   105.03108226
_cell_angle_gamma   90.00000000
_symmetry_Int_Tables_number   1
_chemical_formula_structural   AlTlBr4
_chemical_formula_sum   'Al4 Tl4 Br16'
_cell_volume   917.93944371
_cell_formula_units_Z   4
loop_
 _symmetry_equiv_pos_site_id
 _symmetry_equiv_pos_as_xyz
  1  'x, y, z'
loop_
 _atom_site_type_symbol
 _atom_site_label
 _atom_site_symmetry_multiplicity
 _atom_site_fract_x
 _atom_site_fract_y
 _atom_site_fract_z
 _atom_site_occupancy
  Al  Al0  1  0.714769  0.784382  0.454352  1
  Al  Al1  1  0.285231  0.215618  0.545648  1
  Al  Al2  1  0.285231  0.784382  0.045648  1
  Al  Al3  1  0.714769  0.215618  0.954352  1
  Tl  Tl4  1  0.000000  0.098858  0.750000  1
  Tl  Tl5  1  0.500000  0.370408  0.250000  1
  Tl  Tl6  1  0.500000  0.629592  0.750000  1
  Tl  Tl7  1  0.000000  0.901142  0.250000  1
  Br  Br8  1  0.165908  0.579207  0.126010  1
  Br  Br9  1  0.539391  0.265737  0.599190  1
  Br  Br10  1  0.781868  0.936993  0.911063  1
  Br  Br11  1  0.781868  0.063007  0.411063  1
  Br  Br12  1  0.460609  0.265737  0.900810  1
  Br  Br13  1  0.834092  0.420793  0.873990  1
  Br  Br14  1  0.834092  0.579207  0.373990  1
  Br  Br15  1  0.203614  0.249970  0.365784  1
  Br  Br16  1  0.218132  0.063007  0.088937  1
  Br  Br17  1  0.203614  0.750030  0.865784  1
  Br  Br18  1  0.165908  0.420793  0.626010  1
  Br  Br19  1  0.796386  0.750030  0.634216  1
  Br  Br20  1  0.539391  0.734263  0.099190  1
  Br  Br21  1  0.796386  0.249970  0.134216  1
  Br  Br22  1  0.218132  0.936993  0.588937  1
  Br  Br23  1  0.460609  0.734263  0.400810  1
