# generated using pymatgen
data_FeCuPO5
_symmetry_space_group_name_H-M   'P 1'
_cell_length_a   6.48247041
_cell_length_b   7.21389266
_cell_length_c   7.68350160
_cell_angle_alpha   90.00000000
_cell_angle_beta   90.00000000
_cell_angle_gamma   90.00000000
_symmetry_Int_Tables_number   1
_chemical_formula_structural   FeCuPO5
_chemical_formula_sum   'Fe4 Cu4 P4 O20'
_cell_volume   359.31008333
_cell_formula_units_Z   4
loop_
 _symmetry_equiv_pos_site_id
 _symmetry_equiv_pos_as_xyz
  1  'x, y, z'
loop_
 _atom_site_type_symbol
 _atom_site_label
 _atom_site_symmetry_multiplicity
 _atom_site_fract_x
 _atom_site_fract_y
 _atom_site_fract_z
 _atom_site_occupancy
  Fe  Fe0  1  0.250000  0.784376  0.667721  1
  Fe  Fe1  1  0.250000  0.715624  0.167721  1
  Fe  Fe2  1  0.750000  0.215624  0.332279  1
  Fe  Fe3  1  0.750000  0.284376  0.832279  1
  Cu  Cu4  1  0.000000  0.500000  0.500000  1
  Cu  Cu5  1  0.500000  0.000000  0.000000  1
  Cu  Cu6  1  0.500000  0.500000  0.500000  1
  Cu  Cu7  1  0.000000  0.000000  0.000000  1
  P  P8  1  0.250000  0.370169  0.890112  1
  P  P9  1  0.250000  0.129831  0.390112  1
  P  P10  1  0.750000  0.629831  0.109888  1
  P  P11  1  0.750000  0.870169  0.609888  1
  O  O12  1  0.250000  0.868517  0.917415  1
  O  O13  1  0.250000  0.631483  0.417415  1
  O  O14  1  0.750000  0.131483  0.082585  1
  O  O15  1  0.750000  0.368517  0.582585  1
  O  O16  1  0.250000  0.503852  0.734035  1
  O  O17  1  0.250000  0.996148  0.234035  1
  O  O18  1  0.750000  0.496148  0.265965  1
  O  O19  1  0.750000  0.003852  0.765965  1
  O  O20  1  0.250000  0.028808  0.565470  1
  O  O21  1  0.250000  0.471192  0.065470  1
  O  O22  1  0.750000  0.971192  0.434530  1
  O  O23  1  0.750000  0.528808  0.934530  1
  O  O24  1  0.056755  0.241456  0.874481  1
  O  O25  1  0.443245  0.258544  0.374481  1
  O  O26  1  0.556755  0.758544  0.125519  1
  O  O27  1  0.943245  0.741456  0.625519  1
  O  O28  1  0.943245  0.758544  0.125519  1
  O  O29  1  0.556755  0.741456  0.625519  1
  O  O30  1  0.443245  0.241456  0.874481  1
  O  O31  1  0.056755  0.258544  0.374481  1
