# generated using pymatgen
data_KSO3
_symmetry_space_group_name_H-M   'P 1'
_cell_length_a   9.92184436
_cell_length_b   9.92184436
_cell_length_c   6.44451880
_cell_angle_alpha   90.00000000
_cell_angle_beta   90.00000000
_cell_angle_gamma   120.00000000
_symmetry_Int_Tables_number   1
_chemical_formula_structural   KSO3
_chemical_formula_sum   'K6 S6 O18'
_cell_volume   549.42187483
_cell_formula_units_Z   6
loop_
 _symmetry_equiv_pos_site_id
 _symmetry_equiv_pos_as_xyz
  1  'x, y, z'
loop_
 _atom_site_type_symbol
 _atom_site_label
 _atom_site_symmetry_multiplicity
 _atom_site_fract_x
 _atom_site_fract_y
 _atom_site_fract_z
 _atom_site_occupancy
  K  K0  1  0.620154  0.000000  0.000000  1
  K  K1  1  0.000000  0.620154  0.000000  1
  K  K2  1  0.379846  0.379846  0.000000  1
  K  K3  1  0.295484  0.000000  0.500000  1
  K  K4  1  0.000000  0.295484  0.500000  1
  K  K5  1  0.704516  0.704516  0.500000  1
  S  S6  1  0.000000  0.000000  0.826216  1
  S  S7  1  0.000000  0.000000  0.173784  1
  S  S8  1  0.333333  0.666667  0.740398  1
  S  S9  1  0.666667  0.333333  0.259602  1
  S  S10  1  0.333333  0.666667  0.396189  1
  S  S11  1  0.666667  0.333333  0.603811  1
  O  O12  1  0.157007  0.123739  0.767410  1
  O  O13  1  0.876261  0.033267  0.767410  1
  O  O14  1  0.966733  0.842993  0.767410  1
  O  O15  1  0.033267  0.876261  0.232590  1
  O  O16  1  0.842993  0.966733  0.232590  1
  O  O17  1  0.123739  0.157007  0.232590  1
  O  O18  1  0.204844  0.511795  0.799985  1
  O  O19  1  0.488205  0.693049  0.799985  1
  O  O20  1  0.306951  0.795156  0.799985  1
  O  O21  1  0.693049  0.488205  0.200015  1
  O  O22  1  0.795156  0.306951  0.200015  1
  O  O23  1  0.511795  0.204844  0.200015  1
  O  O24  1  0.171985  0.620191  0.343225  1
  O  O25  1  0.379809  0.551793  0.343225  1
  O  O26  1  0.448207  0.828015  0.343225  1
  O  O27  1  0.551793  0.379809  0.656775  1
  O  O28  1  0.828015  0.448207  0.656775  1
  O  O29  1  0.620191  0.171985  0.656775  1
