# generated using pymatgen
data_Ta2Ni3Se8
_symmetry_space_group_name_H-M   'P 1'
_cell_length_a   3.49392131
_cell_length_b   10.63403073
_cell_length_c   14.95452935
_cell_angle_alpha   90.00000000
_cell_angle_beta   90.00000000
_cell_angle_gamma   90.00000000
_symmetry_Int_Tables_number   1
_chemical_formula_structural   Ta2Ni3Se8
_chemical_formula_sum   'Ta4 Ni6 Se16'
_cell_volume   555.62756094
_cell_formula_units_Z   2
loop_
 _symmetry_equiv_pos_site_id
 _symmetry_equiv_pos_as_xyz
  1  'x, y, z'
loop_
 _atom_site_type_symbol
 _atom_site_label
 _atom_site_symmetry_multiplicity
 _atom_site_fract_x
 _atom_site_fract_y
 _atom_site_fract_z
 _atom_site_occupancy
  Ta  Ta0  1  0.500000  0.798770  0.880251  1
  Ta  Ta1  1  0.500000  0.201230  0.119749  1
  Ta  Ta2  1  0.500000  0.298770  0.619749  1
  Ta  Ta3  1  0.500000  0.701230  0.380251  1
  Ni  Ni4  1  0.000000  0.000000  0.000000  1
  Ni  Ni5  1  0.000000  0.500000  0.500000  1
  Ni  Ni6  1  0.000000  0.634409  0.777949  1
  Ni  Ni7  1  0.000000  0.365591  0.222051  1
  Ni  Ni8  1  0.000000  0.134409  0.722051  1
  Ni  Ni9  1  0.000000  0.865591  0.277949  1
  Se  Se10  1  0.000000  0.779695  0.008596  1
  Se  Se11  1  0.000000  0.220305  0.991404  1
  Se  Se12  1  0.000000  0.279695  0.491404  1
  Se  Se13  1  0.000000  0.720305  0.508596  1
  Se  Se14  1  0.000000  0.975126  0.843859  1
  Se  Se15  1  0.000000  0.024874  0.156141  1
  Se  Se16  1  0.000000  0.475126  0.656141  1
  Se  Se17  1  0.000000  0.524874  0.343859  1
  Se  Se18  1  0.500000  0.755501  0.713057  1
  Se  Se19  1  0.500000  0.244499  0.286943  1
  Se  Se20  1  0.500000  0.255501  0.786943  1
  Se  Se21  1  0.500000  0.744499  0.213057  1
  Se  Se22  1  0.500000  0.557339  0.870683  1
  Se  Se23  1  0.500000  0.442661  0.129317  1
  Se  Se24  1  0.500000  0.057339  0.629317  1
  Se  Se25  1  0.500000  0.942661  0.370683  1
