# generated using pymatgen
data_Pb2CO3F2
_symmetry_space_group_name_H-M   'P 1'
_cell_length_a   7.00141762
_cell_length_b   8.17462591
_cell_length_c   8.38976058
_cell_angle_alpha   90.00000000
_cell_angle_beta   90.00000000
_cell_angle_gamma   90.00000000
_symmetry_Int_Tables_number   1
_chemical_formula_structural   Pb2CO3F2
_chemical_formula_sum   'Pb8 C4 O12 F8'
_cell_volume   480.17930436
_cell_formula_units_Z   4
loop_
 _symmetry_equiv_pos_site_id
 _symmetry_equiv_pos_as_xyz
  1  'x, y, z'
loop_
 _atom_site_type_symbol
 _atom_site_label
 _atom_site_symmetry_multiplicity
 _atom_site_fract_x
 _atom_site_fract_y
 _atom_site_fract_z
 _atom_site_occupancy
  Pb  Pb0  1  0.553313  0.316632  0.341180  1
  Pb  Pb1  1  0.446687  0.816632  0.158820  1
  Pb  Pb2  1  0.053313  0.316632  0.658820  1
  Pb  Pb3  1  0.446687  0.683368  0.658820  1
  Pb  Pb4  1  0.053313  0.183368  0.158820  1
  Pb  Pb5  1  0.946687  0.816632  0.841180  1
  Pb  Pb6  1  0.553313  0.183368  0.841180  1
  Pb  Pb7  1  0.946687  0.683368  0.341180  1
  C  C8  1  0.250000  0.500000  0.019635  1
  C  C9  1  0.250000  0.000000  0.519635  1
  C  C10  1  0.750000  0.000000  0.480365  1
  C  C11  1  0.750000  0.500000  0.980365  1
  O  O12  1  0.750000  0.000000  0.325448  1
  O  O13  1  0.250000  0.500000  0.174552  1
  O  O14  1  0.805756  0.629865  0.057622  1
  O  O15  1  0.305756  0.870135  0.442378  1
  O  O16  1  0.694244  0.129865  0.557622  1
  O  O17  1  0.750000  0.500000  0.825448  1
  O  O18  1  0.194244  0.370135  0.942378  1
  O  O19  1  0.694244  0.370135  0.057622  1
  O  O20  1  0.805756  0.870135  0.557622  1
  O  O21  1  0.250000  0.000000  0.674552  1
  O  O22  1  0.305756  0.629865  0.942378  1
  O  O23  1  0.194244  0.129865  0.442378  1
  F  F24  1  0.100987  0.887173  0.113377  1
  F  F25  1  0.600987  0.887173  0.886623  1
  F  F26  1  0.899013  0.112827  0.886623  1
  F  F27  1  0.399013  0.387173  0.613377  1
  F  F28  1  0.600987  0.612827  0.386623  1
  F  F29  1  0.899013  0.387173  0.386623  1
  F  F30  1  0.100987  0.612827  0.613377  1
  F  F31  1  0.399013  0.112827  0.113377  1
