# generated using pymatgen
data_Y(PO3)3
_symmetry_space_group_name_H-M   'P 1'
_cell_length_a   13.05359432
_cell_length_b   13.05359432
_cell_length_c   13.05359432
_cell_angle_alpha   110.46438026
_cell_angle_beta   110.46438026
_cell_angle_gamma   110.46438026
_symmetry_Int_Tables_number   1
_chemical_formula_structural   Y(PO3)3
_chemical_formula_sum   'Y8 P24 O72'
_cell_volume   1646.28971554
_cell_formula_units_Z   8
loop_
 _symmetry_equiv_pos_site_id
 _symmetry_equiv_pos_as_xyz
  1  'x, y, z'
loop_
 _atom_site_type_symbol
 _atom_site_label
 _atom_site_symmetry_multiplicity
 _atom_site_fract_x
 _atom_site_fract_y
 _atom_site_fract_z
 _atom_site_occupancy
  Y  Y0  1  0.500000  0.500000  0.500000  1
  Y  Y1  1  0.731393  0.020627  0.537485  1
  Y  Y2  1  0.979373  0.462515  0.268607  1
  Y  Y3  1  0.462515  0.268607  0.979373  1
  Y  Y4  1  0.537485  0.731393  0.020627  1
  Y  Y5  1  0.000000  0.000000  0.000000  1
  Y  Y6  1  0.268607  0.979373  0.462515  1
  Y  Y7  1  0.020627  0.537485  0.731393  1
  P  P8  1  0.931137  0.713637  0.233249  1
  P  P9  1  0.624276  0.210402  0.673073  1
  P  P10  1  0.480906  0.732247  0.730053  1
  P  P11  1  0.519094  0.267753  0.269947  1
  P  P12  1  0.326927  0.375724  0.789598  1
  P  P13  1  0.269947  0.519094  0.267753  1
  P  P14  1  0.732247  0.730053  0.480906  1
  P  P15  1  0.233249  0.931137  0.713637  1
  P  P16  1  0.017591  0.200291  0.299096  1
  P  P17  1  0.286363  0.766751  0.068863  1
  P  P18  1  0.299096  0.017591  0.200291  1
  P  P19  1  0.789598  0.326927  0.375724  1
  P  P20  1  0.210402  0.673073  0.624276  1
  P  P21  1  0.730053  0.480906  0.732247  1
  P  P22  1  0.766751  0.068863  0.286363  1
  P  P23  1  0.068863  0.286363  0.766751  1
  P  P24  1  0.713637  0.233249  0.931137  1
  P  P25  1  0.267753  0.269947  0.519094  1
  P  P26  1  0.673073  0.624276  0.210402  1
  P  P27  1  0.799709  0.700904  0.982409  1
  P  P28  1  0.375724  0.789598  0.326927  1
  P  P29  1  0.200291  0.299096  0.017591  1
  P  P30  1  0.700904  0.982409  0.799709  1
  P  P31  1  0.982409  0.799709  0.700904  1
  O  O32  1  0.560996  0.855795  0.728119  1
  O  O33  1  0.337871  0.686734  0.625129  1
  O  O34  1  0.120002  0.322527  0.912893  1
  O  O35  1  0.396652  0.763004  0.060884  1
  O  O36  1  0.602142  0.688528  0.178077  1
  O  O37  1  0.271881  0.439004  0.144205  1
  O  O38  1  0.513297  0.888145  0.380329  1
  O  O39  1  0.998749  0.303328  0.287358  1
  O  O40  1  0.879998  0.677473  0.087107  1
  O  O41  1  0.603348  0.236996  0.939116  1
  O  O42  1  0.486703  0.111855  0.619671  1
  O  O43  1  0.503194  0.230503  0.140586  1
  O  O44  1  0.327297  0.491887  0.368652  1
  O  O45  1  0.313266  0.374871  0.662129  1
  O  O46  1  0.087107  0.879998  0.677473  1
  O  O47  1  0.978351  0.891280  0.805724  1
  O  O48  1  0.508113  0.631348  0.672703  1
  O  O49  1  0.178077  0.602142  0.688528  1
  O  O50  1  0.323503  0.051346  0.846610  1
  O  O51  1  0.322527  0.912893  0.120002  1
  O  O52  1  0.720886  0.258348  0.821219  1
  O  O53  1  0.741652  0.178781  0.279114  1
  O  O54  1  0.696672  0.712642  0.001251  1
  O  O55  1  0.108720  0.194276  0.021649  1
  O  O56  1  0.194276  0.021649  0.108720  1
  O  O57  1  0.855795  0.728119  0.560996  1
  O  O58  1  0.672703  0.508113  0.631348  1
  O  O59  1  0.676497  0.948654  0.153390  1
  O  O60  1  0.111855  0.619671  0.486703  1
  O  O61  1  0.948654  0.153390  0.676497  1
  O  O62  1  0.303328  0.287358  0.998749  1
  O  O63  1  0.051346  0.846610  0.323503  1
  O  O64  1  0.688528  0.178077  0.602142  1
  O  O65  1  0.939116  0.603348  0.236996  1
  O  O66  1  0.496806  0.769497  0.859414  1
  O  O67  1  0.236996  0.939116  0.603348  1
  O  O68  1  0.144205  0.271881  0.439004  1
  O  O69  1  0.439004  0.144205  0.271881  1
  O  O70  1  0.859414  0.496806  0.769497  1
  O  O71  1  0.888145  0.380329  0.513297  1
  O  O72  1  0.821923  0.397858  0.311472  1
  O  O73  1  0.763004  0.060884  0.396652  1
  O  O74  1  0.311472  0.821923  0.397858  1
  O  O75  1  0.368652  0.327297  0.491887  1
  O  O76  1  0.891280  0.805724  0.978351  1
  O  O77  1  0.060884  0.396652  0.763004  1
  O  O78  1  0.846610  0.323503  0.051346  1
  O  O79  1  0.287358  0.998749  0.303328  1
  O  O80  1  0.374871  0.662129  0.313266  1
  O  O81  1  0.001251  0.696672  0.712642  1
  O  O82  1  0.258348  0.821219  0.720886  1
  O  O83  1  0.178781  0.279114  0.741652  1
  O  O84  1  0.912893  0.120002  0.322527  1
  O  O85  1  0.821219  0.720886  0.258348  1
  O  O86  1  0.021649  0.108720  0.194276  1
  O  O87  1  0.662129  0.313266  0.374871  1
  O  O88  1  0.625129  0.337871  0.686734  1
  O  O89  1  0.686734  0.625129  0.337871  1
  O  O90  1  0.712642  0.001251  0.696672  1
  O  O91  1  0.769497  0.859414  0.496806  1
  O  O92  1  0.279114  0.741652  0.178781  1
  O  O93  1  0.677473  0.087107  0.879998  1
  O  O94  1  0.728119  0.560996  0.855795  1
  O  O95  1  0.140586  0.503194  0.230503  1
  O  O96  1  0.380329  0.513297  0.888145  1
  O  O97  1  0.631348  0.672703  0.508113  1
  O  O98  1  0.491887  0.368652  0.327297  1
  O  O99  1  0.619671  0.486703  0.111855  1
  O  O100  1  0.153390  0.676497  0.948654  1
  O  O101  1  0.397858  0.311472  0.821923  1
  O  O102  1  0.230503  0.140586  0.503194  1
  O  O103  1  0.805724  0.978351  0.891280  1
