# generated using pymatgen
data_NbCuO3F
_symmetry_space_group_name_H-M   'P 1'
_cell_length_a   3.84027248
_cell_length_b   6.65684445
_cell_length_c   6.79745664
_cell_angle_alpha   112.73693169
_cell_angle_beta   99.61176818
_cell_angle_gamma   86.60225233
_symmetry_Int_Tables_number   1
_chemical_formula_structural   NbCuO3F
_chemical_formula_sum   'Nb2 Cu2 O6 F2'
_cell_volume   158.01444153
_cell_formula_units_Z   2
loop_
 _symmetry_equiv_pos_site_id
 _symmetry_equiv_pos_as_xyz
  1  'x, y, z'
loop_
 _atom_site_type_symbol
 _atom_site_label
 _atom_site_symmetry_multiplicity
 _atom_site_fract_x
 _atom_site_fract_y
 _atom_site_fract_z
 _atom_site_occupancy
  Nb  Nb0  1  0.268273  0.217246  0.162542  1
  Nb  Nb1  1  0.731727  0.782754  0.837458  1
  Cu  Cu2  1  0.288830  0.804498  0.352782  1
  Cu  Cu3  1  0.711170  0.195502  0.647218  1
  O  O4  1  0.753284  0.144736  0.082621  1
  O  O5  1  0.246716  0.855264  0.917379  1
  O  O6  1  0.668214  0.891440  0.606378  1
  O  O7  1  0.712545  0.491953  0.691838  1
  O  O8  1  0.331786  0.108560  0.393622  1
  O  O9  1  0.287455  0.508047  0.308162  1
  F  F10  1  0.840105  0.754566  0.146714  1
  F  F11  1  0.159895  0.245434  0.853286  1
