# generated using pymatgen
data_V2CdO6
_symmetry_space_group_name_H-M   'P 1'
_cell_length_a   4.96966935
_cell_length_b   5.85515414
_cell_length_c   14.38215693
_cell_angle_alpha   90.00000000
_cell_angle_beta   90.00000000
_cell_angle_gamma   90.00000000
_symmetry_Int_Tables_number   1
_chemical_formula_structural   V2CdO6
_chemical_formula_sum   'V8 Cd4 O24'
_cell_volume   418.49459213
_cell_formula_units_Z   4
loop_
 _symmetry_equiv_pos_site_id
 _symmetry_equiv_pos_as_xyz
  1  'x, y, z'
loop_
 _atom_site_type_symbol
 _atom_site_label
 _atom_site_symmetry_multiplicity
 _atom_site_fract_x
 _atom_site_fract_y
 _atom_site_fract_z
 _atom_site_occupancy
  V  V0  1  0.221215  0.682711  0.332508  1
  V  V1  1  0.221215  0.182711  0.167492  1
  V  V2  1  0.721215  0.817289  0.167492  1
  V  V3  1  0.278785  0.682711  0.667492  1
  V  V4  1  0.278785  0.182711  0.832508  1
  V  V5  1  0.778785  0.817289  0.832508  1
  V  V6  1  0.721215  0.317289  0.332508  1
  V  V7  1  0.778785  0.317289  0.667492  1
  Cd  Cd8  1  0.250000  0.718024  0.000000  1
  Cd  Cd9  1  0.750000  0.781976  0.500000  1
  Cd  Cd10  1  0.750000  0.281976  0.000000  1
  Cd  Cd11  1  0.250000  0.218024  0.500000  1
  O  O12  1  0.894044  0.150896  0.246156  1
  O  O13  1  0.386770  0.380318  0.909858  1
  O  O14  1  0.386770  0.880318  0.590142  1
  O  O15  1  0.481574  0.921987  0.893712  1
  O  O16  1  0.018426  0.421987  0.393712  1
  O  O17  1  0.518426  0.578013  0.393712  1
  O  O18  1  0.113230  0.380318  0.090142  1
  O  O19  1  0.981574  0.578013  0.606288  1
  O  O20  1  0.105956  0.849104  0.753844  1
  O  O21  1  0.113230  0.880318  0.409858  1
  O  O22  1  0.886770  0.119682  0.590142  1
  O  O23  1  0.481574  0.421987  0.606288  1
  O  O24  1  0.894044  0.650896  0.253844  1
  O  O25  1  0.018426  0.921987  0.106288  1
  O  O26  1  0.518426  0.078013  0.106288  1
  O  O27  1  0.981574  0.078013  0.893712  1
  O  O28  1  0.613230  0.619682  0.090142  1
  O  O29  1  0.394044  0.349104  0.253844  1
  O  O30  1  0.105956  0.349104  0.746156  1
  O  O31  1  0.886770  0.619682  0.909858  1
  O  O32  1  0.613230  0.119682  0.409858  1
  O  O33  1  0.394044  0.849104  0.246156  1
  O  O34  1  0.605956  0.150896  0.753844  1
  O  O35  1  0.605956  0.650896  0.746156  1
