# generated using pymatgen
data_NdAg(PO3)4
_symmetry_space_group_name_H-M   'P 1'
_cell_length_a   7.37338379
_cell_length_b   13.36581729
_cell_length_c   12.42862729
_cell_angle_alpha   90.00000000
_cell_angle_beta   125.90339492
_cell_angle_gamma   90.00000000
_symmetry_Int_Tables_number   1
_chemical_formula_structural   NdAg(PO3)4
_chemical_formula_sum   'Nd4 Ag4 P16 O48'
_cell_volume   992.14292633
_cell_formula_units_Z   4
loop_
 _symmetry_equiv_pos_site_id
 _symmetry_equiv_pos_as_xyz
  1  'x, y, z'
loop_
 _atom_site_type_symbol
 _atom_site_label
 _atom_site_symmetry_multiplicity
 _atom_site_fract_x
 _atom_site_fract_y
 _atom_site_fract_z
 _atom_site_occupancy
  Nd  Nd0  1  0.034483  0.781491  0.022087  1
  Nd  Nd1  1  0.965517  0.281491  0.477913  1
  Nd  Nd2  1  0.965517  0.218509  0.977913  1
  Nd  Nd3  1  0.034483  0.718509  0.522087  1
  Ag  Ag4  1  0.431793  0.722754  0.432580  1
  Ag  Ag5  1  0.568207  0.222754  0.067420  1
  Ag  Ag6  1  0.568207  0.277246  0.567420  1
  Ag  Ag7  1  0.431793  0.777246  0.932580  1
  P  P8  1  0.507011  0.599854  0.253374  1
  P  P9  1  0.492989  0.099854  0.246626  1
  P  P10  1  0.492989  0.400146  0.746626  1
  P  P11  1  0.507011  0.900146  0.753374  1
  P  P12  1  0.062451  0.909956  0.297700  1
  P  P13  1  0.937549  0.409956  0.202300  1
  P  P14  1  0.937549  0.090044  0.702300  1
  P  P15  1  0.062451  0.590044  0.797700  1
  P  P16  1  0.613499  0.886428  0.236932  1
  P  P17  1  0.386501  0.386428  0.263068  1
  P  P18  1  0.386501  0.113572  0.763068  1
  P  P19  1  0.613499  0.613572  0.736932  1
  P  P20  1  0.842047  0.625880  0.195907  1
  P  P21  1  0.157953  0.125880  0.304093  1
  P  P22  1  0.157953  0.374120  0.804093  1
  P  P23  1  0.842047  0.874120  0.695907  1
  O  O24  1  0.575737  0.986544  0.292113  1
  O  O25  1  0.424263  0.486544  0.207887  1
  O  O26  1  0.424263  0.013456  0.707887  1
  O  O27  1  0.575737  0.513456  0.792113  1
  O  O28  1  0.302258  0.664352  0.199640  1
  O  O29  1  0.697742  0.164352  0.300360  1
  O  O30  1  0.697742  0.335648  0.800360  1
  O  O31  1  0.302258  0.835648  0.699640  1
  O  O32  1  0.596134  0.620836  0.164344  1
  O  O33  1  0.403866  0.120836  0.335656  1
  O  O34  1  0.403866  0.379164  0.835656  1
  O  O35  1  0.596134  0.879164  0.664344  1
  O  O36  1  0.690902  0.607177  0.400083  1
  O  O37  1  0.309098  0.107177  0.099917  1
  O  O38  1  0.309098  0.392823  0.599917  1
  O  O39  1  0.690902  0.892823  0.900083  1
  O  O40  1  0.857284  0.520545  0.138237  1
  O  O41  1  0.142716  0.020545  0.361763  1
  O  O42  1  0.142716  0.479455  0.861763  1
  O  O43  1  0.857284  0.979455  0.638237  1
  O  O44  1  0.792834  0.920465  0.209365  1
  O  O45  1  0.207166  0.420465  0.290635  1
  O  O46  1  0.207166  0.079535  0.790635  1
  O  O47  1  0.792834  0.579535  0.709365  1
  O  O48  1  0.123698  0.890208  0.203883  1
  O  O49  1  0.876302  0.390208  0.296117  1
  O  O50  1  0.876302  0.109792  0.796117  1
  O  O51  1  0.123698  0.609792  0.703883  1
  O  O52  1  0.148688  0.839630  0.412884  1
  O  O53  1  0.851312  0.339630  0.087116  1
  O  O54  1  0.851312  0.160370  0.587116  1
  O  O55  1  0.148688  0.660370  0.912884  1
  O  O56  1  0.403746  0.856946  0.104788  1
  O  O57  1  0.596254  0.356946  0.395212  1
  O  O58  1  0.596254  0.143054  0.895212  1
  O  O59  1  0.403746  0.643054  0.604788  1
  O  O60  1  0.715967  0.812194  0.348015  1
  O  O61  1  0.284033  0.312194  0.151985  1
  O  O62  1  0.284033  0.187806  0.651985  1
  O  O63  1  0.715967  0.687806  0.848015  1
  O  O64  1  0.827339  0.706425  0.106611  1
  O  O65  1  0.172661  0.206425  0.393389  1
  O  O66  1  0.172661  0.293575  0.893389  1
  O  O67  1  0.827339  0.793575  0.606611  1
  O  O68  1  0.017512  0.632451  0.343059  1
  O  O69  1  0.982488  0.132451  0.156941  1
  O  O70  1  0.982488  0.367549  0.656941  1
  O  O71  1  0.017512  0.867549  0.843059  1
