# generated using pymatgen
data_KVOF4
_symmetry_space_group_name_H-M   'P 1'
_cell_length_a   5.64153388
_cell_length_b   14.00243046
_cell_length_c   5.68503914
_cell_angle_alpha   90.00000000
_cell_angle_beta   95.84609647
_cell_angle_gamma   90.00000000
_symmetry_Int_Tables_number   1
_chemical_formula_structural   KVOF4
_chemical_formula_sum   'K4 V4 O4 F16'
_cell_volume   446.75504019
_cell_formula_units_Z   4
loop_
 _symmetry_equiv_pos_site_id
 _symmetry_equiv_pos_as_xyz
  1  'x, y, z'
loop_
 _atom_site_type_symbol
 _atom_site_label
 _atom_site_symmetry_multiplicity
 _atom_site_fract_x
 _atom_site_fract_y
 _atom_site_fract_z
 _atom_site_occupancy
  K  K0  1  0.454335  0.877056  0.269274  1
  K  K1  1  0.954335  0.622944  0.269274  1
  K  K2  1  0.545665  0.122944  0.730726  1
  K  K3  1  0.045665  0.377056  0.730726  1
  V  V4  1  0.444457  0.646059  0.784043  1
  V  V5  1  0.944457  0.853941  0.784043  1
  V  V6  1  0.555543  0.353941  0.215957  1
  V  V7  1  0.055543  0.146059  0.215957  1
  O  O8  1  0.664635  0.586071  0.701397  1
  O  O9  1  0.335365  0.413929  0.298603  1
  O  O10  1  0.164635  0.913929  0.701397  1
  O  O11  1  0.835365  0.086071  0.298603  1
  F  F12  1  0.562849  0.392057  0.908532  1
  F  F13  1  0.310398  0.065516  0.296091  1
  F  F14  1  0.396139  0.245119  0.085830  1
  F  F15  1  0.846530  0.783133  0.519747  1
  F  F16  1  0.653470  0.283133  0.480253  1
  F  F17  1  0.062849  0.107943  0.908532  1
  F  F18  1  0.896139  0.254881  0.085830  1
  F  F19  1  0.346530  0.716867  0.519747  1
  F  F20  1  0.937151  0.892057  0.091468  1
  F  F21  1  0.810398  0.434484  0.296091  1
  F  F22  1  0.103861  0.745119  0.914170  1
  F  F23  1  0.689602  0.934484  0.703909  1
  F  F24  1  0.189602  0.565516  0.703909  1
  F  F25  1  0.603861  0.754881  0.914170  1
  F  F26  1  0.153470  0.216867  0.480253  1
  F  F27  1  0.437151  0.607943  0.091468  1
