# generated using pymatgen
data_CoSb2Br2O3
_symmetry_space_group_name_H-M   'P 1'
_cell_length_a   5.30880716
_cell_length_b   8.20930157
_cell_length_c   8.43954821
_cell_angle_alpha   87.76506631
_cell_angle_beta   82.71418488
_cell_angle_gamma   82.77047476
_symmetry_Int_Tables_number   1
_chemical_formula_structural   CoSb2Br2O3
_chemical_formula_sum   'Co2 Sb4 Br4 O6'
_cell_volume   361.83958923
_cell_formula_units_Z   2
loop_
 _symmetry_equiv_pos_site_id
 _symmetry_equiv_pos_as_xyz
  1  'x, y, z'
loop_
 _atom_site_type_symbol
 _atom_site_label
 _atom_site_symmetry_multiplicity
 _atom_site_fract_x
 _atom_site_fract_y
 _atom_site_fract_z
 _atom_site_occupancy
  Co  Co0  1  0.527301  0.287693  0.487610  1
  Co  Co1  1  0.472699  0.712307  0.512390  1
  Sb  Sb2  1  0.095984  0.034769  0.313555  1
  Sb  Sb3  1  0.062719  0.475046  0.304164  1
  Sb  Sb4  1  0.904016  0.965231  0.686445  1
  Sb  Sb5  1  0.937281  0.524954  0.695836  1
  Br  Br6  1  0.643837  0.780574  0.228199  1
  Br  Br7  1  0.356163  0.219426  0.771801  1
  Br  Br8  1  0.760823  0.298826  0.137639  1
  Br  Br9  1  0.239177  0.701174  0.862361  1
  O  O10  1  0.213811  0.913559  0.517100  1
  O  O11  1  0.768866  0.754205  0.633071  1
  O  O12  1  0.766746  0.466179  0.485758  1
  O  O13  1  0.233254  0.533821  0.514242  1
  O  O14  1  0.786189  0.086441  0.482900  1
  O  O15  1  0.231134  0.245795  0.366929  1
