# generated using pymatgen
data_K2CuH12(SeO7)2
_symmetry_space_group_name_H-M   'P 1'
_cell_length_a   6.44849337
_cell_length_b   12.39953269
_cell_length_c   9.21339032
_cell_angle_alpha   90.00000000
_cell_angle_beta   102.60164570
_cell_angle_gamma   90.00000000
_symmetry_Int_Tables_number   1
_chemical_formula_structural   K2CuH12(SeO7)2
_chemical_formula_sum   'K4 Cu2 H24 Se4 O28'
_cell_volume   718.94064098
_cell_formula_units_Z   2
loop_
 _symmetry_equiv_pos_site_id
 _symmetry_equiv_pos_as_xyz
  1  'x, y, z'
loop_
 _atom_site_type_symbol
 _atom_site_label
 _atom_site_symmetry_multiplicity
 _atom_site_fract_x
 _atom_site_fract_y
 _atom_site_fract_z
 _atom_site_occupancy
  K  K0  1  0.345268  0.837124  0.144548  1
  K  K1  1  0.345268  0.662876  0.644548  1
  K  K2  1  0.654732  0.337124  0.355452  1
  K  K3  1  0.654732  0.162876  0.855452  1
  Cu  Cu4  1  0.000000  0.000000  0.500000  1
  Cu  Cu5  1  0.000000  0.500000  0.000000  1
  H  H6  1  0.686119  0.864237  0.477733  1
  H  H7  1  0.077809  0.097132  0.758724  1
  H  H8  1  0.305986  0.443926  0.884304  1
  H  H9  1  0.994880  0.185269  0.631645  1
  H  H10  1  0.005120  0.814731  0.368355  1
  H  H11  1  0.117200  0.631555  0.264918  1
  H  H12  1  0.329035  0.590843  0.222293  1
  H  H13  1  0.882800  0.368445  0.735082  1
  H  H14  1  0.686119  0.635763  0.977733  1
  H  H15  1  0.005120  0.685269  0.868355  1
  H  H16  1  0.922191  0.902868  0.241276  1
  H  H17  1  0.994880  0.314731  0.131645  1
  H  H18  1  0.077809  0.402868  0.258724  1
  H  H19  1  0.329035  0.909157  0.722293  1
  H  H20  1  0.922191  0.597132  0.741276  1
  H  H21  1  0.305986  0.056074  0.384304  1
  H  H22  1  0.694014  0.556074  0.115696  1
  H  H23  1  0.670965  0.090843  0.277707  1
  H  H24  1  0.313881  0.364237  0.022267  1
  H  H25  1  0.313881  0.135763  0.522267  1
  H  H26  1  0.117200  0.868445  0.764918  1
  H  H27  1  0.694014  0.943926  0.615696  1
  H  H28  1  0.882800  0.131555  0.235082  1
  H  H29  1  0.670965  0.409157  0.777707  1
  Se  Se30  1  0.737475  0.860525  0.922239  1
  Se  Se31  1  0.262525  0.360525  0.577761  1
  Se  Se32  1  0.262525  0.139475  0.077761  1
  Se  Se33  1  0.737475  0.639475  0.422239  1
  O  O34  1  0.276482  0.439912  0.986525  1
  O  O35  1  0.189812  0.624404  0.181295  1
  O  O36  1  0.578560  0.747547  0.416810  1
  O  O37  1  0.421440  0.252453  0.583190  1
  O  O38  1  0.750102  0.573783  0.582129  1
  O  O39  1  0.029777  0.609822  0.836832  1
  O  O40  1  0.970223  0.109822  0.663168  1
  O  O41  1  0.980715  0.819676  0.906017  1
  O  O42  1  0.249898  0.426217  0.417871  1
  O  O43  1  0.628178  0.942980  0.781693  1
  O  O44  1  0.371822  0.442980  0.718307  1
  O  O45  1  0.189812  0.875596  0.681295  1
  O  O46  1  0.810188  0.124404  0.318705  1
  O  O47  1  0.249898  0.073783  0.917871  1
  O  O48  1  0.029777  0.890178  0.336832  1
  O  O49  1  0.421440  0.247547  0.083190  1
  O  O50  1  0.810188  0.375596  0.818705  1
  O  O51  1  0.980715  0.680324  0.406017  1
  O  O52  1  0.019285  0.180324  0.093983  1
  O  O53  1  0.628178  0.557020  0.281693  1
  O  O54  1  0.578560  0.752453  0.916810  1
  O  O55  1  0.750102  0.926217  0.082129  1
  O  O56  1  0.723518  0.560088  0.013475  1
  O  O57  1  0.276482  0.060088  0.486525  1
  O  O58  1  0.019285  0.319676  0.593983  1
  O  O59  1  0.371822  0.057020  0.218307  1
  O  O60  1  0.723518  0.939912  0.513475  1
  O  O61  1  0.970223  0.390178  0.163168  1
