# generated using pymatgen
data_AlPO4
_symmetry_space_group_name_H-M   'P 1'
_cell_length_a   9.46431514
_cell_length_b   9.46431514
_cell_length_c   9.46431514
_cell_angle_alpha   94.60599610
_cell_angle_beta   94.60599610
_cell_angle_gamma   94.60599610
_symmetry_Int_Tables_number   1
_chemical_formula_structural   AlPO4
_chemical_formula_sum   'Al6 P6 O24'
_cell_volume   839.06588418
_cell_formula_units_Z   6
loop_
 _symmetry_equiv_pos_site_id
 _symmetry_equiv_pos_as_xyz
  1  'x, y, z'
loop_
 _atom_site_type_symbol
 _atom_site_label
 _atom_site_symmetry_multiplicity
 _atom_site_fract_x
 _atom_site_fract_y
 _atom_site_fract_z
 _atom_site_occupancy
  Al  Al0  1  0.899468  0.123176  0.666807  1
  Al  Al1  1  0.666807  0.899468  0.123176  1
  Al  Al2  1  0.100532  0.876824  0.333193  1
  Al  Al3  1  0.123176  0.666807  0.899468  1
  Al  Al4  1  0.876824  0.333193  0.100532  1
  Al  Al5  1  0.333193  0.100532  0.876824  1
  P  P6  1  0.333539  0.878648  0.111089  1
  P  P7  1  0.121352  0.888911  0.666461  1
  P  P8  1  0.111089  0.333539  0.878648  1
  P  P9  1  0.888911  0.666461  0.121352  1
  P  P10  1  0.878648  0.111089  0.333539  1
  P  P11  1  0.666461  0.121352  0.888911  1
  O  O12  1  0.153226  0.489571  0.856495  1
  O  O13  1  0.856495  0.153226  0.489571  1
  O  O14  1  0.251491  0.986810  0.732992  1
  O  O15  1  0.256511  0.894039  0.247218  1
  O  O16  1  0.034319  0.323184  0.015583  1
  O  O17  1  0.743489  0.105961  0.752782  1
  O  O18  1  0.013190  0.267008  0.748509  1
  O  O19  1  0.732992  0.251491  0.986810  1
  O  O20  1  0.015583  0.034319  0.323185  1
  O  O21  1  0.323184  0.015583  0.034319  1
  O  O22  1  0.143505  0.846774  0.510429  1
  O  O23  1  0.676816  0.984417  0.965681  1
  O  O24  1  0.752782  0.743489  0.105961  1
  O  O25  1  0.510429  0.143505  0.846774  1
  O  O26  1  0.748509  0.013190  0.267008  1
  O  O27  1  0.247218  0.256511  0.894039  1
  O  O28  1  0.267008  0.748509  0.013190  1
  O  O29  1  0.894039  0.247218  0.256511  1
  O  O30  1  0.984417  0.965681  0.676816  1
  O  O31  1  0.965681  0.676816  0.984417  1
  O  O32  1  0.986810  0.732992  0.251491  1
  O  O33  1  0.489571  0.856495  0.153226  1
  O  O34  1  0.846774  0.510429  0.143505  1
  O  O35  1  0.105961  0.752782  0.743489  1
