# generated using pymatgen
data_NClO
_symmetry_space_group_name_H-M   'P 1'
_cell_length_a   4.23503248
_cell_length_b   5.49458601
_cell_length_c   11.52728638
_cell_angle_alpha   90.00000000
_cell_angle_beta   90.00000000
_cell_angle_gamma   90.00000000
_symmetry_Int_Tables_number   1
_chemical_formula_structural   NClO
_chemical_formula_sum   'N4 Cl4 O4'
_cell_volume   268.23707474
_cell_formula_units_Z   4
loop_
 _symmetry_equiv_pos_site_id
 _symmetry_equiv_pos_as_xyz
  1  'x, y, z'
loop_
 _atom_site_type_symbol
 _atom_site_label
 _atom_site_symmetry_multiplicity
 _atom_site_fract_x
 _atom_site_fract_y
 _atom_site_fract_z
 _atom_site_occupancy
  N  N0  1  0.672929  0.250000  0.671534  1
  N  N1  1  0.172929  0.750000  0.828466  1
  N  N2  1  0.327071  0.750000  0.328466  1
  N  N3  1  0.827071  0.250000  0.171534  1
  Cl  Cl4  1  0.552114  0.250000  0.849764  1
  Cl  Cl5  1  0.052114  0.750000  0.650236  1
  Cl  Cl6  1  0.447886  0.750000  0.150236  1
  Cl  Cl7  1  0.947886  0.250000  0.349764  1
  O  O8  1  0.458246  0.250000  0.611483  1
  O  O9  1  0.958246  0.750000  0.888517  1
  O  O10  1  0.541754  0.750000  0.388517  1
  O  O11  1  0.041754  0.250000  0.111483  1
