# generated using pymatgen
data_BaGa2(GeO4)2
_symmetry_space_group_name_H-M   'P 1'
_cell_length_a   9.80093885
_cell_length_b   9.80093885
_cell_length_c   9.02411905
_cell_angle_alpha   82.20668839
_cell_angle_beta   97.79331161
_cell_angle_gamma   91.12805446
_symmetry_Int_Tables_number   1
_chemical_formula_structural   BaGa2(GeO4)2
_chemical_formula_sum   'Ba4 Ga8 Ge8 O32'
_cell_volume   850.90278792
_cell_formula_units_Z   4
loop_
 _symmetry_equiv_pos_site_id
 _symmetry_equiv_pos_as_xyz
  1  'x, y, z'
loop_
 _atom_site_type_symbol
 _atom_site_label
 _atom_site_symmetry_multiplicity
 _atom_site_fract_x
 _atom_site_fract_y
 _atom_site_fract_z
 _atom_site_occupancy
  Ba  Ba0  1  0.066561  0.432742  0.792253  1
  Ba  Ba1  1  0.432742  0.066561  0.707747  1
  Ba  Ba2  1  0.933439  0.567258  0.207747  1
  Ba  Ba3  1  0.567258  0.933439  0.292253  1
  Ga  Ga4  1  0.432667  0.701933  0.614275  1
  Ga  Ga5  1  0.701933  0.432667  0.885725  1
  Ga  Ga6  1  0.567333  0.298067  0.385725  1
  Ga  Ga7  1  0.298067  0.567333  0.114275  1
  Ga  Ga8  1  0.051454  0.203675  0.473018  1
  Ga  Ga9  1  0.203675  0.051454  0.026982  1
  Ga  Ga10  1  0.948546  0.796325  0.526982  1
  Ga  Ga11  1  0.796325  0.948546  0.973018  1
  Ge  Ge12  1  0.928397  0.211940  0.103150  1
  Ge  Ge13  1  0.211940  0.928397  0.396850  1
  Ge  Ge14  1  0.071603  0.788060  0.896850  1
  Ge  Ge15  1  0.788060  0.071603  0.603150  1
  Ge  Ge16  1  0.557948  0.711682  0.980663  1
  Ge  Ge17  1  0.711682  0.557948  0.519337  1
  Ge  Ge18  1  0.442052  0.288318  0.019337  1
  Ge  Ge19  1  0.288318  0.442052  0.480663  1
  O  O20  1  0.869882  0.372323  0.997206  1
  O  O21  1  0.372323  0.869882  0.502794  1
  O  O22  1  0.130118  0.627677  0.002794  1
  O  O23  1  0.627677  0.130118  0.497206  1
  O  O24  1  0.145269  0.352233  0.547654  1
  O  O25  1  0.352233  0.145269  0.952346  1
  O  O26  1  0.854731  0.647767  0.452346  1
  O  O27  1  0.647767  0.854731  0.047654  1
  O  O28  1  0.978333  0.271195  0.278580  1
  O  O29  1  0.271195  0.978333  0.221420  1
  O  O30  1  0.021667  0.728805  0.721420  1
  O  O31  1  0.728805  0.021667  0.778580  1
  O  O32  1  0.473799  0.767895  0.797785  1
  O  O33  1  0.767895  0.473799  0.702215  1
  O  O34  1  0.526201  0.232105  0.202215  1
  O  O35  1  0.232105  0.526201  0.297785  1
  O  O36  1  0.812365  0.074031  0.111435  1
  O  O37  1  0.074031  0.812365  0.388565  1
  O  O38  1  0.187635  0.925969  0.888565  1
  O  O39  1  0.925969  0.187635  0.611435  1
  O  O40  1  0.315011  0.555090  0.619619  1
  O  O41  1  0.555090  0.315011  0.880381  1
  O  O42  1  0.684989  0.444910  0.380381  1
  O  O43  1  0.444910  0.684989  0.119619  1
  O  O44  1  0.064273  0.179192  0.001352  1
  O  O45  1  0.179192  0.064273  0.498648  1
  O  O46  1  0.935727  0.820808  0.998648  1
  O  O47  1  0.820808  0.935727  0.501352  1
  O  O48  1  0.578375  0.678642  0.507663  1
  O  O49  1  0.678642  0.578375  0.992337  1
  O  O50  1  0.421625  0.321358  0.492337  1
  O  O51  1  0.321358  0.421625  0.007663  1
