# generated using pymatgen
data_Si(PbO2)2
_symmetry_space_group_name_H-M   'P 1'
_cell_length_a   7.32009958
_cell_length_b   7.32009958
_cell_length_c   19.80597011
_cell_angle_alpha   83.95211547
_cell_angle_beta   96.04788453
_cell_angle_gamma   115.68870309
_symmetry_Int_Tables_number   1
_chemical_formula_structural   Si(PbO2)2
_chemical_formula_sum   'Si8 Pb16 O32'
_cell_volume   948.95100999
_cell_formula_units_Z   8
loop_
 _symmetry_equiv_pos_site_id
 _symmetry_equiv_pos_as_xyz
  1  'x, y, z'
loop_
 _atom_site_type_symbol
 _atom_site_label
 _atom_site_symmetry_multiplicity
 _atom_site_fract_x
 _atom_site_fract_y
 _atom_site_fract_z
 _atom_site_occupancy
  Si  Si0  1  0.091449  0.082040  0.830909  1
  Si  Si1  1  0.667076  0.658275  0.830809  1
  Si  Si2  1  0.917960  0.908551  0.330909  1
  Si  Si3  1  0.332924  0.341725  0.169191  1
  Si  Si4  1  0.082040  0.091449  0.669091  1
  Si  Si5  1  0.908551  0.917960  0.169091  1
  Si  Si6  1  0.341725  0.332924  0.330809  1
  Si  Si7  1  0.658275  0.667076  0.669191  1
  Pb  Pb8  1  0.253260  0.498818  0.503485  1
  Pb  Pb9  1  0.000985  0.251873  0.998836  1
  Pb  Pb10  1  0.251873  0.000985  0.501164  1
  Pb  Pb11  1  0.857870  0.394206  0.341569  1
  Pb  Pb12  1  0.142130  0.605794  0.658431  1
  Pb  Pb13  1  0.999015  0.748127  0.001164  1
  Pb  Pb14  1  0.394206  0.857870  0.158431  1
  Pb  Pb15  1  0.501182  0.746740  0.003485  1
  Pb  Pb16  1  0.746740  0.501182  0.496515  1
  Pb  Pb17  1  0.851013  0.395153  0.158226  1
  Pb  Pb18  1  0.604847  0.148987  0.658226  1
  Pb  Pb19  1  0.148987  0.604847  0.841774  1
  Pb  Pb20  1  0.748127  0.999015  0.498836  1
  Pb  Pb21  1  0.395153  0.851013  0.341774  1
  Pb  Pb22  1  0.498818  0.253260  0.996515  1
  Pb  Pb23  1  0.605794  0.142130  0.841569  1
  O  O24  1  0.414189  0.839526  0.455222  1
  O  O25  1  0.116359  0.134305  0.167085  1
  O  O26  1  0.665082  0.088745  0.953891  1
  O  O27  1  0.585811  0.160474  0.544778  1
  O  O28  1  0.287454  0.502860  0.361055  1
  O  O29  1  0.474397  0.705464  0.625304  1
  O  O30  1  0.705464  0.474397  0.874696  1
  O  O31  1  0.712546  0.497140  0.638945  1
  O  O32  1  0.747689  0.959784  0.362214  1
  O  O33  1  0.252311  0.040216  0.637786  1
  O  O34  1  0.911255  0.334918  0.453891  1
  O  O35  1  0.041878  0.274798  0.625483  1
  O  O36  1  0.334918  0.911255  0.046109  1
  O  O37  1  0.145758  0.145758  0.750000  1
  O  O38  1  0.497140  0.712546  0.861055  1
  O  O39  1  0.725202  0.958122  0.125483  1
  O  O40  1  0.274798  0.041878  0.874517  1
  O  O41  1  0.525603  0.294536  0.374696  1
  O  O42  1  0.134305  0.116359  0.332915  1
  O  O43  1  0.883641  0.865695  0.832915  1
  O  O44  1  0.088745  0.665082  0.546109  1
  O  O45  1  0.854242  0.854242  0.250000  1
  O  O46  1  0.502860  0.287454  0.138945  1
  O  O47  1  0.294536  0.525603  0.125304  1
  O  O48  1  0.397232  0.397232  0.250000  1
  O  O49  1  0.959784  0.747689  0.137786  1
  O  O50  1  0.839526  0.414189  0.044778  1
  O  O51  1  0.602768  0.602768  0.750000  1
  O  O52  1  0.865695  0.883641  0.667085  1
  O  O53  1  0.160474  0.585811  0.955222  1
  O  O54  1  0.958122  0.725202  0.374517  1
  O  O55  1  0.040216  0.252311  0.862214  1
