# generated using pymatgen
data_Cs3GaSe3
_symmetry_space_group_name_H-M   'P 1'
_cell_length_a   8.70984957
_cell_length_b   14.07486362
_cell_length_c   11.39775778
_cell_angle_alpha   90.00000000
_cell_angle_beta   126.68454884
_cell_angle_gamma   90.00000000
_symmetry_Int_Tables_number   1
_chemical_formula_structural   Cs3GaSe3
_chemical_formula_sum   'Cs12 Ga4 Se12'
_cell_volume   1120.50656326
_cell_formula_units_Z   4
loop_
 _symmetry_equiv_pos_site_id
 _symmetry_equiv_pos_as_xyz
  1  'x, y, z'
loop_
 _atom_site_type_symbol
 _atom_site_label
 _atom_site_symmetry_multiplicity
 _atom_site_fract_x
 _atom_site_fract_y
 _atom_site_fract_z
 _atom_site_occupancy
  Cs  Cs0  1  0.355434  0.921549  0.613183  1
  Cs  Cs1  1  0.644566  0.421549  0.886817  1
  Cs  Cs2  1  0.644566  0.078451  0.386817  1
  Cs  Cs3  1  0.355434  0.578451  0.113183  1
  Cs  Cs4  1  0.130185  0.193156  0.414916  1
  Cs  Cs5  1  0.869815  0.693156  0.085084  1
  Cs  Cs6  1  0.869815  0.806844  0.585084  1
  Cs  Cs7  1  0.130185  0.306844  0.914916  1
  Cs  Cs8  1  0.376846  0.627848  0.514075  1
  Cs  Cs9  1  0.623154  0.127848  0.985925  1
  Cs  Cs10  1  0.623154  0.372152  0.485925  1
  Cs  Cs11  1  0.376846  0.872152  0.014075  1
  Ga  Ga12  1  0.067408  0.942987  0.159122  1
  Ga  Ga13  1  0.932592  0.442987  0.340878  1
  Ga  Ga14  1  0.932592  0.057013  0.840878  1
  Ga  Ga15  1  0.067408  0.557013  0.659122  1
  Se  Se16  1  0.135909  0.395994  0.608765  1
  Se  Se17  1  0.864091  0.895994  0.891235  1
  Se  Se18  1  0.864091  0.604006  0.391235  1
  Se  Se19  1  0.135909  0.104006  0.108765  1
  Se  Se20  1  0.346055  0.660562  0.804536  1
  Se  Se21  1  0.653945  0.160562  0.695464  1
  Se  Se22  1  0.653945  0.339438  0.195464  1
  Se  Se23  1  0.346055  0.839438  0.304536  1
  Se  Se24  1  0.888919  0.554094  0.759408  1
  Se  Se25  1  0.111081  0.054094  0.740592  1
  Se  Se26  1  0.111081  0.445906  0.240592  1
  Se  Se27  1  0.888919  0.945906  0.259408  1
