# generated using pymatgen
data_Ba2TiOF6
_symmetry_space_group_name_H-M   'P 1'
_cell_length_a   7.68472441
_cell_length_b   7.68472441
_cell_length_c   7.32897905
_cell_angle_alpha   59.70658321
_cell_angle_beta   120.29341679
_cell_angle_gamma   104.21835442
_symmetry_Int_Tables_number   1
_chemical_formula_structural   Ba2TiOF6
_chemical_formula_sum   'Ba4 Ti2 O2 F12'
_cell_volume   322.66178772
_cell_formula_units_Z   2
loop_
 _symmetry_equiv_pos_site_id
 _symmetry_equiv_pos_as_xyz
  1  'x, y, z'
loop_
 _atom_site_type_symbol
 _atom_site_label
 _atom_site_symmetry_multiplicity
 _atom_site_fract_x
 _atom_site_fract_y
 _atom_site_fract_z
 _atom_site_occupancy
  Ba  Ba0  1  0.419248  0.822802  0.752667  1
  Ba  Ba1  1  0.827430  0.826718  0.501393  1
  Ba  Ba2  1  0.173282  0.172570  0.001393  1
  Ba  Ba3  1  0.177198  0.580752  0.252667  1
  Ti  Ti4  1  0.667236  0.319904  0.433535  1
  Ti  Ti5  1  0.680096  0.332764  0.933535  1
  O  O6  1  0.731211  0.393588  0.701920  1
  O  O7  1  0.606412  0.268789  0.201920  1
  F  F8  1  0.073029  0.844444  0.336712  1
  F  F9  1  0.399163  0.426611  0.736561  1
  F  F10  1  0.941604  0.394978  0.495978  1
  F  F11  1  0.761503  0.602579  0.923429  1
  F  F12  1  0.760991  0.052013  0.688845  1
  F  F13  1  0.154769  0.554347  0.884059  1
  F  F14  1  0.445653  0.845231  0.384059  1
  F  F15  1  0.605022  0.058396  0.995978  1
  F  F16  1  0.397421  0.238497  0.423429  1
  F  F17  1  0.573389  0.600837  0.236561  1
  F  F18  1  0.155556  0.926971  0.836712  1
  F  F19  1  0.947987  0.239009  0.188845  1
