# generated using pymatgen
data_CaCO3
_symmetry_space_group_name_H-M   'P 1'
_cell_length_a   6.44366499
_cell_length_b   5.06699609
_cell_length_c   8.13136657
_cell_angle_alpha   90.00000000
_cell_angle_beta   107.59722546
_cell_angle_gamma   90.00000000
_symmetry_Int_Tables_number   1
_chemical_formula_structural   CaCO3
_chemical_formula_sum   'Ca4 C4 O12'
_cell_volume   253.06583347
_cell_formula_units_Z   4
loop_
 _symmetry_equiv_pos_site_id
 _symmetry_equiv_pos_as_xyz
  1  'x, y, z'
loop_
 _atom_site_type_symbol
 _atom_site_label
 _atom_site_symmetry_multiplicity
 _atom_site_fract_x
 _atom_site_fract_y
 _atom_site_fract_z
 _atom_site_occupancy
  Ca  Ca0  1  0.757200  0.754937  0.266703  1
  Ca  Ca1  1  0.757200  0.745063  0.766703  1
  Ca  Ca2  1  0.242800  0.254937  0.233297  1
  Ca  Ca3  1  0.242800  0.245063  0.733297  1
  C  C4  1  0.746322  0.253290  0.001388  1
  C  C5  1  0.253678  0.746710  0.998612  1
  C  C6  1  0.746322  0.246710  0.501388  1
  C  C7  1  0.253678  0.753290  0.498612  1
  O  O8  1  0.128175  0.900429  0.377944  1
  O  O9  1  0.871825  0.099571  0.622056  1
  O  O10  1  0.386777  0.637554  0.134134  1
  O  O11  1  0.613223  0.137554  0.365866  1
  O  O12  1  0.758399  0.501985  0.515173  1
  O  O13  1  0.241601  0.001985  0.984827  1
  O  O14  1  0.871825  0.400429  0.122056  1
  O  O15  1  0.241601  0.498015  0.484827  1
  O  O16  1  0.128175  0.599571  0.877944  1
  O  O17  1  0.386777  0.862446  0.634134  1
  O  O18  1  0.758399  0.998015  0.015173  1
  O  O19  1  0.613223  0.362446  0.865866  1
