# generated using pymatgen
data_Na2Zn5(PO4)4
_symmetry_space_group_name_H-M   'P 1'
_cell_length_a   8.63336688
_cell_length_b   10.54917093
_cell_length_c   16.79497883
_cell_angle_alpha   90.00000000
_cell_angle_beta   90.00000000
_cell_angle_gamma   90.00000000
_symmetry_Int_Tables_number   1
_chemical_formula_structural   Na2Zn5(PO4)4
_chemical_formula_sum   'Na8 Zn20 P16 O64'
_cell_volume   1529.60039466
_cell_formula_units_Z   4
loop_
 _symmetry_equiv_pos_site_id
 _symmetry_equiv_pos_as_xyz
  1  'x, y, z'
loop_
 _atom_site_type_symbol
 _atom_site_label
 _atom_site_symmetry_multiplicity
 _atom_site_fract_x
 _atom_site_fract_y
 _atom_site_fract_z
 _atom_site_occupancy
  Na  Na0  1  0.762315  0.333362  0.295514  1
  Na  Na1  1  0.737685  0.166638  0.795514  1
  Na  Na2  1  0.762315  0.666638  0.204486  1
  Na  Na3  1  0.737685  0.833362  0.704486  1
  Na  Na4  1  0.262315  0.166638  0.295514  1
  Na  Na5  1  0.262315  0.833362  0.204486  1
  Na  Na6  1  0.237685  0.666638  0.704486  1
  Na  Na7  1  0.237685  0.333362  0.795514  1
  Zn  Zn8  1  0.611778  0.659754  0.420810  1
  Zn  Zn9  1  0.420934  0.164696  0.946311  1
  Zn  Zn10  1  0.611778  0.340246  0.079190  1
  Zn  Zn11  1  0.079066  0.335304  0.446311  1
  Zn  Zn12  1  0.079066  0.664696  0.053689  1
  Zn  Zn13  1  0.195133  0.500000  0.250000  1
  Zn  Zn14  1  0.388222  0.659754  0.920810  1
  Zn  Zn15  1  0.420934  0.835304  0.553689  1
  Zn  Zn16  1  0.579066  0.835304  0.053689  1
  Zn  Zn17  1  0.304867  0.000000  0.750000  1
  Zn  Zn18  1  0.695133  0.000000  0.250000  1
  Zn  Zn19  1  0.888222  0.159754  0.579190  1
  Zn  Zn20  1  0.920934  0.664696  0.553689  1
  Zn  Zn21  1  0.920934  0.335304  0.946311  1
  Zn  Zn22  1  0.579066  0.164696  0.446311  1
  Zn  Zn23  1  0.804867  0.500000  0.750000  1
  Zn  Zn24  1  0.111778  0.840246  0.420810  1
  Zn  Zn25  1  0.388222  0.340246  0.579190  1
  Zn  Zn26  1  0.888222  0.840246  0.920810  1
  Zn  Zn27  1  0.111778  0.159754  0.079190  1
  P  P28  1  0.445756  0.093857  0.132899  1
  P  P29  1  0.554244  0.906143  0.867101  1
  P  P30  1  0.054244  0.593857  0.867101  1
  P  P31  1  0.554244  0.093857  0.632899  1
  P  P32  1  0.445756  0.906143  0.367101  1
  P  P33  1  0.594704  0.588806  0.606256  1
  P  P34  1  0.945756  0.593857  0.367101  1
  P  P35  1  0.094704  0.088806  0.893744  1
  P  P36  1  0.905296  0.911194  0.106256  1
  P  P37  1  0.594704  0.411194  0.893744  1
  P  P38  1  0.945756  0.406143  0.132899  1
  P  P39  1  0.405296  0.588806  0.106256  1
  P  P40  1  0.054244  0.406143  0.632899  1
  P  P41  1  0.405296  0.411194  0.393744  1
  P  P42  1  0.905296  0.088806  0.393744  1
  P  P43  1  0.094704  0.911194  0.606256  1
  O  O44  1  0.556453  0.331682  0.393934  1
  O  O45  1  0.805366  0.879710  0.180486  1
  O  O46  1  0.443547  0.331682  0.893934  1
  O  O47  1  0.001917  0.326011  0.058632  1
  O  O48  1  0.223194  0.630773  0.844010  1
  O  O49  1  0.805366  0.120290  0.319514  1
  O  O50  1  0.064416  0.053464  0.602214  1
  O  O51  1  0.553729  0.950851  0.612465  1
  O  O52  1  0.276806  0.130773  0.155990  1
  O  O53  1  0.435584  0.446536  0.102214  1
  O  O54  1  0.001917  0.673989  0.441368  1
  O  O55  1  0.998083  0.673989  0.941368  1
  O  O56  1  0.553729  0.049149  0.887535  1
  O  O57  1  0.446271  0.049149  0.387535  1
  O  O58  1  0.498083  0.826011  0.941368  1
  O  O59  1  0.803329  0.132966  0.468019  1
  O  O60  1  0.446271  0.950851  0.112465  1
  O  O61  1  0.935584  0.053464  0.102214  1
  O  O62  1  0.552230  0.872669  0.296891  1
  O  O63  1  0.435584  0.553464  0.397786  1
  O  O64  1  0.723194  0.869227  0.844010  1
  O  O65  1  0.303329  0.632966  0.031981  1
  O  O66  1  0.498083  0.173989  0.558632  1
  O  O67  1  0.946271  0.549149  0.112465  1
  O  O68  1  0.053729  0.549149  0.612465  1
  O  O69  1  0.943547  0.168318  0.893934  1
  O  O70  1  0.947770  0.627331  0.796891  1
  O  O71  1  0.998083  0.326011  0.558632  1
  O  O72  1  0.305366  0.379710  0.319514  1
  O  O73  1  0.303329  0.367034  0.468019  1
  O  O74  1  0.052230  0.372669  0.203109  1
  O  O75  1  0.694634  0.620290  0.680486  1
  O  O76  1  0.443547  0.668318  0.606066  1
  O  O77  1  0.803329  0.867034  0.031981  1
  O  O78  1  0.447770  0.872669  0.796891  1
  O  O79  1  0.052230  0.627331  0.296891  1
  O  O80  1  0.696671  0.632966  0.531981  1
  O  O81  1  0.196671  0.132966  0.968019  1
  O  O82  1  0.564416  0.446536  0.602214  1
  O  O83  1  0.723194  0.130773  0.655990  1
  O  O84  1  0.935584  0.946536  0.397786  1
  O  O85  1  0.196671  0.867034  0.531981  1
  O  O86  1  0.056453  0.831682  0.106066  1
  O  O87  1  0.947770  0.372669  0.703109  1
  O  O88  1  0.564416  0.553464  0.897786  1
  O  O89  1  0.696671  0.367034  0.968019  1
  O  O90  1  0.501917  0.173989  0.058632  1
  O  O91  1  0.053729  0.450851  0.887535  1
  O  O92  1  0.776806  0.630773  0.344010  1
  O  O93  1  0.056453  0.168318  0.393934  1
  O  O94  1  0.223194  0.369227  0.655990  1
  O  O95  1  0.946271  0.450851  0.387535  1
  O  O96  1  0.556453  0.668318  0.106066  1
  O  O97  1  0.694634  0.379710  0.819514  1
  O  O98  1  0.194634  0.120290  0.819514  1
  O  O99  1  0.943547  0.831682  0.606066  1
  O  O100  1  0.776806  0.369227  0.155990  1
  O  O101  1  0.501917  0.826011  0.441368  1
  O  O102  1  0.194634  0.879710  0.680486  1
  O  O103  1  0.447770  0.127331  0.703109  1
  O  O104  1  0.305366  0.620290  0.180486  1
  O  O105  1  0.552230  0.127331  0.203109  1
  O  O106  1  0.064416  0.946536  0.897786  1
  O  O107  1  0.276806  0.869227  0.344010  1
