# generated using pymatgen
data_RbDy(WO4)2
_symmetry_space_group_name_H-M   'P 1'
_cell_length_a   8.07562276
_cell_length_b   10.43894772
_cell_length_c   9.17243507
_cell_angle_alpha   90.00000000
_cell_angle_beta   98.54518974
_cell_angle_gamma   90.00000000
_symmetry_Int_Tables_number   1
_chemical_formula_structural   RbDy(WO4)2
_chemical_formula_sum   'Rb4 Dy4 W8 O32'
_cell_volume   764.66166735
_cell_formula_units_Z   4
loop_
 _symmetry_equiv_pos_site_id
 _symmetry_equiv_pos_as_xyz
  1  'x, y, z'
loop_
 _atom_site_type_symbol
 _atom_site_label
 _atom_site_symmetry_multiplicity
 _atom_site_fract_x
 _atom_site_fract_y
 _atom_site_fract_z
 _atom_site_occupancy
  Rb  Rb0  1  0.572976  0.216483  0.011486  1
  Rb  Rb1  1  0.072976  0.283517  0.011486  1
  Rb  Rb2  1  0.927024  0.716483  0.988514  1
  Rb  Rb3  1  0.427024  0.783517  0.988514  1
  Dy  Dy4  1  0.021351  0.723294  0.564082  1
  Dy  Dy5  1  0.978649  0.276706  0.435918  1
  Dy  Dy6  1  0.478649  0.223294  0.435918  1
  Dy  Dy7  1  0.521351  0.776706  0.564082  1
  W  W8  1  0.323577  0.512210  0.338194  1
  W  W9  1  0.285946  0.486119  0.718196  1
  W  W10  1  0.214054  0.986119  0.281804  1
  W  W11  1  0.823577  0.987790  0.338194  1
  W  W12  1  0.785946  0.013881  0.718196  1
  W  W13  1  0.714054  0.513881  0.281804  1
  W  W14  1  0.176423  0.012210  0.661806  1
  W  W15  1  0.676423  0.487790  0.661806  1
  O  O16  1  0.742846  0.895244  0.492657  1
  O  O17  1  0.954710  0.104000  0.592327  1
  O  O18  1  0.045290  0.896000  0.407673  1
  O  O19  1  0.257154  0.104756  0.507343  1
  O  O20  1  0.159857  0.622808  0.767242  1
  O  O21  1  0.381236  0.880167  0.370812  1
  O  O22  1  0.766578  0.410132  0.824642  1
  O  O23  1  0.655060  0.591430  0.110106  1
  O  O24  1  0.118764  0.380167  0.629188  1
  O  O25  1  0.840143  0.377192  0.232758  1
  O  O26  1  0.545290  0.604000  0.407673  1
  O  O27  1  0.155060  0.908570  0.110106  1
  O  O28  1  0.266578  0.089868  0.824642  1
  O  O29  1  0.998833  0.899634  0.725068  1
  O  O30  1  0.498833  0.600366  0.725068  1
  O  O31  1  0.881236  0.619833  0.370812  1
  O  O32  1  0.001167  0.100366  0.274932  1
  O  O33  1  0.204239  0.360969  0.345951  1
  O  O34  1  0.340143  0.122808  0.232758  1
  O  O35  1  0.733422  0.910132  0.175358  1
  O  O36  1  0.618764  0.119833  0.629188  1
  O  O37  1  0.795761  0.639031  0.654049  1
  O  O38  1  0.454710  0.396000  0.592327  1
  O  O39  1  0.295761  0.860969  0.654049  1
  O  O40  1  0.242846  0.604756  0.492657  1
  O  O41  1  0.704239  0.139031  0.345951  1
  O  O42  1  0.344940  0.408570  0.889894  1
  O  O43  1  0.501167  0.399634  0.274932  1
  O  O44  1  0.757154  0.395244  0.507343  1
  O  O45  1  0.844940  0.091430  0.889894  1
  O  O46  1  0.659857  0.877192  0.767242  1
  O  O47  1  0.233422  0.589868  0.175358  1
