# generated using pymatgen
data_LiMn(PO3)3
_symmetry_space_group_name_H-M   'P 1'
_cell_length_a   6.48271541
_cell_length_b   6.48271541
_cell_length_c   9.84475149
_cell_angle_alpha   90.00000000
_cell_angle_beta   90.00000000
_cell_angle_gamma   120.00000000
_symmetry_Int_Tables_number   1
_chemical_formula_structural   LiMn(PO3)3
_chemical_formula_sum   'Li2 Mn2 P6 O18'
_cell_volume   358.30205831
_cell_formula_units_Z   2
loop_
 _symmetry_equiv_pos_site_id
 _symmetry_equiv_pos_as_xyz
  1  'x, y, z'
loop_
 _atom_site_type_symbol
 _atom_site_label
 _atom_site_symmetry_multiplicity
 _atom_site_fract_x
 _atom_site_fract_y
 _atom_site_fract_z
 _atom_site_occupancy
  Li  Li0  1  0.000000  0.000000  0.500000  1
  Li  Li1  1  0.000000  0.000000  0.000000  1
  Mn  Mn2  1  0.666667  0.333333  0.500000  1
  Mn  Mn3  1  0.666667  0.333333  0.000000  1
  P  P4  1  0.060489  0.410491  0.250000  1
  P  P5  1  0.060489  0.649998  0.750000  1
  P  P6  1  0.350002  0.410491  0.750000  1
  P  P7  1  0.589509  0.649998  0.250000  1
  P  P8  1  0.589509  0.939511  0.750000  1
  P  P9  1  0.350002  0.939511  0.250000  1
  O  O10  1  0.705012  0.644614  0.118159  1
  O  O11  1  0.117798  0.681552  0.250000  1
  O  O12  1  0.355386  0.294988  0.618159  1
  O  O13  1  0.355386  0.294988  0.881841  1
  O  O14  1  0.355386  0.060399  0.381841  1
  O  O15  1  0.355386  0.060399  0.118159  1
  O  O16  1  0.705012  0.644614  0.381841  1
  O  O17  1  0.318448  0.882202  0.750000  1
  O  O18  1  0.939601  0.644614  0.881841  1
  O  O19  1  0.939601  0.644614  0.618159  1
  O  O20  1  0.563754  0.882202  0.250000  1
  O  O21  1  0.705012  0.060399  0.881841  1
  O  O22  1  0.318448  0.436246  0.250000  1
  O  O23  1  0.563754  0.681552  0.750000  1
  O  O24  1  0.939601  0.294988  0.118159  1
  O  O25  1  0.939601  0.294988  0.381841  1
  O  O26  1  0.117798  0.436246  0.750000  1
  O  O27  1  0.705012  0.060399  0.618159  1
