# generated using pymatgen
data_Mg(AlB14)2
_symmetry_space_group_name_H-M   'P 1'
_cell_length_a   7.17324569
_cell_length_b   7.17534563
_cell_length_c   10.95402909
_cell_angle_alpha   101.37390772
_cell_angle_beta   102.48690623
_cell_angle_gamma   111.42941563
_symmetry_Int_Tables_number   1
_chemical_formula_structural   Mg(AlB14)2
_chemical_formula_sum   'Mg2 Al4 B56'
_cell_volume   488.18111381
_cell_formula_units_Z   2
loop_
 _symmetry_equiv_pos_site_id
 _symmetry_equiv_pos_as_xyz
  1  'x, y, z'
loop_
 _atom_site_type_symbol
 _atom_site_label
 _atom_site_symmetry_multiplicity
 _atom_site_fract_x
 _atom_site_fract_y
 _atom_site_fract_z
 _atom_site_occupancy
  Mg  Mg0  1  0.502485  0.887341  0.113017  1
  Mg  Mg1  1  0.996151  0.092550  0.398655  1
  Al  Al2  1  0.217197  0.477777  0.235313  1
  Al  Al3  1  0.510377  0.509961  0.499235  1
  Al  Al4  1  0.793718  0.532203  0.766175  1
  Al  Al5  1  0.454708  0.148848  0.811547  1
  B  B6  1  0.118657  0.869085  0.085992  1
  B  B7  1  0.132489  0.259161  0.040206  1
  B  B8  1  0.301660  0.529782  0.074991  1
  B  B9  1  0.204269  0.724219  0.172841  1
  B  B10  1  0.275150  0.097987  0.049194  1
  B  B11  1  0.884138  0.899775  0.112412  1
  B  B12  1  0.710528  0.464244  0.085900  1
  B  B13  1  0.540457  0.534886  0.166372  1
  B  B14  1  0.371736  0.873235  0.334687  1
  B  B15  1  0.540102  0.273091  0.140999  1
  B  B16  1  0.802701  0.725166  0.203254  1
  B  B17  1  0.890820  0.139853  0.082524  1
  B  B18  1  0.807123  0.307687  0.166333  1
  B  B19  1  0.965860  0.589350  0.204811  1
  B  B20  1  0.536644  0.413004  0.293716  1
  B  B21  1  0.697629  0.694603  0.335564  1
  B  B22  1  0.613879  0.862868  0.419196  1
  B  B23  1  0.699262  0.273865  0.298824  1
  B  B24  1  0.962220  0.724830  0.360696  1
  B  B25  1  0.129225  0.120431  0.163145  1
  B  B26  1  0.958712  0.466211  0.335314  1
  B  B27  1  0.793116  0.536461  0.417147  1
  B  B28  1  0.621887  0.876921  0.586812  1
  B  B29  1  0.617263  0.101466  0.390911  1
  B  B30  1  0.224988  0.896515  0.452205  1
  B  B31  1  0.295157  0.269631  0.326051  1
  B  B32  1  0.196532  0.469471  0.425069  1
  B  B33  1  0.370438  0.741974  0.457066  1
  B  B34  1  0.628663  0.258768  0.544283  1
  B  B35  1  0.806745  0.530314  0.577350  1
  B  B36  1  0.706263  0.731347  0.676798  1
  B  B37  1  0.774559  0.102282  0.548039  1
  B  B38  1  0.382928  0.898141  0.610134  1
  B  B39  1  0.380741  0.122267  0.415102  1
  B  B40  1  0.210776  0.467637  0.586412  1
  B  B41  1  0.042290  0.534153  0.665715  1
  B  B42  1  0.870710  0.878359  0.837789  1
  B  B43  1  0.036964  0.273286  0.640039  1
  B  B44  1  0.305277  0.729938  0.707478  1
  B  B45  1  0.386175  0.135314  0.582220  1
  B  B46  1  0.301502  0.305122  0.666473  1
  B  B47  1  0.466337  0.587099  0.708339  1
  B  B48  1  0.032028  0.406686  0.795403  1
  B  B49  1  0.191489  0.689028  0.835273  1
  B  B50  1  0.108289  0.856038  0.918974  1
  B  B51  1  0.194398  0.272203  0.797109  1
  B  B52  1  0.460993  0.727283  0.862030  1
  B  B53  1  0.631739  0.124218  0.663632  1
  B  B54  1  0.457399  0.469098  0.835818  1
  B  B55  1  0.286470  0.531387  0.916503  1
  B  B56  1  0.121377  0.096331  0.891248  1
  B  B57  1  0.727121  0.899155  0.953616  1
  B  B58  1  0.791073  0.269700  0.828764  1
  B  B59  1  0.693827  0.463230  0.926133  1
  B  B60  1  0.868370  0.738904  0.962164  1
  B  B61  1  0.882215  0.127264  0.915990  1
