# generated using pymatgen
data_CsKTeH6SO10
_symmetry_space_group_name_H-M   'P 1'
_cell_length_a   12.71474581
_cell_length_b   6.70884298
_cell_length_c   15.33362621
_cell_angle_alpha   90.00000000
_cell_angle_beta   126.04283558
_cell_angle_gamma   90.00000000
_symmetry_Int_Tables_number   1
_chemical_formula_structural   CsKTeH6SO10
_chemical_formula_sum   'Cs4 K4 Te4 H24 S4 O40'
_cell_volume   1057.60072809
_cell_formula_units_Z   4
loop_
 _symmetry_equiv_pos_site_id
 _symmetry_equiv_pos_as_xyz
  1  'x, y, z'
loop_
 _atom_site_type_symbol
 _atom_site_label
 _atom_site_symmetry_multiplicity
 _atom_site_fract_x
 _atom_site_fract_y
 _atom_site_fract_z
 _atom_site_occupancy
  Cs  Cs0  1  0.003583  0.979367  0.272913  1
  Cs  Cs1  1  0.998774  0.476699  0.498337  1
  Cs  Cs2  1  0.998774  0.523301  0.998337  1
  Cs  Cs3  1  0.003583  0.020633  0.772913  1
  K  K4  1  0.467291  0.959304  0.478489  1
  K  K5  1  0.467291  0.040696  0.978489  1
  K  K6  1  0.539082  0.462797  0.288652  1
  K  K7  1  0.539082  0.537203  0.788652  1
  Te  Te8  1  0.712643  0.493335  0.118822  1
  Te  Te9  1  0.290683  0.004451  0.150245  1
  Te  Te10  1  0.290683  0.995549  0.650245  1
  Te  Te11  1  0.712643  0.506665  0.618822  1
  H  H12  1  0.951562  0.491084  0.205853  1
  H  H13  1  0.476010  0.453335  0.545843  1
  H  H14  1  0.053339  0.015707  0.067111  1
  H  H15  1  0.251262  0.255518  0.012697  1
  H  H16  1  0.706636  0.812544  0.027101  1
  H  H17  1  0.251262  0.744482  0.512697  1
  H  H18  1  0.313279  0.728436  0.772286  1
  H  H19  1  0.256653  0.225478  0.504866  1
  H  H20  1  0.706636  0.187456  0.527101  1
  H  H21  1  0.297509  0.311966  0.744081  1
  H  H22  1  0.951562  0.508916  0.705853  1
  H  H23  1  0.525574  0.051471  0.720540  1
  H  H24  1  0.525574  0.948529  0.220540  1
  H  H25  1  0.745845  0.715750  0.266589  1
  H  H26  1  0.745845  0.284250  0.766589  1
  H  H27  1  0.256653  0.774522  0.004866  1
  H  H28  1  0.692284  0.768320  0.495476  1
  H  H29  1  0.297509  0.688034  0.244081  1
  H  H30  1  0.692284  0.231680  0.995476  1
  H  H31  1  0.476010  0.546665  0.045843  1
  H  H32  1  0.748943  0.765345  0.751482  1
  H  H33  1  0.313279  0.271564  0.272286  1
  H  H34  1  0.053339  0.984293  0.567111  1
  H  H35  1  0.748943  0.234655  0.251482  1
  S  S36  1  0.776497  0.002428  0.905058  1
  S  S37  1  0.776497  0.997572  0.405058  1
  S  S38  1  0.226216  0.501957  0.363328  1
  S  S39  1  0.226216  0.498043  0.863328  1
  O  O40  1  0.768180  0.985864  0.498672  1
  O  O41  1  0.910519  0.947411  0.441232  1
  O  O42  1  0.910519  0.052589  0.941232  1
  O  O43  1  0.633550  0.655428  0.484189  1
  O  O44  1  0.768180  0.014136  0.998672  1
  O  O45  1  0.362168  0.767406  0.241280  1
  O  O46  1  0.131978  0.006764  0.643011  1
  O  O47  1  0.804112  0.634166  0.256560  1
  O  O48  1  0.633550  0.344572  0.984189  1
  O  O49  1  0.092928  0.547711  0.829145  1
  O  O50  1  0.362168  0.232594  0.741280  1
  O  O51  1  0.373602  0.162327  0.282665  1
  O  O52  1  0.261116  0.709388  0.406788  1
  O  O53  1  0.233037  0.486237  0.269025  1
  O  O54  1  0.447637  0.988215  0.654886  1
  O  O55  1  0.092928  0.452289  0.329145  1
  O  O56  1  0.764041  0.237667  0.194197  1
  O  O57  1  0.873248  0.510503  0.129305  1
  O  O58  1  0.321369  0.642930  0.949172  1
  O  O59  1  0.682044  0.850382  0.320230  1
  O  O60  1  0.197884  0.148362  0.515945  1
  O  O61  1  0.234318  0.746547  0.568931  1
  O  O62  1  0.197884  0.851638  0.015945  1
  O  O63  1  0.447637  0.011785  0.154886  1
  O  O64  1  0.741102  0.203145  0.359150  1
  O  O65  1  0.764041  0.762333  0.694197  1
  O  O66  1  0.234318  0.253453  0.068931  1
  O  O67  1  0.373602  0.837673  0.782665  1
  O  O68  1  0.553470  0.480107  0.110605  1
  O  O69  1  0.643399  0.263405  0.533109  1
  O  O70  1  0.261116  0.290612  0.906788  1
  O  O71  1  0.804112  0.365834  0.756560  1
  O  O72  1  0.233037  0.513763  0.769025  1
  O  O73  1  0.131978  0.993236  0.143011  1
  O  O74  1  0.321369  0.357070  0.449172  1
  O  O75  1  0.553470  0.519893  0.610605  1
  O  O76  1  0.682044  0.149618  0.820230  1
  O  O77  1  0.643399  0.736595  0.033109  1
  O  O78  1  0.741102  0.796855  0.859150  1
  O  O79  1  0.873248  0.489497  0.629305  1
