# generated using pymatgen
data_RbV2CrO7
_symmetry_space_group_name_H-M   'P 1'
_cell_length_a   6.98556988
_cell_length_b   4.95567085
_cell_length_c   8.67038625
_cell_angle_alpha   90.00000000
_cell_angle_beta   101.24543423
_cell_angle_gamma   90.00000000
_symmetry_Int_Tables_number   1
_chemical_formula_structural   RbV2CrO7
_chemical_formula_sum   'Rb2 V4 Cr2 O14'
_cell_volume   294.39034433
_cell_formula_units_Z   2
loop_
 _symmetry_equiv_pos_site_id
 _symmetry_equiv_pos_as_xyz
  1  'x, y, z'
loop_
 _atom_site_type_symbol
 _atom_site_label
 _atom_site_symmetry_multiplicity
 _atom_site_fract_x
 _atom_site_fract_y
 _atom_site_fract_z
 _atom_site_occupancy
  Rb  Rb0  1  0.250000  0.389553  0.500000  1
  Rb  Rb1  1  0.750000  0.610447  0.500000  1
  V  V2  1  0.375034  0.003387  0.166790  1
  V  V3  1  0.624966  0.996613  0.833210  1
  V  V4  1  0.875034  0.996613  0.166790  1
  V  V5  1  0.124966  0.003387  0.833210  1
  Cr  Cr6  1  0.500000  0.500000  0.000000  1
  Cr  Cr7  1  0.000000  0.500000  0.000000  1
  O  O8  1  0.021594  0.321767  0.798991  1
  O  O9  1  0.388604  0.158279  0.889302  1
  O  O10  1  0.888604  0.841721  0.889302  1
  O  O11  1  0.620227  0.123193  0.657298  1
  O  O12  1  0.111396  0.158279  0.110698  1
  O  O13  1  0.478406  0.321767  0.201009  1
  O  O14  1  0.978406  0.678233  0.201009  1
  O  O15  1  0.521594  0.678233  0.798991  1
  O  O16  1  0.379773  0.876807  0.342702  1
  O  O17  1  0.611396  0.841721  0.110698  1
  O  O18  1  0.879773  0.123193  0.342702  1
  O  O19  1  0.120227  0.876807  0.657298  1
  O  O20  1  0.750000  0.283442  0.000000  1
  O  O21  1  0.250000  0.716558  0.000000  1
