# generated using pymatgen
data_Hg3AsO4
_symmetry_space_group_name_H-M   'P 1'
_cell_length_a   10.52485361
_cell_length_b   8.82565524
_cell_length_c   14.00671460
_cell_angle_alpha   90.00000000
_cell_angle_beta   101.60996046
_cell_angle_gamma   90.00000000
_symmetry_Int_Tables_number   1
_chemical_formula_structural   Hg3AsO4
_chemical_formula_sum   'Hg24 As8 O32'
_cell_volume   1274.44647650
_cell_formula_units_Z   8
loop_
 _symmetry_equiv_pos_site_id
 _symmetry_equiv_pos_as_xyz
  1  'x, y, z'
loop_
 _atom_site_type_symbol
 _atom_site_label
 _atom_site_symmetry_multiplicity
 _atom_site_fract_x
 _atom_site_fract_y
 _atom_site_fract_z
 _atom_site_occupancy
  Hg  Hg0  1  0.516356  0.555922  0.638332  1
  Hg  Hg1  1  0.483644  0.055922  0.861668  1
  Hg  Hg2  1  0.516356  0.944078  0.138332  1
  Hg  Hg3  1  0.728235  0.587098  0.165101  1
  Hg  Hg4  1  0.944999  0.255293  0.038804  1
  Hg  Hg5  1  0.055001  0.755293  0.461196  1
  Hg  Hg6  1  0.271765  0.087098  0.334899  1
  Hg  Hg7  1  0.910036  0.931035  0.334798  1
  Hg  Hg8  1  0.944999  0.244707  0.538804  1
  Hg  Hg9  1  0.189297  0.611699  0.697600  1
  Hg  Hg10  1  0.728235  0.912902  0.665101  1
  Hg  Hg11  1  0.089964  0.431035  0.165202  1
  Hg  Hg12  1  0.810703  0.111699  0.802400  1
  Hg  Hg13  1  0.489928  0.269732  0.596917  1
  Hg  Hg14  1  0.483644  0.444078  0.361668  1
  Hg  Hg15  1  0.055001  0.744707  0.961196  1
  Hg  Hg16  1  0.510072  0.769732  0.903083  1
  Hg  Hg17  1  0.510072  0.730268  0.403083  1
  Hg  Hg18  1  0.810703  0.388301  0.302400  1
  Hg  Hg19  1  0.089964  0.068965  0.665202  1
  Hg  Hg20  1  0.910036  0.568965  0.834798  1
  Hg  Hg21  1  0.189297  0.888301  0.197600  1
  Hg  Hg22  1  0.489928  0.230268  0.096917  1
  Hg  Hg23  1  0.271765  0.412902  0.834899  1
  As  As24  1  0.633432  0.097917  0.404893  1
  As  As25  1  0.839447  0.916155  0.094099  1
  As  As26  1  0.633432  0.402083  0.904893  1
  As  As27  1  0.160553  0.083845  0.905901  1
  As  As28  1  0.366568  0.597917  0.095107  1
  As  As29  1  0.160553  0.416155  0.405901  1
  As  As30  1  0.839447  0.583845  0.594099  1
  As  As31  1  0.366568  0.902083  0.595107  1
  O  O32  1  0.507123  0.298604  0.834571  1
  O  O33  1  0.627959  0.099622  0.526745  1
  O  O34  1  0.624797  0.580048  0.853325  1
  O  O35  1  0.167181  0.964441  0.004137  1
  O  O36  1  0.627959  0.400378  0.026745  1
  O  O37  1  0.823596  0.028160  0.192959  1
  O  O38  1  0.375203  0.080048  0.646675  1
  O  O39  1  0.977571  0.805335  0.119105  1
  O  O40  1  0.492877  0.798604  0.665429  1
  O  O41  1  0.783013  0.169921  0.389573  1
  O  O42  1  0.372041  0.599622  0.973255  1
  O  O43  1  0.708012  0.709395  0.568927  1
  O  O44  1  0.492877  0.701396  0.165429  1
  O  O45  1  0.167181  0.535559  0.504137  1
  O  O46  1  0.372041  0.900378  0.473255  1
  O  O47  1  0.022429  0.305335  0.380895  1
  O  O48  1  0.375203  0.419952  0.146675  1
  O  O49  1  0.216987  0.669921  0.110427  1
  O  O50  1  0.291988  0.209395  0.931073  1
  O  O51  1  0.823596  0.471840  0.692959  1
  O  O52  1  0.708012  0.790605  0.068927  1
  O  O53  1  0.977571  0.694665  0.619105  1
  O  O54  1  0.507123  0.201396  0.334571  1
  O  O55  1  0.832819  0.035559  0.995863  1
  O  O56  1  0.291988  0.290605  0.431073  1
  O  O57  1  0.624797  0.919952  0.353325  1
  O  O58  1  0.216987  0.830079  0.610427  1
  O  O59  1  0.176404  0.528160  0.307041  1
  O  O60  1  0.832819  0.464441  0.495863  1
  O  O61  1  0.783013  0.330079  0.889573  1
  O  O62  1  0.022429  0.194665  0.880895  1
  O  O63  1  0.176404  0.971840  0.807041  1
