# generated using pymatgen
data_TlHgAsS3
_symmetry_space_group_name_H-M   'P 1'
_cell_length_a   6.28970722
_cell_length_b   6.28970722
_cell_length_c   16.68005054
_cell_angle_alpha   90.00000000
_cell_angle_beta   90.00000000
_cell_angle_gamma   96.11284156
_symmetry_Int_Tables_number   1
_chemical_formula_structural   TlHgAsS3
_chemical_formula_sum   'Tl4 Hg4 As4 S12'
_cell_volume   656.11780189
_cell_formula_units_Z   4
loop_
 _symmetry_equiv_pos_site_id
 _symmetry_equiv_pos_as_xyz
  1  'x, y, z'
loop_
 _atom_site_type_symbol
 _atom_site_label
 _atom_site_symmetry_multiplicity
 _atom_site_fract_x
 _atom_site_fract_y
 _atom_site_fract_z
 _atom_site_occupancy
  Tl  Tl0  1  0.166438  0.833562  0.550634  1
  Tl  Tl1  1  0.833562  0.166438  0.449366  1
  Tl  Tl2  1  0.666438  0.333562  0.949366  1
  Tl  Tl3  1  0.333562  0.666438  0.050634  1
  Hg  Hg4  1  0.922154  0.577846  0.250000  1
  Hg  Hg5  1  0.077846  0.422154  0.750000  1
  Hg  Hg6  1  0.577846  0.922154  0.750000  1
  Hg  Hg7  1  0.422154  0.077846  0.250000  1
  As  As8  1  0.926742  0.073258  0.109629  1
  As  As9  1  0.573258  0.426742  0.609629  1
  As  As10  1  0.073258  0.926742  0.890371  1
  As  As11  1  0.426742  0.573258  0.390371  1
  S  S12  1  0.208120  0.362797  0.608813  1
  S  S13  1  0.362797  0.208120  0.391187  1
  S  S14  1  0.708120  0.862797  0.891187  1
  S  S15  1  0.637203  0.791880  0.608813  1
  S  S16  1  0.791880  0.637203  0.391187  1
  S  S17  1  0.354811  0.645189  0.261398  1
  S  S18  1  0.854811  0.145189  0.238602  1
  S  S19  1  0.145189  0.854811  0.761398  1
  S  S20  1  0.645189  0.354811  0.738602  1
  S  S21  1  0.137203  0.291880  0.891187  1
  S  S22  1  0.862797  0.708120  0.108813  1
  S  S23  1  0.291880  0.137203  0.108813  1
