# generated using pymatgen
data_Mg(B6C)2
_symmetry_space_group_name_H-M   'P 1'
_cell_length_a   6.91006542
_cell_length_b   6.91006542
_cell_length_c   6.91006542
_cell_angle_alpha   132.05232156
_cell_angle_beta   109.90265193
_cell_angle_gamma   89.41373787
_symmetry_Int_Tables_number   1
_chemical_formula_structural   Mg(B6C)2
_chemical_formula_sum   'Mg2 B24 C4'
_cell_volume   218.87059346
_cell_formula_units_Z   2
loop_
 _symmetry_equiv_pos_site_id
 _symmetry_equiv_pos_as_xyz
  1  'x, y, z'
loop_
 _atom_site_type_symbol
 _atom_site_label
 _atom_site_symmetry_multiplicity
 _atom_site_fract_x
 _atom_site_fract_y
 _atom_site_fract_z
 _atom_site_occupancy
  Mg  Mg0  1  0.888805  0.750000  0.138805  1
  Mg  Mg1  1  0.111195  0.250000  0.861195  1
  B  B2  1  0.467007  0.654207  0.291328  1
  B  B3  1  0.412120  0.093705  0.318415  1
  B  B4  1  0.903394  0.725359  0.501069  1
  B  B5  1  0.862879  0.675680  0.708672  1
  B  B6  1  0.532993  0.824320  0.187199  1
  B  B7  1  0.137121  0.324320  0.291328  1
  B  B8  1  0.275710  0.097675  0.501069  1
  B  B9  1  0.587880  0.906295  0.681585  1
  B  B10  1  0.532993  0.345793  0.708672  1
  B  B11  1  0.687503  0.166841  0.520661  1
  B  B12  1  0.724290  0.902325  0.498931  1
  B  B13  1  0.146180  0.666841  0.479339  1
  B  B14  1  0.137121  0.845793  0.812801  1
  B  B15  1  0.275289  0.593705  0.681585  1
  B  B16  1  0.724290  0.225359  0.821965  1
  B  B17  1  0.467007  0.175680  0.812801  1
  B  B18  1  0.275710  0.774641  0.178035  1
  B  B19  1  0.903394  0.402325  0.178035  1
  B  B20  1  0.096606  0.597675  0.821965  1
  B  B21  1  0.724711  0.406295  0.318415  1
  B  B22  1  0.312497  0.833159  0.479339  1
  B  B23  1  0.096606  0.274641  0.498931  1
  B  B24  1  0.853820  0.333159  0.520661  1
  B  B25  1  0.862879  0.154207  0.187199  1
  C  C26  1  0.291554  0.162419  0.129135  1
  C  C27  1  0.533284  0.662419  0.870865  1
  C  C28  1  0.466716  0.337581  0.129135  1
  C  C29  1  0.708446  0.837581  0.870865  1
