# generated using pymatgen
data_BaMnO3
_symmetry_space_group_name_H-M   'P 1'
_cell_length_a   5.77248939
_cell_length_b   5.77248939
_cell_length_c   19.26893214
_cell_angle_alpha   90.00000000
_cell_angle_beta   90.00000000
_cell_angle_gamma   120.00000000
_symmetry_Int_Tables_number   1
_chemical_formula_structural   BaMnO3
_chemical_formula_sum   'Ba8 Mn8 O24'
_cell_volume   556.05092251
_cell_formula_units_Z   8
loop_
 _symmetry_equiv_pos_site_id
 _symmetry_equiv_pos_as_xyz
  1  'x, y, z'
loop_
 _atom_site_type_symbol
 _atom_site_label
 _atom_site_symmetry_multiplicity
 _atom_site_fract_x
 _atom_site_fract_y
 _atom_site_fract_z
 _atom_site_occupancy
  Ba  Ba0  1  0.333333  0.666667  0.127197  1
  Ba  Ba1  1  0.666667  0.333333  0.627197  1
  Ba  Ba2  1  0.000000  0.000000  0.250000  1
  Ba  Ba3  1  0.000000  0.000000  0.000000  1
  Ba  Ba4  1  0.333333  0.666667  0.372803  1
  Ba  Ba5  1  0.000000  0.000000  0.750000  1
  Ba  Ba6  1  0.666667  0.333333  0.872803  1
  Ba  Ba7  1  0.000000  0.000000  0.500000  1
  Mn  Mn8  1  0.333333  0.666667  0.815316  1
  Mn  Mn9  1  0.666667  0.333333  0.052723  1
  Mn  Mn10  1  0.333333  0.666667  0.947277  1
  Mn  Mn11  1  0.333333  0.666667  0.552723  1
  Mn  Mn12  1  0.666667  0.333333  0.184684  1
  Mn  Mn13  1  0.333333  0.666667  0.684684  1
  Mn  Mn14  1  0.666667  0.333333  0.315316  1
  Mn  Mn15  1  0.666667  0.333333  0.447277  1
  O  O16  1  0.963924  0.481962  0.250000  1
  O  O17  1  0.500000  0.500000  0.500000  1
  O  O18  1  0.372553  0.186276  0.120530  1
  O  O19  1  0.036076  0.518038  0.750000  1
  O  O20  1  0.813724  0.627447  0.120530  1
  O  O21  1  0.186276  0.372553  0.879470  1
  O  O22  1  0.186276  0.813724  0.879470  1
  O  O23  1  0.627447  0.813724  0.879470  1
  O  O24  1  0.627447  0.813724  0.620530  1
  O  O25  1  0.500000  0.000000  0.500000  1
  O  O26  1  0.481962  0.963924  0.750000  1
  O  O27  1  0.518038  0.036076  0.250000  1
  O  O28  1  0.186276  0.813724  0.620530  1
  O  O29  1  0.186276  0.372553  0.620530  1
  O  O30  1  0.500000  0.000000  0.000000  1
  O  O31  1  0.372553  0.186276  0.379470  1
  O  O32  1  0.481962  0.518038  0.750000  1
  O  O33  1  0.813724  0.186276  0.379470  1
  O  O34  1  0.518038  0.481962  0.250000  1
  O  O35  1  0.000000  0.500000  0.500000  1
  O  O36  1  0.000000  0.500000  0.000000  1
  O  O37  1  0.813724  0.186276  0.120530  1
  O  O38  1  0.813724  0.627447  0.379470  1
  O  O39  1  0.500000  0.500000  0.000000  1
