# generated using pymatgen
data_P2S5
_symmetry_space_group_name_H-M   'P 1'
_cell_length_a   9.67888928
_cell_length_b   9.82382054
_cell_length_c   9.82486748
_cell_angle_alpha   92.89432746
_cell_angle_beta   109.71183722
_cell_angle_gamma   100.66057747
_symmetry_Int_Tables_number   1
_chemical_formula_structural   P2S5
_chemical_formula_sum   'P8 S20'
_cell_volume   857.80483511
_cell_formula_units_Z   4
loop_
 _symmetry_equiv_pos_site_id
 _symmetry_equiv_pos_as_xyz
  1  'x, y, z'
loop_
 _atom_site_type_symbol
 _atom_site_label
 _atom_site_symmetry_multiplicity
 _atom_site_fract_x
 _atom_site_fract_y
 _atom_site_fract_z
 _atom_site_occupancy
  P  P0  1  0.744172  0.187781  0.902533  1
  P  P1  1  0.255828  0.812219  0.097467  1
  P  P2  1  0.077394  0.281371  0.836935  1
  P  P3  1  0.922606  0.718629  0.163065  1
  P  P4  1  0.738331  0.294287  0.570025  1
  P  P5  1  0.261669  0.705713  0.429975  1
  P  P6  1  0.822860  0.974432  0.658925  1
  P  P7  1  0.177140  0.025568  0.341075  1
  S  S8  1  0.653513  0.191186  0.048863  1
  S  S9  1  0.346487  0.808814  0.951137  1
  S  S10  1  0.975422  0.283581  0.996806  1
  S  S11  1  0.024578  0.716419  0.003194  1
  S  S12  1  0.636790  0.296638  0.730341  1
  S  S13  1  0.363210  0.703362  0.269659  1
  S  S14  1  0.721028  0.978367  0.818802  1
  S  S15  1  0.278972  0.021633  0.181198  1
  S  S16  1  0.287214  0.367994  0.923295  1
  S  S17  1  0.712786  0.632006  0.076705  1
  S  S18  1  0.969432  0.391006  0.665731  1
  S  S19  1  0.030568  0.608994  0.334269  1
  S  S20  1  0.053651  0.071717  0.753780  1
  S  S21  1  0.946349  0.928283  0.246220  1
  S  S22  1  0.642255  0.392978  0.413527  1
  S  S23  1  0.357745  0.607022  0.586473  1
  S  S24  1  0.716991  0.084940  0.487661  1
  S  S25  1  0.283009  0.915060  0.512339  1
  S  S26  1  0.801570  0.784307  0.583677  1
  S  S27  1  0.198430  0.215693  0.416323  1
