# generated using pymatgen
data_Na2TiF6
_symmetry_space_group_name_H-M   'P 1'
_cell_length_a   9.32289687
_cell_length_b   9.32289687
_cell_length_c   5.23774772
_cell_angle_alpha   90.00000000
_cell_angle_beta   90.00000000
_cell_angle_gamma   120.00000000
_symmetry_Int_Tables_number   1
_chemical_formula_structural   Na2TiF6
_chemical_formula_sum   'Na6 Ti3 F18'
_cell_volume   394.25478082
_cell_formula_units_Z   3
loop_
 _symmetry_equiv_pos_site_id
 _symmetry_equiv_pos_as_xyz
  1  'x, y, z'
loop_
 _atom_site_type_symbol
 _atom_site_label
 _atom_site_symmetry_multiplicity
 _atom_site_fract_x
 _atom_site_fract_y
 _atom_site_fract_z
 _atom_site_occupancy
  Na  Na0  1  0.624428  0.000000  0.000000  1
  Na  Na1  1  0.375572  0.375572  0.000000  1
  Na  Na2  1  0.289461  0.000000  0.500000  1
  Na  Na3  1  0.000000  0.289461  0.500000  1
  Na  Na4  1  0.710539  0.710539  0.500000  1
  Na  Na5  1  0.000000  0.624428  0.000000  1
  Ti  Ti6  1  0.666667  0.333333  0.506120  1
  Ti  Ti7  1  0.333333  0.666667  0.493880  1
  Ti  Ti8  1  0.000000  0.000000  0.000000  1
  F  F9  1  0.474141  0.253399  0.300780  1
  F  F10  1  0.192764  0.107097  0.793988  1
  F  F11  1  0.453818  0.595621  0.287294  1
  F  F12  1  0.253399  0.474141  0.699220  1
  F  F13  1  0.141803  0.546182  0.287294  1
  F  F14  1  0.807236  0.914333  0.206012  1
  F  F15  1  0.085667  0.892903  0.206012  1
  F  F16  1  0.914333  0.807236  0.793988  1
  F  F17  1  0.107097  0.192764  0.206012  1
  F  F18  1  0.220742  0.746601  0.699220  1
  F  F19  1  0.892903  0.085667  0.793988  1
  F  F20  1  0.595621  0.453818  0.712706  1
  F  F21  1  0.404379  0.858197  0.287294  1
  F  F22  1  0.779258  0.525859  0.300780  1
  F  F23  1  0.546182  0.141803  0.712706  1
  F  F24  1  0.858197  0.404379  0.712706  1
  F  F25  1  0.746601  0.220742  0.300780  1
  F  F26  1  0.525859  0.779258  0.699220  1
