# generated using pymatgen
data_Na2Pd(NO3)4
_symmetry_space_group_name_H-M   'P 1'
_cell_length_a   7.23896485
_cell_length_b   7.96496401
_cell_length_c   9.15966251
_cell_angle_alpha   90.00000000
_cell_angle_beta   91.76681065
_cell_angle_gamma   90.00000000
_symmetry_Int_Tables_number   1
_chemical_formula_structural   Na2Pd(NO3)4
_chemical_formula_sum   'Na4 Pd2 N8 O24'
_cell_volume   527.87760718
_cell_formula_units_Z   2
loop_
 _symmetry_equiv_pos_site_id
 _symmetry_equiv_pos_as_xyz
  1  'x, y, z'
loop_
 _atom_site_type_symbol
 _atom_site_label
 _atom_site_symmetry_multiplicity
 _atom_site_fract_x
 _atom_site_fract_y
 _atom_site_fract_z
 _atom_site_occupancy
  Na  Na0  1  0.223052  0.063641  0.617935  1
  Na  Na1  1  0.776948  0.936359  0.382065  1
  Na  Na2  1  0.223052  0.436359  0.117935  1
  Na  Na3  1  0.776948  0.563641  0.882065  1
  Pd  Pd4  1  0.500000  0.000000  0.000000  1
  Pd  Pd5  1  0.500000  0.500000  0.500000  1
  N  N6  1  0.645674  0.894875  0.722754  1
  N  N7  1  0.645674  0.605125  0.222754  1
  N  N8  1  0.817249  0.287073  0.564355  1
  N  N9  1  0.354326  0.105125  0.277246  1
  N  N10  1  0.182751  0.787073  0.935645  1
  N  N11  1  0.182751  0.712927  0.435645  1
  N  N12  1  0.354326  0.394875  0.777246  1
  N  N13  1  0.817249  0.212927  0.064355  1
  O  O14  1  0.353040  0.147375  0.137112  1
  O  O15  1  0.151989  0.893153  0.839155  1
  O  O16  1  0.552336  0.017001  0.679044  1
  O  O17  1  0.322400  0.695039  0.530382  1
  O  O18  1  0.848011  0.393153  0.660845  1
  O  O19  1  0.912542  0.342558  0.047672  1
  O  O20  1  0.353040  0.352625  0.637112  1
  O  O21  1  0.447664  0.982999  0.320956  1
  O  O22  1  0.741984  0.694398  0.143653  1
  O  O23  1  0.677600  0.195039  0.969618  1
  O  O24  1  0.741984  0.805602  0.643653  1
  O  O25  1  0.848011  0.106847  0.160845  1
  O  O26  1  0.322400  0.804961  0.030382  1
  O  O27  1  0.552336  0.482999  0.179044  1
  O  O28  1  0.646960  0.647375  0.362888  1
  O  O29  1  0.151989  0.606847  0.339155  1
  O  O30  1  0.677600  0.304961  0.469618  1
  O  O31  1  0.646960  0.852625  0.862888  1
  O  O32  1  0.087458  0.657442  0.952328  1
  O  O33  1  0.258016  0.194398  0.356347  1
  O  O34  1  0.447664  0.517001  0.820956  1
  O  O35  1  0.912542  0.157442  0.547672  1
  O  O36  1  0.087458  0.842558  0.452328  1
  O  O37  1  0.258016  0.305602  0.856347  1
