# generated using pymatgen
data_HfGeTe4
_symmetry_space_group_name_H-M   'P 1'
_cell_length_a   8.52705013
_cell_length_b   8.52705013
_cell_length_c   11.10876690
_cell_angle_alpha   90.00000000
_cell_angle_beta   90.00000000
_cell_angle_gamma   152.73867439
_symmetry_Int_Tables_number   1
_chemical_formula_structural   HfGeTe4
_chemical_formula_sum   'Hf2 Ge2 Te8'
_cell_volume   369.97811012
_cell_formula_units_Z   2
loop_
 _symmetry_equiv_pos_site_id
 _symmetry_equiv_pos_as_xyz
  1  'x, y, z'
loop_
 _atom_site_type_symbol
 _atom_site_label
 _atom_site_symmetry_multiplicity
 _atom_site_fract_x
 _atom_site_fract_y
 _atom_site_fract_z
 _atom_site_occupancy
  Hf  Hf0  1  0.653158  0.346842  0.272025  1
  Hf  Hf1  1  0.346842  0.653158  0.772025  1
  Ge  Ge2  1  0.771229  0.228771  0.460915  1
  Ge  Ge3  1  0.228771  0.771229  0.960915  1
  Te  Te4  1  0.725295  0.274705  0.698329  1
  Te  Te5  1  0.621677  0.378323  0.000952  1
  Te  Te6  1  0.274705  0.725295  0.198329  1
  Te  Te7  1  0.022201  0.977799  0.241068  1
  Te  Te8  1  0.896456  0.103544  0.958871  1
  Te  Te9  1  0.103544  0.896456  0.458871  1
  Te  Te10  1  0.977799  0.022201  0.741068  1
  Te  Te11  1  0.378323  0.621677  0.500952  1
