# generated using pymatgen
data_CaNiAsHO5
_symmetry_space_group_name_H-M   'P 1'
_cell_length_a   5.99951845
_cell_length_b   7.52679727
_cell_length_c   9.01506217
_cell_angle_alpha   90.00000000
_cell_angle_beta   90.00000000
_cell_angle_gamma   90.00000000
_symmetry_Int_Tables_number   1
_chemical_formula_structural   CaNiAsHO5
_chemical_formula_sum   'Ca4 Ni4 As4 H4 O20'
_cell_volume   407.09459662
_cell_formula_units_Z   4
loop_
 _symmetry_equiv_pos_site_id
 _symmetry_equiv_pos_as_xyz
  1  'x, y, z'
loop_
 _atom_site_type_symbol
 _atom_site_label
 _atom_site_symmetry_multiplicity
 _atom_site_fract_x
 _atom_site_fract_y
 _atom_site_fract_z
 _atom_site_occupancy
  Ca  Ca0  1  0.474789  0.372442  0.173274  1
  Ca  Ca1  1  0.974789  0.127558  0.826726  1
  Ca  Ca2  1  0.525211  0.872442  0.326726  1
  Ca  Ca3  1  0.025211  0.627558  0.673274  1
  Ni  Ni4  1  0.256684  0.242520  0.503602  1
  Ni  Ni5  1  0.756684  0.257480  0.496398  1
  Ni  Ni6  1  0.743316  0.742520  0.996398  1
  Ni  Ni7  1  0.243316  0.757480  0.003602  1
  As  As8  1  0.016691  0.120681  0.179529  1
  As  As9  1  0.516691  0.379319  0.820471  1
  As  As10  1  0.983309  0.620681  0.320471  1
  As  As11  1  0.483309  0.879319  0.679529  1
  H  H12  1  0.011837  0.489690  0.981503  1
  H  H13  1  0.511837  0.010310  0.018497  1
  H  H14  1  0.988163  0.989690  0.518497  1
  H  H15  1  0.488163  0.510310  0.481503  1
  O  O16  1  0.989975  0.939288  0.059982  1
  O  O17  1  0.489975  0.560712  0.940018  1
  O  O18  1  0.010025  0.439288  0.440018  1
  O  O19  1  0.510025  0.060712  0.559982  1
  O  O20  1  0.086883  0.288937  0.059251  1
  O  O21  1  0.586883  0.211063  0.940749  1
  O  O22  1  0.913117  0.788937  0.440749  1
  O  O23  1  0.413117  0.711063  0.559251  1
  O  O24  1  0.767594  0.148112  0.273511  1
  O  O25  1  0.267594  0.351888  0.726489  1
  O  O26  1  0.232406  0.648112  0.226489  1
  O  O27  1  0.732406  0.851888  0.773511  1
  O  O28  1  0.246842  0.108423  0.294992  1
  O  O29  1  0.746842  0.391577  0.705008  1
  O  O30  1  0.753158  0.608423  0.205008  1
  O  O31  1  0.253158  0.891577  0.794992  1
  O  O32  1  0.498626  0.396383  0.427022  1
  O  O33  1  0.998626  0.103617  0.572978  1
  O  O34  1  0.501374  0.896383  0.072978  1
  O  O35  1  0.001374  0.603617  0.927022  1
