# generated using pymatgen
data_NaCu(IO3)3
_symmetry_space_group_name_H-M   'P 1'
_cell_length_a   7.40736847
_cell_length_b   7.89768579
_cell_length_c   8.31379012
_cell_angle_alpha   70.35897117
_cell_angle_beta   73.09093783
_cell_angle_gamma   80.82790325
_symmetry_Int_Tables_number   1
_chemical_formula_structural   NaCu(IO3)3
_chemical_formula_sum   'Na2 Cu2 I6 O18'
_cell_volume   437.23755782
_cell_formula_units_Z   2
loop_
 _symmetry_equiv_pos_site_id
 _symmetry_equiv_pos_as_xyz
  1  'x, y, z'
loop_
 _atom_site_type_symbol
 _atom_site_label
 _atom_site_symmetry_multiplicity
 _atom_site_fract_x
 _atom_site_fract_y
 _atom_site_fract_z
 _atom_site_occupancy
  Na  Na0  1  0.692911  0.790032  0.864366  1
  Na  Na1  1  0.307089  0.209968  0.135634  1
  Cu  Cu2  1  0.000000  0.000000  0.500000  1
  Cu  Cu3  1  0.000000  0.000000  0.000000  1
  I  I4  1  0.297506  0.219319  0.592269  1
  I  I5  1  0.702494  0.780681  0.407731  1
  I  I6  1  0.265671  0.732027  0.237012  1
  I  I7  1  0.238594  0.640333  0.791822  1
  I  I8  1  0.761406  0.359667  0.208178  1
  I  I9  1  0.734329  0.267973  0.762988  1
  O  O10  1  0.451215  0.770098  0.706700  1
  O  O11  1  0.475745  0.292128  0.820535  1
  O  O12  1  0.705149  0.537862  0.488217  1
  O  O13  1  0.770173  0.454901  0.972287  1
  O  O14  1  0.229827  0.545099  0.027713  1
  O  O15  1  0.524255  0.707872  0.179465  1
  O  O16  1  0.157616  0.195435  0.448849  1
  O  O17  1  0.842384  0.804565  0.551151  1
  O  O18  1  0.762235  0.139592  0.603312  1
  O  O19  1  0.251218  0.936303  0.044620  1
  O  O20  1  0.237765  0.860408  0.396688  1
  O  O21  1  0.945410  0.174050  0.205717  1
  O  O22  1  0.905779  0.789481  0.209398  1
  O  O23  1  0.094221  0.210519  0.790602  1
  O  O24  1  0.548785  0.229902  0.293300  1
  O  O25  1  0.748782  0.063697  0.955380  1
  O  O26  1  0.054590  0.825950  0.794283  1
  O  O27  1  0.294851  0.462138  0.511783  1
