# generated using pymatgen
data_S
_symmetry_space_group_name_H-M   'P 1'
_cell_length_a   6.05936923
_cell_length_b   10.34384162
_cell_length_c   15.54443518
_cell_angle_alpha   95.13797303
_cell_angle_beta   97.95035416
_cell_angle_gamma   100.77510776
_symmetry_Int_Tables_number   1
_chemical_formula_structural   S
_chemical_formula_sum   S28
_cell_volume   941.21062897
_cell_formula_units_Z   28
loop_
 _symmetry_equiv_pos_site_id
 _symmetry_equiv_pos_as_xyz
  1  'x, y, z'
loop_
 _atom_site_type_symbol
 _atom_site_label
 _atom_site_symmetry_multiplicity
 _atom_site_fract_x
 _atom_site_fract_y
 _atom_site_fract_z
 _atom_site_occupancy
  S  S0  1  0.087959  0.436421  0.723528  1
  S  S1  1  0.583033  0.049485  0.675418  1
  S  S2  1  0.305638  0.627335  0.916851  1
  S  S3  1  0.714907  0.323203  0.468844  1
  S  S4  1  0.016424  0.700731  0.931239  1
  S  S5  1  0.202355  0.435958  0.854907  1
  S  S6  1  0.912041  0.563579  0.276472  1
  S  S7  1  0.983576  0.299269  0.068761  1
  S  S8  1  0.124072  0.806842  0.595693  1
  S  S9  1  0.882341  0.988043  0.111953  1
  S  S10  1  0.875928  0.193158  0.404307  1
  S  S11  1  0.477056  0.835953  0.218109  1
  S  S12  1  0.694362  0.372665  0.083149  1
  S  S13  1  0.974455  0.820678  0.833245  1
  S  S14  1  0.659370  0.573794  0.352036  1
  S  S15  1  0.522944  0.164047  0.781891  1
  S  S16  1  0.025545  0.179322  0.166755  1
  S  S17  1  0.285093  0.676797  0.531156  1
  S  S18  1  0.536483  0.947311  0.116938  1
  S  S19  1  0.497601  0.613436  0.627119  1
  S  S20  1  0.710272  0.004423  0.416253  1
  S  S21  1  0.117659  0.011957  0.888047  1
  S  S22  1  0.289728  0.995577  0.583747  1
  S  S23  1  0.340630  0.426206  0.647964  1
  S  S24  1  0.416967  0.950515  0.324582  1
  S  S25  1  0.797645  0.564042  0.145093  1
  S  S26  1  0.463517  0.052689  0.883062  1
  S  S27  1  0.502399  0.386564  0.372881  1
