# generated using pymatgen
data_Zn2SeCl2O3
_symmetry_space_group_name_H-M   'P 1'
_cell_length_a   7.81274013
_cell_length_b   10.44493786
_cell_length_c   7.90368677
_cell_angle_alpha   90.00000000
_cell_angle_beta   99.45114728
_cell_angle_gamma   90.00000000
_symmetry_Int_Tables_number   1
_chemical_formula_structural   Zn2SeCl2O3
_chemical_formula_sum   'Zn8 Se4 Cl8 O12'
_cell_volume   636.21434526
_cell_formula_units_Z   4
loop_
 _symmetry_equiv_pos_site_id
 _symmetry_equiv_pos_as_xyz
  1  'x, y, z'
loop_
 _atom_site_type_symbol
 _atom_site_label
 _atom_site_symmetry_multiplicity
 _atom_site_fract_x
 _atom_site_fract_y
 _atom_site_fract_z
 _atom_site_occupancy
  Zn  Zn0  1  0.106172  0.010723  0.773105  1
  Zn  Zn1  1  0.125344  0.278567  0.083378  1
  Zn  Zn2  1  0.393828  0.510723  0.226895  1
  Zn  Zn3  1  0.374656  0.778567  0.916622  1
  Zn  Zn4  1  0.893828  0.989277  0.226895  1
  Zn  Zn5  1  0.874656  0.721433  0.916622  1
  Zn  Zn6  1  0.625344  0.221433  0.083378  1
  Zn  Zn7  1  0.606172  0.489277  0.773105  1
  Se  Se8  1  0.687413  0.967462  0.816464  1
  Se  Se9  1  0.187413  0.532538  0.816464  1
  Se  Se10  1  0.812587  0.467462  0.183536  1
  Se  Se11  1  0.312587  0.032538  0.183536  1
  Cl  Cl12  1  0.537941  0.281165  0.780459  1
  Cl  Cl13  1  0.037941  0.218835  0.780459  1
  Cl  Cl14  1  0.241834  0.403028  0.395475  1
  Cl  Cl15  1  0.258166  0.903028  0.604525  1
  Cl  Cl16  1  0.462059  0.718835  0.219541  1
  Cl  Cl17  1  0.758166  0.596972  0.604525  1
  Cl  Cl18  1  0.962059  0.781165  0.219541  1
  Cl  Cl19  1  0.741834  0.096972  0.395475  1
  O  O20  1  0.721425  0.046897  0.014558  1
  O  O21  1  0.121396  0.682021  0.877538  1
  O  O22  1  0.105558  0.091175  0.192109  1
  O  O23  1  0.278575  0.953103  0.985442  1
  O  O24  1  0.605558  0.408825  0.192109  1
  O  O25  1  0.778575  0.546897  0.985442  1
  O  O26  1  0.221425  0.453103  0.014558  1
  O  O27  1  0.878604  0.317979  0.122462  1
  O  O28  1  0.394442  0.591175  0.807891  1
  O  O29  1  0.378604  0.182021  0.122462  1
  O  O30  1  0.894442  0.908825  0.807891  1
  O  O31  1  0.621396  0.817979  0.877538  1
