# generated using pymatgen
data_Nb2CoO6
_symmetry_space_group_name_H-M   'P 1'
_cell_length_a   5.09799879
_cell_length_b   5.83211382
_cell_length_c   14.33002582
_cell_angle_alpha   90.00000000
_cell_angle_beta   90.00000000
_cell_angle_gamma   90.00000000
_symmetry_Int_Tables_number   1
_chemical_formula_structural   Nb2CoO6
_chemical_formula_sum   'Nb8 Co4 O24'
_cell_volume   426.06189248
_cell_formula_units_Z   4
loop_
 _symmetry_equiv_pos_site_id
 _symmetry_equiv_pos_as_xyz
  1  'x, y, z'
loop_
 _atom_site_type_symbol
 _atom_site_label
 _atom_site_symmetry_multiplicity
 _atom_site_fract_x
 _atom_site_fract_y
 _atom_site_fract_z
 _atom_site_occupancy
  Nb  Nb0  1  0.255782  0.681573  0.159651  1
  Nb  Nb1  1  0.755782  0.818427  0.340349  1
  Nb  Nb2  1  0.244218  0.681573  0.840349  1
  Nb  Nb3  1  0.744218  0.818427  0.659651  1
  Nb  Nb4  1  0.744218  0.318427  0.840349  1
  Nb  Nb5  1  0.244218  0.181573  0.659651  1
  Nb  Nb6  1  0.755782  0.318427  0.159651  1
  Nb  Nb7  1  0.255782  0.181573  0.340349  1
  Co  Co8  1  0.750000  0.844134  0.000000  1
  Co  Co9  1  0.250000  0.655866  0.500000  1
  Co  Co10  1  0.250000  0.155866  0.000000  1
  Co  Co11  1  0.750000  0.344134  0.500000  1
  O  O12  1  0.580929  0.607294  0.095587  1
  O  O13  1  0.080929  0.892706  0.404413  1
  O  O14  1  0.919071  0.607294  0.904413  1
  O  O15  1  0.419071  0.892706  0.595587  1
  O  O16  1  0.419071  0.392706  0.904413  1
  O  O17  1  0.919071  0.107294  0.595587  1
  O  O18  1  0.080929  0.392706  0.095587  1
  O  O19  1  0.580929  0.107294  0.404413  1
  O  O20  1  0.092721  0.880489  0.078256  1
  O  O21  1  0.592721  0.619511  0.421744  1
  O  O22  1  0.407279  0.880489  0.921744  1
  O  O23  1  0.907279  0.619511  0.578256  1
  O  O24  1  0.907279  0.119511  0.921744  1
  O  O25  1  0.407279  0.380489  0.578256  1
  O  O26  1  0.592721  0.119511  0.078256  1
  O  O27  1  0.092721  0.380489  0.421744  1
  O  O28  1  0.426456  0.875894  0.255173  1
  O  O29  1  0.926456  0.624106  0.244827  1
  O  O30  1  0.073544  0.875894  0.744827  1
  O  O31  1  0.573544  0.624106  0.755173  1
  O  O32  1  0.573544  0.124106  0.744827  1
  O  O33  1  0.073544  0.375894  0.755173  1
  O  O34  1  0.926456  0.124106  0.255173  1
  O  O35  1  0.426456  0.375894  0.244827  1
