# generated using pymatgen
data_Fe2P2H9NO11
_symmetry_space_group_name_H-M   'P 1'
_cell_length_a   9.93411210
_cell_length_b   9.80683696
_cell_length_c   12.37384009
_cell_angle_alpha   90.00000000
_cell_angle_beta   127.85517529
_cell_angle_gamma   90.00000000
_symmetry_Int_Tables_number   1
_chemical_formula_structural   Fe2P2H9NO11
_chemical_formula_sum   'Fe8 P8 H36 N4 O44'
_cell_volume   951.80960245
_cell_formula_units_Z   4
loop_
 _symmetry_equiv_pos_site_id
 _symmetry_equiv_pos_as_xyz
  1  'x, y, z'
loop_
 _atom_site_type_symbol
 _atom_site_label
 _atom_site_symmetry_multiplicity
 _atom_site_fract_x
 _atom_site_fract_y
 _atom_site_fract_z
 _atom_site_occupancy
  Fe  Fe0  1  0.792057  0.264950  0.189485  1
  Fe  Fe1  1  0.207943  0.764950  0.310515  1
  Fe  Fe2  1  0.207943  0.735050  0.810515  1
  Fe  Fe3  1  0.792057  0.235050  0.689485  1
  Fe  Fe4  1  0.486178  0.043296  0.870817  1
  Fe  Fe5  1  0.513822  0.543296  0.629183  1
  Fe  Fe6  1  0.513822  0.956704  0.129183  1
  Fe  Fe7  1  0.486178  0.456704  0.370817  1
  P  P8  1  0.664919  0.319360  0.872343  1
  P  P9  1  0.335081  0.819360  0.627657  1
  P  P10  1  0.335081  0.680640  0.127657  1
  P  P11  1  0.664919  0.180640  0.372343  1
  P  P12  1  0.847911  0.958448  0.145810  1
  P  P13  1  0.152089  0.458448  0.354190  1
  P  P14  1  0.152089  0.041552  0.854190  1
  P  P15  1  0.847911  0.541552  0.645810  1
  H  H16  1  0.171028  0.352013  0.898161  1
  H  H17  1  0.828972  0.852013  0.601839  1
  H  H18  1  0.828972  0.647987  0.101839  1
  H  H19  1  0.171028  0.147987  0.398161  1
  H  H20  1  0.317914  0.415298  0.041972  1
  H  H21  1  0.682086  0.915298  0.458028  1
  H  H22  1  0.682086  0.584702  0.958028  1
  H  H23  1  0.317914  0.084702  0.541972  1
  H  H24  1  0.170377  0.223084  0.669075  1
  H  H25  1  0.829623  0.723084  0.830925  1
  H  H26  1  0.829623  0.776916  0.330925  1
  H  H27  1  0.170377  0.276916  0.169075  1
  H  H28  1  0.999803  0.268855  0.506422  1
  H  H29  1  0.000197  0.768855  0.993578  1
  H  H30  1  0.000197  0.731145  0.493578  1
  H  H31  1  0.999803  0.231145  0.006422  1
  H  H32  1  0.585216  0.472535  0.186733  1
  H  H33  1  0.414784  0.972535  0.313267  1
  H  H34  1  0.414784  0.527465  0.813267  1
  H  H35  1  0.585216  0.027465  0.686733  1
  H  H36  1  0.331434  0.478941  0.886735  1
  H  H37  1  0.668566  0.978941  0.613265  1
  H  H38  1  0.668566  0.521059  0.113265  1
  H  H39  1  0.331434  0.021059  0.386735  1
  H  H40  1  0.183237  0.360121  0.588533  1
  H  H41  1  0.816763  0.860121  0.911467  1
  H  H42  1  0.816763  0.639879  0.411467  1
  H  H43  1  0.183237  0.139879  0.088533  1
  H  H44  1  0.059823  0.363419  0.642074  1
  H  H45  1  0.940177  0.863419  0.857926  1
  H  H46  1  0.940177  0.636581  0.357926  1
  H  H47  1  0.059823  0.136581  0.142074  1
  H  H48  1  0.465639  0.295706  0.528046  1
  H  H49  1  0.534361  0.795706  0.971954  1
  H  H50  1  0.534361  0.704294  0.471954  1
  H  H51  1  0.465639  0.204294  0.028046  1
  N  N52  1  0.105480  0.304292  0.601465  1
  N  N53  1  0.894520  0.804292  0.898535  1
  N  N54  1  0.894520  0.695708  0.398535  1
  N  N55  1  0.105480  0.195708  0.101465  1
  O  O56  1  0.295622  0.361726  0.964882  1
  O  O57  1  0.704378  0.861726  0.535118  1
  O  O58  1  0.704378  0.638274  0.035118  1
  O  O59  1  0.295622  0.138274  0.464882  1
  O  O60  1  0.275466  0.473445  0.513739  1
  O  O61  1  0.724534  0.973445  0.986261  1
  O  O62  1  0.724534  0.526555  0.486261  1
  O  O63  1  0.275466  0.026555  0.013739  1
  O  O64  1  0.666834  0.447716  0.169296  1
  O  O65  1  0.333166  0.947716  0.330704  1
  O  O66  1  0.333166  0.552284  0.830704  1
  O  O67  1  0.666834  0.052284  0.669296  1
  O  O68  1  0.518833  0.285860  0.307609  1
  O  O69  1  0.481167  0.785860  0.192391  1
  O  O70  1  0.481167  0.714140  0.692391  1
  O  O71  1  0.518833  0.214140  0.807609  1
  O  O72  1  0.764853  0.331638  0.027795  1
  O  O73  1  0.235147  0.831638  0.472205  1
  O  O74  1  0.235147  0.668362  0.972205  1
  O  O75  1  0.764853  0.168362  0.527795  1
  O  O76  1  0.929779  0.400466  0.711096  1
  O  O77  1  0.070221  0.900466  0.788904  1
  O  O78  1  0.070221  0.599534  0.288904  1
  O  O79  1  0.929779  0.099534  0.211096  1
  O  O80  1  0.794200  0.281701  0.846229  1
  O  O81  1  0.205800  0.781701  0.653771  1
  O  O82  1  0.205800  0.718299  0.153771  1
  O  O83  1  0.794200  0.218299  0.346229  1
  O  O84  1  0.561423  0.358674  0.560382  1
  O  O85  1  0.438577  0.858674  0.939618  1
  O  O86  1  0.438577  0.641326  0.439618  1
  O  O87  1  0.561423  0.141326  0.060382  1
  O  O88  1  0.582847  0.462007  0.806614  1
  O  O89  1  0.417153  0.962007  0.693386  1
  O  O90  1  0.417153  0.537993  0.193386  1
  O  O91  1  0.582847  0.037993  0.306614  1
  O  O92  1  0.015107  0.355745  0.319828  1
  O  O93  1  0.984893  0.855745  0.180172  1
  O  O94  1  0.984893  0.644255  0.680172  1
  O  O95  1  0.015107  0.144255  0.819828  1
  O  O96  1  0.250900  0.406487  0.301572  1
  O  O97  1  0.749100  0.906487  0.198428  1
  O  O98  1  0.749100  0.593513  0.698428  1
  O  O99  1  0.250900  0.093513  0.801572  1
