# generated using pymatgen
data_K2Mo3(AsO5)4
_symmetry_space_group_name_H-M   'P 1'
_cell_length_a   10.04204204
_cell_length_b   10.04204204
_cell_length_c   12.33041619
_cell_angle_alpha   69.56766923
_cell_angle_beta   110.43233077
_cell_angle_gamma   125.99504832
_symmetry_Int_Tables_number   1
_chemical_formula_structural   K2Mo3(AsO5)4
_chemical_formula_sum   'K4 Mo6 As8 O40'
_cell_volume   925.58346234
_cell_formula_units_Z   2
loop_
 _symmetry_equiv_pos_site_id
 _symmetry_equiv_pos_as_xyz
  1  'x, y, z'
loop_
 _atom_site_type_symbol
 _atom_site_label
 _atom_site_symmetry_multiplicity
 _atom_site_fract_x
 _atom_site_fract_y
 _atom_site_fract_z
 _atom_site_occupancy
  K  K0  1  0.348426  0.156528  0.100597  1
  K  K1  1  0.156528  0.348426  0.399403  1
  K  K2  1  0.843472  0.651574  0.600597  1
  K  K3  1  0.651574  0.843472  0.899403  1
  Mo  Mo4  1  0.669211  0.332042  0.860541  1
  Mo  Mo5  1  0.332042  0.669211  0.639459  1
  Mo  Mo6  1  0.074247  0.074247  0.750000  1
  Mo  Mo7  1  0.330789  0.667958  0.139459  1
  Mo  Mo8  1  0.667958  0.330789  0.360541  1
  Mo  Mo9  1  0.925753  0.925753  0.250000  1
  As  As10  1  0.706931  0.987348  0.538527  1
  As  As11  1  0.978840  0.339653  0.769395  1
  As  As12  1  0.660347  0.021160  0.269395  1
  As  As13  1  0.012652  0.293069  0.038527  1
  As  As14  1  0.293069  0.012652  0.461473  1
  As  As15  1  0.987348  0.706931  0.961473  1
  As  As16  1  0.339653  0.978840  0.730605  1
  As  As17  1  0.021160  0.660347  0.230605  1
  O  O18  1  0.143414  0.924597  0.737101  1
  O  O19  1  0.226972  0.160133  0.868090  1
  O  O20  1  0.204688  0.803783  0.513146  1
  O  O21  1  0.406610  0.568271  0.265414  1
  O  O22  1  0.504847  0.906249  0.165573  1
  O  O23  1  0.431729  0.593390  0.765414  1
  O  O24  1  0.340706  0.804174  0.755242  1
  O  O25  1  0.196217  0.795312  0.013146  1
  O  O26  1  0.109627  0.381177  0.910654  1
  O  O27  1  0.924597  0.143414  0.762899  1
  O  O28  1  0.839867  0.773028  0.368090  1
  O  O29  1  0.795312  0.196217  0.486854  1
  O  O30  1  0.803783  0.204688  0.986854  1
  O  O31  1  0.075403  0.856586  0.237101  1
  O  O32  1  0.160133  0.226972  0.631910  1
  O  O33  1  0.843045  0.926648  0.625623  1
  O  O34  1  0.495153  0.093751  0.834427  1
  O  O35  1  0.093751  0.495153  0.665573  1
  O  O36  1  0.455335  0.098330  0.391224  1
  O  O37  1  0.098330  0.455335  0.108776  1
  O  O38  1  0.890373  0.618823  0.089346  1
  O  O39  1  0.773028  0.839867  0.131910  1
  O  O40  1  0.156955  0.073352  0.374377  1
  O  O41  1  0.659294  0.195826  0.244758  1
  O  O42  1  0.901670  0.544665  0.891224  1
  O  O43  1  0.856586  0.075403  0.262899  1
  O  O44  1  0.674239  0.405537  0.469599  1
  O  O45  1  0.926648  0.843045  0.874377  1
  O  O46  1  0.618823  0.890373  0.410654  1
  O  O47  1  0.568271  0.406610  0.234586  1
  O  O48  1  0.593390  0.431729  0.734586  1
  O  O49  1  0.804174  0.340706  0.744758  1
  O  O50  1  0.073352  0.156955  0.125623  1
  O  O51  1  0.381177  0.109627  0.589346  1
  O  O52  1  0.325761  0.594463  0.530401  1
  O  O53  1  0.544665  0.901670  0.608776  1
  O  O54  1  0.594463  0.325761  0.969599  1
  O  O55  1  0.195826  0.659294  0.255242  1
  O  O56  1  0.405537  0.674239  0.030401  1
  O  O57  1  0.906249  0.504847  0.334427  1
