# generated using pymatgen
data_K3Nb(SO4)4
_symmetry_space_group_name_H-M   'P 1'
_cell_length_a   8.15948891
_cell_length_b   12.75518084
_cell_length_c   14.88765038
_cell_angle_alpha   90.00000000
_cell_angle_beta   90.00000000
_cell_angle_gamma   90.00000000
_symmetry_Int_Tables_number   1
_chemical_formula_structural   K3Nb(SO4)4
_chemical_formula_sum   'K12 Nb4 S16 O64'
_cell_volume   1549.44347743
_cell_formula_units_Z   4
loop_
 _symmetry_equiv_pos_site_id
 _symmetry_equiv_pos_as_xyz
  1  'x, y, z'
loop_
 _atom_site_type_symbol
 _atom_site_label
 _atom_site_symmetry_multiplicity
 _atom_site_fract_x
 _atom_site_fract_y
 _atom_site_fract_z
 _atom_site_occupancy
  K  K0  1  0.863272  0.750000  0.931278  1
  K  K1  1  0.363272  0.750000  0.568722  1
  K  K2  1  0.607542  0.486645  0.729184  1
  K  K3  1  0.636728  0.250000  0.431278  1
  K  K4  1  0.107542  0.486645  0.770816  1
  K  K5  1  0.892458  0.986645  0.229184  1
  K  K6  1  0.607542  0.013355  0.729184  1
  K  K7  1  0.392458  0.986645  0.270816  1
  K  K8  1  0.392458  0.513355  0.270816  1
  K  K9  1  0.107542  0.013355  0.770816  1
  K  K10  1  0.136728  0.250000  0.068722  1
  K  K11  1  0.892458  0.513355  0.229184  1
  Nb  Nb12  1  0.148911  0.250000  0.510309  1
  Nb  Nb13  1  0.851089  0.750000  0.489691  1
  Nb  Nb14  1  0.351089  0.750000  0.010309  1
  Nb  Nb15  1  0.648911  0.250000  0.989691  1
  S  S16  1  0.569389  0.750000  0.157801  1
  S  S17  1  0.729981  0.544581  0.474614  1
  S  S18  1  0.877974  0.750000  0.680773  1
  S  S19  1  0.229981  0.544581  0.025386  1
  S  S20  1  0.377974  0.750000  0.819227  1
  S  S21  1  0.930611  0.250000  0.657801  1
  S  S22  1  0.229981  0.955419  0.025386  1
  S  S23  1  0.122026  0.250000  0.319227  1
  S  S24  1  0.622026  0.250000  0.180773  1
  S  S25  1  0.069389  0.750000  0.342199  1
  S  S26  1  0.729981  0.955419  0.474614  1
  S  S27  1  0.430611  0.250000  0.842199  1
  S  S28  1  0.770019  0.044581  0.974614  1
  S  S29  1  0.270019  0.044581  0.525386  1
  S  S30  1  0.770019  0.455419  0.974614  1
  S  S31  1  0.270019  0.455419  0.525386  1
  O  O32  1  0.666479  0.011254  0.551548  1
  O  O33  1  0.883340  0.845503  0.734359  1
  O  O34  1  0.875200  0.346105  0.700121  1
  O  O35  1  0.729728  0.015135  0.391474  1
  O  O36  1  0.510232  0.750000  0.892902  1
  O  O37  1  0.902688  0.910132  0.495342  1
  O  O38  1  0.597312  0.089868  0.995342  1
  O  O39  1  0.616660  0.345503  0.234359  1
  O  O40  1  0.729728  0.484865  0.391474  1
  O  O41  1  0.773400  0.250000  0.118145  1
  O  O42  1  0.356016  0.152083  0.538664  1
  O  O43  1  0.856016  0.347917  0.961336  1
  O  O44  1  0.378472  0.750000  0.150779  1
  O  O45  1  0.895262  0.250000  0.556144  1
  O  O46  1  0.166479  0.011254  0.948452  1
  O  O47  1  0.383340  0.845503  0.765641  1
  O  O48  1  0.104738  0.750000  0.443856  1
  O  O49  1  0.616660  0.154497  0.234359  1
  O  O50  1  0.375200  0.153895  0.799879  1
  O  O51  1  0.770272  0.515135  0.891474  1
  O  O52  1  0.856016  0.152083  0.961336  1
  O  O53  1  0.402688  0.589868  0.004658  1
  O  O54  1  0.270272  0.515135  0.608526  1
  O  O55  1  0.621528  0.250000  0.849221  1
  O  O56  1  0.229728  0.015135  0.108526  1
  O  O57  1  0.770272  0.984865  0.891474  1
  O  O58  1  0.097312  0.410132  0.504658  1
  O  O59  1  0.143984  0.847917  0.038664  1
  O  O60  1  0.666479  0.488746  0.551548  1
  O  O61  1  0.010232  0.750000  0.607098  1
  O  O62  1  0.229728  0.484865  0.108526  1
  O  O63  1  0.097312  0.089868  0.504658  1
  O  O64  1  0.333521  0.511254  0.448452  1
  O  O65  1  0.624800  0.653895  0.200121  1
  O  O66  1  0.270272  0.984865  0.608526  1
  O  O67  1  0.116660  0.345503  0.265641  1
  O  O68  1  0.143984  0.652083  0.038664  1
  O  O69  1  0.643984  0.652083  0.461336  1
  O  O70  1  0.333521  0.988746  0.448452  1
  O  O71  1  0.166479  0.488746  0.948452  1
  O  O72  1  0.726600  0.750000  0.618145  1
  O  O73  1  0.624800  0.846105  0.200121  1
  O  O74  1  0.273400  0.250000  0.381855  1
  O  O75  1  0.395262  0.250000  0.943856  1
  O  O76  1  0.875200  0.153895  0.700121  1
  O  O77  1  0.833521  0.511254  0.051548  1
  O  O78  1  0.121528  0.250000  0.650779  1
  O  O79  1  0.643984  0.847917  0.461336  1
  O  O80  1  0.124800  0.653895  0.299879  1
  O  O81  1  0.116660  0.154497  0.265641  1
  O  O82  1  0.878472  0.750000  0.349221  1
  O  O83  1  0.883340  0.654497  0.734359  1
  O  O84  1  0.604738  0.750000  0.056144  1
  O  O85  1  0.902688  0.589868  0.495342  1
  O  O86  1  0.489768  0.250000  0.107098  1
  O  O87  1  0.356016  0.347917  0.538664  1
  O  O88  1  0.124800  0.846105  0.299879  1
  O  O89  1  0.597312  0.410132  0.995342  1
  O  O90  1  0.226600  0.750000  0.881855  1
  O  O91  1  0.989768  0.250000  0.392902  1
  O  O92  1  0.833521  0.988746  0.051548  1
  O  O93  1  0.375200  0.346105  0.799879  1
  O  O94  1  0.383340  0.654497  0.765641  1
  O  O95  1  0.402688  0.910132  0.004658  1
