# generated using pymatgen
data_KCr2AgO7
_symmetry_space_group_name_H-M   'P 1'
_cell_length_a   5.92934751
_cell_length_b   7.80749370
_cell_length_c   15.48658667
_cell_angle_alpha   90.00000000
_cell_angle_beta   90.00000000
_cell_angle_gamma   90.00000000
_symmetry_Int_Tables_number   1
_chemical_formula_structural   KCr2AgO7
_chemical_formula_sum   'K4 Cr8 Ag4 O28'
_cell_volume   716.92587372
_cell_formula_units_Z   4
loop_
 _symmetry_equiv_pos_site_id
 _symmetry_equiv_pos_as_xyz
  1  'x, y, z'
loop_
 _atom_site_type_symbol
 _atom_site_label
 _atom_site_symmetry_multiplicity
 _atom_site_fract_x
 _atom_site_fract_y
 _atom_site_fract_z
 _atom_site_occupancy
  K  K0  1  0.750000  0.643190  0.788670  1
  K  K1  1  0.750000  0.856810  0.288670  1
  K  K2  1  0.250000  0.356810  0.211330  1
  K  K3  1  0.250000  0.143190  0.711330  1
  Cr  Cr4  1  0.250000  0.803561  0.942774  1
  Cr  Cr5  1  0.750000  0.176439  0.855229  1
  Cr  Cr6  1  0.750000  0.323561  0.355229  1
  Cr  Cr7  1  0.250000  0.696439  0.442774  1
  Cr  Cr8  1  0.250000  0.823561  0.144771  1
  Cr  Cr9  1  0.750000  0.303561  0.557226  1
  Cr  Cr10  1  0.250000  0.676439  0.644771  1
  Cr  Cr11  1  0.750000  0.196439  0.057226  1
  Ag  Ag12  1  0.250000  0.157356  0.451248  1
  Ag  Ag13  1  0.750000  0.657356  0.048752  1
  Ag  Ag14  1  0.250000  0.342644  0.951248  1
  Ag  Ag15  1  0.750000  0.842644  0.548752  1
  O  O16  1  0.022162  0.701347  0.150698  1
  O  O17  1  0.750000  0.434170  0.638455  1
  O  O18  1  0.520853  0.318962  0.056745  1
  O  O19  1  0.477838  0.701347  0.150698  1
  O  O20  1  0.250000  0.967082  0.220504  1
  O  O21  1  0.977838  0.201347  0.349302  1
  O  O22  1  0.979147  0.181038  0.556745  1
  O  O23  1  0.479147  0.681038  0.943255  1
  O  O24  1  0.250000  0.577667  0.540889  1
  O  O25  1  0.250000  0.934170  0.861545  1
  O  O26  1  0.522162  0.201347  0.349302  1
  O  O27  1  0.477838  0.798653  0.650698  1
  O  O28  1  0.750000  0.032918  0.779496  1
  O  O29  1  0.977838  0.298653  0.849302  1
  O  O30  1  0.522162  0.298653  0.849302  1
  O  O31  1  0.479147  0.818962  0.443255  1
  O  O32  1  0.250000  0.532918  0.720504  1
  O  O33  1  0.750000  0.422333  0.459111  1
  O  O34  1  0.750000  0.077667  0.959111  1
  O  O35  1  0.020853  0.818962  0.443255  1
  O  O36  1  0.750000  0.065830  0.138455  1
  O  O37  1  0.750000  0.467082  0.279496  1
  O  O38  1  0.250000  0.922333  0.040889  1
  O  O39  1  0.022162  0.798653  0.650698  1
  O  O40  1  0.979147  0.318962  0.056745  1
  O  O41  1  0.020853  0.681038  0.943255  1
  O  O42  1  0.520853  0.181038  0.556745  1
  O  O43  1  0.250000  0.565830  0.361545  1
