# generated using pymatgen
data_K2MoP2O9
_symmetry_space_group_name_H-M   'P 1'
_cell_length_a   8.13392809
_cell_length_b   8.13392809
_cell_length_c   15.75430856
_cell_angle_alpha   82.38692749
_cell_angle_beta   97.61307251
_cell_angle_gamma   119.47524291
_symmetry_Int_Tables_number   1
_chemical_formula_structural   K2MoP2O9
_chemical_formula_sum   'K8 Mo4 P8 O36'
_cell_volume   896.67082453
_cell_formula_units_Z   4
loop_
 _symmetry_equiv_pos_site_id
 _symmetry_equiv_pos_as_xyz
  1  'x, y, z'
loop_
 _atom_site_type_symbol
 _atom_site_label
 _atom_site_symmetry_multiplicity
 _atom_site_fract_x
 _atom_site_fract_y
 _atom_site_fract_z
 _atom_site_occupancy
  K  K0  1  0.697646  0.986576  0.762702  1
  K  K1  1  0.986576  0.697646  0.737298  1
  K  K2  1  0.302354  0.013424  0.237298  1
  K  K3  1  0.013424  0.302354  0.262702  1
  K  K4  1  0.936644  0.226772  0.525773  1
  K  K5  1  0.226772  0.936644  0.974227  1
  K  K6  1  0.063356  0.773228  0.474227  1
  K  K7  1  0.773228  0.063356  0.025773  1
  Mo  Mo8  1  0.471330  0.244645  0.635862  1
  Mo  Mo9  1  0.244645  0.471330  0.864138  1
  Mo  Mo10  1  0.528670  0.755355  0.364138  1
  Mo  Mo11  1  0.755355  0.528670  0.135862  1
  P  P12  1  0.291194  0.547720  0.655158  1
  P  P13  1  0.547720  0.291194  0.844842  1
  P  P14  1  0.708806  0.452280  0.344842  1
  P  P15  1  0.452280  0.708806  0.155158  1
  P  P16  1  0.658608  0.734275  0.576736  1
  P  P17  1  0.734275  0.658608  0.923264  1
  P  P18  1  0.341392  0.265725  0.423264  1
  P  P19  1  0.265725  0.341392  0.076736  1
  O  O20  1  0.114948  0.557769  0.620841  1
  O  O21  1  0.557769  0.114948  0.879159  1
  O  O22  1  0.885052  0.442231  0.379159  1
  O  O23  1  0.442231  0.885052  0.120841  1
  O  O24  1  0.284122  0.359826  0.644335  1
  O  O25  1  0.359826  0.284122  0.855665  1
  O  O26  1  0.715878  0.640174  0.355665  1
  O  O27  1  0.640174  0.715878  0.144335  1
  O  O28  1  0.820758  0.875772  0.630967  1
  O  O29  1  0.875772  0.820758  0.869033  1
  O  O30  1  0.179242  0.124228  0.369033  1
  O  O31  1  0.124228  0.179242  0.130967  1
  O  O32  1  0.641494  0.536995  0.583887  1
  O  O33  1  0.536995  0.641494  0.916113  1
  O  O34  1  0.358506  0.463005  0.416113  1
  O  O35  1  0.463005  0.358506  0.083887  1
  O  O36  1  0.673624  0.817804  0.481101  1
  O  O37  1  0.817804  0.673624  0.018899  1
  O  O38  1  0.326376  0.182196  0.518899  1
  O  O39  1  0.182196  0.326376  0.981101  1
  O  O40  1  0.462619  0.715737  0.601814  1
  O  O41  1  0.715737  0.462619  0.898186  1
  O  O42  1  0.537381  0.284263  0.398186  1
  O  O43  1  0.284263  0.537381  0.101814  1
  O  O44  1  0.359676  0.604276  0.750183  1
  O  O45  1  0.604276  0.359676  0.749817  1
  O  O46  1  0.640324  0.395724  0.249817  1
  O  O47  1  0.395724  0.640324  0.250183  1
  O  O48  1  0.652308  0.204900  0.613102  1
  O  O49  1  0.204900  0.652308  0.886898  1
  O  O50  1  0.347692  0.795100  0.386898  1
  O  O51  1  0.795100  0.347692  0.113102  1
  O  O52  1  0.317275  0.028574  0.686188  1
  O  O53  1  0.028574  0.317275  0.813812  1
  O  O54  1  0.682725  0.971426  0.313812  1
  O  O55  1  0.971426  0.682725  0.186188  1
