# generated using pymatgen
data_Rb2LiTaS4
_symmetry_space_group_name_H-M   'P 1'
_cell_length_a   7.20433754
_cell_length_b   11.56634369
_cell_length_c   12.06142602
_cell_angle_alpha   71.52676234
_cell_angle_beta   87.61049424
_cell_angle_gamma   83.52163990
_symmetry_Int_Tables_number   1
_chemical_formula_structural   Rb2LiTaS4
_chemical_formula_sum   'Rb8 Li4 Ta4 S16'
_cell_volume   947.15818016
_cell_formula_units_Z   4
loop_
 _symmetry_equiv_pos_site_id
 _symmetry_equiv_pos_as_xyz
  1  'x, y, z'
loop_
 _atom_site_type_symbol
 _atom_site_label
 _atom_site_symmetry_multiplicity
 _atom_site_fract_x
 _atom_site_fract_y
 _atom_site_fract_z
 _atom_site_occupancy
  Rb  Rb0  1  0.683475  0.096941  0.249472  1
  Rb  Rb1  1  0.735312  0.623520  0.723249  1
  Rb  Rb2  1  0.248898  0.845160  0.142529  1
  Rb  Rb3  1  0.751172  0.650507  0.349464  1
  Rb  Rb4  1  0.316525  0.903059  0.750528  1
  Rb  Rb5  1  0.248828  0.349493  0.650536  1
  Rb  Rb6  1  0.264688  0.376480  0.276751  1
  Rb  Rb7  1  0.751102  0.154840  0.857471  1
  Li  Li8  1  0.780620  0.478437  0.071556  1
  Li  Li9  1  0.824213  0.988806  0.585253  1
  Li  Li10  1  0.175787  0.011194  0.414747  1
  Li  Li11  1  0.219380  0.521563  0.928444  1
  Ta  Ta12  1  0.216177  0.230765  0.014541  1
  Ta  Ta13  1  0.776645  0.272512  0.485386  1
  Ta  Ta14  1  0.223355  0.727488  0.514614  1
  Ta  Ta15  1  0.783823  0.769235  0.985459  1
  S  S16  1  0.535148  0.660475  0.994276  1
  S  S17  1  0.967050  0.373070  0.940827  1
  S  S18  1  0.237281  0.621246  0.709883  1
  S  S19  1  0.052678  0.146927  0.531730  1
  S  S20  1  0.266724  0.105772  0.901115  1
  S  S21  1  0.169632  0.117792  0.204941  1
  S  S22  1  0.464852  0.339525  0.005724  1
  S  S23  1  0.830368  0.882208  0.795059  1
  S  S24  1  0.252021  0.600203  0.403188  1
  S  S25  1  0.032950  0.626930  0.059173  1
  S  S26  1  0.762719  0.378754  0.290117  1
  S  S27  1  0.733276  0.894228  0.098885  1
  S  S28  1  0.547468  0.144455  0.531118  1
  S  S29  1  0.452532  0.855545  0.468882  1
  S  S30  1  0.747979  0.399797  0.596812  1
  S  S31  1  0.947322  0.853073  0.468270  1
