# generated using pymatgen
data_Rb2Hg2PdCl8
_symmetry_space_group_name_H-M   'P 1'
_cell_length_a   6.85821828
_cell_length_b   6.85821828
_cell_length_c   10.28368501
_cell_angle_alpha   73.76418096
_cell_angle_beta   106.23581904
_cell_angle_gamma   118.11295521
_symmetry_Int_Tables_number   1
_chemical_formula_structural   Rb2Hg2PdCl8
_chemical_formula_sum   'Rb2 Hg2 Pd1 Cl8'
_cell_volume   403.32359375
_cell_formula_units_Z   1
loop_
 _symmetry_equiv_pos_site_id
 _symmetry_equiv_pos_as_xyz
  1  'x, y, z'
loop_
 _atom_site_type_symbol
 _atom_site_label
 _atom_site_symmetry_multiplicity
 _atom_site_fract_x
 _atom_site_fract_y
 _atom_site_fract_z
 _atom_site_occupancy
  Rb  Rb0  1  0.609025  0.390975  0.836919  1
  Rb  Rb1  1  0.390975  0.609025  0.163081  1
  Hg  Hg2  1  0.132414  0.867586  0.394517  1
  Hg  Hg3  1  0.867586  0.132414  0.605483  1
  Pd  Pd4  1  0.000000  0.000000  0.000000  1
  Cl  Cl5  1  0.920819  0.079181  0.312219  1
  Cl  Cl6  1  0.894092  0.640857  0.132766  1
  Cl  Cl7  1  0.342686  0.657314  0.495861  1
  Cl  Cl8  1  0.640857  0.894092  0.867234  1
  Cl  Cl9  1  0.657314  0.342686  0.504139  1
  Cl  Cl10  1  0.359143  0.105908  0.132766  1
  Cl  Cl11  1  0.105908  0.359143  0.867234  1
  Cl  Cl12  1  0.079181  0.920819  0.687781  1
