# generated using pymatgen
data_ErGeBiO5
_symmetry_space_group_name_H-M   'P 1'
_cell_length_a   5.37333983
_cell_length_b   11.08048663
_cell_length_c   15.42219867
_cell_angle_alpha   90.00000000
_cell_angle_beta   90.00000000
_cell_angle_gamma   90.00000000
_symmetry_Int_Tables_number   1
_chemical_formula_structural   ErGeBiO5
_chemical_formula_sum   'Er8 Ge8 Bi8 O40'
_cell_volume   918.22568173
_cell_formula_units_Z   8
loop_
 _symmetry_equiv_pos_site_id
 _symmetry_equiv_pos_as_xyz
  1  'x, y, z'
loop_
 _atom_site_type_symbol
 _atom_site_label
 _atom_site_symmetry_multiplicity
 _atom_site_fract_x
 _atom_site_fract_y
 _atom_site_fract_z
 _atom_site_occupancy
  Er  Er0  1  0.010217  0.858859  0.553261  1
  Er  Er1  1  0.510217  0.141141  0.946739  1
  Er  Er2  1  0.489783  0.358859  0.446739  1
  Er  Er3  1  0.489783  0.858859  0.053261  1
  Er  Er4  1  0.989783  0.141141  0.446739  1
  Er  Er5  1  0.510217  0.641141  0.553261  1
  Er  Er6  1  0.010217  0.358859  0.946739  1
  Er  Er7  1  0.989783  0.641141  0.053261  1
  Ge  Ge8  1  0.006404  0.403019  0.595417  1
  Ge  Ge9  1  0.993596  0.596981  0.404583  1
  Ge  Ge10  1  0.506404  0.596981  0.904583  1
  Ge  Ge11  1  0.493596  0.903019  0.404583  1
  Ge  Ge12  1  0.993596  0.096981  0.095417  1
  Ge  Ge13  1  0.006404  0.903019  0.904583  1
  Ge  Ge14  1  0.493596  0.403019  0.095417  1
  Ge  Ge15  1  0.506404  0.096981  0.595417  1
  Bi  Bi16  1  0.543095  0.646708  0.237168  1
  Bi  Bi17  1  0.043095  0.353292  0.262832  1
  Bi  Bi18  1  0.543095  0.146708  0.262832  1
  Bi  Bi19  1  0.456905  0.853292  0.737168  1
  Bi  Bi20  1  0.956905  0.146708  0.762832  1
  Bi  Bi21  1  0.456905  0.353292  0.762832  1
  Bi  Bi22  1  0.956905  0.646708  0.737168  1
  Bi  Bi23  1  0.043095  0.853292  0.237168  1
  O  O24  1  0.195087  0.975726  0.126128  1
  O  O25  1  0.249838  0.235014  0.849955  1
  O  O26  1  0.695087  0.524274  0.126128  1
  O  O27  1  0.750162  0.764986  0.150045  1
  O  O28  1  0.198446  0.958738  0.438900  1
  O  O29  1  0.934608  0.670081  0.302465  1
  O  O30  1  0.801554  0.041262  0.561100  1
  O  O31  1  0.934608  0.170081  0.197535  1
  O  O32  1  0.198446  0.458738  0.061100  1
  O  O33  1  0.750162  0.264986  0.349955  1
  O  O34  1  0.801554  0.541262  0.938900  1
  O  O35  1  0.065392  0.829919  0.802465  1
  O  O36  1  0.250162  0.235014  0.349955  1
  O  O37  1  0.856499  0.308608  0.519896  1
  O  O38  1  0.856499  0.808608  0.980104  1
  O  O39  1  0.434608  0.329919  0.197535  1
  O  O40  1  0.804913  0.024274  0.873872  1
  O  O41  1  0.749838  0.764986  0.650045  1
  O  O42  1  0.698446  0.041262  0.061100  1
  O  O43  1  0.643501  0.808608  0.480104  1
  O  O44  1  0.749838  0.264986  0.849955  1
  O  O45  1  0.695087  0.024274  0.373872  1
  O  O46  1  0.356499  0.191392  0.519896  1
  O  O47  1  0.249838  0.735014  0.650045  1
  O  O48  1  0.065392  0.329919  0.697535  1
  O  O49  1  0.301554  0.958738  0.938900  1
  O  O50  1  0.643501  0.308608  0.019896  1
  O  O51  1  0.143501  0.191392  0.019896  1
  O  O52  1  0.565392  0.670081  0.802465  1
  O  O53  1  0.304913  0.475726  0.873872  1
  O  O54  1  0.698446  0.541262  0.438900  1
  O  O55  1  0.304913  0.975726  0.626128  1
  O  O56  1  0.301554  0.458738  0.561100  1
  O  O57  1  0.195087  0.475726  0.373872  1
  O  O58  1  0.565392  0.170081  0.697535  1
  O  O59  1  0.804913  0.524274  0.626128  1
  O  O60  1  0.356499  0.691392  0.980104  1
  O  O61  1  0.143501  0.691392  0.480104  1
  O  O62  1  0.434608  0.829919  0.302465  1
  O  O63  1  0.250162  0.735014  0.150045  1
