# generated using pymatgen
data_LiMn(PO3)4
_symmetry_space_group_name_H-M   'P 1'
_cell_length_a   10.34248134
_cell_length_b   10.34248134
_cell_length_c   5.23126539
_cell_angle_alpha   81.39193664
_cell_angle_beta   98.60806336
_cell_angle_gamma   108.35400158
_symmetry_Int_Tables_number   1
_chemical_formula_structural   LiMn(PO3)4
_chemical_formula_sum   'Li2 Mn2 P8 O24'
_cell_volume   521.97923007
_cell_formula_units_Z   2
loop_
 _symmetry_equiv_pos_site_id
 _symmetry_equiv_pos_as_xyz
  1  'x, y, z'
loop_
 _atom_site_type_symbol
 _atom_site_label
 _atom_site_symmetry_multiplicity
 _atom_site_fract_x
 _atom_site_fract_y
 _atom_site_fract_z
 _atom_site_occupancy
  Li  Li0  1  0.425972  0.574028  0.415386  1
  Li  Li1  1  0.574028  0.425972  0.584614  1
  Mn  Mn2  1  1.000000  0.500000  0.000000  1
  Mn  Mn3  1  0.500000  0.000000  0.000000  1
  P  P4  1  0.938306  0.304693  0.516295  1
  P  P5  1  0.695307  0.061694  0.516295  1
  P  P6  1  0.785532  0.632123  0.181175  1
  P  P7  1  0.304693  0.938306  0.483705  1
  P  P8  1  0.214468  0.367877  0.818825  1
  P  P9  1  0.061694  0.695306  0.483705  1
  P  P10  1  0.367877  0.214468  0.181175  1
  P  P11  1  0.632123  0.785532  0.818825  1
  O  O12  1  0.668573  0.073211  0.221799  1
  O  O13  1  0.832495  0.550267  0.016467  1
  O  O14  1  0.073211  0.668573  0.778201  1
  O  O15  1  0.232471  0.232471  0.000000  1
  O  O16  1  0.395572  0.897258  0.336072  1
  O  O17  1  0.146679  0.853321  0.416956  1
  O  O18  1  0.767529  0.767529  0.000000  1
  O  O19  1  0.438413  0.337621  0.318452  1
  O  O20  1  0.897258  0.395572  0.663928  1
  O  O21  1  0.561587  0.662379  0.681548  1
  O  O22  1  0.167505  0.449733  0.983533  1
  O  O23  1  0.926789  0.331427  0.221799  1
  O  O24  1  0.337621  0.438413  0.681548  1
  O  O25  1  0.662379  0.561587  0.318452  1
  O  O26  1  0.294041  0.089002  0.384279  1
  O  O27  1  0.089002  0.294041  0.615721  1
  O  O28  1  0.449733  0.167505  0.016467  1
  O  O29  1  0.853321  0.146679  0.583044  1
  O  O30  1  0.604428  0.102742  0.663928  1
  O  O31  1  0.331427  0.926789  0.778201  1
  O  O32  1  0.910998  0.705959  0.384279  1
  O  O33  1  0.550267  0.832495  0.983533  1
  O  O34  1  0.102742  0.604428  0.336072  1
  O  O35  1  0.705959  0.910998  0.615721  1
