# generated using pymatgen
data_RbGeI3
_symmetry_space_group_name_H-M   'P 1'
_cell_length_a   4.59912902
_cell_length_b   10.41364552
_cell_length_c   17.19098014
_cell_angle_alpha   90.00000000
_cell_angle_beta   90.00000000
_cell_angle_gamma   90.00000000
_symmetry_Int_Tables_number   1
_chemical_formula_structural   RbGeI3
_chemical_formula_sum   'Rb4 Ge4 I12'
_cell_volume   823.33963376
_cell_formula_units_Z   4
loop_
 _symmetry_equiv_pos_site_id
 _symmetry_equiv_pos_as_xyz
  1  'x, y, z'
loop_
 _atom_site_type_symbol
 _atom_site_label
 _atom_site_symmetry_multiplicity
 _atom_site_fract_x
 _atom_site_fract_y
 _atom_site_fract_z
 _atom_site_occupancy
  Rb  Rb0  1  0.994713  0.670111  0.169991  1
  Rb  Rb1  1  0.005287  0.170111  0.330009  1
  Rb  Rb2  1  0.505287  0.329889  0.669991  1
  Rb  Rb3  1  0.494713  0.829889  0.830009  1
  Ge  Ge4  1  0.034011  0.408819  0.937349  1
  Ge  Ge5  1  0.465989  0.591181  0.437349  1
  Ge  Ge6  1  0.534011  0.091181  0.062651  1
  Ge  Ge7  1  0.965989  0.908819  0.562651  1
  I  I8  1  0.011767  0.771652  0.389163  1
  I  I9  1  0.982862  0.920141  0.000117  1
  I  I10  1  0.017138  0.420141  0.499883  1
  I  I11  1  0.511767  0.728348  0.610837  1
  I  I12  1  0.517138  0.079859  0.500117  1
  I  I13  1  0.992007  0.040167  0.708526  1
  I  I14  1  0.488233  0.228348  0.889163  1
  I  I15  1  0.007993  0.540167  0.791474  1
  I  I16  1  0.988233  0.271652  0.110837  1
  I  I17  1  0.482862  0.579859  0.999883  1
  I  I18  1  0.507993  0.959833  0.208526  1
  I  I19  1  0.492007  0.459833  0.291474  1
