# generated using pymatgen
data_Na2MgSi5O12
_symmetry_space_group_name_H-M   'P 1'
_cell_length_a   5.33375984
_cell_length_b   8.73795878
_cell_length_c   9.34515596
_cell_angle_alpha   90.00000000
_cell_angle_beta   104.54542571
_cell_angle_gamma   90.00000000
_symmetry_Int_Tables_number   1
_chemical_formula_structural   Na2MgSi5O12
_chemical_formula_sum   'Na4 Mg2 Si10 O24'
_cell_volume   421.58233074
_cell_formula_units_Z   2
loop_
 _symmetry_equiv_pos_site_id
 _symmetry_equiv_pos_as_xyz
  1  'x, y, z'
loop_
 _atom_site_type_symbol
 _atom_site_label
 _atom_site_symmetry_multiplicity
 _atom_site_fract_x
 _atom_site_fract_y
 _atom_site_fract_z
 _atom_site_occupancy
  Na  Na0  1  0.000000  0.542906  0.250000  1
  Na  Na1  1  0.000000  0.457094  0.750000  1
  Na  Na2  1  0.500000  0.948544  0.250000  1
  Na  Na3  1  0.500000  0.051456  0.750000  1
  Mg  Mg4  1  0.500000  0.346105  0.250000  1
  Mg  Mg5  1  0.500000  0.653895  0.750000  1
  Si  Si6  1  0.301986  0.665649  0.036641  1
  Si  Si7  1  0.180595  0.151351  0.955550  1
  Si  Si8  1  0.819405  0.151351  0.544450  1
  Si  Si9  1  0.301986  0.334351  0.536641  1
  Si  Si10  1  0.819405  0.848649  0.044450  1
  Si  Si11  1  0.698014  0.334351  0.963359  1
  Si  Si12  1  0.180595  0.848649  0.455550  1
  Si  Si13  1  0.000000  0.152114  0.250000  1
  Si  Si14  1  0.698014  0.665649  0.463359  1
  Si  Si15  1  0.000000  0.847886  0.750000  1
  O  O16  1  0.585792  0.246348  0.591425  1
  O  O17  1  0.308555  0.504131  0.598431  1
  O  O18  1  0.414208  0.753652  0.408575  1
  O  O19  1  0.691445  0.504131  0.901569  1
  O  O20  1  0.899256  0.766251  0.387889  1
  O  O21  1  0.200359  0.306336  0.355750  1
  O  O22  1  0.761045  0.156020  0.361936  1
  O  O23  1  0.799641  0.693664  0.644250  1
  O  O24  1  0.200359  0.693664  0.855750  1
  O  O25  1  0.585792  0.753652  0.091425  1
  O  O26  1  0.899256  0.233749  0.887889  1
  O  O27  1  0.414208  0.246348  0.908575  1
  O  O28  1  0.799641  0.306336  0.144250  1
  O  O29  1  0.308555  0.495869  0.098431  1
  O  O30  1  0.238955  0.843980  0.638064  1
  O  O31  1  0.100744  0.233749  0.612111  1
  O  O32  1  0.817641  0.985584  0.624367  1
  O  O33  1  0.182359  0.985584  0.875633  1
  O  O34  1  0.817641  0.014416  0.124367  1
  O  O35  1  0.691445  0.495869  0.401569  1
  O  O36  1  0.182359  0.014416  0.375633  1
  O  O37  1  0.238955  0.156020  0.138064  1
  O  O38  1  0.100744  0.766251  0.112111  1
  O  O39  1  0.761045  0.843980  0.861936  1
