# generated using pymatgen
data_AgBi(PS3)2
_symmetry_space_group_name_H-M   'P 1'
_cell_length_a   6.50043874
_cell_length_b   7.46078285
_cell_length_c   9.92939963
_cell_angle_alpha   94.95830670
_cell_angle_beta   90.93934594
_cell_angle_gamma   95.50041785
_symmetry_Int_Tables_number   1
_chemical_formula_structural   AgBi(PS3)2
_chemical_formula_sum   'Ag2 Bi2 P4 S12'
_cell_volume   477.40061009
_cell_formula_units_Z   2
loop_
 _symmetry_equiv_pos_site_id
 _symmetry_equiv_pos_as_xyz
  1  'x, y, z'
loop_
 _atom_site_type_symbol
 _atom_site_label
 _atom_site_symmetry_multiplicity
 _atom_site_fract_x
 _atom_site_fract_y
 _atom_site_fract_z
 _atom_site_occupancy
  Ag  Ag0  1  0.065151  0.013280  0.303426  1
  Ag  Ag1  1  0.934849  0.986720  0.696574  1
  Bi  Bi2  1  0.529094  0.359211  0.775989  1
  Bi  Bi3  1  0.470906  0.640789  0.224011  1
  P  P4  1  0.942590  0.607086  0.072827  1
  P  P5  1  0.442041  0.884330  0.561180  1
  P  P6  1  0.557959  0.115670  0.438820  1
  P  P7  1  0.057410  0.392914  0.927173  1
  S  S8  1  0.179049  0.812778  0.084245  1
  S  S9  1  0.676589  0.734086  0.594341  1
  S  S10  1  0.127306  0.503371  0.754516  1
  S  S11  1  0.323411  0.265914  0.405659  1
  S  S12  1  0.690040  0.691965  0.978388  1
  S  S13  1  0.672074  0.989717  0.263329  1
  S  S14  1  0.820951  0.187222  0.915755  1
  S  S15  1  0.327926  0.010283  0.736671  1
  S  S16  1  0.872694  0.496629  0.245484  1
  S  S17  1  0.309960  0.308035  0.021612  1
  S  S18  1  0.792075  0.255773  0.553272  1
  S  S19  1  0.207925  0.744227  0.446728  1
