# generated using pymatgen
data_K3NdH6(C2O5)3
_symmetry_space_group_name_H-M   'P 1'
_cell_length_a   8.66358983
_cell_length_b   9.44765878
_cell_length_c   9.94491052
_cell_angle_alpha   98.29556617
_cell_angle_beta   91.38336042
_cell_angle_gamma   95.94498843
_symmetry_Int_Tables_number   1
_chemical_formula_structural   K3NdH6(C2O5)3
_chemical_formula_sum   'K6 Nd2 H12 C12 O30'
_cell_volume   800.51639175
_cell_formula_units_Z   2
loop_
 _symmetry_equiv_pos_site_id
 _symmetry_equiv_pos_as_xyz
  1  'x, y, z'
loop_
 _atom_site_type_symbol
 _atom_site_label
 _atom_site_symmetry_multiplicity
 _atom_site_fract_x
 _atom_site_fract_y
 _atom_site_fract_z
 _atom_site_occupancy
  K  K0  1  0.650357  0.208104  0.696302  1
  K  K1  1  0.955833  0.683685  0.613698  1
  K  K2  1  0.349643  0.791896  0.303698  1
  K  K3  1  0.711115  0.860400  0.887675  1
  K  K4  1  0.288885  0.139600  0.112325  1
  K  K5  1  0.044167  0.316315  0.386302  1
  Nd  Nd6  1  0.228525  0.357593  0.779148  1
  Nd  Nd7  1  0.771475  0.642407  0.220852  1
  H  H8  1  0.731817  0.889237  0.473977  1
  H  H9  1  0.370808  0.247745  0.496844  1
  H  H10  1  0.275845  0.761333  0.993514  1
  H  H11  1  0.379512  0.004302  0.794650  1
  H  H12  1  0.268183  0.110763  0.526023  1
  H  H13  1  0.629192  0.752255  0.503156  1
  H  H14  1  0.572521  0.117125  0.314324  1
  H  H15  1  0.724155  0.238667  0.006486  1
  H  H16  1  0.147345  0.857522  0.965238  1
  H  H17  1  0.852655  0.142478  0.034762  1
  H  H18  1  0.620488  0.995698  0.205350  1
  H  H19  1  0.427479  0.882875  0.685676  1
  C  C20  1  0.528420  0.424127  0.998531  1
  C  C21  1  0.964844  0.075945  0.681059  1
  C  C22  1  0.326779  0.615547  0.602646  1
  C  C23  1  0.072251  0.022333  0.787700  1
  C  C24  1  0.673221  0.384453  0.397354  1
  C  C25  1  0.966984  0.541612  0.945416  1
  C  C26  1  0.489691  0.577477  0.650997  1
  C  C27  1  0.035156  0.924055  0.318941  1
  C  C28  1  0.033016  0.458388  0.054584  1
  C  C29  1  0.927749  0.977667  0.212300  1
  C  C30  1  0.510309  0.422523  0.349003  1
  C  C31  1  0.471580  0.575873  0.001469  1
  O  O32  1  0.786791  0.483579  0.397698  1
  O  O33  1  0.608279  0.664836  0.641794  1
  O  O34  1  0.969226  0.095990  0.172996  1
  O  O35  1  0.777857  0.158153  0.962660  1
  O  O36  1  0.125441  0.367007  0.015339  1
  O  O37  1  0.391721  0.335164  0.358206  1
  O  O38  1  0.998361  0.206052  0.660442  1
  O  O39  1  0.988825  0.489024  0.175280  1
  O  O40  1  0.331392  0.197095  0.573142  1
  O  O41  1  0.684747  0.262424  0.430119  1
  O  O42  1  0.488298  0.458880  0.697456  1
  O  O43  1  0.001639  0.793948  0.339558  1
  O  O44  1  0.803252  0.895261  0.172761  1
  O  O45  1  0.853201  0.989333  0.626559  1
  O  O46  1  0.470850  0.960531  0.758415  1
  O  O47  1  0.651246  0.415793  0.066913  1
  O  O48  1  0.030774  0.904010  0.827004  1
  O  O49  1  0.213209  0.516421  0.602302  1
  O  O50  1  0.874559  0.632993  0.984661  1
  O  O51  1  0.552074  0.682064  0.072010  1
  O  O52  1  0.348754  0.584207  0.933087  1
  O  O53  1  0.447926  0.317936  0.927990  1
  O  O54  1  0.196748  0.104739  0.827239  1
  O  O55  1  0.529150  0.039469  0.241585  1
  O  O56  1  0.222143  0.841847  0.037340  1
  O  O57  1  0.511702  0.541120  0.302544  1
  O  O58  1  0.146799  0.010667  0.373441  1
  O  O59  1  0.011175  0.510976  0.824720  1
  O  O60  1  0.668608  0.802905  0.426858  1
  O  O61  1  0.315253  0.737576  0.569881  1
