# generated using pymatgen
data_RbTaN2
_symmetry_space_group_name_H-M   'P 1'
_cell_length_a   6.10515286
_cell_length_b   12.23563717
_cell_length_c   17.22112828
_cell_angle_alpha   90.00000000
_cell_angle_beta   90.00000000
_cell_angle_gamma   90.00000000
_symmetry_Int_Tables_number   1
_chemical_formula_structural   RbTaN2
_chemical_formula_sum   'Rb16 Ta16 N32'
_cell_volume   1286.42577822
_cell_formula_units_Z   16
loop_
 _symmetry_equiv_pos_site_id
 _symmetry_equiv_pos_as_xyz
  1  'x, y, z'
loop_
 _atom_site_type_symbol
 _atom_site_label
 _atom_site_symmetry_multiplicity
 _atom_site_fract_x
 _atom_site_fract_y
 _atom_site_fract_z
 _atom_site_occupancy
  Rb  Rb0  1  0.211333  0.741084  0.813832  1
  Rb  Rb1  1  0.211333  0.758916  0.313832  1
  Rb  Rb2  1  0.244168  0.501888  0.437748  1
  Rb  Rb3  1  0.288667  0.241084  0.813832  1
  Rb  Rb4  1  0.788667  0.258916  0.186168  1
  Rb  Rb5  1  0.755832  0.498112  0.562252  1
  Rb  Rb6  1  0.255832  0.498112  0.937748  1
  Rb  Rb7  1  0.744168  0.998112  0.562252  1
  Rb  Rb8  1  0.744168  0.501888  0.062252  1
  Rb  Rb9  1  0.255832  0.001888  0.437748  1
  Rb  Rb10  1  0.755832  0.001888  0.062252  1
  Rb  Rb11  1  0.711333  0.758916  0.186168  1
  Rb  Rb12  1  0.288667  0.258916  0.313832  1
  Rb  Rb13  1  0.711333  0.741084  0.686168  1
  Rb  Rb14  1  0.244168  0.998112  0.937748  1
  Rb  Rb15  1  0.788667  0.241084  0.686168  1
  Ta  Ta16  1  0.272974  0.262295  0.063213  1
  Ta  Ta17  1  0.227026  0.737705  0.563213  1
  Ta  Ta18  1  0.758833  0.008233  0.311704  1
  Ta  Ta19  1  0.272974  0.237705  0.563213  1
  Ta  Ta20  1  0.258833  0.491767  0.688296  1
  Ta  Ta21  1  0.727026  0.737705  0.936787  1
  Ta  Ta22  1  0.741167  0.991767  0.811704  1
  Ta  Ta23  1  0.258833  0.008233  0.188296  1
  Ta  Ta24  1  0.227026  0.762295  0.063213  1
  Ta  Ta25  1  0.772974  0.237705  0.936787  1
  Ta  Ta26  1  0.241167  0.508233  0.188296  1
  Ta  Ta27  1  0.241167  0.991767  0.688296  1
  Ta  Ta28  1  0.741167  0.508233  0.311704  1
  Ta  Ta29  1  0.758833  0.491767  0.811704  1
  Ta  Ta30  1  0.772974  0.262295  0.436787  1
  Ta  Ta31  1  0.727026  0.762295  0.436787  1
  N  N32  1  0.460219  0.512332  0.774634  1
  N  N33  1  0.796023  0.154877  0.353622  1
  N  N34  1  0.443452  0.783415  0.486470  1
  N  N35  1  0.539781  0.487668  0.225366  1
  N  N36  1  0.960219  0.987668  0.225366  1
  N  N37  1  0.960219  0.512332  0.725366  1
  N  N38  1  0.056548  0.283415  0.486470  1
  N  N39  1  0.943452  0.783415  0.013530  1
  N  N40  1  0.943452  0.716585  0.513530  1
  N  N41  1  0.703977  0.845123  0.853622  1
  N  N42  1  0.203977  0.845123  0.646378  1
  N  N43  1  0.443452  0.716585  0.986470  1
  N  N44  1  0.320911  0.900949  0.107504  1
  N  N45  1  0.039781  0.487668  0.274634  1
  N  N46  1  0.296023  0.154877  0.146378  1
  N  N47  1  0.320911  0.599051  0.607504  1
  N  N48  1  0.820911  0.900949  0.392496  1
  N  N49  1  0.460219  0.987668  0.274634  1
  N  N50  1  0.679089  0.400949  0.392496  1
  N  N51  1  0.039781  0.012332  0.774634  1
  N  N52  1  0.539781  0.012332  0.725366  1
  N  N53  1  0.796023  0.345123  0.853622  1
  N  N54  1  0.679089  0.099051  0.892496  1
  N  N55  1  0.296023  0.345123  0.646378  1
  N  N56  1  0.179089  0.099051  0.607504  1
  N  N57  1  0.556548  0.216585  0.513530  1
  N  N58  1  0.179089  0.400949  0.107504  1
  N  N59  1  0.056548  0.216585  0.986470  1
  N  N60  1  0.703977  0.654877  0.353622  1
  N  N61  1  0.820911  0.599051  0.892496  1
  N  N62  1  0.203977  0.654877  0.146378  1
  N  N63  1  0.556548  0.283415  0.013530  1
