# generated using pymatgen
data_KLiZnP2O7
_symmetry_space_group_name_H-M   'P 1'
_cell_length_a   5.15802217
_cell_length_b   10.44247720
_cell_length_c   12.60045065
_cell_angle_alpha   90.00000000
_cell_angle_beta   90.00000000
_cell_angle_gamma   90.00000000
_symmetry_Int_Tables_number   1
_chemical_formula_structural   KLiZnP2O7
_chemical_formula_sum   'K4 Li4 Zn4 P8 O28'
_cell_volume   678.69213738
_cell_formula_units_Z   4
loop_
 _symmetry_equiv_pos_site_id
 _symmetry_equiv_pos_as_xyz
  1  'x, y, z'
loop_
 _atom_site_type_symbol
 _atom_site_label
 _atom_site_symmetry_multiplicity
 _atom_site_fract_x
 _atom_site_fract_y
 _atom_site_fract_z
 _atom_site_occupancy
  K  K0  1  0.008749  0.756429  0.000000  1
  K  K1  1  0.497940  0.490476  0.500000  1
  K  K2  1  0.502060  0.990476  0.500000  1
  K  K3  1  0.991251  0.256429  0.000000  1
  Li  Li4  1  0.038484  0.474872  0.249898  1
  Li  Li5  1  0.961516  0.974872  0.249898  1
  Li  Li6  1  0.038484  0.474872  0.750102  1
  Li  Li7  1  0.961516  0.974872  0.750102  1
  Zn  Zn8  1  0.532339  0.273064  0.748731  1
  Zn  Zn9  1  0.532339  0.273064  0.251269  1
  Zn  Zn10  1  0.467661  0.773064  0.251269  1
  Zn  Zn11  1  0.467661  0.773064  0.748731  1
  P  P12  1  0.981049  0.719382  0.382626  1
  P  P13  1  0.018951  0.219382  0.617374  1
  P  P14  1  0.981049  0.719382  0.617374  1
  P  P15  1  0.018951  0.219382  0.382626  1
  P  P16  1  0.534689  0.524523  0.117802  1
  P  P17  1  0.534689  0.524523  0.882198  1
  P  P18  1  0.465311  0.024523  0.882198  1
  P  P19  1  0.465311  0.024523  0.117802  1
  O  O20  1  0.825748  0.513519  0.872732  1
  O  O21  1  0.616229  0.933481  0.807469  1
  O  O22  1  0.316402  0.231996  0.625549  1
  O  O23  1  0.570295  0.162481  0.127067  1
  O  O24  1  0.570295  0.162481  0.872933  1
  O  O25  1  0.918811  0.083961  0.626514  1
  O  O26  1  0.117829  0.814885  0.306968  1
  O  O27  1  0.944698  0.275825  0.500000  1
  O  O28  1  0.918811  0.083961  0.373486  1
  O  O29  1  0.616229  0.933481  0.192531  1
  O  O30  1  0.825748  0.513519  0.127268  1
  O  O31  1  0.316402  0.231996  0.374451  1
  O  O32  1  0.174252  0.013519  0.127268  1
  O  O33  1  0.383771  0.433481  0.807469  1
  O  O34  1  0.081189  0.583961  0.373486  1
  O  O35  1  0.174252  0.013519  0.872732  1
  O  O36  1  0.882171  0.314885  0.693032  1
  O  O37  1  0.444789  0.475844  0.000000  1
  O  O38  1  0.429705  0.662481  0.127067  1
  O  O39  1  0.555211  0.975844  0.000000  1
  O  O40  1  0.117829  0.814885  0.693032  1
  O  O41  1  0.882171  0.314885  0.306968  1
  O  O42  1  0.081189  0.583961  0.626514  1
  O  O43  1  0.429705  0.662481  0.872933  1
  O  O44  1  0.683598  0.731996  0.625549  1
  O  O45  1  0.683598  0.731996  0.374451  1
  O  O46  1  0.055302  0.775825  0.500000  1
  O  O47  1  0.383771  0.433481  0.192531  1
