# generated using pymatgen
data_Rb2MnO4
_symmetry_space_group_name_H-M   'P 1'
_cell_length_a   6.16170412
_cell_length_b   8.14347199
_cell_length_c   10.93601020
_cell_angle_alpha   90.00000000
_cell_angle_beta   90.00000000
_cell_angle_gamma   90.00000000
_symmetry_Int_Tables_number   1
_chemical_formula_structural   Rb2MnO4
_chemical_formula_sum   'Rb8 Mn4 O16'
_cell_volume   548.74345529
_cell_formula_units_Z   4
loop_
 _symmetry_equiv_pos_site_id
 _symmetry_equiv_pos_as_xyz
  1  'x, y, z'
loop_
 _atom_site_type_symbol
 _atom_site_label
 _atom_site_symmetry_multiplicity
 _atom_site_fract_x
 _atom_site_fract_y
 _atom_site_fract_z
 _atom_site_occupancy
  Rb  Rb0  1  0.750000  0.832499  0.411945  1
  Rb  Rb1  1  0.250000  0.167501  0.588055  1
  Rb  Rb2  1  0.750000  0.332499  0.088055  1
  Rb  Rb3  1  0.250000  0.667501  0.911945  1
  Rb  Rb4  1  0.750000  0.513168  0.696082  1
  Rb  Rb5  1  0.250000  0.486832  0.303918  1
  Rb  Rb6  1  0.750000  0.013168  0.803918  1
  Rb  Rb7  1  0.250000  0.986832  0.196082  1
  Mn  Mn8  1  0.750000  0.767481  0.079443  1
  Mn  Mn9  1  0.250000  0.232519  0.920557  1
  Mn  Mn10  1  0.750000  0.267481  0.420557  1
  Mn  Mn11  1  0.250000  0.732519  0.579443  1
  O  O12  1  0.750000  0.205883  0.566333  1
  O  O13  1  0.250000  0.794117  0.433667  1
  O  O14  1  0.750000  0.705883  0.933667  1
  O  O15  1  0.250000  0.294117  0.066333  1
  O  O16  1  0.750000  0.971133  0.082996  1
  O  O17  1  0.250000  0.028867  0.917004  1
  O  O18  1  0.750000  0.471133  0.417004  1
  O  O19  1  0.250000  0.528867  0.582996  1
  O  O20  1  0.969231  0.693233  0.149398  1
  O  O21  1  0.469231  0.306767  0.850602  1
  O  O22  1  0.530769  0.193233  0.350602  1
  O  O23  1  0.030769  0.806767  0.649398  1
  O  O24  1  0.030769  0.306767  0.850602  1
  O  O25  1  0.530769  0.693233  0.149398  1
  O  O26  1  0.469231  0.806767  0.649398  1
  O  O27  1  0.969231  0.193233  0.350602  1
