# generated using pymatgen
data_ZrP2O7
_symmetry_space_group_name_H-M   'P 1'
_cell_length_a   8.55058514
_cell_length_b   8.55058514
_cell_length_c   8.55058514
_cell_angle_alpha   90.00000000
_cell_angle_beta   90.00000000
_cell_angle_gamma   90.00000000
_symmetry_Int_Tables_number   1
_chemical_formula_structural   ZrP2O7
_chemical_formula_sum   'Zr4 P8 O28'
_cell_volume   625.15470937
_cell_formula_units_Z   4
loop_
 _symmetry_equiv_pos_site_id
 _symmetry_equiv_pos_as_xyz
  1  'x, y, z'
loop_
 _atom_site_type_symbol
 _atom_site_label
 _atom_site_symmetry_multiplicity
 _atom_site_fract_x
 _atom_site_fract_y
 _atom_site_fract_z
 _atom_site_occupancy
  Zr  Zr0  1  0.000000  0.500000  0.500000  1
  Zr  Zr1  1  0.500000  0.500000  0.000000  1
  Zr  Zr2  1  0.500000  0.000000  0.500000  1
  Zr  Zr3  1  0.000000  0.000000  0.000000  1
  P  P4  1  0.393011  0.106989  0.893011  1
  P  P5  1  0.106989  0.893011  0.393011  1
  P  P6  1  0.893011  0.393011  0.106989  1
  P  P7  1  0.606989  0.606989  0.606989  1
  P  P8  1  0.606989  0.893011  0.106989  1
  P  P9  1  0.893011  0.106989  0.606989  1
  P  P10  1  0.106989  0.606989  0.893011  1
  P  P11  1  0.393011  0.393011  0.393011  1
  O  O12  1  0.500000  0.000000  0.000000  1
  O  O13  1  0.000000  0.000000  0.500000  1
  O  O14  1  0.000000  0.500000  0.000000  1
  O  O15  1  0.500000  0.500000  0.500000  1
  O  O16  1  0.942740  0.224656  0.077595  1
  O  O17  1  0.442740  0.275344  0.922405  1
  O  O18  1  0.057260  0.724656  0.422405  1
  O  O19  1  0.275344  0.922405  0.442740  1
  O  O20  1  0.422405  0.057260  0.724656  1
  O  O21  1  0.922405  0.442740  0.275344  1
  O  O22  1  0.224656  0.077595  0.942740  1
  O  O23  1  0.077595  0.942740  0.224656  1
  O  O24  1  0.442740  0.224656  0.422405  1
  O  O25  1  0.422405  0.442740  0.224656  1
  O  O26  1  0.224656  0.422405  0.442740  1
  O  O27  1  0.275344  0.577595  0.942740  1
  O  O28  1  0.922405  0.057260  0.775344  1
  O  O29  1  0.775344  0.922405  0.057260  1
  O  O30  1  0.077595  0.557260  0.724656  1
  O  O31  1  0.577595  0.942740  0.275344  1
  O  O32  1  0.724656  0.077595  0.557260  1
  O  O33  1  0.942740  0.275344  0.577595  1
  O  O34  1  0.557260  0.724656  0.077595  1
  O  O35  1  0.057260  0.775344  0.922405  1
  O  O36  1  0.557260  0.775344  0.577595  1
  O  O37  1  0.577595  0.557260  0.775344  1
  O  O38  1  0.775344  0.577595  0.557260  1
  O  O39  1  0.724656  0.422405  0.057260  1
