# generated using pymatgen
data_CrCl3
_symmetry_space_group_name_H-M   'P 1'
_cell_length_a   6.07022958
_cell_length_b   6.07022958
_cell_length_c   19.68237050
_cell_angle_alpha   90.00000000
_cell_angle_beta   90.00000000
_cell_angle_gamma   120.00000000
_symmetry_Int_Tables_number   1
_chemical_formula_structural   CrCl3
_chemical_formula_sum   'Cr6 Cl18'
_cell_volume   628.08477800
_cell_formula_units_Z   6
loop_
 _symmetry_equiv_pos_site_id
 _symmetry_equiv_pos_as_xyz
  1  'x, y, z'
loop_
 _atom_site_type_symbol
 _atom_site_label
 _atom_site_symmetry_multiplicity
 _atom_site_fract_x
 _atom_site_fract_y
 _atom_site_fract_z
 _atom_site_occupancy
  Cr  Cr0  1  0.555614  0.444386  0.666667  1
  Cr  Cr1  1  0.222235  0.777765  0.666667  1
  Cr  Cr2  1  0.555614  0.111227  0.333333  1
  Cr  Cr3  1  0.222235  0.444471  0.333333  1
  Cr  Cr4  1  0.555529  0.777765  0.000000  1
  Cr  Cr5  1  0.888773  0.444386  0.000000  1
  Cl  Cl6  1  0.582855  0.111006  0.931995  1
  Cl  Cl7  1  0.528275  0.750274  0.598714  1
  Cl  Cl8  1  0.582855  0.471849  0.068005  1
  Cl  Cl9  1  0.888994  0.138687  0.265338  1
  Cl  Cl10  1  0.888994  0.750307  0.734662  1
  Cl  Cl11  1  0.528151  0.111006  0.734672  1
  Cl  Cl12  1  0.888994  0.417145  0.401338  1
  Cl  Cl13  1  0.249726  0.778001  0.265380  1
  Cl  Cl14  1  0.249726  0.471725  0.734620  1
  Cl  Cl15  1  0.861313  0.750307  0.932004  1
  Cl  Cl16  1  0.528275  0.778001  0.401286  1
  Cl  Cl17  1  0.861313  0.111006  0.067996  1
  Cl  Cl18  1  0.221999  0.750274  0.067953  1
  Cl  Cl19  1  0.249693  0.138687  0.401329  1
  Cl  Cl20  1  0.249693  0.111006  0.598671  1
  Cl  Cl21  1  0.888994  0.471849  0.598662  1
  Cl  Cl22  1  0.528151  0.417145  0.265328  1
  Cl  Cl23  1  0.221999  0.471725  0.932047  1
