# generated using pymatgen
data_TlZn(PO3)3
_symmetry_space_group_name_H-M   'P 1'
_cell_length_a   5.22583482
_cell_length_b   12.11874406
_cell_length_c   13.15465631
_cell_angle_alpha   90.00000000
_cell_angle_beta   90.00000000
_cell_angle_gamma   90.00000000
_symmetry_Int_Tables_number   1
_chemical_formula_structural   TlZn(PO3)3
_chemical_formula_sum   'Tl4 Zn4 P12 O36'
_cell_volume   833.09168078
_cell_formula_units_Z   4
loop_
 _symmetry_equiv_pos_site_id
 _symmetry_equiv_pos_as_xyz
  1  'x, y, z'
loop_
 _atom_site_type_symbol
 _atom_site_label
 _atom_site_symmetry_multiplicity
 _atom_site_fract_x
 _atom_site_fract_y
 _atom_site_fract_z
 _atom_site_occupancy
  Tl  Tl0  1  0.078799  0.140852  0.250000  1
  Tl  Tl1  1  0.921201  0.859148  0.750000  1
  Tl  Tl2  1  0.078799  0.359148  0.750000  1
  Tl  Tl3  1  0.921201  0.640852  0.250000  1
  Zn  Zn4  1  0.000000  0.000000  0.000000  1
  Zn  Zn5  1  0.000000  0.500000  0.500000  1
  Zn  Zn6  1  0.000000  0.000000  0.500000  1
  Zn  Zn7  1  0.000000  0.500000  0.000000  1
  P  P8  1  0.510210  0.915548  0.134696  1
  P  P9  1  0.489790  0.084452  0.634696  1
  P  P10  1  0.510210  0.584452  0.865304  1
  P  P11  1  0.250495  0.750000  0.000000  1
  P  P12  1  0.510210  0.915548  0.365304  1
  P  P13  1  0.489790  0.415548  0.365304  1
  P  P14  1  0.250495  0.750000  0.500000  1
  P  P15  1  0.749505  0.250000  0.500000  1
  P  P16  1  0.489790  0.415548  0.134696  1
  P  P17  1  0.510210  0.584452  0.634696  1
  P  P18  1  0.489790  0.084452  0.865304  1
  P  P19  1  0.749505  0.250000  0.000000  1
  O  O20  1  0.550699  0.297590  0.417389  1
  O  O21  1  0.550699  0.297590  0.082611  1
  O  O22  1  0.791973  0.937330  0.373881  1
  O  O23  1  0.449301  0.797590  0.417389  1
  O  O24  1  0.323147  0.002889  0.398899  1
  O  O25  1  0.449301  0.702410  0.917389  1
  O  O26  1  0.550699  0.202410  0.582611  1
  O  O27  1  0.104594  0.657592  0.049404  1
  O  O28  1  0.323147  0.497111  0.898899  1
  O  O29  1  0.557060  0.379345  0.250000  1
  O  O30  1  0.676853  0.502889  0.398899  1
  O  O31  1  0.442940  0.620655  0.750000  1
  O  O32  1  0.791973  0.562670  0.626119  1
  O  O33  1  0.676853  0.997111  0.898899  1
  O  O34  1  0.208027  0.437330  0.126119  1
  O  O35  1  0.104594  0.657592  0.450596  1
  O  O36  1  0.442940  0.879345  0.250000  1
  O  O37  1  0.676853  0.997111  0.601101  1
  O  O38  1  0.104594  0.842408  0.950596  1
  O  O39  1  0.449301  0.702410  0.582611  1
  O  O40  1  0.208027  0.062670  0.626119  1
  O  O41  1  0.323147  0.002889  0.101101  1
  O  O42  1  0.676853  0.502889  0.101101  1
  O  O43  1  0.208027  0.062670  0.873881  1
  O  O44  1  0.208027  0.437330  0.373881  1
  O  O45  1  0.895406  0.157592  0.450596  1
  O  O46  1  0.791973  0.562670  0.873881  1
  O  O47  1  0.557060  0.120655  0.750000  1
  O  O48  1  0.104594  0.842408  0.549404  1
  O  O49  1  0.323147  0.497111  0.601101  1
  O  O50  1  0.895406  0.157592  0.049404  1
  O  O51  1  0.550699  0.202410  0.917389  1
  O  O52  1  0.791973  0.937330  0.126119  1
  O  O53  1  0.895406  0.342408  0.950596  1
  O  O54  1  0.895406  0.342408  0.549404  1
  O  O55  1  0.449301  0.797590  0.082611  1
