# generated using pymatgen
data_BaZnSiO4
_symmetry_space_group_name_H-M   'P 1'
_cell_length_a   9.22598383
_cell_length_b   9.22598383
_cell_length_c   8.86855472
_cell_angle_alpha   90.00000000
_cell_angle_beta   90.00000000
_cell_angle_gamma   120.00000000
_symmetry_Int_Tables_number   1
_chemical_formula_structural   BaZnSiO4
_chemical_formula_sum   'Ba6 Zn6 Si6 O24'
_cell_volume   653.74572251
_cell_formula_units_Z   6
loop_
 _symmetry_equiv_pos_site_id
 _symmetry_equiv_pos_as_xyz
  1  'x, y, z'
loop_
 _atom_site_type_symbol
 _atom_site_label
 _atom_site_symmetry_multiplicity
 _atom_site_fract_x
 _atom_site_fract_y
 _atom_site_fract_z
 _atom_site_occupancy
  Ba  Ba0  1  0.666667  0.333333  0.227557  1
  Ba  Ba1  1  0.666667  0.333333  0.730601  1
  Ba  Ba2  1  0.333333  0.666667  0.230601  1
  Ba  Ba3  1  0.000000  0.000000  0.247433  1
  Ba  Ba4  1  0.333333  0.666667  0.727557  1
  Ba  Ba5  1  0.000000  0.000000  0.747433  1
  Zn  Zn6  1  0.676890  0.667198  0.535699  1
  Zn  Zn7  1  0.323110  0.332802  0.035699  1
  Zn  Zn8  1  0.667198  0.990309  0.035699  1
  Zn  Zn9  1  0.332802  0.009691  0.535699  1
  Zn  Zn10  1  0.990309  0.323110  0.535699  1
  Zn  Zn11  1  0.009691  0.676890  0.035699  1
  Si  Si12  1  0.661296  0.988358  0.435027  1
  Si  Si13  1  0.011642  0.672938  0.435027  1
  Si  Si14  1  0.988358  0.327062  0.935027  1
  Si  Si15  1  0.338704  0.011642  0.935027  1
  Si  Si16  1  0.327062  0.338704  0.435027  1
  Si  Si17  1  0.672938  0.661296  0.935027  1
  O  O18  1  0.288643  0.349409  0.255357  1
  O  O19  1  0.532844  0.098157  0.998139  1
  O  O20  1  0.239378  0.806366  0.956519  1
  O  O21  1  0.090126  0.856929  0.518396  1
  O  O22  1  0.766803  0.909874  0.518396  1
  O  O23  1  0.856929  0.766803  0.018396  1
  O  O24  1  0.806366  0.566989  0.456519  1
  O  O25  1  0.565313  0.467156  0.998139  1
  O  O26  1  0.143071  0.233197  0.518396  1
  O  O27  1  0.098157  0.565313  0.498139  1
  O  O28  1  0.909874  0.143071  0.018396  1
  O  O29  1  0.060766  0.711357  0.255357  1
  O  O30  1  0.193634  0.433011  0.956519  1
  O  O31  1  0.711357  0.650591  0.755357  1
  O  O32  1  0.760622  0.193634  0.456519  1
  O  O33  1  0.434687  0.532844  0.498139  1
  O  O34  1  0.349409  0.060766  0.755357  1
  O  O35  1  0.433011  0.239378  0.456519  1
  O  O36  1  0.233197  0.090126  0.018396  1
  O  O37  1  0.467156  0.901843  0.498139  1
  O  O38  1  0.939234  0.288643  0.755357  1
  O  O39  1  0.566989  0.760622  0.956519  1
  O  O40  1  0.650591  0.939234  0.255357  1
  O  O41  1  0.901843  0.434687  0.998139  1
