# generated using pymatgen
data_SbF4
_symmetry_space_group_name_H-M   'P 1'
_cell_length_a   9.60751705
_cell_length_b   12.25595725
_cell_length_c   11.81984518
_cell_angle_alpha   90.00000000
_cell_angle_beta   106.90068316
_cell_angle_gamma   90.00000000
_symmetry_Int_Tables_number   1
_chemical_formula_structural   SbF4
_chemical_formula_sum   'Sb16 F64'
_cell_volume   1331.66795330
_cell_formula_units_Z   16
loop_
 _symmetry_equiv_pos_site_id
 _symmetry_equiv_pos_as_xyz
  1  'x, y, z'
loop_
 _atom_site_type_symbol
 _atom_site_label
 _atom_site_symmetry_multiplicity
 _atom_site_fract_x
 _atom_site_fract_y
 _atom_site_fract_z
 _atom_site_occupancy
  Sb  Sb0  1  0.240145  0.578666  0.441482  1
  Sb  Sb1  1  0.759855  0.078666  0.058518  1
  Sb  Sb2  1  0.772380  0.659123  0.954775  1
  Sb  Sb3  1  0.201298  0.908670  0.292334  1
  Sb  Sb4  1  0.240145  0.921334  0.941482  1
  Sb  Sb5  1  0.384795  0.847404  0.648620  1
  Sb  Sb6  1  0.772380  0.840877  0.454775  1
  Sb  Sb7  1  0.227620  0.340877  0.045225  1
  Sb  Sb8  1  0.201298  0.591330  0.792334  1
  Sb  Sb9  1  0.615205  0.347404  0.851380  1
  Sb  Sb10  1  0.759855  0.421334  0.558518  1
  Sb  Sb11  1  0.798702  0.408670  0.207666  1
  Sb  Sb12  1  0.227620  0.159123  0.545225  1
  Sb  Sb13  1  0.384795  0.652596  0.148620  1
  Sb  Sb14  1  0.615205  0.152596  0.351380  1
  Sb  Sb15  1  0.798702  0.091330  0.707666  1
  F  F16  1  0.647931  0.415577  0.673667  1
  F  F17  1  0.625596  0.684405  0.031078  1
  F  F18  1  0.137778  0.793205  0.868206  1
  F  F19  1  0.341217  0.888088  0.458704  1
  F  F20  1  0.354490  0.458161  0.511833  1
  F  F21  1  0.857733  0.080380  0.937156  1
  F  F22  1  0.087154  0.118637  0.622154  1
  F  F23  1  0.625596  0.815595  0.531078  1
  F  F24  1  0.142267  0.580380  0.562844  1
  F  F25  1  0.331399  0.021726  0.271998  1
  F  F26  1  0.383132  0.679338  0.540902  1
  F  F27  1  0.331399  0.478274  0.771998  1
  F  F28  1  0.616868  0.320662  0.459098  1
  F  F29  1  0.177152  0.658749  0.101703  1
  F  F30  1  0.087154  0.381363  0.122154  1
  F  F31  1  0.139686  0.056356  0.417612  1
  F  F32  1  0.092783  0.492207  0.338904  1
  F  F33  1  0.887378  0.775730  0.036624  1
  F  F34  1  0.907217  0.507793  0.661096  1
  F  F35  1  0.112622  0.275730  0.463376  1
  F  F36  1  0.177152  0.841251  0.601703  1
  F  F37  1  0.352069  0.584423  0.326333  1
  F  F38  1  0.860314  0.943644  0.582388  1
  F  F39  1  0.655882  0.300146  0.244828  1
  F  F40  1  0.092783  0.007793  0.838904  1
  F  F41  1  0.616868  0.179338  0.959098  1
  F  F42  1  0.822848  0.158749  0.398297  1
  F  F43  1  0.652058  0.967327  0.371770  1
  F  F44  1  0.112622  0.224270  0.963376  1
  F  F45  1  0.887378  0.724270  0.536624  1
  F  F46  1  0.137778  0.706795  0.368206  1
  F  F47  1  0.912846  0.618637  0.877846  1
  F  F48  1  0.669352  0.745542  0.822742  1
  F  F49  1  0.857733  0.419620  0.437156  1
  F  F50  1  0.668601  0.521726  0.228002  1
  F  F51  1  0.862222  0.293205  0.631794  1
  F  F52  1  0.142267  0.919620  0.062844  1
  F  F53  1  0.658783  0.111912  0.541296  1
  F  F54  1  0.912846  0.881363  0.377846  1
  F  F55  1  0.668601  0.978274  0.728002  1
  F  F56  1  0.374404  0.315595  0.968922  1
  F  F57  1  0.822848  0.341251  0.898297  1
  F  F58  1  0.645510  0.541839  0.488167  1
  F  F59  1  0.354490  0.041839  0.011833  1
  F  F60  1  0.374404  0.184405  0.468922  1
  F  F61  1  0.383132  0.820662  0.040902  1
  F  F62  1  0.860314  0.556356  0.082388  1
  F  F63  1  0.330648  0.254458  0.177258  1
  F  F64  1  0.330648  0.245542  0.677258  1
  F  F65  1  0.344118  0.699854  0.755172  1
  F  F66  1  0.341217  0.611912  0.958704  1
  F  F67  1  0.907217  0.992207  0.161096  1
  F  F68  1  0.347942  0.467327  0.128230  1
  F  F69  1  0.645510  0.958161  0.988167  1
  F  F70  1  0.652058  0.532673  0.871770  1
  F  F71  1  0.669352  0.754458  0.322742  1
  F  F72  1  0.139686  0.443644  0.917612  1
  F  F73  1  0.344118  0.800146  0.255172  1
  F  F74  1  0.347942  0.032673  0.628230  1
  F  F75  1  0.352069  0.915577  0.826333  1
  F  F76  1  0.658783  0.388088  0.041296  1
  F  F77  1  0.647931  0.084423  0.173667  1
  F  F78  1  0.862222  0.206795  0.131794  1
  F  F79  1  0.655882  0.199854  0.744828  1
