# generated using pymatgen
data_LiMnP2O7
_symmetry_space_group_name_H-M   'P 1'
_cell_length_a   4.80878506
_cell_length_b   8.35272304
_cell_length_c   7.11714881
_cell_angle_alpha   90.00000000
_cell_angle_beta   109.30214755
_cell_angle_gamma   90.00000000
_symmetry_Int_Tables_number   1
_chemical_formula_structural   LiMnP2O7
_chemical_formula_sum   'Li2 Mn2 P4 O14'
_cell_volume   269.80140283
_cell_formula_units_Z   2
loop_
 _symmetry_equiv_pos_site_id
 _symmetry_equiv_pos_as_xyz
  1  'x, y, z'
loop_
 _atom_site_type_symbol
 _atom_site_label
 _atom_site_symmetry_multiplicity
 _atom_site_fract_x
 _atom_site_fract_y
 _atom_site_fract_z
 _atom_site_occupancy
  Li  Li0  1  0.817926  0.881698  0.819516  1
  Li  Li1  1  0.182074  0.381698  0.180484  1
  Mn  Mn2  1  0.211112  0.743228  0.226472  1
  Mn  Mn3  1  0.788888  0.243228  0.773528  1
  P  P4  1  0.788789  0.953933  0.405722  1
  P  P5  1  0.599849  0.563183  0.987546  1
  P  P6  1  0.400151  0.063183  0.012454  1
  P  P7  1  0.211211  0.453933  0.594278  1
  O  O8  1  0.389102  0.569008  0.110178  1
  O  O9  1  0.137307  0.536837  0.394483  1
  O  O10  1  0.399954  0.584604  0.756030  1
  O  O11  1  0.808944  0.708590  0.022124  1
  O  O12  1  0.065991  0.914355  0.353228  1
  O  O13  1  0.934009  0.414355  0.646772  1
  O  O14  1  0.757131  0.403046  0.011858  1
  O  O15  1  0.191056  0.208590  0.977876  1
  O  O16  1  0.610898  0.069008  0.889822  1
  O  O17  1  0.242869  0.903046  0.988142  1
  O  O18  1  0.602040  0.802617  0.398111  1
  O  O19  1  0.397960  0.302617  0.601889  1
  O  O20  1  0.600046  0.084604  0.243970  1
  O  O21  1  0.862693  0.036837  0.605517  1
