# generated using pymatgen
data_Na2Ge4O9
_symmetry_space_group_name_H-M   'P 1'
_cell_length_a   11.47575030
_cell_length_b   11.47575030
_cell_length_c   9.83791246
_cell_angle_alpha   90.00000000
_cell_angle_beta   90.00000000
_cell_angle_gamma   120.00000000
_symmetry_Int_Tables_number   1
_chemical_formula_structural   Na2Ge4O9
_chemical_formula_sum   'Na12 Ge24 O54'
_cell_volume   1122.00751452
_cell_formula_units_Z   6
loop_
 _symmetry_equiv_pos_site_id
 _symmetry_equiv_pos_as_xyz
  1  'x, y, z'
loop_
 _atom_site_type_symbol
 _atom_site_label
 _atom_site_symmetry_multiplicity
 _atom_site_fract_x
 _atom_site_fract_y
 _atom_site_fract_z
 _atom_site_occupancy
  Na  Na0  1  0.670814  0.663029  0.076694  1
  Na  Na1  1  0.007786  0.670814  0.923306  1
  Na  Na2  1  0.007786  0.336971  0.423306  1
  Na  Na3  1  0.992214  0.663029  0.576694  1
  Na  Na4  1  0.992214  0.329186  0.076694  1
  Na  Na5  1  0.336971  0.329186  0.576694  1
  Na  Na6  1  0.663029  0.670814  0.423306  1
  Na  Na7  1  0.336971  0.007786  0.076694  1
  Na  Na8  1  0.663029  0.992214  0.923306  1
  Na  Na9  1  0.329186  0.336971  0.923306  1
  Na  Na10  1  0.670814  0.007786  0.576694  1
  Na  Na11  1  0.329186  0.992214  0.423306  1
  Ge  Ge12  1  0.850376  0.344198  0.799255  1
  Ge  Ge13  1  0.000000  0.176394  0.750000  1
  Ge  Ge14  1  0.506178  0.655802  0.700745  1
  Ge  Ge15  1  0.176394  0.176394  0.250000  1
  Ge  Ge16  1  0.344198  0.850376  0.700745  1
  Ge  Ge17  1  0.149624  0.655802  0.200745  1
  Ge  Ge18  1  0.666667  0.333333  0.554153  1
  Ge  Ge19  1  0.176394  0.000000  0.750000  1
  Ge  Ge20  1  0.655802  0.506178  0.799255  1
  Ge  Ge21  1  0.344198  0.493822  0.200745  1
  Ge  Ge22  1  0.823606  0.000000  0.250000  1
  Ge  Ge23  1  0.000000  0.000000  0.500000  1
  Ge  Ge24  1  0.850376  0.506178  0.299255  1
  Ge  Ge25  1  0.333333  0.666667  0.445847  1
  Ge  Ge26  1  0.000000  0.823606  0.250000  1
  Ge  Ge27  1  0.823606  0.823606  0.750000  1
  Ge  Ge28  1  0.655802  0.149624  0.299255  1
  Ge  Ge29  1  0.506178  0.850376  0.200745  1
  Ge  Ge30  1  0.493822  0.149624  0.799255  1
  Ge  Ge31  1  0.333333  0.666667  0.945847  1
  Ge  Ge32  1  0.493822  0.344198  0.299255  1
  Ge  Ge33  1  0.000000  0.000000  0.000000  1
  Ge  Ge34  1  0.666667  0.333333  0.054153  1
  Ge  Ge35  1  0.149624  0.493822  0.700745  1
  O  O36  1  0.175526  0.583570  0.053759  1
  O  O37  1  0.096126  0.941129  0.380168  1
  O  O38  1  0.941129  0.845003  0.619832  1
  O  O39  1  0.000000  0.504997  0.250000  1
  O  O40  1  0.248639  0.737317  0.830548  1
  O  O41  1  0.262683  0.511322  0.830548  1
  O  O42  1  0.591956  0.416430  0.446241  1
  O  O43  1  0.751361  0.262683  0.169452  1
  O  O44  1  0.845003  0.941129  0.880168  1
  O  O45  1  0.504997  0.504997  0.750000  1
  O  O46  1  0.175526  0.591956  0.553759  1
  O  O47  1  0.903874  0.845003  0.119832  1
  O  O48  1  0.775649  0.674984  0.854420  1
  O  O49  1  0.495003  0.495003  0.250000  1
  O  O50  1  0.416430  0.824474  0.553759  1
  O  O51  1  0.583570  0.175526  0.446241  1
  O  O52  1  0.495003  0.000000  0.750000  1
  O  O53  1  0.058871  0.154997  0.380168  1
  O  O54  1  0.591956  0.175526  0.946241  1
  O  O55  1  0.583570  0.408044  0.946241  1
  O  O56  1  0.824474  0.408044  0.446241  1
  O  O57  1  0.224351  0.899335  0.645580  1
  O  O58  1  0.775649  0.100665  0.354420  1
  O  O59  1  0.000000  0.495003  0.750000  1
  O  O60  1  0.488678  0.737317  0.330548  1
  O  O61  1  0.154997  0.096126  0.619832  1
  O  O62  1  0.674984  0.775649  0.645580  1
  O  O63  1  0.408044  0.824474  0.053759  1
  O  O64  1  0.100665  0.325016  0.645580  1
  O  O65  1  0.751361  0.488678  0.669452  1
  O  O66  1  0.504997  0.000000  0.250000  1
  O  O67  1  0.845003  0.903874  0.380168  1
  O  O68  1  0.941129  0.096126  0.119832  1
  O  O69  1  0.325016  0.224351  0.354420  1
  O  O70  1  0.824474  0.416430  0.946241  1
  O  O71  1  0.511322  0.248639  0.169452  1
  O  O72  1  0.903874  0.058871  0.619832  1
  O  O73  1  0.248639  0.511322  0.330548  1
  O  O74  1  0.154997  0.058871  0.119832  1
  O  O75  1  0.511322  0.262683  0.669452  1
  O  O76  1  0.096126  0.154997  0.880168  1
  O  O77  1  0.058871  0.903874  0.880168  1
  O  O78  1  0.408044  0.583570  0.553759  1
  O  O79  1  0.899335  0.674984  0.354420  1
  O  O80  1  0.488678  0.751361  0.830548  1
  O  O81  1  0.416430  0.591956  0.053759  1
  O  O82  1  0.100665  0.775649  0.145580  1
  O  O83  1  0.674984  0.899335  0.145580  1
  O  O84  1  0.262683  0.751361  0.330548  1
  O  O85  1  0.899335  0.224351  0.854420  1
  O  O86  1  0.737317  0.488678  0.169452  1
  O  O87  1  0.224351  0.325016  0.145580  1
  O  O88  1  0.325016  0.100665  0.854420  1
  O  O89  1  0.737317  0.248639  0.669452  1
