# generated using pymatgen
data_Na2SrVP2O9
_symmetry_space_group_name_H-M   'P 1'
_cell_length_a   6.72136202
_cell_length_b   10.38060364
_cell_length_c   10.80425317
_cell_angle_alpha   90.00000000
_cell_angle_beta   90.00000000
_cell_angle_gamma   90.00000000
_symmetry_Int_Tables_number   1
_chemical_formula_structural   Na2SrVP2O9
_chemical_formula_sum   'Na8 Sr4 V4 P8 O36'
_cell_volume   753.83213785
_cell_formula_units_Z   4
loop_
 _symmetry_equiv_pos_site_id
 _symmetry_equiv_pos_as_xyz
  1  'x, y, z'
loop_
 _atom_site_type_symbol
 _atom_site_label
 _atom_site_symmetry_multiplicity
 _atom_site_fract_x
 _atom_site_fract_y
 _atom_site_fract_z
 _atom_site_occupancy
  Na  Na0  1  0.999900  0.365316  0.782714  1
  Na  Na1  1  0.999900  0.134684  0.282714  1
  Na  Na2  1  0.500100  0.134684  0.282714  1
  Na  Na3  1  0.500100  0.365316  0.782714  1
  Na  Na4  1  0.499900  0.634684  0.217286  1
  Na  Na5  1  0.000100  0.865316  0.717286  1
  Na  Na6  1  0.000100  0.634684  0.217286  1
  Na  Na7  1  0.499900  0.865316  0.717286  1
  Sr  Sr8  1  0.750000  0.095595  0.942719  1
  Sr  Sr9  1  0.250000  0.595595  0.557281  1
  Sr  Sr10  1  0.750000  0.404405  0.442719  1
  Sr  Sr11  1  0.250000  0.904405  0.057281  1
  V  V12  1  0.250000  0.187817  0.528183  1
  V  V13  1  0.750000  0.687817  0.971817  1
  V  V14  1  0.250000  0.312183  0.028183  1
  V  V15  1  0.750000  0.812183  0.471817  1
  P  P16  1  0.750000  0.368274  0.086489  1
  P  P17  1  0.250000  0.414904  0.316107  1
  P  P18  1  0.750000  0.131726  0.586489  1
  P  P19  1  0.250000  0.085096  0.816107  1
  P  P20  1  0.750000  0.585096  0.683893  1
  P  P21  1  0.750000  0.914904  0.183893  1
  P  P22  1  0.250000  0.868274  0.413511  1
  P  P23  1  0.250000  0.631726  0.913511  1
  O  O24  1  0.750000  0.517343  0.095652  1
  O  O25  1  0.750000  0.569151  0.827485  1
  O  O26  1  0.250000  0.802991  0.284817  1
  O  O27  1  0.933275  0.515146  0.631389  1
  O  O28  1  0.066725  0.484854  0.368611  1
  O  O29  1  0.750000  0.730181  0.647411  1
  O  O30  1  0.934636  0.319201  0.008019  1
  O  O31  1  0.566725  0.984854  0.131389  1
  O  O32  1  0.065364  0.819201  0.491981  1
  O  O33  1  0.434636  0.819201  0.491981  1
  O  O34  1  0.565364  0.319201  0.008019  1
  O  O35  1  0.934636  0.180799  0.508019  1
  O  O36  1  0.750000  0.982657  0.595652  1
  O  O37  1  0.250000  0.327497  0.603454  1
  O  O38  1  0.250000  0.230181  0.852589  1
  O  O39  1  0.250000  0.430849  0.172515  1
  O  O40  1  0.250000  0.069151  0.672515  1
  O  O41  1  0.250000  0.269819  0.352589  1
  O  O42  1  0.434636  0.680799  0.991981  1
  O  O43  1  0.750000  0.930849  0.327485  1
  O  O44  1  0.065364  0.680799  0.991981  1
  O  O45  1  0.066725  0.015146  0.868611  1
  O  O46  1  0.250000  0.482657  0.904348  1
  O  O47  1  0.433275  0.015146  0.868611  1
  O  O48  1  0.750000  0.672503  0.396546  1
  O  O49  1  0.250000  0.697009  0.784817  1
  O  O50  1  0.750000  0.302991  0.215183  1
  O  O51  1  0.933275  0.984854  0.131389  1
  O  O52  1  0.750000  0.769819  0.147411  1
  O  O53  1  0.750000  0.197009  0.715183  1
  O  O54  1  0.750000  0.827497  0.896546  1
  O  O55  1  0.250000  0.017343  0.404348  1
  O  O56  1  0.433275  0.484854  0.368611  1
  O  O57  1  0.566725  0.515146  0.631389  1
  O  O58  1  0.250000  0.172503  0.103454  1
  O  O59  1  0.565364  0.180799  0.508019  1
