# generated using pymatgen
data_GePb3O5
_symmetry_space_group_name_H-M   'P 1'
_cell_length_a   5.39641620
_cell_length_b   10.63445887
_cell_length_c   5.61798325
_cell_angle_alpha   90.00000000
_cell_angle_beta   93.28053123
_cell_angle_gamma   90.00000000
_symmetry_Int_Tables_number   1
_chemical_formula_structural   GePb3O5
_chemical_formula_sum   'Ge2 Pb6 O10'
_cell_volume   321.87631397
_cell_formula_units_Z   2
loop_
 _symmetry_equiv_pos_site_id
 _symmetry_equiv_pos_as_xyz
  1  'x, y, z'
loop_
 _atom_site_type_symbol
 _atom_site_label
 _atom_site_symmetry_multiplicity
 _atom_site_fract_x
 _atom_site_fract_y
 _atom_site_fract_z
 _atom_site_occupancy
  Ge  Ge0  1  0.976147  0.243348  0.547491  1
  Ge  Ge1  1  0.023853  0.743348  0.452509  1
  Pb  Pb2  1  0.975451  0.001389  0.047860  1
  Pb  Pb3  1  0.024549  0.501389  0.952140  1
  Pb  Pb4  1  0.495407  0.747393  0.987353  1
  Pb  Pb5  1  0.516353  0.516528  0.501183  1
  Pb  Pb6  1  0.483647  0.016528  0.498817  1
  Pb  Pb7  1  0.504593  0.247393  0.012647  1
  O  O8  1  0.928236  0.407823  0.528355  1
  O  O9  1  0.379332  0.049915  0.095626  1
  O  O10  1  0.827884  0.161475  0.299867  1
  O  O11  1  0.172116  0.661475  0.700133  1
  O  O12  1  0.071764  0.907823  0.471645  1
  O  O13  1  0.620668  0.549915  0.904374  1
  O  O14  1  0.300539  0.209489  0.585193  1
  O  O15  1  0.837198  0.181539  0.805894  1
  O  O16  1  0.699461  0.709489  0.414807  1
  O  O17  1  0.162802  0.681539  0.194106  1
