# generated using pymatgen
data_CdHg2SO6
_symmetry_space_group_name_H-M   'P 1'
_cell_length_a   6.88530849
_cell_length_b   7.37493793
_cell_length_c   7.57599541
_cell_angle_alpha   73.02816674
_cell_angle_beta   66.89294223
_cell_angle_gamma   63.57784710
_symmetry_Int_Tables_number   1
_chemical_formula_structural   CdHg2SO6
_chemical_formula_sum   'Cd2 Hg4 S2 O12'
_cell_volume   313.64656263
_cell_formula_units_Z   2
loop_
 _symmetry_equiv_pos_site_id
 _symmetry_equiv_pos_as_xyz
  1  'x, y, z'
loop_
 _atom_site_type_symbol
 _atom_site_label
 _atom_site_symmetry_multiplicity
 _atom_site_fract_x
 _atom_site_fract_y
 _atom_site_fract_z
 _atom_site_occupancy
  Cd  Cd0  1  0.669053  0.870236  0.775577  1
  Cd  Cd1  1  0.330947  0.129764  0.224423  1
  Hg  Hg2  1  0.157469  0.359717  0.783047  1
  Hg  Hg3  1  0.340774  0.636500  0.217559  1
  Hg  Hg4  1  0.659226  0.363500  0.782441  1
  Hg  Hg5  1  0.842531  0.640283  0.216953  1
  S  S6  1  0.207631  0.864423  0.694879  1
  S  S7  1  0.792369  0.135577  0.305121  1
  O  O8  1  0.030635  0.111263  0.177627  1
  O  O9  1  0.969365  0.888737  0.822373  1
  O  O10  1  0.548689  0.801633  0.136191  1
  O  O11  1  0.341382  0.825070  0.827212  1
  O  O12  1  0.451311  0.198367  0.863809  1
  O  O13  1  0.795934  0.939212  0.438321  1
  O  O14  1  0.850524  0.531263  0.733147  1
  O  O15  1  0.204066  0.060788  0.561679  1
  O  O16  1  0.149476  0.468737  0.266853  1
  O  O17  1  0.690010  0.309315  0.415159  1
  O  O18  1  0.309990  0.690685  0.584841  1
  O  O19  1  0.658618  0.174930  0.172788  1
