# generated using pymatgen
data_SbS(BrF2)3
_symmetry_space_group_name_H-M   'P 1'
_cell_length_a   8.49333358
_cell_length_b   9.57459991
_cell_length_c   12.77931160
_cell_angle_alpha   90.00000000
_cell_angle_beta   90.00000000
_cell_angle_gamma   90.00000000
_symmetry_Int_Tables_number   1
_chemical_formula_structural   SbS(BrF2)3
_chemical_formula_sum   'Sb4 S4 Br12 F24'
_cell_volume   1039.21708162
_cell_formula_units_Z   4
loop_
 _symmetry_equiv_pos_site_id
 _symmetry_equiv_pos_as_xyz
  1  'x, y, z'
loop_
 _atom_site_type_symbol
 _atom_site_label
 _atom_site_symmetry_multiplicity
 _atom_site_fract_x
 _atom_site_fract_y
 _atom_site_fract_z
 _atom_site_occupancy
  Sb  Sb0  1  0.305566  0.962201  0.191454  1
  Sb  Sb1  1  0.694434  0.462201  0.308546  1
  Sb  Sb2  1  0.194434  0.037799  0.691454  1
  Sb  Sb3  1  0.805566  0.537799  0.808546  1
  S  S4  1  0.655303  0.026292  0.479272  1
  S  S5  1  0.344697  0.526292  0.020728  1
  S  S6  1  0.155303  0.473708  0.520728  1
  S  S7  1  0.844697  0.973708  0.979272  1
  Br  Br8  1  0.282704  0.681117  0.902166  1
  Br  Br9  1  0.362748  0.497867  0.621054  1
  Br  Br10  1  0.150405  0.670119  0.433700  1
  Br  Br11  1  0.637252  0.997867  0.878946  1
  Br  Br12  1  0.862748  0.002133  0.378946  1
  Br  Br13  1  0.349595  0.329881  0.933700  1
  Br  Br14  1  0.137252  0.502133  0.121054  1
  Br  Br15  1  0.849595  0.170119  0.066300  1
  Br  Br16  1  0.782704  0.818883  0.097834  1
  Br  Br17  1  0.650405  0.829881  0.566300  1
  Br  Br18  1  0.717296  0.181117  0.597834  1
  Br  Br19  1  0.217296  0.318883  0.402166  1
  F  F20  1  0.566135  0.453859  0.185343  1
  F  F21  1  0.728650  0.355890  0.767595  1
  F  F22  1  0.367169  0.119088  0.770368  1
  F  F23  1  0.623180  0.278921  0.347512  1
  F  F24  1  0.123180  0.221079  0.652488  1
  F  F25  1  0.271350  0.855890  0.732405  1
  F  F26  1  0.433865  0.953859  0.314657  1
  F  F27  1  0.771350  0.644110  0.267595  1
  F  F28  1  0.171941  0.966147  0.070105  1
  F  F29  1  0.867169  0.380912  0.229632  1
  F  F30  1  0.027628  0.952826  0.613753  1
  F  F31  1  0.933865  0.546141  0.685343  1
  F  F32  1  0.527628  0.547174  0.386247  1
  F  F33  1  0.228650  0.144110  0.232405  1
  F  F34  1  0.328059  0.033853  0.570105  1
  F  F35  1  0.876820  0.721079  0.847512  1
  F  F36  1  0.376820  0.778921  0.152488  1
  F  F37  1  0.132831  0.880912  0.270368  1
  F  F38  1  0.828059  0.466147  0.429895  1
  F  F39  1  0.632831  0.619088  0.729632  1
  F  F40  1  0.972372  0.452826  0.886247  1
  F  F41  1  0.671941  0.533853  0.929895  1
  F  F42  1  0.066135  0.046141  0.814657  1
  F  F43  1  0.472372  0.047174  0.113753  1
