# generated using pymatgen
data_Zr(PO3)4
_symmetry_space_group_name_H-M   'P 1'
_cell_length_a   16.17687089
_cell_length_b   16.17687089
_cell_length_c   8.81719695
_cell_angle_alpha   89.98545008
_cell_angle_beta   90.01454992
_cell_angle_gamma   50.07317633
_symmetry_Int_Tables_number   1
_chemical_formula_structural   Zr(PO3)4
_chemical_formula_sum   'Zr8 P32 O96'
_cell_volume   1769.44996484
_cell_formula_units_Z   8
loop_
 _symmetry_equiv_pos_site_id
 _symmetry_equiv_pos_as_xyz
  1  'x, y, z'
loop_
 _atom_site_type_symbol
 _atom_site_label
 _atom_site_symmetry_multiplicity
 _atom_site_fract_x
 _atom_site_fract_y
 _atom_site_fract_z
 _atom_site_occupancy
  Zr  Zr0  1  0.948623  0.415095  0.250616  1
  Zr  Zr1  1  0.415095  0.948623  0.249384  1
  Zr  Zr2  1  0.432224  0.432224  0.250000  1
  Zr  Zr3  1  0.930767  0.930767  0.250000  1
  Zr  Zr4  1  0.567776  0.567776  0.750000  1
  Zr  Zr5  1  0.584905  0.051377  0.750616  1
  Zr  Zr6  1  0.069233  0.069233  0.750000  1
  Zr  Zr7  1  0.051377  0.584905  0.749384  1
  P  P8  1  0.153129  0.368344  0.004186  1
  P  P9  1  0.517742  0.683461  0.134119  1
  P  P10  1  0.372169  0.651721  0.025104  1
  P  P11  1  0.646738  0.867471  0.027067  1
  P  P12  1  0.479012  0.825686  0.628244  1
  P  P13  1  0.136384  0.849828  0.989204  1
  P  P14  1  0.132529  0.353262  0.527067  1
  P  P15  1  0.520988  0.174314  0.371756  1
  P  P16  1  0.014362  0.676632  0.363792  1
  P  P17  1  0.825686  0.479012  0.871756  1
  P  P18  1  0.174314  0.520988  0.128244  1
  P  P19  1  0.368344  0.153129  0.495814  1
  P  P20  1  0.316539  0.482258  0.634119  1
  P  P21  1  0.683461  0.517742  0.365881  1
  P  P22  1  0.846871  0.631656  0.995814  1
  P  P23  1  0.651721  0.372169  0.474896  1
  P  P24  1  0.482258  0.316539  0.865881  1
  P  P25  1  0.863616  0.150172  0.010796  1
  P  P26  1  0.867471  0.646738  0.472933  1
  P  P27  1  0.982148  0.832479  0.868601  1
  P  P28  1  0.676632  0.014362  0.136208  1
  P  P29  1  0.849828  0.136384  0.510796  1
  P  P30  1  0.631656  0.846871  0.504186  1
  P  P31  1  0.348279  0.627831  0.525104  1
  P  P32  1  0.353262  0.132529  0.972933  1
  P  P33  1  0.150172  0.863616  0.489204  1
  P  P34  1  0.167521  0.017852  0.368601  1
  P  P35  1  0.017852  0.167521  0.131399  1
  P  P36  1  0.627831  0.348279  0.974896  1
  P  P37  1  0.985638  0.323368  0.636208  1
  P  P38  1  0.832479  0.982148  0.631399  1
  P  P39  1  0.323368  0.985638  0.863792  1
  O  O40  1  0.585689  0.585689  0.250000  1
  O  O41  1  0.593695  0.348263  0.131566  1
  O  O42  1  0.843290  0.085325  0.093223  1
  O  O43  1  0.098709  0.799888  0.878695  1
  O  O44  1  0.570642  0.086842  0.237167  1
  O  O45  1  0.124096  0.582689  0.984364  1
  O  O46  1  0.733357  0.740619  0.052998  1
  O  O47  1  0.649688  0.899701  0.867917  1
  O  O48  1  0.593329  0.296360  0.859147  1
  O  O49  1  0.257593  0.004802  0.292473  1
  O  O50  1  0.156710  0.914675  0.906777  1
  O  O51  1  0.566171  0.648279  0.979087  1
  O  O52  1  0.494648  0.780328  0.207849  1
  O  O53  1  0.594421  0.452086  0.912738  1
  O  O54  1  0.097217  0.458717  0.580670  1
  O  O55  1  0.547914  0.405579  0.412738  1
  O  O56  1  0.351721  0.433829  0.479087  1
  O  O57  1  0.648279  0.566171  0.520913  1
  O  O58  1  0.593536  0.798787  0.618373  1
  O  O59  1  0.651737  0.406305  0.631566  1
  O  O60  1  0.201213  0.406464  0.118373  1
  O  O61  1  0.260180  0.754139  0.548603  1
  O  O62  1  0.555679  0.898075  0.370425  1
  O  O63  1  0.541283  0.902783  0.080670  1
  O  O64  1  0.101925  0.444321  0.870425  1
  O  O65  1  0.458717  0.097217  0.919330  1
  O  O66  1  0.939467  0.098282  0.875579  1
  O  O67  1  0.798787  0.593536  0.881627  1
  O  O68  1  0.406464  0.201213  0.381627  1
  O  O69  1  0.582689  0.124096  0.515636  1
  O  O70  1  0.995198  0.742407  0.792473  1
  O  O71  1  0.348263  0.593695  0.368434  1
  O  O72  1  0.405579  0.547914  0.087262  1
  O  O73  1  0.086842  0.570642  0.262833  1
  O  O74  1  0.406305  0.651737  0.868434  1
  O  O75  1  0.350312  0.100299  0.132083  1
  O  O76  1  0.696907  0.902962  0.140981  1
  O  O77  1  0.444321  0.101925  0.629575  1
  O  O78  1  0.901718  0.060533  0.375579  1
  O  O79  1  0.086056  0.348021  0.082680  1
  O  O80  1  0.902962  0.696907  0.359019  1
  O  O81  1  0.650905  0.057307  0.976908  1
  O  O82  1  0.503317  0.270088  0.309975  1
  O  O83  1  0.085325  0.843290  0.406777  1
  O  O84  1  0.100299  0.350312  0.367917  1
  O  O85  1  0.505352  0.219672  0.792151  1
  O  O86  1  0.742407  0.995198  0.707527  1
  O  O87  1  0.296360  0.593329  0.640853  1
  O  O88  1  0.754139  0.260180  0.951397  1
  O  O89  1  0.245861  0.739820  0.048603  1
  O  O90  1  0.406671  0.703640  0.140853  1
  O  O91  1  0.924650  0.874071  0.017204  1
  O  O92  1  0.232406  0.004355  0.775589  1
  O  O93  1  0.071225  0.071225  0.250000  1
  O  O94  1  0.780328  0.494648  0.292151  1
  O  O95  1  0.219672  0.505352  0.707849  1
  O  O96  1  0.496683  0.729912  0.690025  1
  O  O97  1  0.913158  0.429358  0.737167  1
  O  O98  1  0.270088  0.503317  0.190025  1
  O  O99  1  0.417311  0.875904  0.484364  1
  O  O100  1  0.902783  0.541283  0.419330  1
  O  O101  1  0.097038  0.303093  0.640981  1
  O  O102  1  0.740619  0.733357  0.447002  1
  O  O103  1  0.349095  0.942693  0.023092  1
  O  O104  1  0.125929  0.075350  0.517204  1
  O  O105  1  0.913944  0.651979  0.917320  1
  O  O106  1  0.799888  0.098709  0.621305  1
  O  O107  1  0.266643  0.259381  0.947002  1
  O  O108  1  0.729912  0.496683  0.809975  1
  O  O109  1  0.928775  0.928775  0.750000  1
  O  O110  1  0.898075  0.555679  0.129575  1
  O  O111  1  0.433829  0.351721  0.020913  1
  O  O112  1  0.259381  0.266643  0.552998  1
  O  O113  1  0.004355  0.232406  0.724411  1
  O  O114  1  0.914675  0.156710  0.593223  1
  O  O115  1  0.075350  0.125929  0.982796  1
  O  O116  1  0.874071  0.924650  0.482796  1
  O  O117  1  0.767594  0.995645  0.224411  1
  O  O118  1  0.651979  0.913944  0.582680  1
  O  O119  1  0.057307  0.650905  0.523092  1
  O  O120  1  0.739820  0.245861  0.451397  1
  O  O121  1  0.348021  0.086056  0.417320  1
  O  O122  1  0.429358  0.913158  0.762833  1
  O  O123  1  0.901291  0.200112  0.121305  1
  O  O124  1  0.995645  0.767594  0.275589  1
  O  O125  1  0.899701  0.649688  0.632083  1
  O  O126  1  0.060533  0.901718  0.124421  1
  O  O127  1  0.303093  0.097038  0.859019  1
  O  O128  1  0.452086  0.594421  0.587262  1
  O  O129  1  0.703640  0.406671  0.359147  1
  O  O130  1  0.004802  0.257593  0.207527  1
  O  O131  1  0.200112  0.901291  0.378695  1
  O  O132  1  0.414311  0.414311  0.750000  1
  O  O133  1  0.098282  0.939467  0.624421  1
  O  O134  1  0.942693  0.349095  0.476908  1
  O  O135  1  0.875904  0.417311  0.015636  1
