# generated using pymatgen
data_Rb2TiO3
_symmetry_space_group_name_H-M   'P 1'
_cell_length_a   6.78508117
_cell_length_b   6.78508117
_cell_length_c   13.53612155
_cell_angle_alpha   90.00000000
_cell_angle_beta   90.00000000
_cell_angle_gamma   126.65700110
_symmetry_Int_Tables_number   1
_chemical_formula_structural   Rb2TiO3
_chemical_formula_sum   'Rb8 Ti4 O12'
_cell_volume   499.91935101
_cell_formula_units_Z   4
loop_
 _symmetry_equiv_pos_site_id
 _symmetry_equiv_pos_as_xyz
  1  'x, y, z'
loop_
 _atom_site_type_symbol
 _atom_site_label
 _atom_site_symmetry_multiplicity
 _atom_site_fract_x
 _atom_site_fract_y
 _atom_site_fract_z
 _atom_site_occupancy
  Rb  Rb0  1  0.367215  0.632785  0.573440  1
  Rb  Rb1  1  0.867215  0.132785  0.926560  1
  Rb  Rb2  1  0.132785  0.867215  0.073440  1
  Rb  Rb3  1  0.632785  0.367215  0.426560  1
  Rb  Rb4  1  0.442303  0.557697  0.136881  1
  Rb  Rb5  1  0.557697  0.442303  0.863119  1
  Rb  Rb6  1  0.057697  0.942303  0.636881  1
  Rb  Rb7  1  0.942303  0.057697  0.363119  1
  Ti  Ti8  1  0.755114  0.244886  0.170642  1
  Ti  Ti9  1  0.744886  0.255114  0.670642  1
  Ti  Ti10  1  0.244886  0.755114  0.829358  1
  Ti  Ti11  1  0.255114  0.744886  0.329358  1
  O  O12  1  0.975065  0.524935  0.250000  1
  O  O13  1  0.524935  0.975065  0.750000  1
  O  O14  1  0.024935  0.475065  0.750000  1
  O  O15  1  0.475065  0.024935  0.250000  1
  O  O16  1  0.397563  0.602437  0.363161  1
  O  O17  1  0.602437  0.397563  0.636839  1
  O  O18  1  0.102437  0.897563  0.863161  1
  O  O19  1  0.667891  0.332109  0.064435  1
  O  O20  1  0.167891  0.832109  0.435565  1
  O  O21  1  0.832109  0.167891  0.564435  1
  O  O22  1  0.332109  0.667891  0.935565  1
  O  O23  1  0.897563  0.102437  0.136839  1
