# generated using pymatgen
data_Sr(AlCl4)2
_symmetry_space_group_name_H-M   'P 1'
_cell_length_a   13.34183080
_cell_length_b   13.34183080
_cell_length_c   13.34183080
_cell_angle_alpha   128.26179593
_cell_angle_beta   128.26179593
_cell_angle_gamma   76.20131133
_symmetry_Int_Tables_number   1
_chemical_formula_structural   Sr(AlCl4)2
_chemical_formula_sum   'Sr4 Al8 Cl32'
_cell_volume   1423.13062753
_cell_formula_units_Z   4
loop_
 _symmetry_equiv_pos_site_id
 _symmetry_equiv_pos_as_xyz
  1  'x, y, z'
loop_
 _atom_site_type_symbol
 _atom_site_label
 _atom_site_symmetry_multiplicity
 _atom_site_fract_x
 _atom_site_fract_y
 _atom_site_fract_z
 _atom_site_occupancy
  Sr  Sr0  1  0.000000  0.500000  0.500000  1
  Sr  Sr1  1  0.750000  0.750000  0.000000  1
  Sr  Sr2  1  0.250000  0.250000  0.000000  1
  Sr  Sr3  1  0.500000  0.000000  0.500000  1
  Al  Al4  1  0.625000  0.838146  0.713146  1
  Al  Al5  1  0.125000  0.411854  0.786854  1
  Al  Al6  1  0.161854  0.875000  0.786854  1
  Al  Al7  1  0.125000  0.911854  0.286854  1
  Al  Al8  1  0.088146  0.375000  0.213146  1
  Al  Al9  1  0.588146  0.375000  0.713146  1
  Al  Al10  1  0.661854  0.875000  0.286854  1
  Al  Al11  1  0.625000  0.338146  0.213146  1
  Cl  Cl12  1  0.040197  0.723252  0.183835  1
  Cl  Cl13  1  0.473252  0.789417  0.183055  1
  Cl  Cl14  1  0.776748  0.459803  0.816165  1
  Cl  Cl15  1  0.143638  0.959803  0.683055  1
  Cl  Cl16  1  0.290888  0.025270  0.542648  1
  Cl  Cl17  1  0.209803  0.893638  0.183055  1
  Cl  Cl18  1  0.459112  0.224730  0.957352  1
  Cl  Cl19  1  0.267378  0.501760  0.042648  1
  Cl  Cl20  1  0.775270  0.732623  0.234383  1
  Cl  Cl21  1  0.474730  0.209112  0.457352  1
  Cl  Cl22  1  0.606362  0.290197  0.816945  1
  Cl  Cl23  1  0.498240  0.540888  0.765617  1
  Cl  Cl24  1  0.790888  0.248240  0.265617  1
  Cl  Cl25  1  0.540197  0.356362  0.316945  1
  Cl  Cl26  1  0.973252  0.790197  0.683835  1
  Cl  Cl27  1  0.276748  0.460583  0.316945  1
  Cl  Cl28  1  0.959112  0.001760  0.234383  1
  Cl  Cl29  1  0.982623  0.525270  0.734383  1
  Cl  Cl30  1  0.974730  0.517378  0.265617  1
  Cl  Cl31  1  0.710583  0.026748  0.816945  1
  Cl  Cl32  1  0.210583  0.393638  0.683835  1
  Cl  Cl33  1  0.751760  0.017377  0.542648  1
  Cl  Cl34  1  0.106362  0.289417  0.316165  1
  Cl  Cl35  1  0.251760  0.709112  0.734383  1
  Cl  Cl36  1  0.998240  0.232623  0.957352  1
  Cl  Cl37  1  0.539417  0.856362  0.816165  1
  Cl  Cl38  1  0.039417  0.223252  0.683055  1
  Cl  Cl39  1  0.767378  0.724730  0.765617  1
  Cl  Cl40  1  0.643638  0.960583  0.183835  1
  Cl  Cl41  1  0.275270  0.040888  0.042648  1
  Cl  Cl42  1  0.709803  0.526748  0.316165  1
  Cl  Cl43  1  0.482623  0.748240  0.457352  1
