# generated using pymatgen
data_BaLiAlF6
_symmetry_space_group_name_H-M   'P 1'
_cell_length_a   5.42481327
_cell_length_b   10.32096405
_cell_length_c   8.64929233
_cell_angle_alpha   90.00000000
_cell_angle_beta   90.34807586
_cell_angle_gamma   90.00000000
_symmetry_Int_Tables_number   1
_chemical_formula_structural   BaLiAlF6
_chemical_formula_sum   'Ba4 Li4 Al4 F24'
_cell_volume   484.25891055
_cell_formula_units_Z   4
loop_
 _symmetry_equiv_pos_site_id
 _symmetry_equiv_pos_as_xyz
  1  'x, y, z'
loop_
 _atom_site_type_symbol
 _atom_site_label
 _atom_site_symmetry_multiplicity
 _atom_site_fract_x
 _atom_site_fract_y
 _atom_site_fract_z
 _atom_site_occupancy
  Ba  Ba0  1  0.297033  0.686861  0.004453  1
  Ba  Ba1  1  0.702967  0.186861  0.495547  1
  Ba  Ba2  1  0.702967  0.313139  0.995547  1
  Ba  Ba3  1  0.297033  0.813139  0.504453  1
  Li  Li4  1  0.761130  0.585832  0.324908  1
  Li  Li5  1  0.238870  0.085832  0.175092  1
  Li  Li6  1  0.238870  0.414168  0.675092  1
  Li  Li7  1  0.761130  0.914168  0.824908  1
  Al  Al8  1  0.761895  0.911523  0.231336  1
  Al  Al9  1  0.238105  0.411523  0.268664  1
  Al  Al10  1  0.238105  0.088477  0.768664  1
  Al  Al11  1  0.761895  0.588477  0.731336  1
  F  F12  1  0.611836  0.751039  0.259617  1
  F  F13  1  0.388164  0.251039  0.240383  1
  F  F14  1  0.388164  0.248961  0.740383  1
  F  F15  1  0.611836  0.748961  0.759617  1
  F  F16  1  0.669159  0.897684  0.032010  1
  F  F17  1  0.330841  0.397684  0.467990  1
  F  F18  1  0.330841  0.102316  0.967990  1
  F  F19  1  0.669159  0.602316  0.532010  1
  F  F20  1  0.889931  0.075628  0.206788  1
  F  F21  1  0.110069  0.575628  0.293212  1
  F  F22  1  0.110069  0.924372  0.793212  1
  F  F23  1  0.889931  0.424372  0.706788  1
  F  F24  1  0.830093  0.910692  0.440693  1
  F  F25  1  0.169907  0.410692  0.059307  1
  F  F26  1  0.169907  0.089308  0.559307  1
  F  F27  1  0.830093  0.589308  0.940693  1
  F  F28  1  0.061718  0.841796  0.197512  1
  F  F29  1  0.938282  0.341796  0.302488  1
  F  F30  1  0.938282  0.158204  0.802488  1
  F  F31  1  0.061718  0.658204  0.697512  1
  F  F32  1  0.471192  0.989744  0.290691  1
  F  F33  1  0.528808  0.489744  0.209309  1
  F  F34  1  0.528808  0.010256  0.709309  1
  F  F35  1  0.471192  0.510256  0.790691  1
