# generated using pymatgen
data_Na2MnF5
_symmetry_space_group_name_H-M   'P 1'
_cell_length_a   7.85296197
_cell_length_b   5.33229331
_cell_length_c   11.01800424
_cell_angle_alpha   90.00000000
_cell_angle_beta   108.71583981
_cell_angle_gamma   90.00000000
_symmetry_Int_Tables_number   1
_chemical_formula_structural   Na2MnF5
_chemical_formula_sum   'Na8 Mn4 F20'
_cell_volume   436.97461028
_cell_formula_units_Z   4
loop_
 _symmetry_equiv_pos_site_id
 _symmetry_equiv_pos_as_xyz
  1  'x, y, z'
loop_
 _atom_site_type_symbol
 _atom_site_label
 _atom_site_symmetry_multiplicity
 _atom_site_fract_x
 _atom_site_fract_y
 _atom_site_fract_z
 _atom_site_occupancy
  Na  Na0  1  0.345330  0.943248  0.680249  1
  Na  Na1  1  0.654670  0.443248  0.819751  1
  Na  Na2  1  0.654670  0.056752  0.319751  1
  Na  Na3  1  0.345330  0.556752  0.180249  1
  Na  Na4  1  0.148849  0.487228  0.868402  1
  Na  Na5  1  0.851151  0.987228  0.631598  1
  Na  Na6  1  0.851151  0.512772  0.131598  1
  Na  Na7  1  0.148849  0.012772  0.368402  1
  Mn  Mn8  1  0.500000  0.500000  0.500000  1
  Mn  Mn9  1  0.500000  0.000000  0.000000  1
  Mn  Mn10  1  0.000000  0.500000  0.500000  1
  Mn  Mn11  1  0.000000  0.000000  0.000000  1
  F  F12  1  0.494335  0.743132  0.373566  1
  F  F13  1  0.505665  0.243132  0.126434  1
  F  F14  1  0.505665  0.256868  0.626434  1
  F  F15  1  0.494335  0.756868  0.873566  1
  F  F16  1  0.621458  0.718788  0.635370  1
  F  F17  1  0.378542  0.218788  0.864630  1
  F  F18  1  0.378542  0.281212  0.364630  1
  F  F19  1  0.621458  0.781212  0.135370  1
  F  F20  1  0.250937  0.671558  0.503240  1
  F  F21  1  0.749063  0.171558  0.996760  1
  F  F22  1  0.749063  0.328442  0.496760  1
  F  F23  1  0.250937  0.828442  0.003240  1
  F  F24  1  0.046749  0.851287  0.165995  1
  F  F25  1  0.953251  0.351287  0.334005  1
  F  F26  1  0.953251  0.148713  0.834005  1
  F  F27  1  0.046749  0.648713  0.665995  1
  F  F28  1  0.890942  0.698805  0.925907  1
  F  F29  1  0.109058  0.198805  0.574093  1
  F  F30  1  0.109058  0.301195  0.074093  1
  F  F31  1  0.890942  0.801195  0.425907  1
