# generated using pymatgen
data_CdP2Xe5F22
_symmetry_space_group_name_H-M   'P 1'
_cell_length_a   8.77162403
_cell_length_b   14.82101455
_cell_length_c   17.70345482
_cell_angle_alpha   90.00000000
_cell_angle_beta   90.00000000
_cell_angle_gamma   90.00000000
_symmetry_Int_Tables_number   1
_chemical_formula_structural   CdP2Xe5F22
_chemical_formula_sum   'Cd4 P8 Xe20 F88'
_cell_volume   2301.52644424
_cell_formula_units_Z   4
loop_
 _symmetry_equiv_pos_site_id
 _symmetry_equiv_pos_as_xyz
  1  'x, y, z'
loop_
 _atom_site_type_symbol
 _atom_site_label
 _atom_site_symmetry_multiplicity
 _atom_site_fract_x
 _atom_site_fract_y
 _atom_site_fract_z
 _atom_site_occupancy
  Cd  Cd0  1  0.906794  0.176060  0.739673  1
  Cd  Cd1  1  0.406794  0.323940  0.239673  1
  Cd  Cd2  1  0.406794  0.823940  0.260327  1
  Cd  Cd3  1  0.906794  0.676060  0.760327  1
  P  P4  1  0.630289  0.035598  0.872986  1
  P  P5  1  0.630289  0.535598  0.627014  1
  P  P6  1  0.140606  0.519496  0.877295  1
  P  P7  1  0.130289  0.464402  0.372986  1
  P  P8  1  0.640606  0.980504  0.377295  1
  P  P9  1  0.640606  0.480504  0.122705  1
  P  P10  1  0.140606  0.019496  0.622705  1
  P  P11  1  0.130289  0.964402  0.127014  1
  Xe  Xe12  1  0.139193  0.483891  0.630961  1
  Xe  Xe13  1  0.849170  0.287172  0.534938  1
  Xe  Xe14  1  0.645172  0.489606  0.875050  1
  Xe  Xe15  1  0.877362  0.741396  0.253338  1
  Xe  Xe16  1  0.145172  0.510394  0.124950  1
  Xe  Xe17  1  0.377362  0.758604  0.753338  1
  Xe  Xe18  1  0.849170  0.787172  0.965062  1
  Xe  Xe19  1  0.877362  0.241396  0.246662  1
  Xe  Xe20  1  0.645172  0.989606  0.624950  1
  Xe  Xe21  1  0.377362  0.258604  0.746662  1
  Xe  Xe22  1  0.411969  0.232490  0.454272  1
  Xe  Xe23  1  0.911969  0.767510  0.545728  1
  Xe  Xe24  1  0.349170  0.212828  0.034938  1
  Xe  Xe25  1  0.145172  0.010394  0.375050  1
  Xe  Xe26  1  0.139193  0.983891  0.869039  1
  Xe  Xe27  1  0.349170  0.712828  0.465062  1
  Xe  Xe28  1  0.639193  0.516109  0.369039  1
  Xe  Xe29  1  0.911969  0.267510  0.954272  1
  Xe  Xe30  1  0.639193  0.016109  0.130961  1
  Xe  Xe31  1  0.411969  0.732490  0.045728  1
  F  F32  1  0.070782  0.611409  0.674678  1
  F  F33  1  0.770743  0.979850  0.311563  1
  F  F34  1  0.685532  0.582473  0.098638  1
  F  F35  1  0.092151  0.626262  0.851459  1
  F  F36  1  0.404615  0.210958  0.151733  1
  F  F37  1  0.976475  0.268610  0.065152  1
  F  F38  1  0.258344  0.437088  0.303984  1
  F  F39  1  0.139473  0.774067  0.745548  1
  F  F40  1  0.752694  0.616016  0.853100  1
  F  F41  1  0.623738  0.141673  0.897071  1
  F  F42  1  0.206832  0.862950  0.912995  1
  F  F43  1  0.639473  0.225933  0.254452  1
  F  F44  1  0.515145  0.017347  0.315552  1
  F  F45  1  0.773601  0.520390  0.569300  1
  F  F46  1  0.611254  0.748274  0.761749  1
  F  F47  1  0.123738  0.858327  0.102929  1
  F  F48  1  0.761827  0.937554  0.436951  1
  F  F49  1  0.788297  0.291375  0.423712  1
  F  F50  1  0.507548  0.477085  0.058332  1
  F  F51  1  0.045650  0.631499  0.101250  1
  F  F52  1  0.270743  0.520150  0.811563  1
  F  F53  1  0.685532  0.082473  0.401362  1
  F  F54  1  0.642651  0.431128  0.653929  1
  F  F55  1  0.493571  0.552235  0.687781  1
  F  F56  1  0.788297  0.791375  0.076288  1
  F  F57  1  0.770743  0.479850  0.188437  1
  F  F58  1  0.515145  0.517347  0.184448  1
  F  F59  1  0.476475  0.731390  0.934848  1
  F  F60  1  0.185532  0.917527  0.598638  1
  F  F61  1  0.545650  0.368501  0.898750  1
  F  F62  1  0.354185  0.228830  0.337663  1
  F  F63  1  0.288297  0.208625  0.923712  1
  F  F64  1  0.070782  0.111409  0.825322  1
  F  F65  1  0.592151  0.873738  0.351459  1
  F  F66  1  0.976475  0.768610  0.434848  1
  F  F67  1  0.258344  0.937088  0.196016  1
  F  F68  1  0.008786  0.990610  0.060992  1
  F  F69  1  0.761827  0.437554  0.063049  1
  F  F70  1  0.008786  0.490610  0.439008  1
  F  F71  1  0.123738  0.358327  0.397071  1
  F  F72  1  0.758344  0.062912  0.803984  1
  F  F73  1  0.142651  0.068872  0.153929  1
  F  F74  1  0.904615  0.289042  0.651733  1
  F  F75  1  0.273601  0.979610  0.069300  1
  F  F76  1  0.273601  0.479610  0.430700  1
  F  F77  1  0.261827  0.562446  0.936951  1
  F  F78  1  0.288297  0.708625  0.576288  1
  F  F79  1  0.092151  0.126262  0.648541  1
  F  F80  1  0.545650  0.868501  0.601250  1
  F  F81  1  0.045650  0.131499  0.398750  1
  F  F82  1  0.252694  0.883984  0.353100  1
  F  F83  1  0.404615  0.710958  0.348267  1
  F  F84  1  0.611254  0.248274  0.738251  1
  F  F85  1  0.007548  0.522915  0.941668  1
  F  F86  1  0.015145  0.482653  0.815552  1
  F  F87  1  0.261827  0.062446  0.563049  1
  F  F88  1  0.706832  0.637050  0.412995  1
  F  F89  1  0.706832  0.137050  0.087005  1
  F  F90  1  0.758344  0.562912  0.696016  1
  F  F91  1  0.993571  0.947765  0.187781  1
  F  F92  1  0.270743  0.020150  0.688437  1
  F  F93  1  0.773601  0.020390  0.930700  1
  F  F94  1  0.139473  0.274067  0.754452  1
  F  F95  1  0.854185  0.271170  0.837663  1
  F  F96  1  0.508786  0.509390  0.560992  1
  F  F97  1  0.570782  0.888591  0.174678  1
  F  F98  1  0.507548  0.977085  0.441668  1
  F  F99  1  0.493571  0.052235  0.812219  1
  F  F100  1  0.623738  0.641673  0.602929  1
  F  F101  1  0.142651  0.568872  0.346071  1
  F  F102  1  0.111254  0.751726  0.261749  1
  F  F103  1  0.111254  0.251726  0.238251  1
  F  F104  1  0.252694  0.383984  0.146900  1
  F  F105  1  0.639473  0.725933  0.245548  1
  F  F106  1  0.007548  0.022915  0.558332  1
  F  F107  1  0.752694  0.116016  0.646900  1
  F  F108  1  0.476475  0.231390  0.565152  1
  F  F109  1  0.904615  0.789042  0.848267  1
  F  F110  1  0.570782  0.388591  0.325322  1
  F  F111  1  0.993571  0.447765  0.312219  1
  F  F112  1  0.642651  0.931128  0.846071  1
  F  F113  1  0.508786  0.009390  0.939008  1
  F  F114  1  0.015145  0.982653  0.684448  1
  F  F115  1  0.185532  0.417527  0.901362  1
  F  F116  1  0.854185  0.771170  0.662337  1
  F  F117  1  0.206832  0.362950  0.587005  1
  F  F118  1  0.354185  0.728830  0.162337  1
  F  F119  1  0.592151  0.373738  0.148541  1
