# generated using pymatgen
data_Rb4(BSe)9
_symmetry_space_group_name_H-M   'P 1'
_cell_length_a   10.60631774
_cell_length_b   10.76849738
_cell_length_c   11.14268091
_cell_angle_alpha   91.85431122
_cell_angle_beta   104.15181407
_cell_angle_gamma   109.59384322
_symmetry_Int_Tables_number   1
_chemical_formula_structural   Rb4(BSe)9
_chemical_formula_sum   'Rb8 B18 Se18'
_cell_volume   1153.42562503
_cell_formula_units_Z   2
loop_
 _symmetry_equiv_pos_site_id
 _symmetry_equiv_pos_as_xyz
  1  'x, y, z'
loop_
 _atom_site_type_symbol
 _atom_site_label
 _atom_site_symmetry_multiplicity
 _atom_site_fract_x
 _atom_site_fract_y
 _atom_site_fract_z
 _atom_site_occupancy
  Rb  Rb0  1  0.358692  0.996518  0.631104  1
  Rb  Rb1  1  0.641308  0.003482  0.368896  1
  Rb  Rb2  1  0.388766  0.628463  0.869051  1
  Rb  Rb3  1  0.611234  0.371537  0.130949  1
  Rb  Rb4  1  0.248319  0.370674  0.526082  1
  Rb  Rb5  1  0.751681  0.629326  0.473918  1
  Rb  Rb6  1  0.170792  0.615791  0.254697  1
  Rb  Rb7  1  0.829208  0.384209  0.745303  1
  B  B8  1  0.874128  0.862530  0.914822  1
  B  B9  1  0.125872  0.137470  0.085178  1
  B  B10  1  0.879790  0.023611  0.878560  1
  B  B11  1  0.120210  0.976389  0.121440  1
  B  B12  1  0.838962  0.967441  0.017981  1
  B  B13  1  0.161038  0.032559  0.982019  1
  B  B14  1  0.940549  0.869796  0.079384  1
  B  B15  1  0.059451  0.130204  0.920616  1
  B  B16  1  0.047171  0.866179  0.977746  1
  B  B17  1  0.952829  0.133821  0.022254  1
  B  B18  1  0.009913  0.962192  0.855727  1
  B  B19  1  0.990087  0.037808  0.144273  1
  B  B20  1  0.637205  0.820734  0.687051  1
  B  B21  1  0.362795  0.179266  0.312949  1
  B  B22  1  0.667677  0.760986  0.143341  1
  B  B23  1  0.332323  0.239014  0.856659  1
  B  B24  1  0.077076  0.744487  0.743325  1
  B  B25  1  0.922924  0.255513  0.256675  1
  Se  Se26  1  0.718066  0.711386  0.799574  1
  Se  Se27  1  0.281934  0.288614  0.200426  1
  Se  Se28  1  0.725740  0.018395  0.727568  1
  Se  Se29  1  0.274260  0.981605  0.272432  1
  Se  Se30  1  0.651543  0.912605  0.052013  1
  Se  Se31  1  0.348457  0.087395  0.947987  1
  Se  Se32  1  0.844126  0.723782  0.169891  1
  Se  Se33  1  0.155874  0.276218  0.830109  1
  Se  Se34  1  0.094663  0.711281  0.921510  1
  Se  Se35  1  0.905337  0.288719  0.078490  1
  Se  Se36  1  0.026486  0.899758  0.690311  1
  Se  Se37  1  0.973514  0.100242  0.309689  1
  Se  Se38  1  0.479369  0.741033  0.545688  1
  Se  Se39  1  0.520631  0.258967  0.454312  1
  Se  Se40  1  0.518539  0.651048  0.204066  1
  Se  Se41  1  0.481461  0.348952  0.795934  1
  Se  Se42  1  0.101801  0.628250  0.625025  1
  Se  Se43  1  0.898199  0.371750  0.374975  1
