# generated using pymatgen
data_Cs3Ta2S11
_symmetry_space_group_name_H-M   'P 1'
_cell_length_a   12.32683744
_cell_length_b   8.34414482
_cell_length_c   20.08221423
_cell_angle_alpha   90.00000000
_cell_angle_beta   102.25822117
_cell_angle_gamma   90.00000000
_symmetry_Int_Tables_number   1
_chemical_formula_structural   Cs3Ta2S11
_chemical_formula_sum   'Cs12 Ta8 S44'
_cell_volume   2018.50042638
_cell_formula_units_Z   4
loop_
 _symmetry_equiv_pos_site_id
 _symmetry_equiv_pos_as_xyz
  1  'x, y, z'
loop_
 _atom_site_type_symbol
 _atom_site_label
 _atom_site_symmetry_multiplicity
 _atom_site_fract_x
 _atom_site_fract_y
 _atom_site_fract_z
 _atom_site_occupancy
  Cs  Cs0  1  0.963733  0.840639  0.358105  1
  Cs  Cs1  1  0.503390  0.818290  0.337309  1
  Cs  Cs2  1  0.503390  0.681710  0.837309  1
  Cs  Cs3  1  0.729030  0.687296  0.618281  1
  Cs  Cs4  1  0.496610  0.181710  0.662691  1
  Cs  Cs5  1  0.963733  0.659361  0.858105  1
  Cs  Cs6  1  0.496610  0.318290  0.162691  1
  Cs  Cs7  1  0.270970  0.187296  0.881719  1
  Cs  Cs8  1  0.729030  0.812704  0.118281  1
  Cs  Cs9  1  0.036267  0.159361  0.641895  1
  Cs  Cs10  1  0.270970  0.312704  0.381719  1
  Cs  Cs11  1  0.036267  0.340639  0.141895  1
  Ta  Ta12  1  0.789787  0.143380  0.843263  1
  Ta  Ta13  1  0.306832  0.778222  0.506581  1
  Ta  Ta14  1  0.693168  0.278222  0.993419  1
  Ta  Ta15  1  0.693168  0.221778  0.493419  1
  Ta  Ta16  1  0.789787  0.356620  0.343263  1
  Ta  Ta17  1  0.210213  0.643380  0.656737  1
  Ta  Ta18  1  0.306832  0.721778  0.006581  1
  Ta  Ta19  1  0.210213  0.856620  0.156737  1
  S  S20  1  0.584534  0.470468  0.455863  1
  S  S21  1  0.747115  0.948993  0.469074  1
  S  S22  1  0.388339  0.726053  0.154423  1
  S  S23  1  0.500017  0.122232  0.487283  1
  S  S24  1  0.978141  0.422874  0.407216  1
  S  S25  1  0.249911  0.745318  0.393937  1
  S  S26  1  0.584534  0.029532  0.955863  1
  S  S27  1  0.708807  0.113500  0.285112  1
  S  S28  1  0.247573  0.985636  0.048111  1
  S  S29  1  0.500017  0.377768  0.987283  1
  S  S30  1  0.752427  0.485636  0.451889  1
  S  S31  1  0.736297  0.936517  0.772855  1
  S  S32  1  0.263703  0.063483  0.227145  1
  S  S33  1  0.752427  0.014364  0.951889  1
  S  S34  1  0.708807  0.386500  0.785112  1
  S  S35  1  0.499983  0.622232  0.012717  1
  S  S36  1  0.021859  0.922874  0.092784  1
  S  S37  1  0.747115  0.551007  0.969074  1
  S  S38  1  0.263703  0.436517  0.727145  1
  S  S39  1  0.027933  0.718418  0.679426  1
  S  S40  1  0.247573  0.514364  0.548111  1
  S  S41  1  0.972067  0.218418  0.820574  1
  S  S42  1  0.291193  0.886500  0.714888  1
  S  S43  1  0.291193  0.613500  0.214888  1
  S  S44  1  0.611661  0.226053  0.345577  1
  S  S45  1  0.862224  0.128675  0.459196  1
  S  S46  1  0.736297  0.563483  0.272855  1
  S  S47  1  0.978141  0.077126  0.907216  1
  S  S48  1  0.252885  0.448993  0.030926  1
  S  S49  1  0.137776  0.871325  0.540804  1
  S  S50  1  0.499983  0.877768  0.512717  1
  S  S51  1  0.415466  0.970468  0.044137  1
  S  S52  1  0.972067  0.281582  0.320574  1
  S  S53  1  0.611661  0.273947  0.845577  1
  S  S54  1  0.415466  0.529532  0.544137  1
  S  S55  1  0.249911  0.754682  0.893937  1
  S  S56  1  0.252885  0.051007  0.530926  1
  S  S57  1  0.750089  0.254682  0.606063  1
  S  S58  1  0.137776  0.628675  0.040804  1
  S  S59  1  0.862224  0.371325  0.959196  1
  S  S60  1  0.388339  0.773947  0.654423  1
  S  S61  1  0.021859  0.577126  0.592784  1
  S  S62  1  0.750089  0.245318  0.106063  1
  S  S63  1  0.027933  0.781582  0.179426  1
