# generated using pymatgen
data_Co2P2O7
_symmetry_space_group_name_H-M   'P 1'
_cell_length_a   4.55005658
_cell_length_b   9.88758887
_cell_length_c   5.52284873
_cell_angle_alpha   90.00000000
_cell_angle_beta   97.81450763
_cell_angle_gamma   90.00000000
_symmetry_Int_Tables_number   1
_chemical_formula_structural   Co2P2O7
_chemical_formula_sum   'Co4 P4 O14'
_cell_volume   246.16052073
_cell_formula_units_Z   2
loop_
 _symmetry_equiv_pos_site_id
 _symmetry_equiv_pos_as_xyz
  1  'x, y, z'
loop_
 _atom_site_type_symbol
 _atom_site_label
 _atom_site_symmetry_multiplicity
 _atom_site_fract_x
 _atom_site_fract_y
 _atom_site_fract_z
 _atom_site_occupancy
  Co  Co0  1  0.877157  0.838245  0.091641  1
  Co  Co1  1  0.122843  0.161755  0.908359  1
  Co  Co2  1  0.122843  0.338245  0.408359  1
  Co  Co3  1  0.877157  0.661755  0.591641  1
  P  P4  1  0.352323  0.890706  0.654711  1
  P  P5  1  0.647677  0.109294  0.345289  1
  P  P6  1  0.352323  0.609294  0.154711  1
  P  P7  1  0.647677  0.390706  0.845289  1
  O  O8  1  0.789523  0.034656  0.147089  1
  O  O9  1  0.609733  0.701558  0.263752  1
  O  O10  1  0.609733  0.798442  0.763752  1
  O  O11  1  0.210477  0.534656  0.352911  1
  O  O12  1  0.120499  0.683640  0.974144  1
  O  O13  1  0.120499  0.816360  0.474144  1
  O  O14  1  0.390267  0.201558  0.236248  1
  O  O15  1  0.500000  0.500000  0.000000  1
  O  O16  1  0.210477  0.965344  0.852911  1
  O  O17  1  0.879501  0.183640  0.525856  1
  O  O18  1  0.879501  0.316360  0.025856  1
  O  O19  1  0.500000  0.000000  0.500000  1
  O  O20  1  0.789523  0.465344  0.647089  1
  O  O21  1  0.390267  0.298442  0.736248  1
