# generated using pymatgen
data_Ba2CuIO2
_symmetry_space_group_name_H-M   'P 1'
_cell_length_a   11.16025653
_cell_length_b   4.45088267
_cell_length_c   14.24423903
_cell_angle_alpha   90.00000000
_cell_angle_beta   91.38877458
_cell_angle_gamma   90.00000000
_symmetry_Int_Tables_number   1
_chemical_formula_structural   Ba2CuIO2
_chemical_formula_sum   'Ba8 Cu4 I4 O8'
_cell_volume   707.34613784
_cell_formula_units_Z   4
loop_
 _symmetry_equiv_pos_site_id
 _symmetry_equiv_pos_as_xyz
  1  'x, y, z'
loop_
 _atom_site_type_symbol
 _atom_site_label
 _atom_site_symmetry_multiplicity
 _atom_site_fract_x
 _atom_site_fract_y
 _atom_site_fract_z
 _atom_site_occupancy
  Ba  Ba0  1  0.090093  0.750000  0.320094  1
  Ba  Ba1  1  0.296247  0.250000  0.105715  1
  Ba  Ba2  1  0.169958  0.750000  0.856505  1
  Ba  Ba3  1  0.703753  0.750000  0.894285  1
  Ba  Ba4  1  0.909907  0.250000  0.679906  1
  Ba  Ba5  1  0.419570  0.250000  0.594892  1
  Ba  Ba6  1  0.580430  0.750000  0.405108  1
  Ba  Ba7  1  0.830042  0.250000  0.143495  1
  Cu  Cu8  1  0.331643  0.250000  0.346162  1
  Cu  Cu9  1  0.668357  0.750000  0.653838  1
  Cu  Cu10  1  0.934134  0.250000  0.908572  1
  Cu  Cu11  1  0.065866  0.750000  0.091428  1
  I  I12  1  0.152149  0.750000  0.586188  1
  I  I13  1  0.436812  0.250000  0.856112  1
  I  I14  1  0.563188  0.750000  0.143888  1
  I  I15  1  0.847851  0.250000  0.413812  1
  O  O16  1  0.943037  0.750000  0.173359  1
  O  O17  1  0.533858  0.750000  0.581177  1
  O  O18  1  0.802368  0.750000  0.728828  1
  O  O19  1  0.790642  0.250000  0.966412  1
  O  O20  1  0.466142  0.250000  0.418823  1
  O  O21  1  0.197632  0.250000  0.271172  1
  O  O22  1  0.209358  0.750000  0.033588  1
  O  O23  1  0.056963  0.250000  0.826641  1
