# generated using pymatgen
data_Tb3CuSnS7
_symmetry_space_group_name_H-M   'P 1'
_cell_length_a   9.81898019
_cell_length_b   9.81898019
_cell_length_c   6.21324296
_cell_angle_alpha   90.00000000
_cell_angle_beta   90.00000000
_cell_angle_gamma   120.00000000
_symmetry_Int_Tables_number   1
_chemical_formula_structural   Tb3CuSnS7
_chemical_formula_sum   'Tb6 Cu2 Sn2 S14'
_cell_volume   518.77822150
_cell_formula_units_Z   2
loop_
 _symmetry_equiv_pos_site_id
 _symmetry_equiv_pos_as_xyz
  1  'x, y, z'
loop_
 _atom_site_type_symbol
 _atom_site_label
 _atom_site_symmetry_multiplicity
 _atom_site_fract_x
 _atom_site_fract_y
 _atom_site_fract_z
 _atom_site_occupancy
  Tb  Tb0  1  0.359166  0.149083  0.272724  1
  Tb  Tb1  1  0.149083  0.789917  0.772724  1
  Tb  Tb2  1  0.789917  0.640834  0.272724  1
  Tb  Tb3  1  0.640834  0.850917  0.772724  1
  Tb  Tb4  1  0.210083  0.359166  0.772724  1
  Tb  Tb5  1  0.850917  0.210083  0.272724  1
  Cu  Cu6  1  0.000000  0.000000  0.673759  1
  Cu  Cu7  1  0.000000  0.000000  0.173759  1
  Sn  Sn8  1  0.666667  0.333333  0.838499  1
  Sn  Sn9  1  0.333333  0.666667  0.338499  1
  S  S10  1  0.563351  0.082522  0.019481  1
  S  S11  1  0.519171  0.436649  0.019481  1
  S  S12  1  0.917478  0.480829  0.019481  1
  S  S13  1  0.480829  0.563351  0.519481  1
  S  S14  1  0.147855  0.261229  0.199848  1
  S  S15  1  0.436649  0.917478  0.519481  1
  S  S16  1  0.261229  0.113374  0.699848  1
  S  S17  1  0.666667  0.333333  0.452786  1
  S  S18  1  0.113374  0.852145  0.199848  1
  S  S19  1  0.082522  0.519171  0.519481  1
  S  S20  1  0.333333  0.666667  0.952786  1
  S  S21  1  0.886626  0.147855  0.699848  1
  S  S22  1  0.852145  0.738771  0.699848  1
  S  S23  1  0.738771  0.886626  0.199848  1
