# generated using pymatgen
data_SiH12C2(NF3)2
_symmetry_space_group_name_H-M   'P 1'
_cell_length_a   6.40660000
_cell_length_b   7.30953100
_cell_length_c   9.48400100
_cell_angle_alpha   90.00000000
_cell_angle_beta   90.00000000
_cell_angle_gamma   90.00000000
_symmetry_Int_Tables_number   1
_chemical_formula_structural   SiH12C2(NF3)2
_chemical_formula_sum   'Si2 H24 C4 N4 F12'
_cell_volume   444.12857136
_cell_formula_units_Z   2
loop_
 _symmetry_equiv_pos_site_id
 _symmetry_equiv_pos_as_xyz
  1  'x, y, z'
loop_
 _atom_site_type_symbol
 _atom_site_label
 _atom_site_symmetry_multiplicity
 _atom_site_fract_x
 _atom_site_fract_y
 _atom_site_fract_z
 _atom_site_occupancy
  Si  Si0  1  0.500000  0.500000  0.500000  1
  Si  Si1  1  0.000000  0.000000  0.000000  1
  H  H2  1  0.870021  0.658314  0.632733  1
  H  H3  1  0.139318  0.501314  0.140866  1
  H  H4  1  0.860682  0.498686  0.859134  1
  H  H5  1  0.639318  0.998686  0.640866  1
  H  H6  1  0.139318  0.498686  0.859134  1
  H  H7  1  0.360682  0.001314  0.359134  1
  H  H8  1  0.129979  0.658314  0.632733  1
  H  H9  1  0.870021  0.341686  0.367267  1
  H  H10  1  0.360682  0.998686  0.640866  1
  H  H11  1  0.860682  0.501314  0.140866  1
  H  H12  1  0.370021  0.158314  0.867267  1
  H  H13  1  0.629979  0.841686  0.132733  1
  H  H14  1  0.500000  0.128964  0.228022  1
  H  H15  1  0.639318  0.001314  0.359134  1
  H  H16  1  0.000000  0.779267  0.755689  1
  H  H17  1  0.000000  0.220733  0.244311  1
  H  H18  1  0.129979  0.341686  0.367267  1
  H  H19  1  0.629979  0.158314  0.867267  1
  H  H20  1  0.000000  0.628964  0.271978  1
  H  H21  1  0.500000  0.720733  0.255689  1
  H  H22  1  0.000000  0.371036  0.728022  1
  H  H23  1  0.500000  0.279267  0.744311  1
  H  H24  1  0.370021  0.841686  0.132733  1
  H  H25  1  0.500000  0.871036  0.771978  1
  C  C26  1  0.500000  0.994811  0.707225  1
  C  C27  1  0.500000  0.005189  0.292775  1
  C  C28  1  0.000000  0.505189  0.207225  1
  C  C29  1  0.000000  0.494811  0.792775  1
  N  N30  1  0.500000  0.842206  0.198700  1
  N  N31  1  0.000000  0.657794  0.698700  1
  N  N32  1  0.000000  0.342206  0.301300  1
  N  N33  1  0.500000  0.157794  0.801300  1
  F  F34  1  0.500000  0.511564  0.681285  1
  F  F35  1  0.000000  0.011564  0.818715  1
  F  F36  1  0.309508  0.666087  0.492621  1
  F  F37  1  0.500000  0.488436  0.318715  1
  F  F38  1  0.309508  0.333913  0.507379  1
  F  F39  1  0.690492  0.333913  0.507379  1
  F  F40  1  0.190492  0.166087  0.007379  1
  F  F41  1  0.809508  0.166087  0.007379  1
  F  F42  1  0.690492  0.666087  0.492621  1
  F  F43  1  0.809508  0.833913  0.992621  1
  F  F44  1  0.000000  0.988436  0.181285  1
  F  F45  1  0.190492  0.833913  0.992621  1
