# generated using pymatgen
data_SrBr2
_symmetry_space_group_name_H-M   'P 1'
_cell_length_a   4.80176438
_cell_length_b   7.90589413
_cell_length_c   11.52625662
_cell_angle_alpha   90.00000000
_cell_angle_beta   90.00000000
_cell_angle_gamma   90.00000000
_symmetry_Int_Tables_number   1
_chemical_formula_structural   SrBr2
_chemical_formula_sum   'Sr4 Br8'
_cell_volume   437.56252962
_cell_formula_units_Z   4
loop_
 _symmetry_equiv_pos_site_id
 _symmetry_equiv_pos_as_xyz
  1  'x, y, z'
loop_
 _atom_site_type_symbol
 _atom_site_label
 _atom_site_symmetry_multiplicity
 _atom_site_fract_x
 _atom_site_fract_y
 _atom_site_fract_z
 _atom_site_occupancy
  Sr  Sr0  1  0.250000  0.127151  0.831632  1
  Sr  Sr1  1  0.750000  0.872849  0.168368  1
  Sr  Sr2  1  0.250000  0.372849  0.331632  1
  Sr  Sr3  1  0.750000  0.627151  0.668368  1
  Br  Br4  1  0.750000  0.624296  0.391240  1
  Br  Br5  1  0.250000  0.375704  0.608760  1
  Br  Br6  1  0.250000  0.632498  0.130230  1
  Br  Br7  1  0.250000  0.124296  0.108760  1
  Br  Br8  1  0.250000  0.867502  0.630230  1
  Br  Br9  1  0.750000  0.367502  0.869770  1
  Br  Br10  1  0.750000  0.875704  0.891240  1
  Br  Br11  1  0.750000  0.132498  0.369770  1
