# generated using pymatgen
data_Al(TeCl2)2
_symmetry_space_group_name_H-M   'P 1'
_cell_length_a   11.67570139
_cell_length_b   12.22302736
_cell_length_c   14.27994210
_cell_angle_alpha   90.00000000
_cell_angle_beta   90.00000000
_cell_angle_gamma   90.00000000
_symmetry_Int_Tables_number   1
_chemical_formula_structural   Al(TeCl2)2
_chemical_formula_sum   'Al8 Te16 Cl32'
_cell_volume   2037.92505938
_cell_formula_units_Z   8
loop_
 _symmetry_equiv_pos_site_id
 _symmetry_equiv_pos_as_xyz
  1  'x, y, z'
loop_
 _atom_site_type_symbol
 _atom_site_label
 _atom_site_symmetry_multiplicity
 _atom_site_fract_x
 _atom_site_fract_y
 _atom_site_fract_z
 _atom_site_occupancy
  Al  Al0  1  0.602394  0.911333  0.354814  1
  Al  Al1  1  0.102394  0.088667  0.145186  1
  Al  Al2  1  0.897606  0.411333  0.645186  1
  Al  Al3  1  0.397606  0.588667  0.854814  1
  Al  Al4  1  0.397606  0.088667  0.645186  1
  Al  Al5  1  0.897606  0.911333  0.854814  1
  Al  Al6  1  0.102394  0.588667  0.354814  1
  Al  Al7  1  0.602394  0.411333  0.145186  1
  Te  Te8  1  0.004015  0.635401  0.068314  1
  Te  Te9  1  0.504015  0.364599  0.431686  1
  Te  Te10  1  0.495985  0.135401  0.931686  1
  Te  Te11  1  0.995985  0.864599  0.568314  1
  Te  Te12  1  0.995985  0.364599  0.931686  1
  Te  Te13  1  0.495985  0.635401  0.568314  1
  Te  Te14  1  0.504015  0.864599  0.068314  1
  Te  Te15  1  0.004015  0.135401  0.431686  1
  Te  Te16  1  0.613016  0.560335  0.416638  1
  Te  Te17  1  0.113016  0.439665  0.083362  1
  Te  Te18  1  0.886984  0.060335  0.583362  1
  Te  Te19  1  0.386984  0.939665  0.916638  1
  Te  Te20  1  0.386984  0.439665  0.583362  1
  Te  Te21  1  0.886984  0.560335  0.916638  1
  Te  Te22  1  0.113016  0.939665  0.416638  1
  Te  Te23  1  0.613016  0.060335  0.083362  1
  Cl  Cl24  1  0.616204  0.582053  0.115256  1
  Cl  Cl25  1  0.116204  0.417947  0.384744  1
  Cl  Cl26  1  0.883796  0.082053  0.884744  1
  Cl  Cl27  1  0.383796  0.917947  0.615256  1
  Cl  Cl28  1  0.383796  0.417947  0.884744  1
  Cl  Cl29  1  0.883796  0.582053  0.615256  1
  Cl  Cl30  1  0.116204  0.917947  0.115256  1
  Cl  Cl31  1  0.616204  0.082053  0.384744  1
  Cl  Cl32  1  0.931870  0.643655  0.326820  1
  Cl  Cl33  1  0.431870  0.356345  0.173180  1
  Cl  Cl34  1  0.568130  0.143655  0.673180  1
  Cl  Cl35  1  0.068130  0.856345  0.826820  1
  Cl  Cl36  1  0.068130  0.356345  0.673180  1
  Cl  Cl37  1  0.568130  0.643655  0.826820  1
  Cl  Cl38  1  0.431870  0.856345  0.326820  1
  Cl  Cl39  1  0.931870  0.143655  0.173180  1
  Cl  Cl40  1  0.676328  0.815541  0.469370  1
  Cl  Cl41  1  0.176328  0.184459  0.030630  1
  Cl  Cl42  1  0.823672  0.315541  0.530630  1
  Cl  Cl43  1  0.323672  0.684459  0.969370  1
  Cl  Cl44  1  0.323672  0.184459  0.530630  1
  Cl  Cl45  1  0.823672  0.815541  0.969370  1
  Cl  Cl46  1  0.176328  0.684459  0.469370  1
  Cl  Cl47  1  0.676328  0.315541  0.030630  1
  Cl  Cl48  1  0.706938  0.876766  0.231143  1
  Cl  Cl49  1  0.206938  0.123234  0.268857  1
  Cl  Cl50  1  0.793062  0.376766  0.768857  1
  Cl  Cl51  1  0.293062  0.623234  0.731143  1
  Cl  Cl52  1  0.293062  0.123234  0.768857  1
  Cl  Cl53  1  0.793062  0.876766  0.731143  1
  Cl  Cl54  1  0.206938  0.623234  0.231143  1
  Cl  Cl55  1  0.706938  0.376766  0.268857  1
