# generated using pymatgen
data_Li2TeSe3
_symmetry_space_group_name_H-M   'P 1'
_cell_length_a   5.63405573
_cell_length_b   12.09835886
_cell_length_c   8.29752195
_cell_angle_alpha   90.00000000
_cell_angle_beta   92.45266964
_cell_angle_gamma   90.00000000
_symmetry_Int_Tables_number   1
_chemical_formula_structural   Li2TeSe3
_chemical_formula_sum   'Li8 Te4 Se12'
_cell_volume   565.06443919
_cell_formula_units_Z   4
loop_
 _symmetry_equiv_pos_site_id
 _symmetry_equiv_pos_as_xyz
  1  'x, y, z'
loop_
 _atom_site_type_symbol
 _atom_site_label
 _atom_site_symmetry_multiplicity
 _atom_site_fract_x
 _atom_site_fract_y
 _atom_site_fract_z
 _atom_site_occupancy
  Li  Li0  1  0.265182  0.773585  0.353947  1
  Li  Li1  1  0.265182  0.726415  0.853947  1
  Li  Li2  1  0.236694  0.413412  0.366201  1
  Li  Li3  1  0.236694  0.086588  0.866201  1
  Li  Li4  1  0.763306  0.586588  0.633799  1
  Li  Li5  1  0.763306  0.913412  0.133799  1
  Li  Li6  1  0.734818  0.226415  0.646053  1
  Li  Li7  1  0.734818  0.273585  0.146053  1
  Te  Te8  1  0.284420  0.086786  0.313159  1
  Te  Te9  1  0.715580  0.586786  0.186841  1
  Te  Te10  1  0.715580  0.913214  0.686841  1
  Te  Te11  1  0.284420  0.413214  0.813159  1
  Se  Se12  1  0.254658  0.923096  0.122541  1
  Se  Se13  1  0.227824  0.250885  0.615117  1
  Se  Se14  1  0.772176  0.749115  0.384883  1
  Se  Se15  1  0.254658  0.576904  0.622541  1
  Se  Se16  1  0.262349  0.903048  0.629374  1
  Se  Se17  1  0.737651  0.096952  0.370626  1
  Se  Se18  1  0.737651  0.403048  0.870626  1
  Se  Se19  1  0.745342  0.076904  0.877459  1
  Se  Se20  1  0.772176  0.750885  0.884883  1
  Se  Se21  1  0.227824  0.249115  0.115117  1
  Se  Se22  1  0.262349  0.596952  0.129374  1
  Se  Se23  1  0.745342  0.423096  0.377459  1
