# generated using pymatgen
data_K3Mo2BrO7
_symmetry_space_group_name_H-M   'P 1'
_cell_length_a   6.15560267
_cell_length_b   6.15560267
_cell_length_c   15.93393741
_cell_angle_alpha   90.00000000
_cell_angle_beta   90.00000000
_cell_angle_gamma   120.00000000
_symmetry_Int_Tables_number   1
_chemical_formula_structural   K3Mo2BrO7
_chemical_formula_sum   'K6 Mo4 Br2 O14'
_cell_volume   522.87141118
_cell_formula_units_Z   2
loop_
 _symmetry_equiv_pos_site_id
 _symmetry_equiv_pos_as_xyz
  1  'x, y, z'
loop_
 _atom_site_type_symbol
 _atom_site_label
 _atom_site_symmetry_multiplicity
 _atom_site_fract_x
 _atom_site_fract_y
 _atom_site_fract_z
 _atom_site_occupancy
  K  K0  1  0.666667  0.333333  0.458512  1
  K  K1  1  0.333333  0.666667  0.541488  1
  K  K2  1  0.333333  0.666667  0.958512  1
  K  K3  1  0.666667  0.333333  0.750000  1
  K  K4  1  0.666667  0.333333  0.041488  1
  K  K5  1  0.333333  0.666667  0.250000  1
  Mo  Mo6  1  0.000000  0.000000  0.369621  1
  Mo  Mo7  1  0.000000  0.000000  0.130379  1
  Mo  Mo8  1  0.000000  0.000000  0.630379  1
  Mo  Mo9  1  0.000000  0.000000  0.869621  1
  Br  Br10  1  0.666667  0.333333  0.250000  1
  Br  Br11  1  0.333333  0.666667  0.750000  1
  O  O12  1  0.844497  0.155503  0.591802  1
  O  O13  1  0.155503  0.844497  0.408198  1
  O  O14  1  0.844497  0.688995  0.908198  1
  O  O15  1  0.155503  0.311005  0.408198  1
  O  O16  1  0.155503  0.844497  0.091802  1
  O  O17  1  0.311005  0.155503  0.591802  1
  O  O18  1  0.688995  0.844497  0.408198  1
  O  O19  1  0.311005  0.155503  0.908198  1
  O  O20  1  0.688995  0.844497  0.091802  1
  O  O21  1  0.000000  0.000000  0.750000  1
  O  O22  1  0.155503  0.311005  0.091802  1
  O  O23  1  0.844497  0.688995  0.591802  1
  O  O24  1  0.000000  0.000000  0.250000  1
  O  O25  1  0.844497  0.155503  0.908198  1
