# generated using pymatgen
data_K4LiIO6
_symmetry_space_group_name_H-M   'P 1'
_cell_length_a   10.13538936
_cell_length_b   11.45765511
_cell_length_c   13.48229990
_cell_angle_alpha   90.00000000
_cell_angle_beta   90.00000000
_cell_angle_gamma   90.00000000
_symmetry_Int_Tables_number   1
_chemical_formula_structural   K4LiIO6
_chemical_formula_sum   'K32 Li8 I8 O48'
_cell_volume   1565.66976825
_cell_formula_units_Z   8
loop_
 _symmetry_equiv_pos_site_id
 _symmetry_equiv_pos_as_xyz
  1  'x, y, z'
loop_
 _atom_site_type_symbol
 _atom_site_label
 _atom_site_symmetry_multiplicity
 _atom_site_fract_x
 _atom_site_fract_y
 _atom_site_fract_z
 _atom_site_occupancy
  K  K0  1  0.882812  0.406279  0.690970  1
  K  K1  1  0.882812  0.093721  0.190970  1
  K  K2  1  0.064316  0.556014  0.890667  1
  K  K3  1  0.935684  0.056014  0.609333  1
  K  K4  1  0.793590  0.809629  0.309867  1
  K  K5  1  0.835124  0.977773  0.938133  1
  K  K6  1  0.064316  0.943986  0.390667  1
  K  K7  1  0.564316  0.943986  0.109333  1
  K  K8  1  0.435684  0.056014  0.890667  1
  K  K9  1  0.382812  0.093721  0.309030  1
  K  K10  1  0.164876  0.022227  0.061867  1
  K  K11  1  0.293590  0.809629  0.190133  1
  K  K12  1  0.206410  0.190371  0.690133  1
  K  K13  1  0.206410  0.309629  0.190133  1
  K  K14  1  0.435684  0.443986  0.390667  1
  K  K15  1  0.164876  0.477773  0.561867  1
  K  K16  1  0.706410  0.309629  0.309867  1
  K  K17  1  0.564316  0.556014  0.609333  1
  K  K18  1  0.617188  0.593721  0.190970  1
  K  K19  1  0.335124  0.522227  0.061867  1
  K  K20  1  0.706410  0.190371  0.809867  1
  K  K21  1  0.793590  0.690371  0.809867  1
  K  K22  1  0.664876  0.022227  0.438133  1
  K  K23  1  0.117188  0.593721  0.309030  1
  K  K24  1  0.617188  0.906279  0.690970  1
  K  K25  1  0.935684  0.443986  0.109333  1
  K  K26  1  0.335124  0.977773  0.561867  1
  K  K27  1  0.293590  0.690371  0.690133  1
  K  K28  1  0.117188  0.906279  0.809030  1
  K  K29  1  0.382812  0.406279  0.809030  1
  K  K30  1  0.835124  0.522227  0.438133  1
  K  K31  1  0.664876  0.477773  0.938133  1
  Li  Li32  1  0.801069  0.252096  0.509569  1
  Li  Li33  1  0.198931  0.747904  0.490431  1
  Li  Li34  1  0.198931  0.752096  0.990431  1
  Li  Li35  1  0.801069  0.247904  0.009569  1
  Li  Li36  1  0.698931  0.752096  0.509569  1
  Li  Li37  1  0.301069  0.252096  0.990431  1
  Li  Li38  1  0.698931  0.747904  0.009569  1
  Li  Li39  1  0.301069  0.247904  0.490431  1
  I  I40  1  0.545558  0.254380  0.601494  1
  I  I41  1  0.045558  0.245620  0.398506  1
  I  I42  1  0.454442  0.745620  0.398506  1
  I  I43  1  0.545558  0.245620  0.101494  1
  I  I44  1  0.954442  0.745620  0.101494  1
  I  I45  1  0.045558  0.254380  0.898506  1
  I  I46  1  0.954442  0.754380  0.601494  1
  I  I47  1  0.454442  0.754380  0.898506  1
  O  O48  1  0.613384  0.651412  0.405420  1
  O  O49  1  0.797879  0.658446  0.604648  1
  O  O50  1  0.529129  0.666731  0.008213  1
  O  O51  1  0.029129  0.833269  0.991787  1
  O  O52  1  0.639333  0.148838  0.006161  1
  O  O53  1  0.470871  0.166731  0.491787  1
  O  O54  1  0.970871  0.333269  0.508213  1
  O  O55  1  0.702121  0.341554  0.104648  1
  O  O56  1  0.886616  0.348588  0.905420  1
  O  O57  1  0.113384  0.848588  0.594580  1
  O  O58  1  0.390283  0.853715  0.794923  1
  O  O59  1  0.360667  0.851162  0.993839  1
  O  O60  1  0.202121  0.158446  0.895352  1
  O  O61  1  0.532861  0.849826  0.304493  1
  O  O62  1  0.297879  0.658446  0.895352  1
  O  O63  1  0.609717  0.146285  0.205077  1
  O  O64  1  0.702121  0.158446  0.604648  1
  O  O65  1  0.860667  0.851162  0.506161  1
  O  O66  1  0.609717  0.353715  0.705077  1
  O  O67  1  0.613384  0.848588  0.905420  1
  O  O68  1  0.386616  0.151412  0.094580  1
  O  O69  1  0.470871  0.333269  0.991787  1
  O  O70  1  0.109717  0.353715  0.794923  1
  O  O71  1  0.797879  0.841554  0.104648  1
  O  O72  1  0.967139  0.349826  0.304493  1
  O  O73  1  0.890283  0.853715  0.705077  1
  O  O74  1  0.967139  0.150174  0.804493  1
  O  O75  1  0.886616  0.151412  0.405420  1
  O  O76  1  0.139333  0.351162  0.993839  1
  O  O77  1  0.890283  0.646285  0.205077  1
  O  O78  1  0.297879  0.841554  0.395352  1
  O  O79  1  0.029129  0.666731  0.491787  1
  O  O80  1  0.109717  0.146285  0.294923  1
  O  O81  1  0.532861  0.650174  0.804493  1
  O  O82  1  0.467139  0.349826  0.195507  1
  O  O83  1  0.032861  0.650174  0.695507  1
  O  O84  1  0.386616  0.348588  0.594580  1
  O  O85  1  0.970871  0.166731  0.008213  1
  O  O86  1  0.032861  0.849826  0.195507  1
  O  O87  1  0.467139  0.150174  0.695507  1
  O  O88  1  0.529129  0.833269  0.508213  1
  O  O89  1  0.202121  0.341554  0.395352  1
  O  O90  1  0.139333  0.148838  0.493839  1
  O  O91  1  0.860667  0.648838  0.006161  1
  O  O92  1  0.360667  0.648838  0.493839  1
  O  O93  1  0.113384  0.651412  0.094580  1
  O  O94  1  0.390283  0.646285  0.294923  1
  O  O95  1  0.639333  0.351162  0.506161  1
