# generated using pymatgen
data_CsGaS2
_symmetry_space_group_name_H-M   'P 1'
_cell_length_a   7.32003622
_cell_length_b   7.32003622
_cell_length_c   5.98443008
_cell_angle_alpha   78.41186562
_cell_angle_beta   101.58813438
_cell_angle_gamma   63.41363795
_symmetry_Int_Tables_number   1
_chemical_formula_structural   CsGaS2
_chemical_formula_sum   'Cs2 Ga2 S4'
_cell_volume   264.98570145
_cell_formula_units_Z   2
loop_
 _symmetry_equiv_pos_site_id
 _symmetry_equiv_pos_as_xyz
  1  'x, y, z'
loop_
 _atom_site_type_symbol
 _atom_site_label
 _atom_site_symmetry_multiplicity
 _atom_site_fract_x
 _atom_site_fract_y
 _atom_site_fract_z
 _atom_site_occupancy
  Cs  Cs0  1  0.355666  0.355666  0.750000  1
  Cs  Cs1  1  0.644334  0.644334  0.250000  1
  Ga  Ga2  1  0.003513  0.003513  0.250000  1
  Ga  Ga3  1  0.996487  0.996487  0.750000  1
  S  S4  1  0.275849  0.920938  0.593040  1
  S  S5  1  0.920938  0.275849  0.906960  1
  S  S6  1  0.079062  0.724151  0.093040  1
  S  S7  1  0.724151  0.079062  0.406960  1
