# generated using pymatgen
data_Sr7Zr(Si2O7)3
_symmetry_space_group_name_H-M   'P 1'
_cell_length_a   8.52255672
_cell_length_b   8.52255672
_cell_length_c   8.52255672
_cell_angle_alpha   106.08151887
_cell_angle_beta   106.08151887
_cell_angle_gamma   106.08151887
_symmetry_Int_Tables_number   1
_chemical_formula_structural   Sr7Zr(Si2O7)3
_chemical_formula_sum   'Sr7 Zr1 Si6 O21'
_cell_volume   527.91624720
_cell_formula_units_Z   1
loop_
 _symmetry_equiv_pos_site_id
 _symmetry_equiv_pos_as_xyz
  1  'x, y, z'
loop_
 _atom_site_type_symbol
 _atom_site_label
 _atom_site_symmetry_multiplicity
 _atom_site_fract_x
 _atom_site_fract_y
 _atom_site_fract_z
 _atom_site_occupancy
  Sr  Sr0  1  0.750515  0.151764  0.628441  1
  Sr  Sr1  1  0.371559  0.249485  0.848236  1
  Sr  Sr2  1  0.500000  0.500000  0.500000  1
  Sr  Sr3  1  0.249485  0.848236  0.371559  1
  Sr  Sr4  1  0.628441  0.750515  0.151764  1
  Sr  Sr5  1  0.848236  0.371559  0.249485  1
  Sr  Sr6  1  0.151764  0.628441  0.750515  1
  Zr  Zr7  1  0.000000  0.000000  0.000000  1
  Si  Si8  1  0.817116  0.542002  0.926966  1
  Si  Si9  1  0.926966  0.817116  0.542002  1
  Si  Si10  1  0.457998  0.073034  0.182884  1
  Si  Si11  1  0.073034  0.182884  0.457998  1
  Si  Si12  1  0.542002  0.926966  0.817116  1
  Si  Si13  1  0.182884  0.457998  0.073034  1
  O  O14  1  0.455362  0.714790  0.745095  1
  O  O15  1  0.681388  0.458167  0.012227  1
  O  O16  1  0.124811  0.242182  0.983225  1
  O  O17  1  0.242182  0.983225  0.124811  1
  O  O18  1  0.745095  0.455362  0.714790  1
  O  O19  1  0.012227  0.681388  0.458167  1
  O  O20  1  0.254905  0.544638  0.285210  1
  O  O21  1  0.714790  0.745095  0.455362  1
  O  O22  1  0.541833  0.987773  0.318612  1
  O  O23  1  0.875189  0.757818  0.016775  1
  O  O24  1  0.458167  0.012227  0.681388  1
  O  O25  1  0.544638  0.285210  0.254905  1
  O  O26  1  0.757818  0.016775  0.875189  1
  O  O27  1  0.016775  0.875189  0.757818  1
  O  O28  1  0.000000  0.500000  0.000000  1
  O  O29  1  0.987773  0.318612  0.541833  1
  O  O30  1  0.500000  1.000000  0.000000  1
  O  O31  1  0.318612  0.541833  0.987773  1
  O  O32  1  0.285210  0.254905  0.544638  1
  O  O33  1  1.000000  1.000000  0.500000  1
  O  O34  1  0.983225  0.124811  0.242182  1
