# generated using pymatgen
data_CoTeMoO6
_symmetry_space_group_name_H-M   'P 1'
_cell_length_a   5.11466190
_cell_length_b   5.33191892
_cell_length_c   9.18838990
_cell_angle_alpha   90.00000000
_cell_angle_beta   90.00000000
_cell_angle_gamma   90.00000000
_symmetry_Int_Tables_number   1
_chemical_formula_structural   CoTeMoO6
_chemical_formula_sum   'Co2 Te2 Mo2 O12'
_cell_volume   250.57623726
_cell_formula_units_Z   2
loop_
 _symmetry_equiv_pos_site_id
 _symmetry_equiv_pos_as_xyz
  1  'x, y, z'
loop_
 _atom_site_type_symbol
 _atom_site_label
 _atom_site_symmetry_multiplicity
 _atom_site_fract_x
 _atom_site_fract_y
 _atom_site_fract_z
 _atom_site_occupancy
  Co  Co0  1  0.000000  0.000000  0.474029  1
  Co  Co1  1  0.500000  0.500000  0.525971  1
  Te  Te2  1  0.000000  0.500000  0.260215  1
  Te  Te3  1  0.500000  0.000000  0.739785  1
  Mo  Mo4  1  0.000000  0.500000  0.802101  1
  Mo  Mo5  1  0.500000  0.000000  0.197899  1
  O  O6  1  0.242474  0.815039  0.299782  1
  O  O7  1  0.281385  0.820654  0.604035  1
  O  O8  1  0.757526  0.184961  0.299782  1
  O  O9  1  0.718615  0.179346  0.604035  1
  O  O10  1  0.661476  0.791637  0.083420  1
  O  O11  1  0.781385  0.679346  0.395965  1
  O  O12  1  0.161476  0.708363  0.916580  1
  O  O13  1  0.838524  0.291637  0.916580  1
  O  O14  1  0.218615  0.320654  0.395965  1
  O  O15  1  0.742474  0.684961  0.700218  1
  O  O16  1  0.338524  0.208363  0.083420  1
  O  O17  1  0.257526  0.315039  0.700218  1
