# generated using pymatgen
data_BaP2PbO7
_symmetry_space_group_name_H-M   'P 1'
_cell_length_a   5.69885939
_cell_length_b   9.23096122
_cell_length_c   13.63657683
_cell_angle_alpha   90.00000000
_cell_angle_beta   90.00000000
_cell_angle_gamma   90.00000000
_symmetry_Int_Tables_number   1
_chemical_formula_structural   BaP2PbO7
_chemical_formula_sum   'Ba4 P8 Pb4 O28'
_cell_volume   717.36507926
_cell_formula_units_Z   4
loop_
 _symmetry_equiv_pos_site_id
 _symmetry_equiv_pos_as_xyz
  1  'x, y, z'
loop_
 _atom_site_type_symbol
 _atom_site_label
 _atom_site_symmetry_multiplicity
 _atom_site_fract_x
 _atom_site_fract_y
 _atom_site_fract_z
 _atom_site_occupancy
  Ba  Ba0  1  0.750000  0.662729  0.238509  1
  Ba  Ba1  1  0.250000  0.337271  0.761491  1
  Ba  Ba2  1  0.750000  0.162729  0.261491  1
  Ba  Ba3  1  0.250000  0.837271  0.738509  1
  P  P4  1  0.750000  0.778331  0.533995  1
  P  P5  1  0.250000  0.221669  0.466005  1
  P  P6  1  0.750000  0.278331  0.966005  1
  P  P7  1  0.250000  0.721669  0.033995  1
  P  P8  1  0.750000  0.539597  0.680296  1
  P  P9  1  0.250000  0.460403  0.319704  1
  P  P10  1  0.750000  0.039597  0.819704  1
  P  P11  1  0.250000  0.960403  0.180296  1
  Pb  Pb12  1  0.250000  0.863398  0.413337  1
  Pb  Pb13  1  0.750000  0.136602  0.586663  1
  Pb  Pb14  1  0.250000  0.363398  0.086663  1
  Pb  Pb15  1  0.750000  0.636602  0.913337  1
  O  O16  1  0.526209  0.852363  0.573203  1
  O  O17  1  0.026209  0.147637  0.426797  1
  O  O18  1  0.973791  0.352363  0.926797  1
  O  O19  1  0.473791  0.647637  0.073203  1
  O  O20  1  0.473791  0.147637  0.426797  1
  O  O21  1  0.973791  0.852363  0.573203  1
  O  O22  1  0.026209  0.647637  0.073203  1
  O  O23  1  0.526209  0.352363  0.926797  1
  O  O24  1  0.750000  0.771116  0.422089  1
  O  O25  1  0.250000  0.228884  0.577911  1
  O  O26  1  0.750000  0.271116  0.077911  1
  O  O27  1  0.250000  0.728884  0.922089  1
  O  O28  1  0.750000  0.610329  0.571028  1
  O  O29  1  0.250000  0.389671  0.428972  1
  O  O30  1  0.750000  0.110329  0.928972  1
  O  O31  1  0.250000  0.889671  0.071028  1
  O  O32  1  0.750000  0.375584  0.663897  1
  O  O33  1  0.250000  0.624416  0.336103  1
  O  O34  1  0.750000  0.875584  0.836103  1
  O  O35  1  0.250000  0.124416  0.163897  1
  O  O36  1  0.971894  0.589296  0.735132  1
  O  O37  1  0.471894  0.410704  0.264868  1
  O  O38  1  0.528106  0.089296  0.764868  1
  O  O39  1  0.028106  0.910704  0.235132  1
  O  O40  1  0.028106  0.410704  0.264868  1
  O  O41  1  0.528106  0.589296  0.735132  1
  O  O42  1  0.471894  0.910704  0.235132  1
  O  O43  1  0.971894  0.089296  0.764868  1
