# generated using pymatgen
data_MnVBiO5
_symmetry_space_group_name_H-M   'P 1'
_cell_length_a   5.46632435
_cell_length_b   7.05047574
_cell_length_c   7.09958515
_cell_angle_alpha   109.76391402
_cell_angle_beta   107.66225192
_cell_angle_gamma   96.83566209
_symmetry_Int_Tables_number   1
_chemical_formula_structural   MnVBiO5
_chemical_formula_sum   'Mn2 V2 Bi2 O10'
_cell_volume   237.75215686
_cell_formula_units_Z   2
loop_
 _symmetry_equiv_pos_site_id
 _symmetry_equiv_pos_as_xyz
  1  'x, y, z'
loop_
 _atom_site_type_symbol
 _atom_site_label
 _atom_site_symmetry_multiplicity
 _atom_site_fract_x
 _atom_site_fract_y
 _atom_site_fract_z
 _atom_site_occupancy
  Mn  Mn0  1  0.327124  0.367546  0.227635  1
  Mn  Mn1  1  0.672876  0.632454  0.772365  1
  V  V2  1  0.658201  0.180856  0.885933  1
  V  V3  1  0.341799  0.819144  0.114067  1
  Bi  Bi4  1  0.102971  0.756005  0.535272  1
  Bi  Bi5  1  0.897029  0.243995  0.464728  1
  O  O6  1  0.225413  0.659937  0.230440  1
  O  O7  1  0.434314  0.085014  0.289170  1
  O  O8  1  0.617507  0.755634  0.071513  1
  O  O9  1  0.565686  0.914986  0.710830  1
  O  O10  1  0.735698  0.502780  0.449830  1
  O  O11  1  0.774587  0.340063  0.769560  1
  O  O12  1  0.909626  0.217037  0.129649  1
  O  O13  1  0.090374  0.782963  0.870351  1
  O  O14  1  0.382493  0.244366  0.928487  1
  O  O15  1  0.264302  0.497220  0.550170  1
