# generated using pymatgen
data_MgAs2(XeF8)2
_symmetry_space_group_name_H-M   'P 1'
_cell_length_a   5.45620417
_cell_length_b   9.26582062
_cell_length_c   15.57277401
_cell_angle_alpha   90.00000000
_cell_angle_beta   90.00000000
_cell_angle_gamma   90.00000000
_symmetry_Int_Tables_number   1
_chemical_formula_structural   MgAs2(XeF8)2
_chemical_formula_sum   'Mg2 As4 Xe4 F32'
_cell_volume   787.30041920
_cell_formula_units_Z   2
loop_
 _symmetry_equiv_pos_site_id
 _symmetry_equiv_pos_as_xyz
  1  'x, y, z'
loop_
 _atom_site_type_symbol
 _atom_site_label
 _atom_site_symmetry_multiplicity
 _atom_site_fract_x
 _atom_site_fract_y
 _atom_site_fract_z
 _atom_site_occupancy
  Mg  Mg0  1  0.000000  0.500000  0.000000  1
  Mg  Mg1  1  0.000000  0.000000  0.500000  1
  As  As2  1  0.500000  0.756228  0.579114  1
  As  As3  1  0.500000  0.743772  0.079114  1
  As  As4  1  0.500000  0.243772  0.420886  1
  As  As5  1  0.500000  0.256228  0.920886  1
  Xe  Xe6  1  0.000000  0.164381  0.170820  1
  Xe  Xe7  1  0.000000  0.835619  0.829180  1
  Xe  Xe8  1  0.000000  0.335619  0.670820  1
  Xe  Xe9  1  0.000000  0.664381  0.329180  1
  F  F10  1  0.266684  0.371940  0.411697  1
  F  F11  1  0.733316  0.628060  0.588303  1
  F  F12  1  0.733316  0.871940  0.088303  1
  F  F13  1  0.730441  0.600808  0.069674  1
  F  F14  1  0.000000  0.502475  0.754003  1
  F  F15  1  0.266684  0.628060  0.588303  1
  F  F16  1  0.730441  0.899192  0.569674  1
  F  F17  1  0.269559  0.899192  0.569674  1
  F  F18  1  0.266684  0.128060  0.911697  1
  F  F19  1  0.500000  0.288866  0.809801  1
  F  F20  1  0.730441  0.399192  0.930326  1
  F  F21  1  0.733316  0.128060  0.911697  1
  F  F22  1  0.269559  0.399192  0.930326  1
  F  F23  1  0.000000  0.997525  0.254003  1
  F  F24  1  0.500000  0.757575  0.966559  1
  F  F25  1  0.000000  0.657290  0.916050  1
  F  F26  1  0.000000  0.842710  0.416050  1
  F  F27  1  0.500000  0.788866  0.690199  1
  F  F28  1  0.500000  0.742425  0.466559  1
  F  F29  1  0.500000  0.711134  0.190199  1
  F  F30  1  0.269559  0.600808  0.069674  1
  F  F31  1  0.000000  0.002475  0.745997  1
  F  F32  1  0.733316  0.371940  0.411697  1
  F  F33  1  0.500000  0.242425  0.033441  1
  F  F34  1  0.500000  0.211134  0.309801  1
  F  F35  1  0.000000  0.497525  0.245997  1
  F  F36  1  0.266684  0.871940  0.088303  1
  F  F37  1  0.269559  0.100808  0.430326  1
  F  F38  1  0.000000  0.342710  0.083950  1
  F  F39  1  0.730441  0.100808  0.430326  1
  F  F40  1  0.000000  0.157290  0.583950  1
  F  F41  1  0.500000  0.257575  0.533441  1
