# generated using pymatgen
data_PrB2ClO4
_symmetry_space_group_name_H-M   'P 1'
_cell_length_a   4.25151693
_cell_length_b   6.60949953
_cell_length_c   8.18621829
_cell_angle_alpha   97.87490023
_cell_angle_beta   89.02291001
_cell_angle_gamma   107.79549048
_symmetry_Int_Tables_number   1
_chemical_formula_structural   PrB2ClO4
_chemical_formula_sum   'Pr2 B4 Cl2 O8'
_cell_volume   216.88889082
_cell_formula_units_Z   2
loop_
 _symmetry_equiv_pos_site_id
 _symmetry_equiv_pos_as_xyz
  1  'x, y, z'
loop_
 _atom_site_type_symbol
 _atom_site_label
 _atom_site_symmetry_multiplicity
 _atom_site_fract_x
 _atom_site_fract_y
 _atom_site_fract_z
 _atom_site_occupancy
  Pr  Pr0  1  0.793091  0.034038  0.778147  1
  Pr  Pr1  1  0.206909  0.965962  0.221853  1
  B  B2  1  0.168988  0.651732  0.851316  1
  B  B3  1  0.566382  0.437774  0.804309  1
  B  B4  1  0.433618  0.562226  0.195691  1
  B  B5  1  0.831012  0.348268  0.148684  1
  Cl  Cl6  1  0.146110  0.800360  0.543243  1
  Cl  Cl7  1  0.853890  0.199640  0.456757  1
  O  O8  1  0.630219  0.764296  0.210713  1
  O  O9  1  0.095489  0.535506  0.179101  1
  O  O10  1  0.837425  0.152733  0.078647  1
  O  O11  1  0.369781  0.235704  0.789287  1
  O  O12  1  0.904511  0.464494  0.820899  1
  O  O13  1  0.162575  0.847267  0.921353  1
  O  O14  1  0.481932  0.627727  0.815395  1
  O  O15  1  0.518068  0.372273  0.184605  1
