# generated using pymatgen
data_Al(BH4)3
_symmetry_space_group_name_H-M   'P 1'
_cell_length_a   6.37663122
_cell_length_b   6.47226190
_cell_length_c   18.61153962
_cell_angle_alpha   90.00000000
_cell_angle_beta   90.00000000
_cell_angle_gamma   90.00000000
_symmetry_Int_Tables_number   1
_chemical_formula_structural   Al(BH4)3
_chemical_formula_sum   'Al4 B12 H48'
_cell_volume   768.12108198
_cell_formula_units_Z   4
loop_
 _symmetry_equiv_pos_site_id
 _symmetry_equiv_pos_as_xyz
  1  'x, y, z'
loop_
 _atom_site_type_symbol
 _atom_site_label
 _atom_site_symmetry_multiplicity
 _atom_site_fract_x
 _atom_site_fract_y
 _atom_site_fract_z
 _atom_site_occupancy
  Al  Al0  1  0.790431  0.844286  0.870295  1
  Al  Al1  1  0.290431  0.155714  0.129705  1
  Al  Al2  1  0.790431  0.655714  0.370295  1
  Al  Al3  1  0.290431  0.344286  0.629705  1
  B  B4  1  0.515285  0.518899  0.416554  1
  B  B5  1  0.936254  0.506057  0.280234  1
  B  B6  1  0.015285  0.481101  0.583446  1
  B  B7  1  0.515285  0.981101  0.916554  1
  B  B8  1  0.015285  0.018899  0.083446  1
  B  B9  1  0.936254  0.993943  0.780234  1
  B  B10  1  0.427352  0.434135  0.088532  1
  B  B11  1  0.927352  0.565865  0.911468  1
  B  B12  1  0.927352  0.934135  0.411468  1
  B  B13  1  0.427352  0.065865  0.588532  1
  B  B14  1  0.436254  0.006057  0.219766  1
  B  B15  1  0.436254  0.493943  0.719766  1
  H  H16  1  0.011027  0.165537  0.128697  1
  H  H17  1  0.083624  0.000373  0.383828  1
  H  H18  1  0.201008  0.974932  0.064645  1
  H  H19  1  0.479064  0.534334  0.654764  1
  H  H20  1  0.867307  0.348985  0.255332  1
  H  H21  1  0.701008  0.025068  0.935355  1
  H  H22  1  0.789319  0.862312  0.774895  1
  H  H23  1  0.011027  0.334463  0.628697  1
  H  H24  1  0.289319  0.362312  0.725105  1
  H  H25  1  0.348249  0.521032  0.038427  1
  H  H26  1  0.367307  0.651015  0.744668  1
  H  H27  1  0.445649  0.131235  0.887088  1
  H  H28  1  0.933077  0.086741  0.030401  1
  H  H29  1  0.583624  0.999627  0.616172  1
  H  H30  1  0.589796  0.085715  0.244842  1
  H  H31  1  0.945650  0.868765  0.112912  1
  H  H32  1  0.089796  0.585715  0.255158  1
  H  H33  1  0.945650  0.631235  0.612912  1
  H  H34  1  0.348249  0.978968  0.538427  1
  H  H35  1  0.848249  0.021032  0.461573  1
  H  H36  1  0.583624  0.500373  0.116172  1
  H  H37  1  0.367307  0.848985  0.244668  1
  H  H38  1  0.479064  0.965666  0.154764  1
  H  H39  1  0.089796  0.914285  0.755158  1
  H  H40  1  0.289319  0.137688  0.225105  1
  H  H41  1  0.472384  0.246200  0.566223  1
  H  H42  1  0.472384  0.253800  0.066223  1
  H  H43  1  0.589796  0.414285  0.744842  1
  H  H44  1  0.445649  0.368765  0.387088  1
  H  H45  1  0.433077  0.913259  0.969599  1
  H  H46  1  0.701008  0.474932  0.435355  1
  H  H47  1  0.933077  0.413259  0.530401  1
  H  H48  1  0.433077  0.586741  0.469599  1
  H  H49  1  0.979064  0.034334  0.845236  1
  H  H50  1  0.848249  0.478968  0.961573  1
  H  H51  1  0.867307  0.151015  0.755332  1
  H  H52  1  0.972384  0.753800  0.433777  1
  H  H53  1  0.511027  0.834463  0.871303  1
  H  H54  1  0.789319  0.637688  0.274895  1
  H  H55  1  0.511027  0.665537  0.371303  1
  H  H56  1  0.788475  0.928915  0.362471  1
  H  H57  1  0.288475  0.428915  0.137529  1
  H  H58  1  0.979064  0.465666  0.345236  1
  H  H59  1  0.788475  0.571085  0.862471  1
  H  H60  1  0.201008  0.525068  0.564645  1
  H  H61  1  0.083624  0.499627  0.883828  1
  H  H62  1  0.288475  0.071085  0.637529  1
  H  H63  1  0.972384  0.746200  0.933777  1
