# generated using pymatgen
data_NaAsO2
_symmetry_space_group_name_H-M   'P 1'
_cell_length_a   5.17121929
_cell_length_b   6.79418333
_cell_length_c   15.51204887
_cell_angle_alpha   90.00000000
_cell_angle_beta   90.00000000
_cell_angle_gamma   90.00000000
_symmetry_Int_Tables_number   1
_chemical_formula_structural   NaAsO2
_chemical_formula_sum   'Na8 As8 O16'
_cell_volume   545.00361194
_cell_formula_units_Z   8
loop_
 _symmetry_equiv_pos_site_id
 _symmetry_equiv_pos_as_xyz
  1  'x, y, z'
loop_
 _atom_site_type_symbol
 _atom_site_label
 _atom_site_symmetry_multiplicity
 _atom_site_fract_x
 _atom_site_fract_y
 _atom_site_fract_z
 _atom_site_occupancy
  Na  Na0  1  0.253675  0.597834  0.801876  1
  Na  Na1  1  0.753675  0.402166  0.698124  1
  Na  Na2  1  0.246325  0.097834  0.198124  1
  Na  Na3  1  0.253675  0.097834  0.698124  1
  Na  Na4  1  0.246325  0.597834  0.301876  1
  Na  Na5  1  0.746325  0.902166  0.301876  1
  Na  Na6  1  0.746325  0.402166  0.198124  1
  Na  Na7  1  0.753675  0.902166  0.801876  1
  As  As8  1  0.256570  0.598625  0.085057  1
  As  As9  1  0.756570  0.401375  0.414943  1
  As  As10  1  0.743430  0.901375  0.585057  1
  As  As11  1  0.243430  0.598625  0.585057  1
  As  As12  1  0.256570  0.098625  0.414943  1
  As  As13  1  0.743430  0.401375  0.914943  1
  As  As14  1  0.243430  0.098625  0.914943  1
  As  As15  1  0.756570  0.901375  0.085057  1
  O  O16  1  0.299614  0.929843  0.833553  1
  O  O17  1  0.569581  0.187262  0.370183  1
  O  O18  1  0.799614  0.070157  0.666447  1
  O  O19  1  0.200386  0.429843  0.166447  1
  O  O20  1  0.430419  0.812738  0.629817  1
  O  O21  1  0.930419  0.187262  0.870183  1
  O  O22  1  0.799614  0.570157  0.833553  1
  O  O23  1  0.930419  0.687262  0.629817  1
  O  O24  1  0.299614  0.429843  0.666447  1
  O  O25  1  0.069581  0.812738  0.129817  1
  O  O26  1  0.430419  0.312738  0.870183  1
  O  O27  1  0.700386  0.570157  0.333553  1
  O  O28  1  0.069581  0.312738  0.370183  1
  O  O29  1  0.569581  0.687262  0.129817  1
  O  O30  1  0.200386  0.929843  0.333553  1
  O  O31  1  0.700386  0.070157  0.166447  1
