# generated using pymatgen
data_ZrMnTlF7
_symmetry_space_group_name_H-M   'P 1'
_cell_length_a   6.54774835
_cell_length_b   6.54774835
_cell_length_c   8.41330949
_cell_angle_alpha   90.00000000
_cell_angle_beta   90.00000000
_cell_angle_gamma   117.58110585
_symmetry_Int_Tables_number   1
_chemical_formula_structural   ZrMnTlF7
_chemical_formula_sum   'Zr2 Mn2 Tl2 F14'
_cell_volume   319.71216822
_cell_formula_units_Z   2
loop_
 _symmetry_equiv_pos_site_id
 _symmetry_equiv_pos_as_xyz
  1  'x, y, z'
loop_
 _atom_site_type_symbol
 _atom_site_label
 _atom_site_symmetry_multiplicity
 _atom_site_fract_x
 _atom_site_fract_y
 _atom_site_fract_z
 _atom_site_occupancy
  Zr  Zr0  1  0.807364  0.192636  0.250000  1
  Zr  Zr1  1  0.192636  0.807364  0.750000  1
  Mn  Mn2  1  0.187669  0.812331  0.250000  1
  Mn  Mn3  1  0.812331  0.187669  0.750000  1
  Tl  Tl4  1  0.500000  0.500000  0.500000  1
  Tl  Tl5  1  0.500000  0.500000  0.000000  1
  F  F6  1  0.156250  0.447547  0.250000  1
  F  F7  1  0.195644  0.804356  0.505710  1
  F  F8  1  0.166601  0.474794  0.750000  1
  F  F9  1  0.525206  0.833399  0.750000  1
  F  F10  1  0.833399  0.525206  0.250000  1
  F  F11  1  0.804356  0.195644  0.494290  1
  F  F12  1  0.804356  0.195644  0.005710  1
  F  F13  1  0.992319  0.007681  0.250000  1
  F  F14  1  0.447547  0.156250  0.750000  1
  F  F15  1  0.195644  0.804356  0.994290  1
  F  F16  1  0.007681  0.992319  0.750000  1
  F  F17  1  0.474794  0.166601  0.250000  1
  F  F18  1  0.552453  0.843750  0.250000  1
  F  F19  1  0.843750  0.552453  0.750000  1
