# generated using pymatgen
data_Mg2BP3(H3O7)2
_symmetry_space_group_name_H-M   'P 1'
_cell_length_a   7.18277317
_cell_length_b   8.75958710
_cell_length_c   16.48038618
_cell_angle_alpha   90.00000000
_cell_angle_beta   90.00000000
_cell_angle_gamma   90.00000000
_symmetry_Int_Tables_number   1
_chemical_formula_structural   Mg2BP3(H3O7)2
_chemical_formula_sum   'Mg8 B4 P12 H24 O56'
_cell_volume   1036.91503401
_cell_formula_units_Z   4
loop_
 _symmetry_equiv_pos_site_id
 _symmetry_equiv_pos_as_xyz
  1  'x, y, z'
loop_
 _atom_site_type_symbol
 _atom_site_label
 _atom_site_symmetry_multiplicity
 _atom_site_fract_x
 _atom_site_fract_y
 _atom_site_fract_z
 _atom_site_occupancy
  Mg  Mg0  1  0.818563  0.173461  0.805610  1
  Mg  Mg1  1  0.179574  0.303253  0.708075  1
  Mg  Mg2  1  0.318563  0.326539  0.194390  1
  Mg  Mg3  1  0.181437  0.673461  0.694390  1
  Mg  Mg4  1  0.679574  0.196747  0.291925  1
  Mg  Mg5  1  0.820426  0.803253  0.791925  1
  Mg  Mg6  1  0.681437  0.826539  0.305610  1
  Mg  Mg7  1  0.320426  0.696747  0.208075  1
  B  B8  1  0.654198  0.583522  0.917560  1
  B  B9  1  0.845802  0.416478  0.417560  1
  B  B10  1  0.345802  0.083522  0.582440  1
  B  B11  1  0.154198  0.916478  0.082440  1
  P  P12  1  0.012891  0.496032  0.861641  1
  P  P13  1  0.512891  0.003968  0.138359  1
  P  P14  1  0.864998  0.472232  0.583327  1
  P  P15  1  0.048853  0.001023  0.234783  1
  P  P16  1  0.635002  0.527768  0.083327  1
  P  P17  1  0.987109  0.996032  0.638359  1
  P  P18  1  0.364998  0.027768  0.416673  1
  P  P19  1  0.451147  0.998977  0.734783  1
  P  P20  1  0.135002  0.972232  0.916673  1
  P  P21  1  0.548853  0.498977  0.765217  1
  P  P22  1  0.487108  0.503968  0.361641  1
  P  P23  1  0.951147  0.501023  0.265217  1
  H  H24  1  0.689520  0.105431  0.961615  1
  H  H25  1  0.692272  0.338179  0.666291  1
  H  H26  1  0.587467  0.806335  0.918047  1
  H  H27  1  0.266609  0.778266  0.543339  1
  H  H28  1  0.733391  0.278266  0.956661  1
  H  H29  1  0.703341  0.012914  0.591634  1
  H  H30  1  0.310480  0.605431  0.538385  1
  H  H31  1  0.203341  0.487086  0.408366  1
  H  H32  1  0.810480  0.894569  0.461615  1
  H  H33  1  0.296659  0.512914  0.908366  1
  H  H34  1  0.307728  0.838179  0.833709  1
  H  H35  1  0.189520  0.394569  0.038385  1
  H  H36  1  0.796659  0.987086  0.091634  1
  H  H37  1  0.233391  0.221734  0.043339  1
  H  H38  1  0.912533  0.193665  0.418047  1
  H  H39  1  0.807728  0.661821  0.166291  1
  H  H40  1  0.087467  0.693665  0.081953  1
  H  H41  1  0.791220  0.343305  0.132362  1
  H  H42  1  0.412533  0.306335  0.581953  1
  H  H43  1  0.291220  0.156695  0.867638  1
  H  H44  1  0.208780  0.843305  0.367638  1
  H  H45  1  0.766609  0.721734  0.456661  1
  H  H46  1  0.708780  0.656695  0.632362  1
  H  H47  1  0.192272  0.161821  0.333709  1
  O  O48  1  0.764290  0.632619  0.577501  1
  O  O49  1  0.660662  0.635459  0.733326  1
  O  O50  1  0.167719  0.501698  0.930653  1
  O  O51  1  0.832281  0.001698  0.569347  1
  O  O52  1  0.160662  0.864541  0.266674  1
  O  O53  1  0.215035  0.151869  0.396704  1
  O  O54  1  0.332281  0.498302  0.430653  1
  O  O55  1  0.527922  0.863870  0.193470  1
  O  O56  1  0.062664  0.940705  0.003236  1
  O  O57  1  0.026899  0.344523  0.815295  1
  O  O58  1  0.284965  0.848131  0.896704  1
  O  O59  1  0.353067  0.490581  0.726333  1
  O  O60  1  0.526899  0.155477  0.184705  1
  O  O61  1  0.022781  0.476613  0.644791  1
  O  O62  1  0.473101  0.655477  0.315295  1
  O  O63  1  0.264290  0.867381  0.422499  1
  O  O64  1  0.693723  0.743627  0.901962  1
  O  O65  1  0.153642  0.153553  0.246986  1
  O  O66  1  0.791704  0.811150  0.422781  1
  O  O67  1  0.735710  0.367381  0.077501  1
  O  O68  1  0.839338  0.364541  0.233326  1
  O  O69  1  0.437336  0.059295  0.503236  1
  O  O70  1  0.937336  0.440705  0.496764  1
  O  O71  1  0.669763  0.504353  0.413008  1
  O  O72  1  0.472078  0.363870  0.306530  1
  O  O73  1  0.806277  0.256373  0.401962  1
  O  O74  1  0.522781  0.023387  0.355209  1
  O  O75  1  0.667719  0.998302  0.069347  1
  O  O76  1  0.973101  0.844523  0.684705  1
  O  O77  1  0.562664  0.559295  0.996764  1
  O  O78  1  0.291704  0.688850  0.577219  1
  O  O79  1  0.193723  0.756373  0.098038  1
  O  O80  1  0.477219  0.523387  0.144791  1
  O  O81  1  0.027922  0.636130  0.806530  1
  O  O82  1  0.653642  0.346447  0.753014  1
  O  O83  1  0.708296  0.188850  0.922781  1
  O  O84  1  0.346358  0.846447  0.746986  1
  O  O85  1  0.169763  0.995647  0.586992  1
  O  O86  1  0.646933  0.990581  0.773667  1
  O  O87  1  0.513048  0.520484  0.859970  1
  O  O88  1  0.784965  0.651869  0.103296  1
  O  O89  1  0.339338  0.135459  0.766674  1
  O  O90  1  0.715035  0.348131  0.603296  1
  O  O91  1  0.972078  0.136130  0.693470  1
  O  O92  1  0.977219  0.976613  0.855209  1
  O  O93  1  0.486952  0.020484  0.640030  1
  O  O94  1  0.306277  0.243627  0.598038  1
  O  O95  1  0.830237  0.495647  0.913008  1
  O  O96  1  0.146933  0.509419  0.226333  1
  O  O97  1  0.846358  0.653553  0.253014  1
  O  O98  1  0.208296  0.311150  0.077219  1
  O  O99  1  0.986952  0.479516  0.359970  1
  O  O100  1  0.330237  0.004353  0.086992  1
  O  O101  1  0.235710  0.132619  0.922499  1
  O  O102  1  0.013048  0.979516  0.140030  1
  O  O103  1  0.853067  0.009419  0.273667  1
