# generated using pymatgen
data_BaHf(PO4)2
_symmetry_space_group_name_H-M   'P 1'
_cell_length_a   5.10004178
_cell_length_b   5.10004178
_cell_length_c   7.95615905
_cell_angle_alpha   86.93927068
_cell_angle_beta   93.06072932
_cell_angle_gamma   116.77438632
_symmetry_Int_Tables_number   1
_chemical_formula_structural   BaHf(PO4)2
_chemical_formula_sum   'Ba1 Hf1 P2 O8'
_cell_volume   184.39265678
_cell_formula_units_Z   1
loop_
 _symmetry_equiv_pos_site_id
 _symmetry_equiv_pos_as_xyz
  1  'x, y, z'
loop_
 _atom_site_type_symbol
 _atom_site_label
 _atom_site_symmetry_multiplicity
 _atom_site_fract_x
 _atom_site_fract_y
 _atom_site_fract_z
 _atom_site_occupancy
  Ba  Ba0  1  0.000000  0.000000  0.500000  1
  Hf  Hf1  1  0.000000  0.000000  0.000000  1
  P  P2  1  0.637745  0.362255  0.779670  1
  P  P3  1  0.362255  0.637745  0.220330  1
  O  O4  1  0.224935  0.301603  0.186696  1
  O  O5  1  0.776636  0.223364  0.910459  1
  O  O6  1  0.682076  0.317924  0.597424  1
  O  O7  1  0.317924  0.682076  0.402576  1
  O  O8  1  0.223364  0.776636  0.089541  1
  O  O9  1  0.698397  0.775065  0.186696  1
  O  O10  1  0.301603  0.224935  0.813304  1
  O  O11  1  0.775065  0.698397  0.813304  1
