# generated using pymatgen
data_SbAs3(S2F3)2
_symmetry_space_group_name_H-M   'P 1'
_cell_length_a   6.19559795
_cell_length_b   10.11075493
_cell_length_c   20.81000081
_cell_angle_alpha   90.00000000
_cell_angle_beta   90.00000000
_cell_angle_gamma   90.00000000
_symmetry_Int_Tables_number   1
_chemical_formula_structural   SbAs3(S2F3)2
_chemical_formula_sum   'Sb4 As12 S16 F24'
_cell_volume   1303.58366082
_cell_formula_units_Z   4
loop_
 _symmetry_equiv_pos_site_id
 _symmetry_equiv_pos_as_xyz
  1  'x, y, z'
loop_
 _atom_site_type_symbol
 _atom_site_label
 _atom_site_symmetry_multiplicity
 _atom_site_fract_x
 _atom_site_fract_y
 _atom_site_fract_z
 _atom_site_occupancy
  Sb  Sb0  1  0.490800  0.250000  0.662884  1
  Sb  Sb1  1  0.509200  0.250000  0.162884  1
  Sb  Sb2  1  0.509200  0.750000  0.337116  1
  Sb  Sb3  1  0.490800  0.750000  0.837116  1
  As  As4  1  0.941440  0.750000  0.510323  1
  As  As5  1  0.005183  0.624794  0.171022  1
  As  As6  1  0.058560  0.750000  0.010323  1
  As  As7  1  0.994817  0.124794  0.828978  1
  As  As8  1  0.941440  0.250000  0.989677  1
  As  As9  1  0.005183  0.875206  0.171022  1
  As  As10  1  0.994817  0.624794  0.671022  1
  As  As11  1  0.994817  0.875206  0.671022  1
  As  As12  1  0.994817  0.375206  0.828978  1
  As  As13  1  0.005183  0.124794  0.328978  1
  As  As14  1  0.058560  0.250000  0.489677  1
  As  As15  1  0.005183  0.375206  0.328978  1
  S  S16  1  0.697037  0.750000  0.134289  1
  S  S17  1  0.696589  0.250000  0.462495  1
  S  S18  1  0.855625  0.078923  0.923926  1
  S  S19  1  0.855625  0.421077  0.923926  1
  S  S20  1  0.855625  0.578923  0.576074  1
  S  S21  1  0.144375  0.921077  0.076074  1
  S  S22  1  0.303411  0.250000  0.962495  1
  S  S23  1  0.144375  0.078923  0.423926  1
  S  S24  1  0.144375  0.421077  0.423926  1
  S  S25  1  0.302963  0.750000  0.634289  1
  S  S26  1  0.303411  0.750000  0.537505  1
  S  S27  1  0.696589  0.750000  0.037505  1
  S  S28  1  0.302963  0.250000  0.865711  1
  S  S29  1  0.144375  0.578923  0.076074  1
  S  S30  1  0.855625  0.921077  0.576074  1
  S  S31  1  0.697037  0.250000  0.365711  1
  F  F32  1  0.347830  0.384576  0.613608  1
  F  F33  1  0.727946  0.250000  0.602955  1
  F  F34  1  0.633502  0.616691  0.787030  1
  F  F35  1  0.251959  0.750000  0.776582  1
  F  F36  1  0.272054  0.750000  0.397045  1
  F  F37  1  0.748041  0.750000  0.276582  1
  F  F38  1  0.652170  0.884576  0.386392  1
  F  F39  1  0.652170  0.115424  0.113608  1
  F  F40  1  0.366498  0.383309  0.212970  1
  F  F41  1  0.652170  0.384576  0.113608  1
  F  F42  1  0.366498  0.883309  0.287030  1
  F  F43  1  0.633502  0.883309  0.787030  1
  F  F44  1  0.366498  0.616691  0.287030  1
  F  F45  1  0.251959  0.250000  0.723418  1
  F  F46  1  0.633502  0.116691  0.712970  1
  F  F47  1  0.633502  0.383309  0.712970  1
  F  F48  1  0.366498  0.116691  0.212970  1
  F  F49  1  0.652170  0.615424  0.386392  1
  F  F50  1  0.347830  0.615424  0.886392  1
  F  F51  1  0.272054  0.250000  0.102955  1
  F  F52  1  0.347830  0.884576  0.886392  1
  F  F53  1  0.748041  0.250000  0.223418  1
  F  F54  1  0.727946  0.750000  0.897045  1
  F  F55  1  0.347830  0.115424  0.613608  1
