# generated using pymatgen
data_CsNb(PO4)2
_symmetry_space_group_name_H-M   'P 1'
_cell_length_a   4.99503325
_cell_length_b   9.04871502
_cell_length_c   19.00570118
_cell_angle_alpha   90.00000000
_cell_angle_beta   99.74176713
_cell_angle_gamma   90.00000000
_symmetry_Int_Tables_number   1
_chemical_formula_structural   CsNb(PO4)2
_chemical_formula_sum   'Cs4 Nb4 P8 O32'
_cell_volume   846.64479295
_cell_formula_units_Z   4
loop_
 _symmetry_equiv_pos_site_id
 _symmetry_equiv_pos_as_xyz
  1  'x, y, z'
loop_
 _atom_site_type_symbol
 _atom_site_label
 _atom_site_symmetry_multiplicity
 _atom_site_fract_x
 _atom_site_fract_y
 _atom_site_fract_z
 _atom_site_occupancy
  Cs  Cs0  1  0.835696  0.289551  0.060577  1
  Cs  Cs1  1  0.164304  0.789551  0.439423  1
  Cs  Cs2  1  0.164304  0.710449  0.939423  1
  Cs  Cs3  1  0.835696  0.210449  0.560577  1
  Nb  Nb4  1  0.338880  0.942775  0.167975  1
  Nb  Nb5  1  0.661120  0.442775  0.332025  1
  Nb  Nb6  1  0.661120  0.057225  0.832025  1
  Nb  Nb7  1  0.338880  0.557225  0.667975  1
  P  P8  1  0.808878  0.715381  0.107316  1
  P  P9  1  0.191122  0.215381  0.392684  1
  P  P10  1  0.191122  0.284619  0.892684  1
  P  P11  1  0.808878  0.784619  0.607316  1
  P  P12  1  0.127103  0.619242  0.242493  1
  P  P13  1  0.872897  0.119242  0.257507  1
  P  P14  1  0.872897  0.380758  0.757507  1
  P  P15  1  0.127103  0.880758  0.742493  1
  O  O16  1  0.408350  0.066828  0.102248  1
  O  O17  1  0.591650  0.566828  0.397752  1
  O  O18  1  0.591650  0.933172  0.897752  1
  O  O19  1  0.408350  0.433172  0.602248  1
  O  O20  1  0.577084  0.773045  0.144625  1
  O  O21  1  0.422916  0.273045  0.355375  1
  O  O22  1  0.422916  0.226955  0.855375  1
  O  O23  1  0.577084  0.726955  0.644625  1
  O  O24  1  0.016924  0.841773  0.103908  1
  O  O25  1  0.983076  0.341773  0.396092  1
  O  O26  1  0.983076  0.158227  0.896092  1
  O  O27  1  0.016924  0.658227  0.603908  1
  O  O28  1  0.721422  0.638173  0.038009  1
  O  O29  1  0.278578  0.138173  0.461991  1
  O  O30  1  0.278578  0.361827  0.961991  1
  O  O31  1  0.721422  0.861827  0.538009  1
  O  O32  1  0.966744  0.591219  0.162267  1
  O  O33  1  0.033256  0.091219  0.337733  1
  O  O34  1  0.033256  0.408781  0.837733  1
  O  O35  1  0.966744  0.908781  0.662267  1
  O  O36  1  0.219724  0.778277  0.249788  1
  O  O37  1  0.780276  0.278277  0.250212  1
  O  O38  1  0.780276  0.221723  0.750212  1
  O  O39  1  0.219724  0.721723  0.749788  1
  O  O40  1  0.640007  0.004857  0.249553  1
  O  O41  1  0.359993  0.504857  0.250447  1
  O  O42  1  0.359993  0.995143  0.750447  1
  O  O43  1  0.640007  0.495143  0.749553  1
  O  O44  1  0.070492  0.081919  0.205989  1
  O  O45  1  0.929508  0.581919  0.294011  1
  O  O46  1  0.929508  0.918081  0.794011  1
  O  O47  1  0.070492  0.418081  0.705989  1
