# generated using pymatgen
data_LiAl(SiO3)2
_symmetry_space_group_name_H-M   'P 1'
_cell_length_a   5.19215944
_cell_length_b   8.53678468
_cell_length_c   9.18356232
_cell_angle_alpha   90.00000000
_cell_angle_beta   102.63127640
_cell_angle_gamma   90.00000000
_symmetry_Int_Tables_number   1
_chemical_formula_structural   LiAl(SiO3)2
_chemical_formula_sum   'Li4 Al4 Si8 O24'
_cell_volume   397.20366151
_cell_formula_units_Z   4
loop_
 _symmetry_equiv_pos_site_id
 _symmetry_equiv_pos_as_xyz
  1  'x, y, z'
loop_
 _atom_site_type_symbol
 _atom_site_label
 _atom_site_symmetry_multiplicity
 _atom_site_fract_x
 _atom_site_fract_y
 _atom_site_fract_z
 _atom_site_occupancy
  Li  Li0  1  0.972431  0.014949  0.745090  1
  Li  Li1  1  0.527569  0.514949  0.254910  1
  Li  Li2  1  0.027569  0.985051  0.254910  1
  Li  Li3  1  0.472431  0.485051  0.745090  1
  Al  Al4  1  0.972527  0.652319  0.749679  1
  Al  Al5  1  0.527473  0.152319  0.250321  1
  Al  Al6  1  0.027473  0.347681  0.250321  1
  Al  Al7  1  0.472527  0.847681  0.749679  1
  Si  Si8  1  0.229128  0.342551  0.954049  1
  Si  Si9  1  0.270872  0.842551  0.045951  1
  Si  Si10  1  0.770872  0.657449  0.045951  1
  Si  Si11  1  0.729128  0.157449  0.954049  1
  Si  Si12  1  0.680951  0.840866  0.450304  1
  Si  Si13  1  0.819049  0.340866  0.549696  1
  Si  Si14  1  0.319049  0.159134  0.549696  1
  Si  Si15  1  0.180951  0.659134  0.450304  1
  O  O16  1  0.301920  0.329736  0.139054  1
  O  O17  1  0.198080  0.829736  0.860946  1
  O  O18  1  0.698080  0.670264  0.860946  1
  O  O19  1  0.801920  0.170264  0.139054  1
  O  O20  1  0.169588  0.512965  0.881389  1
  O  O21  1  0.330412  0.012965  0.118611  1
  O  O22  1  0.830412  0.487035  0.118611  1
  O  O23  1  0.669588  0.987035  0.881389  1
  O  O24  1  0.488410  0.282592  0.892762  1
  O  O25  1  0.011590  0.782592  0.107238  1
  O  O26  1  0.511590  0.717408  0.107238  1
  O  O27  1  0.988410  0.217408  0.892762  1
  O  O28  1  0.746921  0.828859  0.635817  1
  O  O29  1  0.753079  0.328859  0.364183  1
  O  O30  1  0.253079  0.171141  0.364183  1
  O  O31  1  0.246921  0.671141  0.635817  1
  O  O32  1  0.727877  0.005872  0.375612  1
  O  O33  1  0.772123  0.505872  0.624388  1
  O  O34  1  0.272123  0.994128  0.624388  1
  O  O35  1  0.227877  0.494128  0.375612  1
  O  O36  1  0.870027  0.710649  0.391987  1
  O  O37  1  0.629973  0.210649  0.608013  1
  O  O38  1  0.129973  0.289351  0.608013  1
  O  O39  1  0.370027  0.789351  0.391987  1
