# generated using pymatgen
data_BaCu(SiO3)2
_symmetry_space_group_name_H-M   'P 1'
_cell_length_a   13.48663717
_cell_length_b   13.48663717
_cell_length_c   13.48663717
_cell_angle_alpha   136.19720835
_cell_angle_beta   136.19720835
_cell_angle_gamma   63.67559498
_symmetry_Int_Tables_number   1
_chemical_formula_structural   BaCu(SiO3)2
_chemical_formula_sum   'Ba8 Cu8 Si16 O48'
_cell_volume   1159.84295550
_cell_formula_units_Z   8
loop_
 _symmetry_equiv_pos_site_id
 _symmetry_equiv_pos_as_xyz
  1  'x, y, z'
loop_
 _atom_site_type_symbol
 _atom_site_label
 _atom_site_symmetry_multiplicity
 _atom_site_fract_x
 _atom_site_fract_y
 _atom_site_fract_z
 _atom_site_occupancy
  Ba  Ba0  1  0.625000  0.638101  0.513101  1
  Ba  Ba1  1  0.125000  0.111899  0.486899  1
  Ba  Ba2  1  0.625000  0.138101  0.013101  1
  Ba  Ba3  1  0.125000  0.611899  0.986899  1
  Ba  Ba4  1  0.888101  0.375000  0.013101  1
  Ba  Ba5  1  0.388101  0.375000  0.513101  1
  Ba  Ba6  1  0.361899  0.875000  0.986899  1
  Ba  Ba7  1  0.861899  0.875000  0.486899  1
  Cu  Cu8  1  0.191536  0.191536  0.000000  1
  Cu  Cu9  1  0.808464  0.808464  0.000000  1
  Cu  Cu10  1  0.691536  0.691536  0.000000  1
  Cu  Cu11  1  0.308464  0.308464  0.000000  1
  Cu  Cu12  1  0.558464  0.058464  0.500000  1
  Cu  Cu13  1  0.441536  0.941536  0.500000  1
  Cu  Cu14  1  0.941536  0.441536  0.500000  1
  Cu  Cu15  1  0.058464  0.558464  0.500000  1
  Si  Si16  1  0.001714  0.224478  0.225423  1
  Si  Si17  1  0.526292  0.251714  0.277237  1
  Si  Si18  1  0.275522  0.498286  0.774577  1
  Si  Si19  1  0.499055  0.724478  0.222763  1
  Si  Si20  1  0.026292  0.749055  0.274577  1
  Si  Si21  1  0.974478  0.249055  0.722763  1
  Si  Si22  1  0.748286  0.025522  0.274577  1
  Si  Si23  1  0.775522  0.000945  0.777237  1
  Si  Si24  1  0.223708  0.998286  0.222763  1
  Si  Si25  1  0.248286  0.973708  0.722763  1
  Si  Si26  1  0.501714  0.276292  0.777237  1
  Si  Si27  1  0.999055  0.776292  0.774577  1
  Si  Si28  1  0.250945  0.525522  0.277237  1
  Si  Si29  1  0.723708  0.500945  0.225423  1
  Si  Si30  1  0.474478  0.751714  0.725423  1
  Si  Si31  1  0.750945  0.473708  0.725423  1
  O  O32  1  0.616693  0.844326  0.841758  1
  O  O33  1  0.840815  0.999930  0.224018  1
  O  O34  1  0.500070  0.659185  0.775982  1
  O  O35  1  0.409185  0.133203  0.659116  1
  O  O36  1  0.359628  0.860702  0.754864  1
  O  O37  1  0.747432  0.475065  0.341758  1
  O  O38  1  0.605838  0.360702  0.501074  1
  O  O39  1  0.247432  0.905674  0.272367  1
  O  O40  1  0.749930  0.025912  0.659116  1
  O  O41  1  0.133307  0.405674  0.658242  1
  O  O42  1  0.105838  0.604765  0.245136  1
  O  O43  1  0.775912  0.616797  0.775982  1
  O  O44  1  0.366797  0.090815  0.340884  1
  O  O45  1  0.395235  0.640372  0.501074  1
  O  O46  1  0.024935  0.752568  0.658242  1
  O  O47  1  0.524935  0.866693  0.272367  1
  O  O48  1  0.895235  0.394162  0.754864  1
  O  O49  1  0.502568  0.344326  0.227633  1
  O  O50  1  0.974088  0.633203  0.724018  1
  O  O51  1  0.110702  0.109628  0.254864  1
  O  O52  1  0.139298  0.894162  0.498926  1
  O  O53  1  0.116693  0.274935  0.772367  1
  O  O54  1  0.633307  0.975065  0.727633  1
  O  O55  1  0.094326  0.366693  0.341758  1
  O  O56  1  0.390372  0.389298  0.745136  1
  O  O57  1  0.890372  0.145235  0.001074  1
  O  O58  1  0.340815  0.116797  0.840884  1
  O  O59  1  0.225065  0.383307  0.227633  1
  O  O60  1  0.594326  0.252568  0.727633  1
  O  O61  1  0.725065  0.497432  0.841758  1
  O  O62  1  0.909185  0.250070  0.275982  1
  O  O63  1  0.655674  0.883307  0.158242  1
  O  O64  1  0.155674  0.997432  0.772367  1
  O  O65  1  0.474088  0.750070  0.340884  1
  O  O66  1  0.859628  0.104765  0.498926  1
  O  O67  1  0.644162  0.645235  0.254864  1
  O  O68  1  0.883203  0.724088  0.224018  1
  O  O69  1  0.275912  0.499930  0.159116  1
  O  O70  1  0.639298  0.140372  0.245136  1
  O  O71  1  0.383203  0.159185  0.159116  1
  O  O72  1  0.610702  0.355838  0.001074  1
  O  O73  1  0.002568  0.774935  0.158242  1
  O  O74  1  0.854765  0.855838  0.745136  1
  O  O75  1  0.249930  0.590815  0.724018  1
  O  O76  1  0.354765  0.609628  0.998926  1
  O  O77  1  0.866797  0.525912  0.275982  1
  O  O78  1  0.000070  0.224088  0.840884  1
  O  O79  1  0.144162  0.889298  0.998926  1
