# generated using pymatgen
data_KNa3WO5
_symmetry_space_group_name_H-M   'P 1'
_cell_length_a   5.94450776
_cell_length_b   5.94450776
_cell_length_c   9.20817830
_cell_angle_alpha   79.14565063
_cell_angle_beta   100.85434937
_cell_angle_gamma   100.84645683
_symmetry_Int_Tables_number   1
_chemical_formula_structural   KNa3WO5
_chemical_formula_sum   'K2 Na6 W2 O10'
_cell_volume   309.89315797
_cell_formula_units_Z   2
loop_
 _symmetry_equiv_pos_site_id
 _symmetry_equiv_pos_as_xyz
  1  'x, y, z'
loop_
 _atom_site_type_symbol
 _atom_site_label
 _atom_site_symmetry_multiplicity
 _atom_site_fract_x
 _atom_site_fract_y
 _atom_site_fract_z
 _atom_site_occupancy
  K  K0  1  0.251120  0.251120  0.500000  1
  K  K1  1  0.748880  0.748880  0.500000  1
  Na  Na2  1  0.351903  0.157829  0.887168  1
  Na  Na3  1  0.157829  0.351903  0.112832  1
  Na  Na4  1  0.648097  0.842171  0.112832  1
  Na  Na5  1  0.810258  0.189742  0.726412  1
  Na  Na6  1  0.842171  0.648097  0.887168  1
  Na  Na7  1  0.189742  0.810258  0.273588  1
  W  W8  1  0.308757  0.691243  0.741907  1
  W  W9  1  0.691243  0.308757  0.258093  1
  O  O10  1  0.746288  0.253712  0.466198  1
  O  O11  1  0.253712  0.746288  0.533802  1
  O  O12  1  0.555384  0.883166  0.845373  1
  O  O13  1  0.900921  0.099079  0.249136  1
  O  O14  1  0.520793  0.479207  0.741891  1
  O  O15  1  0.116834  0.444616  0.845373  1
  O  O16  1  0.883166  0.555384  0.154627  1
  O  O17  1  0.479207  0.520793  0.258109  1
  O  O18  1  0.099079  0.900921  0.750864  1
  O  O19  1  0.444616  0.116834  0.154627  1
