# generated using pymatgen
data_Li3Mo2(PO4)3
_symmetry_space_group_name_H-M   'P 1'
_cell_length_a   5.01202212
_cell_length_b   5.01202212
_cell_length_c   19.36280474
_cell_angle_alpha   89.88464545
_cell_angle_beta   90.11535455
_cell_angle_gamma   113.72073351
_symmetry_Int_Tables_number   1
_chemical_formula_structural   Li3Mo2(PO4)3
_chemical_formula_sum   'Li6 Mo4 P6 O24'
_cell_volume   445.30689601
_cell_formula_units_Z   2
loop_
 _symmetry_equiv_pos_site_id
 _symmetry_equiv_pos_as_xyz
  1  'x, y, z'
loop_
 _atom_site_type_symbol
 _atom_site_label
 _atom_site_symmetry_multiplicity
 _atom_site_fract_x
 _atom_site_fract_y
 _atom_site_fract_z
 _atom_site_occupancy
  Li  Li0  1  0.999845  0.000155  0.664065  1
  Li  Li1  1  0.668109  0.331891  0.589171  1
  Li  Li2  1  0.665811  0.334189  0.261059  1
  Li  Li3  1  0.334189  0.665811  0.738941  1
  Li  Li4  1  0.331891  0.668109  0.410829  1
  Li  Li5  1  0.000155  0.999845  0.335935  1
  Mo  Mo6  1  0.000000  0.000000  0.000000  1
  Mo  Mo7  1  0.000000  1.000000  0.500000  1
  Mo  Mo8  1  0.996538  0.003462  0.171102  1
  Mo  Mo9  1  0.003462  0.996538  0.828898  1
  P  P10  1  0.346868  0.653132  0.252118  1
  P  P11  1  0.352053  0.647947  0.580204  1
  P  P12  1  0.352161  0.647839  0.912301  1
  P  P13  1  0.647947  0.352053  0.419796  1
  P  P14  1  0.647839  0.352161  0.087699  1
  P  P15  1  0.653132  0.346868  0.747882  1
  O  O16  1  0.308710  0.236909  0.749757  1
  O  O17  1  0.698152  0.772377  0.914954  1
  O  O18  1  0.694799  0.759007  0.579850  1
  O  O19  1  0.759007  0.694799  0.420150  1
  O  O20  1  0.301848  0.227623  0.085046  1
  O  O21  1  0.227623  0.301848  0.914954  1
  O  O22  1  0.240993  0.305201  0.579850  1
  O  O23  1  0.305201  0.240993  0.420150  1
  O  O24  1  0.772377  0.698152  0.085046  1
  O  O25  1  0.236909  0.308710  0.250243  1
  O  O26  1  0.755943  0.244057  0.813473  1
  O  O27  1  0.754422  0.245578  0.024534  1
  O  O28  1  0.745936  0.254064  0.488068  1
  O  O29  1  0.752847  0.247153  0.356358  1
  O  O30  1  0.691290  0.763091  0.250243  1
  O  O31  1  0.738012  0.261988  0.157038  1
  O  O32  1  0.261988  0.738012  0.842962  1
  O  O33  1  0.248534  0.751466  0.317609  1
  O  O34  1  0.247153  0.752847  0.643642  1
  O  O35  1  0.254064  0.745936  0.511932  1
  O  O36  1  0.245578  0.754422  0.975466  1
  O  O37  1  0.244057  0.755943  0.186527  1
  O  O38  1  0.763091  0.691290  0.749757  1
  O  O39  1  0.751466  0.248534  0.682391  1
