# generated using pymatgen
data_TeO2
_symmetry_space_group_name_H-M   'P 1'
_cell_length_a   4.96740284
_cell_length_b   4.96740284
_cell_length_c   7.62283859
_cell_angle_alpha   90.00000000
_cell_angle_beta   90.00000000
_cell_angle_gamma   90.00000000
_symmetry_Int_Tables_number   1
_chemical_formula_structural   TeO2
_chemical_formula_sum   'Te4 O8'
_cell_volume   188.09423569
_cell_formula_units_Z   4
loop_
 _symmetry_equiv_pos_site_id
 _symmetry_equiv_pos_as_xyz
  1  'x, y, z'
loop_
 _atom_site_type_symbol
 _atom_site_label
 _atom_site_symmetry_multiplicity
 _atom_site_fract_x
 _atom_site_fract_y
 _atom_site_fract_z
 _atom_site_occupancy
  Te  Te0  1  0.968685  0.968685  0.500000  1
  Te  Te1  1  0.531315  0.468685  0.750000  1
  Te  Te2  1  0.468685  0.531315  0.250000  1
  Te  Te3  1  0.031315  0.031315  0.000000  1
  O  O4  1  0.745450  0.854624  0.309403  1
  O  O5  1  0.254550  0.145376  0.809403  1
  O  O6  1  0.854624  0.745450  0.690597  1
  O  O7  1  0.354624  0.754550  0.059403  1
  O  O8  1  0.145376  0.254550  0.190597  1
  O  O9  1  0.245450  0.645376  0.440597  1
  O  O10  1  0.754550  0.354624  0.940597  1
  O  O11  1  0.645376  0.245450  0.559403  1
