# generated using pymatgen
data_CdH16C4(NCl2)2
_symmetry_space_group_name_H-M   'P 1'
_cell_length_a   7.48371331
_cell_length_b   7.59625788
_cell_length_c   22.70759999
_cell_angle_alpha   90.00000000
_cell_angle_beta   90.00000000
_cell_angle_gamma   90.00000000
_symmetry_Int_Tables_number   1
_chemical_formula_structural   CdH16C4(NCl2)2
_chemical_formula_sum   'Cd4 H64 C16 N8 Cl16'
_cell_volume   1290.88655368
_cell_formula_units_Z   4
loop_
 _symmetry_equiv_pos_site_id
 _symmetry_equiv_pos_as_xyz
  1  'x, y, z'
loop_
 _atom_site_type_symbol
 _atom_site_label
 _atom_site_symmetry_multiplicity
 _atom_site_fract_x
 _atom_site_fract_y
 _atom_site_fract_z
 _atom_site_occupancy
  Cd  Cd0  1  0.000000  0.000000  0.000000  1
  Cd  Cd1  1  0.000000  0.500000  0.500000  1
  Cd  Cd2  1  0.500000  0.500000  0.000000  1
  Cd  Cd3  1  0.500000  0.000000  0.500000  1
  H  H4  1  0.193607  0.972442  0.288298  1
  H  H5  1  0.008812  0.325445  0.214576  1
  H  H6  1  0.835062  0.012295  0.599585  1
  H  H7  1  0.496387  0.656292  0.398074  1
  H  H8  1  0.317551  0.954464  0.160542  1
  H  H9  1  0.508812  0.174555  0.214576  1
  H  H10  1  0.996387  0.843708  0.398074  1
  H  H11  1  0.497787  0.802316  0.158924  1
  H  H12  1  0.502498  0.973471  0.254507  1
  H  H13  1  0.491188  0.825445  0.785424  1
  H  H14  1  0.335062  0.487705  0.599585  1
  H  H15  1  0.693607  0.527558  0.288298  1
  H  H16  1  0.002213  0.302316  0.841076  1
  H  H17  1  0.991188  0.174555  0.714576  1
  H  H18  1  0.306393  0.972442  0.788298  1
  H  H19  1  0.003613  0.156292  0.601926  1
  H  H20  1  0.806393  0.027558  0.711702  1
  H  H21  1  0.693607  0.027558  0.211702  1
  H  H22  1  0.003613  0.656292  0.898074  1
  H  H23  1  0.497502  0.026529  0.745493  1
  H  H24  1  0.182449  0.954464  0.660542  1
  H  H25  1  0.966212  0.042129  0.431421  1
  H  H26  1  0.193607  0.472442  0.211702  1
  H  H27  1  0.317551  0.454464  0.339458  1
  H  H28  1  0.497502  0.526529  0.754507  1
  H  H29  1  0.966212  0.542129  0.068579  1
  H  H30  1  0.033788  0.457871  0.931421  1
  H  H31  1  0.664938  0.512295  0.400415  1
  H  H32  1  0.491188  0.325445  0.714576  1
  H  H33  1  0.497787  0.302316  0.341076  1
  H  H34  1  0.503613  0.843708  0.898074  1
  H  H35  1  0.164938  0.487705  0.099585  1
  H  H36  1  0.164938  0.987705  0.400415  1
  H  H37  1  0.806393  0.527558  0.788298  1
  H  H38  1  0.502498  0.473471  0.245493  1
  H  H39  1  0.997502  0.973471  0.754507  1
  H  H40  1  0.466212  0.957871  0.068579  1
  H  H41  1  0.502213  0.197684  0.841076  1
  H  H42  1  0.466212  0.457871  0.431421  1
  H  H43  1  0.502213  0.697684  0.658924  1
  H  H44  1  0.533788  0.042129  0.931421  1
  H  H45  1  0.033788  0.957871  0.568579  1
  H  H46  1  0.835062  0.512295  0.900415  1
  H  H47  1  0.682449  0.045536  0.839458  1
  H  H48  1  0.817551  0.045536  0.339458  1
  H  H49  1  0.997787  0.197684  0.341076  1
  H  H50  1  0.008812  0.825445  0.285424  1
  H  H51  1  0.817551  0.545536  0.160542  1
  H  H52  1  0.182449  0.454464  0.839458  1
  H  H53  1  0.533788  0.542129  0.568579  1
  H  H54  1  0.002498  0.026529  0.245493  1
  H  H55  1  0.002498  0.526529  0.254507  1
  H  H56  1  0.664938  0.012295  0.099585  1
  H  H57  1  0.496387  0.156292  0.101926  1
  H  H58  1  0.503613  0.343708  0.601926  1
  H  H59  1  0.682449  0.545536  0.660542  1
  H  H60  1  0.335062  0.987705  0.900415  1
  H  H61  1  0.991188  0.674555  0.785424  1
  H  H62  1  0.996387  0.343708  0.101926  1
  H  H63  1  0.508812  0.674555  0.285424  1
  H  H64  1  0.306393  0.472442  0.711702  1
  H  H65  1  0.002213  0.802316  0.658924  1
  H  H66  1  0.997787  0.697684  0.158924  1
  H  H67  1  0.997502  0.473471  0.745493  1
  C  C68  1  0.547104  0.535016  0.286714  1
  C  C69  1  0.047104  0.964984  0.286714  1
  C  C70  1  0.047104  0.464984  0.213286  1
  C  C71  1  0.952896  0.535016  0.786714  1
  C  C72  1  0.963849  0.557118  0.160621  1
  C  C73  1  0.036151  0.942882  0.660621  1
  C  C74  1  0.452896  0.964984  0.786714  1
  C  C75  1  0.963849  0.057118  0.339379  1
  C  C76  1  0.952896  0.035016  0.713286  1
  C  C77  1  0.452896  0.464984  0.713286  1
  C  C78  1  0.536151  0.057118  0.839379  1
  C  C79  1  0.463849  0.442882  0.339379  1
  C  C80  1  0.547104  0.035016  0.213286  1
  C  C81  1  0.463849  0.942882  0.160621  1
  C  C82  1  0.036151  0.442882  0.839379  1
  C  C83  1  0.536151  0.557118  0.660621  1
  N  N84  1  0.526945  0.022076  0.103940  1
  N  N85  1  0.973055  0.522076  0.896060  1
  N  N86  1  0.526945  0.522076  0.396060  1
  N  N87  1  0.473055  0.477924  0.603940  1
  N  N88  1  0.473055  0.977924  0.896060  1
  N  N89  1  0.973055  0.022076  0.603940  1
  N  N90  1  0.026945  0.977924  0.396060  1
  N  N91  1  0.026945  0.477924  0.103940  1
  Cl  Cl92  1  0.028547  0.443802  0.612762  1
  Cl  Cl93  1  0.214435  0.787252  0.516786  1
  Cl  Cl94  1  0.785565  0.212748  0.483214  1
  Cl  Cl95  1  0.285565  0.787252  0.016786  1
  Cl  Cl96  1  0.528547  0.056198  0.612762  1
  Cl  Cl97  1  0.285565  0.287252  0.483214  1
  Cl  Cl98  1  0.785565  0.712748  0.016786  1
  Cl  Cl99  1  0.714435  0.712748  0.516786  1
  Cl  Cl100  1  0.528547  0.556198  0.887238  1
  Cl  Cl101  1  0.971453  0.556198  0.387238  1
  Cl  Cl102  1  0.471453  0.943802  0.387238  1
  Cl  Cl103  1  0.214435  0.287252  0.983214  1
  Cl  Cl104  1  0.471453  0.443802  0.112762  1
  Cl  Cl105  1  0.714435  0.212748  0.983214  1
  Cl  Cl106  1  0.971453  0.056198  0.112762  1
  Cl  Cl107  1  0.028547  0.943802  0.887238  1
