# generated using pymatgen
data_BiBr3
_symmetry_space_group_name_H-M   'P 1'
_cell_length_a   7.37448473
_cell_length_b   7.37448473
_cell_length_c   7.52891753
_cell_angle_alpha   80.23873915
_cell_angle_beta   99.76126085
_cell_angle_gamma   60.53049463
_symmetry_Int_Tables_number   1
_chemical_formula_structural   BiBr3
_chemical_formula_sum   'Bi2 Br6'
_cell_volume   335.69587163
_cell_formula_units_Z   2
loop_
 _symmetry_equiv_pos_site_id
 _symmetry_equiv_pos_as_xyz
  1  'x, y, z'
loop_
 _atom_site_type_symbol
 _atom_site_label
 _atom_site_symmetry_multiplicity
 _atom_site_fract_x
 _atom_site_fract_y
 _atom_site_fract_z
 _atom_site_occupancy
  Bi  Bi0  1  0.831029  0.831029  0.000000  1
  Bi  Bi1  1  0.168971  0.168971  0.000000  1
  Br  Br2  1  0.412068  0.955667  0.754861  1
  Br  Br3  1  0.955667  0.412068  0.245139  1
  Br  Br4  1  0.044333  0.587932  0.754861  1
  Br  Br5  1  0.587932  0.044333  0.245139  1
  Br  Br6  1  0.770373  0.229627  0.779550  1
  Br  Br7  1  0.229627  0.770373  0.220450  1
