# generated using pymatgen
data_Ca3SiO5
_symmetry_space_group_name_H-M   'P 1'
_cell_length_a   9.44645494
_cell_length_b   9.44645494
_cell_length_c   9.44645494
_cell_angle_alpha   44.67091021
_cell_angle_beta   44.67091021
_cell_angle_gamma   44.67091021
_symmetry_Int_Tables_number   1
_chemical_formula_structural   Ca3SiO5
_chemical_formula_sum   'Ca9 Si3 O15'
_cell_volume   378.95208005
_cell_formula_units_Z   3
loop_
 _symmetry_equiv_pos_site_id
 _symmetry_equiv_pos_as_xyz
  1  'x, y, z'
loop_
 _atom_site_type_symbol
 _atom_site_label
 _atom_site_symmetry_multiplicity
 _atom_site_fract_x
 _atom_site_fract_y
 _atom_site_fract_z
 _atom_site_occupancy
  Ca  Ca0  1  0.501975  0.501975  0.001626  1
  Ca  Ca1  1  0.001626  0.501975  0.501975  1
  Ca  Ca2  1  0.746297  0.295157  0.295157  1
  Ca  Ca3  1  0.707876  0.256859  0.707876  1
  Ca  Ca4  1  0.707876  0.707876  0.256859  1
  Ca  Ca5  1  0.256859  0.707876  0.707876  1
  Ca  Ca6  1  0.295157  0.746297  0.295157  1
  Ca  Ca7  1  0.295157  0.295157  0.746297  1
  Ca  Ca8  1  0.501975  0.001626  0.501975  1
  Si  Si9  1  0.221415  0.221415  0.221415  1
  Si  Si10  1  0.007369  0.007369  0.007369  1
  Si  Si11  1  0.786333  0.786333  0.786333  1
  O  O12  1  0.072923  0.072923  0.072923  1
  O  O13  1  0.011736  0.639337  0.639337  1
  O  O14  1  0.326569  0.326569  0.949861  1
  O  O15  1  0.285713  0.285713  0.285713  1
  O  O16  1  0.326569  0.949861  0.326569  1
  O  O17  1  0.639337  0.639337  0.011736  1
  O  O18  1  0.235662  0.860076  0.860076  1
  O  O19  1  0.852105  0.852105  0.852105  1
  O  O20  1  0.949861  0.326569  0.326569  1
  O  O21  1  0.860076  0.235662  0.860076  1
  O  O22  1  0.500303  0.500303  0.500303  1
  O  O23  1  0.860076  0.860076  0.235662  1
  O  O24  1  0.386045  0.386045  0.386045  1
  O  O25  1  0.615774  0.615774  0.615774  1
  O  O26  1  0.639337  0.011736  0.639337  1
