# generated using pymatgen
data_CsSmSiS4
_symmetry_space_group_name_H-M   'P 1'
_cell_length_a   6.49623268
_cell_length_b   6.80302607
_cell_length_c   18.05905413
_cell_angle_alpha   90.00000000
_cell_angle_beta   90.00000000
_cell_angle_gamma   90.00000000
_symmetry_Int_Tables_number   1
_chemical_formula_structural   CsSmSiS4
_chemical_formula_sum   'Cs4 Sm4 Si4 S16'
_cell_volume   798.10256562
_cell_formula_units_Z   4
loop_
 _symmetry_equiv_pos_site_id
 _symmetry_equiv_pos_as_xyz
  1  'x, y, z'
loop_
 _atom_site_type_symbol
 _atom_site_label
 _atom_site_symmetry_multiplicity
 _atom_site_fract_x
 _atom_site_fract_y
 _atom_site_fract_z
 _atom_site_occupancy
  Cs  Cs0  1  0.003508  0.506430  0.466472  1
  Cs  Cs1  1  0.496492  0.493570  0.966472  1
  Cs  Cs2  1  0.996492  0.006430  0.033528  1
  Cs  Cs3  1  0.503508  0.993570  0.533528  1
  Sm  Sm4  1  0.207517  0.520764  0.728290  1
  Sm  Sm5  1  0.707517  0.979236  0.271710  1
  Sm  Sm6  1  0.792483  0.020764  0.771710  1
  Sm  Sm7  1  0.292483  0.479236  0.228290  1
  Si  Si8  1  0.790012  0.515676  0.167717  1
  Si  Si9  1  0.290012  0.984324  0.832283  1
  Si  Si10  1  0.709988  0.484324  0.667717  1
  Si  Si11  1  0.209988  0.015676  0.332283  1
  S  S12  1  0.549519  0.988828  0.902856  1
  S  S13  1  0.608610  0.253449  0.155642  1
  S  S14  1  0.112768  0.070323  0.221343  1
  S  S15  1  0.428894  0.244328  0.353782  1
  S  S16  1  0.387232  0.929677  0.721343  1
  S  S17  1  0.391390  0.753449  0.344358  1
  S  S18  1  0.891390  0.746551  0.655642  1
  S  S19  1  0.612768  0.429677  0.778657  1
  S  S20  1  0.950481  0.011172  0.402856  1
  S  S21  1  0.571106  0.744328  0.146218  1
  S  S22  1  0.049519  0.511172  0.097144  1
  S  S23  1  0.071106  0.755672  0.853782  1
  S  S24  1  0.108610  0.246551  0.844358  1
  S  S25  1  0.928894  0.255672  0.646218  1
  S  S26  1  0.450481  0.488828  0.597144  1
  S  S27  1  0.887232  0.570323  0.278657  1
