# generated using pymatgen
data_LiFe(PO3)4
_symmetry_space_group_name_H-M   'P 1'
_cell_length_a   10.46990004
_cell_length_b   10.46990004
_cell_length_c   5.22408147
_cell_angle_alpha   82.11169486
_cell_angle_beta   97.88830514
_cell_angle_gamma   108.92035246
_symmetry_Int_Tables_number   1
_chemical_formula_structural   LiFe(PO3)4
_chemical_formula_sum   'Li2 Fe2 P8 O24'
_cell_volume   533.95634334
_cell_formula_units_Z   2
loop_
 _symmetry_equiv_pos_site_id
 _symmetry_equiv_pos_as_xyz
  1  'x, y, z'
loop_
 _atom_site_type_symbol
 _atom_site_label
 _atom_site_symmetry_multiplicity
 _atom_site_fract_x
 _atom_site_fract_y
 _atom_site_fract_z
 _atom_site_occupancy
  Li  Li0  1  0.423650  0.576350  0.422953  1
  Li  Li1  1  0.576350  0.423650  0.577047  1
  Fe  Fe2  1  0.000000  0.500000  0.000000  1
  Fe  Fe3  1  0.500000  0.000000  0.000000  1
  P  P4  1  0.215605  0.367810  0.823307  1
  P  P5  1  0.058162  0.699220  0.465069  1
  P  P6  1  0.699220  0.058162  0.534931  1
  P  P7  1  0.367810  0.215605  0.176693  1
  P  P8  1  0.784395  0.632190  0.176693  1
  P  P9  1  0.300780  0.941838  0.465069  1
  P  P10  1  0.632190  0.784395  0.823307  1
  P  P11  1  0.941838  0.300780  0.534931  1
  O  O12  1  0.089862  0.289411  0.626207  1
  O  O13  1  0.335321  0.439431  0.678955  1
  O  O14  1  0.167530  0.448272  0.987829  1
  O  O15  1  0.289411  0.089862  0.373793  1
  O  O16  1  0.145982  0.854018  0.391115  1
  O  O17  1  0.448272  0.167530  0.012171  1
  O  O18  1  0.764485  0.764485  0.000000  1
  O  O19  1  0.668611  0.073311  0.245133  1
  O  O20  1  0.331389  0.926689  0.754867  1
  O  O21  1  0.854018  0.145982  0.608885  1
  O  O22  1  0.910138  0.710589  0.373793  1
  O  O23  1  0.073311  0.668611  0.754867  1
  O  O24  1  0.664679  0.560569  0.321045  1
  O  O25  1  0.926689  0.331389  0.245133  1
  O  O26  1  0.907235  0.392557  0.695154  1
  O  O27  1  0.439431  0.335321  0.321045  1
  O  O28  1  0.092765  0.607443  0.304846  1
  O  O29  1  0.832470  0.551728  0.012171  1
  O  O30  1  0.551728  0.832470  0.987829  1
  O  O31  1  0.392557  0.907235  0.304846  1
  O  O32  1  0.710589  0.910138  0.626207  1
  O  O33  1  0.560569  0.664679  0.678955  1
  O  O34  1  0.235515  0.235515  0.000000  1
  O  O35  1  0.607443  0.092765  0.695154  1
