# generated using pymatgen
data_Ba3TiNb4O15
_symmetry_space_group_name_H-M   'P 1'
_cell_length_a   12.69056100
_cell_length_b   12.69056100
_cell_length_c   4.13440304
_cell_angle_alpha   90.00000000
_cell_angle_beta   90.00000000
_cell_angle_gamma   90.00000000
_symmetry_Int_Tables_number   1
_chemical_formula_structural   Ba3TiNb4O15
_chemical_formula_sum   'Ba6 Ti2 Nb8 O30'
_cell_volume   665.84700907
_cell_formula_units_Z   2
loop_
 _symmetry_equiv_pos_site_id
 _symmetry_equiv_pos_as_xyz
  1  'x, y, z'
loop_
 _atom_site_type_symbol
 _atom_site_label
 _atom_site_symmetry_multiplicity
 _atom_site_fract_x
 _atom_site_fract_y
 _atom_site_fract_z
 _atom_site_occupancy
  Ba  Ba0  1  0.836766  0.663234  0.979399  1
  Ba  Ba1  1  0.163234  0.336766  0.979399  1
  Ba  Ba2  1  0.000000  0.000000  0.986832  1
  Ba  Ba3  1  0.336766  0.836766  0.979399  1
  Ba  Ba4  1  0.663234  0.163234  0.979399  1
  Ba  Ba5  1  0.500000  0.500000  0.986832  1
  Ti  Ti6  1  0.500000  0.000000  0.451440  1
  Ti  Ti7  1  0.000000  0.500000  0.451440  1
  Nb  Nb8  1  0.716660  0.426595  0.468092  1
  Nb  Nb9  1  0.573405  0.716660  0.468092  1
  Nb  Nb10  1  0.783340  0.926595  0.468092  1
  Nb  Nb11  1  0.283340  0.573405  0.468092  1
  Nb  Nb12  1  0.926595  0.216660  0.468092  1
  Nb  Nb13  1  0.216660  0.073405  0.468092  1
  Nb  Nb14  1  0.073405  0.783340  0.468092  1
  Nb  Nb15  1  0.426595  0.283340  0.468092  1
  O  O16  1  0.075145  0.791413  0.014136  1
  O  O17  1  0.568285  0.359617  0.513762  1
  O  O18  1  0.431715  0.640383  0.513762  1
  O  O19  1  0.924855  0.208587  0.014136  1
  O  O20  1  0.424855  0.291413  0.014136  1
  O  O21  1  0.500000  0.000000  0.029255  1
  O  O22  1  0.000000  0.500000  0.029255  1
  O  O23  1  0.506257  0.154664  0.514182  1
  O  O24  1  0.781424  0.281424  0.511993  1
  O  O25  1  0.359617  0.431715  0.513762  1
  O  O26  1  0.208587  0.075145  0.014136  1
  O  O27  1  0.718576  0.781424  0.511993  1
  O  O28  1  0.575145  0.708587  0.014136  1
  O  O29  1  0.654664  0.006257  0.514182  1
  O  O30  1  0.291413  0.575145  0.014136  1
  O  O31  1  0.640383  0.568285  0.513762  1
  O  O32  1  0.140383  0.931715  0.513762  1
  O  O33  1  0.845336  0.506257  0.514182  1
  O  O34  1  0.708587  0.424855  0.014136  1
  O  O35  1  0.859617  0.068285  0.513762  1
  O  O36  1  0.345336  0.993743  0.514182  1
  O  O37  1  0.993743  0.654664  0.514182  1
  O  O38  1  0.068285  0.140383  0.513762  1
  O  O39  1  0.154664  0.493743  0.514182  1
  O  O40  1  0.791413  0.924855  0.014136  1
  O  O41  1  0.931715  0.859617  0.513762  1
  O  O42  1  0.006257  0.345336  0.514182  1
  O  O43  1  0.493743  0.845336  0.514182  1
  O  O44  1  0.218576  0.718576  0.511993  1
  O  O45  1  0.281424  0.218576  0.511993  1
