# generated using pymatgen
data_TiSO5
_symmetry_space_group_name_H-M   'P 1'
_cell_length_a   7.44215615
_cell_length_b   7.44215615
_cell_length_c   9.60813444
_cell_angle_alpha   89.91978563
_cell_angle_beta   90.08021437
_cell_angle_gamma   40.91446583
_symmetry_Int_Tables_number   1
_chemical_formula_structural   TiSO5
_chemical_formula_sum   'Ti4 S4 O20'
_cell_volume   348.52112522
_cell_formula_units_Z   4
loop_
 _symmetry_equiv_pos_site_id
 _symmetry_equiv_pos_as_xyz
  1  'x, y, z'
loop_
 _atom_site_type_symbol
 _atom_site_label
 _atom_site_symmetry_multiplicity
 _atom_site_fract_x
 _atom_site_fract_y
 _atom_site_fract_z
 _atom_site_occupancy
  Ti  Ti0  1  0.588614  0.588614  0.750000  1
  Ti  Ti1  1  0.411386  0.411386  0.250000  1
  Ti  Ti2  1  0.000000  0.500000  0.000000  1
  Ti  Ti3  1  0.500000  1.000000  0.500000  1
  S  S4  1  0.639918  0.143522  0.934338  1
  S  S5  1  0.143522  0.639918  0.565662  1
  S  S6  1  0.360082  0.856478  0.065662  1
  S  S7  1  0.856478  0.360082  0.434338  1
  O  O8  1  0.841891  0.853371  0.583016  1
  O  O9  1  0.853371  0.841891  0.916984  1
  O  O10  1  0.158109  0.146629  0.416984  1
  O  O11  1  0.146629  0.158109  0.083016  1
  O  O12  1  0.345226  0.795194  0.921153  1
  O  O13  1  0.795194  0.345226  0.578847  1
  O  O14  1  0.654774  0.204806  0.078847  1
  O  O15  1  0.204806  0.654774  0.421153  1
  O  O16  1  0.689299  0.246536  0.831761  1
  O  O17  1  0.246536  0.689299  0.668239  1
  O  O18  1  0.310701  0.753464  0.168239  1
  O  O19  1  0.753464  0.310701  0.331761  1
  O  O20  1  0.472417  0.869535  0.656196  1
  O  O21  1  0.869535  0.472417  0.843804  1
  O  O22  1  0.527583  0.130465  0.343804  1
  O  O23  1  0.130465  0.527583  0.156196  1
  O  O24  1  0.364566  0.266031  0.909629  1
  O  O25  1  0.266031  0.364566  0.590371  1
  O  O26  1  0.635434  0.733969  0.090371  1
  O  O27  1  0.733969  0.635434  0.409629  1
