# generated using pymatgen
data_NbO2
_symmetry_space_group_name_H-M   'P 1'
_cell_length_a   7.56892072
_cell_length_b   7.56892072
_cell_length_c   7.56892072
_cell_angle_alpha   99.30895229
_cell_angle_beta   99.30895229
_cell_angle_gamma   132.56949571
_symmetry_Int_Tables_number   1
_chemical_formula_structural   NbO2
_chemical_formula_sum   'Nb8 O16'
_cell_volume   292.37092089
_cell_formula_units_Z   8
loop_
 _symmetry_equiv_pos_site_id
 _symmetry_equiv_pos_as_xyz
  1  'x, y, z'
loop_
 _atom_site_type_symbol
 _atom_site_label
 _atom_site_symmetry_multiplicity
 _atom_site_fract_x
 _atom_site_fract_y
 _atom_site_fract_z
 _atom_site_occupancy
  Nb  Nb0  1  0.337992  0.108576  0.743737  1
  Nb  Nb1  1  0.405745  0.662008  0.770584  1
  Nb  Nb2  1  0.844255  0.087992  0.729416  1
  Nb  Nb3  1  0.364839  0.594255  0.256263  1
  Nb  Nb4  1  0.358576  0.114839  0.270584  1
  Nb  Nb5  1  0.885161  0.155745  0.243737  1
  Nb  Nb6  1  0.891424  0.635161  0.229416  1
  Nb  Nb7  1  0.912008  0.641424  0.756263  1
  O  O8  1  0.250084  0.008024  0.971929  1
  O  O9  1  0.213905  0.471845  0.471929  1
  O  O10  1  0.532865  0.288935  0.547916  1
  O  O11  1  0.036095  0.278155  0.028071  1
  O  O12  1  0.258024  0.786095  0.257940  1
  O  O13  1  0.015051  0.467135  0.756070  1
  O  O14  1  0.711065  0.258981  0.243930  1
  O  O15  1  0.999916  0.741976  0.528071  1
  O  O16  1  0.528155  0.000084  0.742060  1
  O  O17  1  0.991976  0.963905  0.242060  1
  O  O18  1  0.538935  0.491019  0.256070  1
  O  O19  1  0.508981  0.765051  0.047916  1
  O  O20  1  0.721845  0.749916  0.757940  1
  O  O21  1  0.717135  0.461065  0.952084  1
  O  O22  1  0.741019  0.984949  0.452084  1
  O  O23  1  0.234949  0.282865  0.743930  1
