# generated using pymatgen
data_K2Cr2HgCl2O7
_symmetry_space_group_name_H-M   'P 1'
_cell_length_a   8.36077452
_cell_length_b   10.65299936
_cell_length_c   14.94041305
_cell_angle_alpha   90.00000000
_cell_angle_beta   121.36721269
_cell_angle_gamma   90.00000000
_symmetry_Int_Tables_number   1
_chemical_formula_structural   K2Cr2HgCl2O7
_chemical_formula_sum   'K8 Cr8 Hg4 Cl8 O28'
_cell_volume   1136.21885091
_cell_formula_units_Z   4
loop_
 _symmetry_equiv_pos_site_id
 _symmetry_equiv_pos_as_xyz
  1  'x, y, z'
loop_
 _atom_site_type_symbol
 _atom_site_label
 _atom_site_symmetry_multiplicity
 _atom_site_fract_x
 _atom_site_fract_y
 _atom_site_fract_z
 _atom_site_occupancy
  K  K0  1  0.879331  0.155183  0.630902  1
  K  K1  1  0.587851  0.828151  0.339038  1
  K  K2  1  0.412149  0.171849  0.660962  1
  K  K3  1  0.120669  0.844817  0.369098  1
  K  K4  1  0.412149  0.328151  0.160962  1
  K  K5  1  0.120669  0.655183  0.869098  1
  K  K6  1  0.587851  0.671849  0.839038  1
  K  K7  1  0.879331  0.344817  0.130902  1
  Cr  Cr8  1  0.340975  0.165703  0.385651  1
  Cr  Cr9  1  0.063439  0.837476  0.610816  1
  Cr  Cr10  1  0.659025  0.834297  0.614349  1
  Cr  Cr11  1  0.340975  0.334297  0.885651  1
  Cr  Cr12  1  0.936561  0.162524  0.389184  1
  Cr  Cr13  1  0.063439  0.662524  0.110816  1
  Cr  Cr14  1  0.936561  0.337476  0.889184  1
  Cr  Cr15  1  0.659025  0.665703  0.114349  1
  Hg  Hg16  1  0.000000  0.500000  0.500000  1
  Hg  Hg17  1  0.000000  0.000000  0.000000  1
  Hg  Hg18  1  0.500000  0.000000  0.000000  1
  Hg  Hg19  1  0.500000  0.500000  0.500000  1
  Cl  Cl20  1  0.067098  0.521653  0.364024  1
  Cl  Cl21  1  0.433333  0.020608  0.135740  1
  Cl  Cl22  1  0.932902  0.021653  0.135976  1
  Cl  Cl23  1  0.566667  0.520608  0.364260  1
  Cl  Cl24  1  0.932902  0.478347  0.635976  1
  Cl  Cl25  1  0.433333  0.479392  0.635740  1
  Cl  Cl26  1  0.067098  0.978347  0.864024  1
  Cl  Cl27  1  0.566667  0.979392  0.864260  1
  O  O28  1  0.192459  0.756263  0.717431  1
  O  O29  1  0.013456  0.753388  0.506470  1
  O  O30  1  0.502964  0.740511  0.006954  1
  O  O31  1  0.497036  0.240511  0.493046  1
  O  O32  1  0.847937  0.884467  0.599341  1
  O  O33  1  0.502964  0.759489  0.506954  1
  O  O34  1  0.807541  0.243737  0.282569  1
  O  O35  1  0.192459  0.743737  0.217431  1
  O  O36  1  0.986544  0.246612  0.493530  1
  O  O37  1  0.830076  0.033735  0.386597  1
  O  O38  1  0.169924  0.966265  0.613403  1
  O  O39  1  0.567656  0.538490  0.129040  1
  O  O40  1  0.264933  0.242467  0.784101  1
  O  O41  1  0.497036  0.259489  0.993046  1
  O  O42  1  0.264933  0.257533  0.284101  1
  O  O43  1  0.013456  0.746612  0.006470  1
  O  O44  1  0.986544  0.253388  0.993530  1
  O  O45  1  0.830076  0.466265  0.886597  1
  O  O46  1  0.847937  0.615533  0.099341  1
  O  O47  1  0.169924  0.533735  0.113403  1
  O  O48  1  0.152063  0.384467  0.900659  1
  O  O49  1  0.432344  0.461510  0.870960  1
  O  O50  1  0.432344  0.038490  0.370960  1
  O  O51  1  0.735067  0.757533  0.215899  1
  O  O52  1  0.735067  0.742467  0.715899  1
  O  O53  1  0.567656  0.961510  0.629040  1
  O  O54  1  0.152063  0.115533  0.400659  1
  O  O55  1  0.807541  0.256263  0.782569  1
