# generated using pymatgen
data_K2Ag2GeS4
_symmetry_space_group_name_H-M   'P 1'
_cell_length_a   12.65172275
_cell_length_b   11.13340137
_cell_length_c   7.53179526
_cell_angle_alpha   82.93945346
_cell_angle_beta   60.84650906
_cell_angle_gamma   36.21403748
_symmetry_Int_Tables_number   1
_chemical_formula_structural   K2Ag2GeS4
_chemical_formula_sum   'K4 Ag4 Ge2 S8'
_cell_volume   466.37248159
_cell_formula_units_Z   2
loop_
 _symmetry_equiv_pos_site_id
 _symmetry_equiv_pos_as_xyz
  1  'x, y, z'
loop_
 _atom_site_type_symbol
 _atom_site_label
 _atom_site_symmetry_multiplicity
 _atom_site_fract_x
 _atom_site_fract_y
 _atom_site_fract_z
 _atom_site_occupancy
  K  K0  1  0.687097  0.687097  0.312903  1
  K  K1  1  0.312903  0.312903  0.687097  1
  K  K2  1  0.937097  0.937097  0.562903  1
  K  K3  1  0.562903  0.562903  0.937097  1
  Ag  Ag4  1  0.324766  0.324766  0.175234  1
  Ag  Ag5  1  0.074766  0.074766  0.925234  1
  Ag  Ag6  1  0.925234  0.925234  0.074766  1
  Ag  Ag7  1  0.175234  0.175234  0.324766  1
  Ge  Ge8  1  0.500000  0.500000  0.500000  1
  Ge  Ge9  1  0.750000  0.750000  0.750000  1
  S  S10  1  0.983022  0.395680  0.719288  1
  S  S11  1  0.902011  0.719288  0.395680  1
  S  S12  1  0.854320  0.266978  0.347989  1
  S  S13  1  0.719288  0.902011  0.983022  1
  S  S14  1  0.347989  0.530712  0.854320  1
  S  S15  1  0.395680  0.983022  0.902011  1
  S  S16  1  0.530712  0.347989  0.266978  1
  S  S17  1  0.266978  0.854320  0.530712  1
