# generated using pymatgen
data_Rb2CrF5
_symmetry_space_group_name_H-M   'P 1'
_cell_length_a   5.87365318
_cell_length_b   7.71161591
_cell_length_c   12.23493954
_cell_angle_alpha   90.00000000
_cell_angle_beta   90.00000000
_cell_angle_gamma   90.00000000
_symmetry_Int_Tables_number   1
_chemical_formula_structural   Rb2CrF5
_chemical_formula_sum   'Rb8 Cr4 F20'
_cell_volume   554.18595816
_cell_formula_units_Z   4
loop_
 _symmetry_equiv_pos_site_id
 _symmetry_equiv_pos_as_xyz
  1  'x, y, z'
loop_
 _atom_site_type_symbol
 _atom_site_label
 _atom_site_symmetry_multiplicity
 _atom_site_fract_x
 _atom_site_fract_y
 _atom_site_fract_z
 _atom_site_occupancy
  Rb  Rb0  1  0.250000  0.992403  0.725734  1
  Rb  Rb1  1  0.750000  0.007597  0.274266  1
  Rb  Rb2  1  0.250000  0.492403  0.774266  1
  Rb  Rb3  1  0.750000  0.507597  0.225734  1
  Rb  Rb4  1  0.250000  0.647589  0.416403  1
  Rb  Rb5  1  0.750000  0.352411  0.583597  1
  Rb  Rb6  1  0.250000  0.147589  0.083597  1
  Rb  Rb7  1  0.750000  0.852411  0.916403  1
  Cr  Cr8  1  0.250000  0.156349  0.439061  1
  Cr  Cr9  1  0.750000  0.843651  0.560939  1
  Cr  Cr10  1  0.250000  0.656349  0.060939  1
  Cr  Cr11  1  0.750000  0.343651  0.939061  1
  F  F12  1  0.985961  0.697174  0.616672  1
  F  F13  1  0.485961  0.302826  0.383328  1
  F  F14  1  0.514039  0.197174  0.883328  1
  F  F15  1  0.014039  0.802826  0.116672  1
  F  F16  1  0.014039  0.302826  0.383328  1
  F  F17  1  0.514039  0.697174  0.616672  1
  F  F18  1  0.485961  0.802826  0.116672  1
  F  F19  1  0.985961  0.197174  0.883328  1
  F  F20  1  0.250000  0.282860  0.578221  1
  F  F21  1  0.750000  0.717140  0.421779  1
  F  F22  1  0.250000  0.782860  0.921779  1
  F  F23  1  0.750000  0.217140  0.078221  1
  F  F24  1  0.000000  0.000000  0.500000  1
  F  F25  1  0.500000  0.000000  0.500000  1
  F  F26  1  0.500000  0.500000  0.000000  1
  F  F27  1  0.000000  0.500000  0.000000  1
  F  F28  1  0.750000  0.484680  0.809736  1
  F  F29  1  0.250000  0.515320  0.190264  1
  F  F30  1  0.750000  0.984680  0.690264  1
  F  F31  1  0.250000  0.015320  0.309736  1
