# generated using pymatgen
data_Nd3CuGeSe7
_symmetry_space_group_name_H-M   'P 1'
_cell_length_a   10.64326331
_cell_length_b   10.64326331
_cell_length_c   6.16035214
_cell_angle_alpha   90.00000000
_cell_angle_beta   90.00000000
_cell_angle_gamma   120.00000000
_symmetry_Int_Tables_number   1
_chemical_formula_structural   Nd3CuGeSe7
_chemical_formula_sum   'Nd6 Cu2 Ge2 Se14'
_cell_volume   604.34618208
_cell_formula_units_Z   2
loop_
 _symmetry_equiv_pos_site_id
 _symmetry_equiv_pos_as_xyz
  1  'x, y, z'
loop_
 _atom_site_type_symbol
 _atom_site_label
 _atom_site_symmetry_multiplicity
 _atom_site_fract_x
 _atom_site_fract_y
 _atom_site_fract_z
 _atom_site_occupancy
  Nd  Nd0  1  0.355309  0.130808  0.248701  1
  Nd  Nd1  1  0.869192  0.224500  0.248701  1
  Nd  Nd2  1  0.775500  0.644691  0.248701  1
  Nd  Nd3  1  0.644691  0.869192  0.748701  1
  Nd  Nd4  1  0.224500  0.355309  0.748701  1
  Nd  Nd5  1  0.130808  0.775500  0.748701  1
  Cu  Cu6  1  0.000000  0.000000  0.715588  1
  Cu  Cu7  1  0.000000  0.000000  0.215588  1
  Ge  Ge8  1  0.666667  0.333333  0.832301  1
  Ge  Ge9  1  0.333333  0.666667  0.332301  1
  Se  Se10  1  0.666667  0.333333  0.449297  1
  Se  Se11  1  0.481304  0.579190  0.491634  1
  Se  Se12  1  0.161612  0.256717  0.228804  1
  Se  Se13  1  0.904895  0.161612  0.728804  1
  Se  Se14  1  0.579190  0.097886  0.991634  1
  Se  Se15  1  0.333333  0.666667  0.949297  1
  Se  Se16  1  0.256717  0.095105  0.728804  1
  Se  Se17  1  0.420810  0.902114  0.491634  1
  Se  Se18  1  0.095105  0.838388  0.228804  1
  Se  Se19  1  0.518696  0.420810  0.991634  1
  Se  Se20  1  0.902114  0.481304  0.991634  1
  Se  Se21  1  0.097886  0.518696  0.491634  1
  Se  Se22  1  0.743283  0.904895  0.228804  1
  Se  Se23  1  0.838388  0.743283  0.728804  1
