# generated using pymatgen
data_KPO3
_symmetry_space_group_name_H-M   'P 1'
_cell_length_a   10.53277818
_cell_length_b   4.62236831
_cell_length_c   14.28361322
_cell_angle_alpha   90.00000000
_cell_angle_beta   101.31195034
_cell_angle_gamma   90.00000000
_symmetry_Int_Tables_number   1
_chemical_formula_structural   KPO3
_chemical_formula_sum   'K8 P8 O24'
_cell_volume   681.90808213
_cell_formula_units_Z   8
loop_
 _symmetry_equiv_pos_site_id
 _symmetry_equiv_pos_as_xyz
  1  'x, y, z'
loop_
 _atom_site_type_symbol
 _atom_site_label
 _atom_site_symmetry_multiplicity
 _atom_site_fract_x
 _atom_site_fract_y
 _atom_site_fract_z
 _atom_site_occupancy
  K  K0  1  0.933285  0.279060  0.329167  1
  K  K1  1  0.066715  0.779060  0.170833  1
  K  K2  1  0.066715  0.720940  0.670833  1
  K  K3  1  0.933285  0.220940  0.829167  1
  K  K4  1  0.602115  0.736149  0.368742  1
  K  K5  1  0.397885  0.236149  0.131258  1
  K  K6  1  0.397885  0.263851  0.631258  1
  K  K7  1  0.602115  0.763851  0.868742  1
  P  P8  1  0.215508  0.795585  0.444619  1
  P  P9  1  0.784492  0.295585  0.055381  1
  P  P10  1  0.784492  0.204415  0.555381  1
  P  P11  1  0.215508  0.704415  0.944619  1
  P  P12  1  0.309655  0.297027  0.346967  1
  P  P13  1  0.690345  0.797027  0.153033  1
  P  P14  1  0.690345  0.702973  0.653033  1
  P  P15  1  0.309655  0.202973  0.846967  1
  O  O16  1  0.276851  0.117922  0.438357  1
  O  O17  1  0.723149  0.617922  0.061643  1
  O  O18  1  0.723149  0.882078  0.561643  1
  O  O19  1  0.276851  0.382078  0.938357  1
  O  O20  1  0.320914  0.616975  0.395603  1
  O  O21  1  0.679086  0.116975  0.104397  1
  O  O22  1  0.679086  0.383025  0.604397  1
  O  O23  1  0.320914  0.883025  0.895603  1
  O  O24  1  0.198652  0.279024  0.263263  1
  O  O25  1  0.801348  0.779024  0.236737  1
  O  O26  1  0.801348  0.720976  0.736737  1
  O  O27  1  0.198652  0.220976  0.763263  1
  O  O28  1  0.443460  0.226129  0.332597  1
  O  O29  1  0.556540  0.726129  0.167403  1
  O  O30  1  0.556540  0.773871  0.667403  1
  O  O31  1  0.443460  0.273871  0.832597  1
  O  O32  1  0.083541  0.724811  0.882490  1
  O  O33  1  0.916459  0.224811  0.617510  1
  O  O34  1  0.916459  0.275189  0.117510  1
  O  O35  1  0.083541  0.775189  0.382490  1
  O  O36  1  0.763183  0.227493  0.950934  1
  O  O37  1  0.236817  0.727493  0.549066  1
  O  O38  1  0.236817  0.772507  0.049066  1
  O  O39  1  0.763183  0.272507  0.450934  1
