# generated using pymatgen
data_Rb5H5(OF3)2
_symmetry_space_group_name_H-M   'P 1'
_cell_length_a   7.15076545
_cell_length_b   12.24886036
_cell_length_c   13.67279079
_cell_angle_alpha   90.00000000
_cell_angle_beta   90.00000000
_cell_angle_gamma   90.00000000
_symmetry_Int_Tables_number   1
_chemical_formula_structural   Rb5H5(OF3)2
_chemical_formula_sum   'Rb20 H20 O8 F24'
_cell_volume   1197.58234618
_cell_formula_units_Z   4
loop_
 _symmetry_equiv_pos_site_id
 _symmetry_equiv_pos_as_xyz
  1  'x, y, z'
loop_
 _atom_site_type_symbol
 _atom_site_label
 _atom_site_symmetry_multiplicity
 _atom_site_fract_x
 _atom_site_fract_y
 _atom_site_fract_z
 _atom_site_occupancy
  Rb  Rb0  1  0.610271  0.658585  0.017408  1
  Rb  Rb1  1  0.110271  0.841415  0.017408  1
  Rb  Rb2  1  0.361801  0.453529  0.663409  1
  Rb  Rb3  1  0.138199  0.546471  0.163409  1
  Rb  Rb4  1  0.684828  0.750000  0.750000  1
  Rb  Rb5  1  0.815172  0.250000  0.250000  1
  Rb  Rb6  1  0.889729  0.341415  0.517408  1
  Rb  Rb7  1  0.184828  0.750000  0.750000  1
  Rb  Rb8  1  0.638199  0.953529  0.163409  1
  Rb  Rb9  1  0.889729  0.158585  0.982592  1
  Rb  Rb10  1  0.389729  0.341415  0.982592  1
  Rb  Rb11  1  0.361801  0.046471  0.836591  1
  Rb  Rb12  1  0.638199  0.546471  0.336591  1
  Rb  Rb13  1  0.861801  0.453529  0.836591  1
  Rb  Rb14  1  0.138199  0.953529  0.336591  1
  Rb  Rb15  1  0.610271  0.841415  0.482592  1
  Rb  Rb16  1  0.315172  0.250000  0.250000  1
  Rb  Rb17  1  0.861801  0.046471  0.663409  1
  Rb  Rb18  1  0.389729  0.158585  0.517408  1
  Rb  Rb19  1  0.110271  0.658585  0.482592  1
  H  H20  1  0.822036  0.562806  0.599281  1
  H  H21  1  0.322036  0.937194  0.599281  1
  H  H22  1  0.613622  0.608546  0.570323  1
  H  H23  1  0.822036  0.937194  0.900719  1
  H  H24  1  0.886378  0.391454  0.070323  1
  H  H25  1  0.386378  0.391454  0.429677  1
  H  H26  1  0.677964  0.062806  0.400719  1
  H  H27  1  0.613622  0.891454  0.929677  1
  H  H28  1  0.634895  0.250000  0.750000  1
  H  H29  1  0.177964  0.062806  0.099281  1
  H  H30  1  0.113622  0.891454  0.570323  1
  H  H31  1  0.886378  0.108546  0.429677  1
  H  H32  1  0.365105  0.750000  0.250000  1
  H  H33  1  0.134895  0.250000  0.750000  1
  H  H34  1  0.177964  0.437194  0.400719  1
  H  H35  1  0.322036  0.562806  0.900719  1
  H  H36  1  0.386378  0.108546  0.070323  1
  H  H37  1  0.677964  0.437194  0.099281  1
  H  H38  1  0.865105  0.750000  0.250000  1
  H  H39  1  0.113622  0.608546  0.929677  1
  O  O40  1  0.223447  0.935862  0.546431  1
  O  O41  1  0.723447  0.564138  0.546431  1
  O  O42  1  0.276553  0.064138  0.046431  1
  O  O43  1  0.776553  0.064138  0.453569  1
  O  O44  1  0.276553  0.435862  0.453569  1
  O  O45  1  0.223447  0.564138  0.953569  1
  O  O46  1  0.723447  0.935862  0.953569  1
  O  O47  1  0.776553  0.435862  0.046431  1
  F  F48  1  0.563488  0.174761  0.102834  1
  F  F49  1  0.936512  0.825239  0.602834  1
  F  F50  1  0.999022  0.453246  0.333843  1
  F  F51  1  0.563488  0.325239  0.397166  1
  F  F52  1  0.864471  0.766612  0.332815  1
  F  F53  1  0.135529  0.233388  0.667185  1
  F  F54  1  0.063488  0.325239  0.102834  1
  F  F55  1  0.864471  0.733388  0.167185  1
  F  F56  1  0.000978  0.953246  0.833843  1
  F  F57  1  0.500978  0.546754  0.833843  1
  F  F58  1  0.364471  0.766612  0.167185  1
  F  F59  1  0.436512  0.825239  0.897166  1
  F  F60  1  0.936512  0.674761  0.897166  1
  F  F61  1  0.063488  0.174761  0.397166  1
  F  F62  1  0.635529  0.233388  0.832815  1
  F  F63  1  0.364471  0.733388  0.332815  1
  F  F64  1  0.499022  0.453246  0.166157  1
  F  F65  1  0.436512  0.674761  0.602834  1
  F  F66  1  0.635529  0.266612  0.667185  1
  F  F67  1  0.499022  0.046754  0.333843  1
  F  F68  1  0.500978  0.953246  0.666157  1
  F  F69  1  0.000978  0.546754  0.666157  1
  F  F70  1  0.135529  0.266612  0.832815  1
  F  F71  1  0.999022  0.046754  0.166157  1
