# generated using pymatgen
data_NaErO2
_symmetry_space_group_name_H-M   'P 1'
_cell_length_a   7.36751443
_cell_length_b   7.36751443
_cell_length_c   5.91776910
_cell_angle_alpha   75.97047616
_cell_angle_beta   104.02952384
_cell_angle_gamma   53.48474081
_symmetry_Int_Tables_number   1
_chemical_formula_structural   NaErO2
_chemical_formula_sum   'Na4 Er4 O8'
_cell_volume   217.49472555
_cell_formula_units_Z   4
loop_
 _symmetry_equiv_pos_site_id
 _symmetry_equiv_pos_as_xyz
  1  'x, y, z'
loop_
 _atom_site_type_symbol
 _atom_site_label
 _atom_site_symmetry_multiplicity
 _atom_site_fract_x
 _atom_site_fract_y
 _atom_site_fract_z
 _atom_site_occupancy
  Na  Na0  1  0.680180  0.680180  0.250000  1
  Na  Na1  1  0.444291  0.444291  0.250000  1
  Na  Na2  1  0.319820  0.319820  0.750000  1
  Na  Na3  1  0.555709  0.555709  0.750000  1
  Er  Er4  1  0.067139  0.067139  0.750000  1
  Er  Er5  1  0.932861  0.932861  0.250000  1
  Er  Er6  1  0.806707  0.806707  0.750000  1
  Er  Er7  1  0.193293  0.193293  0.250000  1
  O  O8  1  0.860103  0.266975  0.294886  1
  O  O9  1  0.266975  0.860103  0.205114  1
  O  O10  1  0.139897  0.733025  0.705114  1
  O  O11  1  0.733025  0.139897  0.794886  1
  O  O12  1  0.583591  0.040226  0.292825  1
  O  O13  1  0.959774  0.416409  0.792825  1
  O  O14  1  0.416409  0.959774  0.707175  1
  O  O15  1  0.040226  0.583591  0.207175  1
