# generated using pymatgen
data_Y3Si2ClO8
_symmetry_space_group_name_H-M   'P 1'
_cell_length_a   6.24547070
_cell_length_b   6.91691082
_cell_length_c   17.92019140
_cell_angle_alpha   90.00000000
_cell_angle_beta   90.00000000
_cell_angle_gamma   90.00000000
_symmetry_Int_Tables_number   1
_chemical_formula_structural   Y3Si2ClO8
_chemical_formula_sum   'Y12 Si8 Cl4 O32'
_cell_volume   774.14086874
_cell_formula_units_Z   4
loop_
 _symmetry_equiv_pos_site_id
 _symmetry_equiv_pos_as_xyz
  1  'x, y, z'
loop_
 _atom_site_type_symbol
 _atom_site_label
 _atom_site_symmetry_multiplicity
 _atom_site_fract_x
 _atom_site_fract_y
 _atom_site_fract_z
 _atom_site_occupancy
  Y  Y0  1  0.872415  0.985486  0.909764  1
  Y  Y1  1  0.127585  0.014514  0.409764  1
  Y  Y2  1  0.627585  0.485486  0.590236  1
  Y  Y3  1  0.884941  0.293712  0.250000  1
  Y  Y4  1  0.127585  0.014514  0.090236  1
  Y  Y5  1  0.627585  0.485486  0.909764  1
  Y  Y6  1  0.372415  0.514514  0.090236  1
  Y  Y7  1  0.372415  0.514514  0.409764  1
  Y  Y8  1  0.384941  0.206288  0.750000  1
  Y  Y9  1  0.115059  0.706288  0.750000  1
  Y  Y10  1  0.615059  0.793712  0.250000  1
  Y  Y11  1  0.872415  0.985486  0.590236  1
  Si  Si12  1  0.621277  0.023789  0.099832  1
  Si  Si13  1  0.121277  0.476211  0.900168  1
  Si  Si14  1  0.378723  0.976211  0.900168  1
  Si  Si15  1  0.621277  0.023789  0.400168  1
  Si  Si16  1  0.878723  0.523789  0.400168  1
  Si  Si17  1  0.378723  0.976211  0.599832  1
  Si  Si18  1  0.121277  0.476211  0.599832  1
  Si  Si19  1  0.878723  0.523789  0.099832  1
  Cl  Cl20  1  0.736420  0.457801  0.750000  1
  Cl  Cl21  1  0.763580  0.957801  0.750000  1
  Cl  Cl22  1  0.236420  0.042199  0.250000  1
  Cl  Cl23  1  0.263580  0.542199  0.250000  1
  O  O24  1  0.531574  0.167197  0.618058  1
  O  O25  1  0.054556  0.696992  0.094940  1
  O  O26  1  0.290203  0.487816  0.969317  1
  O  O27  1  0.054556  0.696992  0.405060  1
  O  O28  1  0.274851  0.465878  0.676145  1
  O  O29  1  0.945444  0.303008  0.905060  1
  O  O30  1  0.554556  0.803008  0.594940  1
  O  O31  1  0.774851  0.034122  0.176145  1
  O  O32  1  0.709797  0.512184  0.030683  1
  O  O33  1  0.468426  0.832803  0.118058  1
  O  O34  1  0.225149  0.965878  0.823855  1
  O  O35  1  0.031574  0.332803  0.381942  1
  O  O36  1  0.790203  0.012184  0.030683  1
  O  O37  1  0.774851  0.034122  0.323855  1
  O  O38  1  0.968426  0.667197  0.881942  1
  O  O39  1  0.709797  0.512184  0.469317  1
  O  O40  1  0.290203  0.487816  0.530683  1
  O  O41  1  0.468426  0.832803  0.381942  1
  O  O42  1  0.725149  0.534122  0.176145  1
  O  O43  1  0.209797  0.987816  0.530683  1
  O  O44  1  0.274851  0.465878  0.823855  1
  O  O45  1  0.725149  0.534122  0.323855  1
  O  O46  1  0.790203  0.012184  0.469317  1
  O  O47  1  0.225149  0.965878  0.676145  1
  O  O48  1  0.445444  0.196992  0.094940  1
  O  O49  1  0.445444  0.196992  0.405060  1
  O  O50  1  0.209797  0.987816  0.969317  1
  O  O51  1  0.554556  0.803008  0.905060  1
  O  O52  1  0.945444  0.303008  0.594940  1
  O  O53  1  0.031574  0.332803  0.118058  1
  O  O54  1  0.968426  0.667197  0.618058  1
  O  O55  1  0.531574  0.167197  0.881942  1
