# generated using pymatgen
data_CdHgAsBr
_symmetry_space_group_name_H-M   'P 1'
_cell_length_a   4.80486289
_cell_length_b   10.21266215
_cell_length_c   11.06423658
_cell_angle_alpha   90.00000000
_cell_angle_beta   90.00000000
_cell_angle_gamma   90.00000000
_symmetry_Int_Tables_number   1
_chemical_formula_structural   CdHgAsBr
_chemical_formula_sum   'Cd4 Hg4 As4 Br4'
_cell_volume   542.92697243
_cell_formula_units_Z   4
loop_
 _symmetry_equiv_pos_site_id
 _symmetry_equiv_pos_as_xyz
  1  'x, y, z'
loop_
 _atom_site_type_symbol
 _atom_site_label
 _atom_site_symmetry_multiplicity
 _atom_site_fract_x
 _atom_site_fract_y
 _atom_site_fract_z
 _atom_site_occupancy
  Cd  Cd0  1  0.000000  0.280559  0.077329  1
  Cd  Cd1  1  0.000000  0.280559  0.422671  1
  Cd  Cd2  1  0.000000  0.719441  0.922671  1
  Cd  Cd3  1  0.000000  0.719441  0.577329  1
  Hg  Hg4  1  0.500000  0.259611  0.750000  1
  Hg  Hg5  1  0.500000  0.740389  0.250000  1
  Hg  Hg6  1  0.500000  0.000000  0.500000  1
  Hg  Hg7  1  0.500000  0.000000  0.000000  1
  As  As8  1  0.500000  0.249733  0.980038  1
  As  As9  1  0.500000  0.750267  0.019962  1
  As  As10  1  0.500000  0.249733  0.519962  1
  As  As11  1  0.500000  0.750267  0.480038  1
  Br  Br12  1  0.000000  0.525172  0.750000  1
  Br  Br13  1  0.000000  0.474828  0.250000  1
  Br  Br14  1  0.000000  0.075163  0.250000  1
  Br  Br15  1  0.000000  0.924837  0.750000  1
