# generated using pymatgen
data_Na9Co2O7
_symmetry_space_group_name_H-M   'P 1'
_cell_length_a   9.60215995
_cell_length_b   9.93510026
_cell_length_c   10.29522029
_cell_angle_alpha   90.00000000
_cell_angle_beta   90.00000000
_cell_angle_gamma   90.00000000
_symmetry_Int_Tables_number   1
_chemical_formula_structural   Na9Co2O7
_chemical_formula_sum   'Na36 Co8 O28'
_cell_volume   982.14776791
_cell_formula_units_Z   4
loop_
 _symmetry_equiv_pos_site_id
 _symmetry_equiv_pos_as_xyz
  1  'x, y, z'
loop_
 _atom_site_type_symbol
 _atom_site_label
 _atom_site_symmetry_multiplicity
 _atom_site_fract_x
 _atom_site_fract_y
 _atom_site_fract_z
 _atom_site_occupancy
  Na  Na0  1  0.090207  0.513237  0.593407  1
  Na  Na1  1  0.909793  0.486763  0.093407  1
  Na  Na2  1  0.409793  0.513237  0.093407  1
  Na  Na3  1  0.590207  0.486763  0.593407  1
  Na  Na4  1  0.273710  0.285186  0.728464  1
  Na  Na5  1  0.726290  0.714814  0.228464  1
  Na  Na6  1  0.226290  0.285186  0.228464  1
  Na  Na7  1  0.773710  0.714814  0.728464  1
  Na  Na8  1  0.066768  0.667827  0.862536  1
  Na  Na9  1  0.933232  0.332173  0.362536  1
  Na  Na10  1  0.433232  0.667827  0.362536  1
  Na  Na11  1  0.566768  0.332173  0.862536  1
  Na  Na12  1  0.019642  0.159498  0.883953  1
  Na  Na13  1  0.980358  0.840502  0.383953  1
  Na  Na14  1  0.480358  0.159498  0.383953  1
  Na  Na15  1  0.519642  0.840502  0.883953  1
  Na  Na16  1  0.152869  0.558645  0.294222  1
  Na  Na17  1  0.847131  0.441355  0.794222  1
  Na  Na18  1  0.347131  0.558645  0.794222  1
  Na  Na19  1  0.652869  0.441355  0.294222  1
  Na  Na20  1  0.213664  0.775174  0.557232  1
  Na  Na21  1  0.786336  0.224826  0.057232  1
  Na  Na22  1  0.286336  0.775174  0.057232  1
  Na  Na23  1  0.713664  0.224826  0.557232  1
  Na  Na24  1  0.985770  0.255021  0.629857  1
  Na  Na25  1  0.014230  0.744979  0.129857  1
  Na  Na26  1  0.514230  0.255021  0.129857  1
  Na  Na27  1  0.485770  0.744979  0.629857  1
  Na  Na28  1  0.160683  0.104942  0.483646  1
  Na  Na29  1  0.839317  0.895058  0.983646  1
  Na  Na30  1  0.339317  0.104942  0.983646  1
  Na  Na31  1  0.660683  0.895058  0.483646  1
  Na  Na32  1  0.072256  0.047575  0.151585  1
  Na  Na33  1  0.927744  0.952425  0.651585  1
  Na  Na34  1  0.427744  0.047575  0.651585  1
  Na  Na35  1  0.572256  0.952425  0.151585  1
  Co  Co36  1  0.157878  0.399474  0.972887  1
  Co  Co37  1  0.842122  0.600526  0.472887  1
  Co  Co38  1  0.342122  0.399474  0.472887  1
  Co  Co39  1  0.657878  0.600526  0.972887  1
  Co  Co40  1  0.191341  0.931915  0.808646  1
  Co  Co41  1  0.808659  0.068085  0.308646  1
  Co  Co42  1  0.308659  0.931915  0.308646  1
  Co  Co43  1  0.691341  0.068085  0.808646  1
  O  O44  1  0.041273  0.282440  0.077182  1
  O  O45  1  0.958727  0.717560  0.577182  1
  O  O46  1  0.458727  0.282440  0.577182  1
  O  O47  1  0.541273  0.717560  0.077182  1
  O  O48  1  0.340993  0.334630  0.948094  1
  O  O49  1  0.659007  0.665370  0.448094  1
  O  O50  1  0.159007  0.334630  0.448094  1
  O  O51  1  0.840993  0.665370  0.948094  1
  O  O52  1  0.304311  0.787143  0.792094  1
  O  O53  1  0.695689  0.212857  0.292094  1
  O  O54  1  0.195689  0.787143  0.292094  1
  O  O55  1  0.804311  0.212857  0.792094  1
  O  O56  1  0.084595  0.924632  0.965900  1
  O  O57  1  0.915405  0.075368  0.465900  1
  O  O58  1  0.415405  0.924632  0.465900  1
  O  O59  1  0.584595  0.075368  0.965900  1
  O  O60  1  0.156926  0.080890  0.708395  1
  O  O61  1  0.843074  0.919110  0.208395  1
  O  O62  1  0.343074  0.080890  0.208395  1
  O  O63  1  0.656926  0.919110  0.708395  1
  O  O64  1  0.165287  0.566830  0.058688  1
  O  O65  1  0.834713  0.433170  0.558688  1
  O  O66  1  0.334713  0.566830  0.558688  1
  O  O67  1  0.665287  0.433170  0.058688  1
  O  O68  1  0.092716  0.423188  0.800622  1
  O  O69  1  0.907284  0.576812  0.300622  1
  O  O70  1  0.407284  0.423188  0.300622  1
  O  O71  1  0.592716  0.576812  0.800622  1
