# generated using pymatgen
data_Ag2Hg(SeO3)2
_symmetry_space_group_name_H-M   'P 1'
_cell_length_a   7.05709569
_cell_length_b   11.41040024
_cell_length_c   17.26006793
_cell_angle_alpha   90.00000000
_cell_angle_beta   90.00000000
_cell_angle_gamma   90.00000000
_symmetry_Int_Tables_number   1
_chemical_formula_structural   Ag2Hg(SeO3)2
_chemical_formula_sum   'Ag16 Hg8 Se16 O48'
_cell_volume   1389.85465250
_cell_formula_units_Z   8
loop_
 _symmetry_equiv_pos_site_id
 _symmetry_equiv_pos_as_xyz
  1  'x, y, z'
loop_
 _atom_site_type_symbol
 _atom_site_label
 _atom_site_symmetry_multiplicity
 _atom_site_fract_x
 _atom_site_fract_y
 _atom_site_fract_z
 _atom_site_occupancy
  Ag  Ag0  1  0.884250  0.905672  0.242423  1
  Ag  Ag1  1  0.352142  0.119408  0.955560  1
  Ag  Ag2  1  0.615750  0.094328  0.742423  1
  Ag  Ag3  1  0.852142  0.119408  0.544440  1
  Ag  Ag4  1  0.384250  0.594328  0.757577  1
  Ag  Ag5  1  0.852142  0.380592  0.044440  1
  Ag  Ag6  1  0.884250  0.594328  0.742423  1
  Ag  Ag7  1  0.147858  0.619408  0.955560  1
  Ag  Ag8  1  0.115750  0.405672  0.257577  1
  Ag  Ag9  1  0.384250  0.905672  0.257577  1
  Ag  Ag10  1  0.115750  0.094328  0.757577  1
  Ag  Ag11  1  0.615750  0.405672  0.242423  1
  Ag  Ag12  1  0.147858  0.880592  0.455560  1
  Ag  Ag13  1  0.352142  0.380592  0.455560  1
  Ag  Ag14  1  0.647858  0.619408  0.544440  1
  Ag  Ag15  1  0.647858  0.880592  0.044440  1
  Hg  Hg16  1  0.124644  0.161345  0.149244  1
  Hg  Hg17  1  0.875356  0.838655  0.850756  1
  Hg  Hg18  1  0.875356  0.661345  0.350756  1
  Hg  Hg19  1  0.124644  0.338655  0.649244  1
  Hg  Hg20  1  0.624644  0.161345  0.350756  1
  Hg  Hg21  1  0.624644  0.338655  0.850756  1
  Hg  Hg22  1  0.375356  0.661345  0.149244  1
  Hg  Hg23  1  0.375356  0.838655  0.649244  1
  Se  Se24  1  0.163323  0.367783  0.854993  1
  Se  Se25  1  0.834709  0.381829  0.431397  1
  Se  Se26  1  0.663323  0.367783  0.645007  1
  Se  Se27  1  0.663323  0.132217  0.145007  1
  Se  Se28  1  0.165291  0.618171  0.568603  1
  Se  Se29  1  0.336677  0.632217  0.354993  1
  Se  Se30  1  0.336677  0.867783  0.854993  1
  Se  Se31  1  0.334709  0.381829  0.068603  1
  Se  Se32  1  0.834709  0.118171  0.931397  1
  Se  Se33  1  0.665291  0.618171  0.931397  1
  Se  Se34  1  0.836677  0.632217  0.145007  1
  Se  Se35  1  0.334709  0.118171  0.568603  1
  Se  Se36  1  0.836677  0.867783  0.645007  1
  Se  Se37  1  0.665291  0.881829  0.431397  1
  Se  Se38  1  0.163323  0.132217  0.354993  1
  Se  Se39  1  0.165291  0.881829  0.068603  1
  O  O40  1  0.834242  0.780669  0.465190  1
  O  O41  1  0.171626  0.538870  0.395909  1
  O  O42  1  0.141428  0.062897  0.263523  1
  O  O43  1  0.308585  0.248016  0.836521  1
  O  O44  1  0.141428  0.437103  0.763523  1
  O  O45  1  0.358572  0.937103  0.763523  1
  O  O46  1  0.303601  0.006339  0.080050  1
  O  O47  1  0.665758  0.219331  0.965190  1
  O  O48  1  0.334242  0.719331  0.534810  1
  O  O49  1  0.150419  0.672144  0.663400  1
  O  O50  1  0.303601  0.493661  0.580050  1
  O  O51  1  0.308585  0.251984  0.336521  1
  O  O52  1  0.849581  0.172144  0.836600  1
  O  O53  1  0.849581  0.327856  0.336600  1
  O  O54  1  0.349581  0.327856  0.163400  1
  O  O55  1  0.858572  0.562897  0.236477  1
  O  O56  1  0.691415  0.751984  0.163479  1
  O  O57  1  0.165758  0.219331  0.534810  1
  O  O58  1  0.650419  0.672144  0.836600  1
  O  O59  1  0.196399  0.993661  0.580050  1
  O  O60  1  0.150419  0.827856  0.163400  1
  O  O61  1  0.803601  0.493661  0.919950  1
  O  O62  1  0.665758  0.280669  0.465190  1
  O  O63  1  0.165758  0.280669  0.034810  1
  O  O64  1  0.858572  0.937103  0.736477  1
  O  O65  1  0.191415  0.751984  0.336521  1
  O  O66  1  0.808585  0.248016  0.663479  1
  O  O67  1  0.358572  0.562897  0.263523  1
  O  O68  1  0.671626  0.961130  0.604091  1
  O  O69  1  0.696399  0.506339  0.419950  1
  O  O70  1  0.171626  0.961130  0.895909  1
  O  O71  1  0.191415  0.748016  0.836521  1
  O  O72  1  0.808585  0.251984  0.163479  1
  O  O73  1  0.828374  0.461130  0.604091  1
  O  O74  1  0.334242  0.780669  0.034810  1
  O  O75  1  0.828374  0.038870  0.104091  1
  O  O76  1  0.691415  0.748016  0.663479  1
  O  O77  1  0.328374  0.038870  0.395909  1
  O  O78  1  0.834242  0.719331  0.965190  1
  O  O79  1  0.803601  0.006339  0.419950  1
  O  O80  1  0.696399  0.993661  0.919950  1
  O  O81  1  0.641428  0.437103  0.736477  1
  O  O82  1  0.641428  0.062897  0.236477  1
  O  O83  1  0.349581  0.172144  0.663400  1
  O  O84  1  0.196399  0.506339  0.080050  1
  O  O85  1  0.650419  0.827856  0.336600  1
  O  O86  1  0.328374  0.461130  0.895909  1
  O  O87  1  0.671626  0.538870  0.104091  1
