# generated using pymatgen
data_Nd2Ti2O7
_symmetry_space_group_name_H-M   'P 1'
_cell_length_a   7.34705964
_cell_length_b   7.34705964
_cell_length_c   7.34705964
_cell_angle_alpha   60.00000000
_cell_angle_beta   60.00000000
_cell_angle_gamma   60.00000000
_symmetry_Int_Tables_number   1
_chemical_formula_structural   Nd2Ti2O7
_chemical_formula_sum   'Nd4 Ti4 O14'
_cell_volume   280.43079174
_cell_formula_units_Z   2
loop_
 _symmetry_equiv_pos_site_id
 _symmetry_equiv_pos_as_xyz
  1  'x, y, z'
loop_
 _atom_site_type_symbol
 _atom_site_label
 _atom_site_symmetry_multiplicity
 _atom_site_fract_x
 _atom_site_fract_y
 _atom_site_fract_z
 _atom_site_occupancy
  Nd  Nd0  1  0.125000  0.625000  0.125000  1
  Nd  Nd1  1  0.625000  0.125000  0.125000  1
  Nd  Nd2  1  0.125000  0.125000  0.625000  1
  Nd  Nd3  1  0.125000  0.125000  0.125000  1
  Ti  Ti4  1  0.625000  0.125000  0.625000  1
  Ti  Ti5  1  0.625000  0.625000  0.625000  1
  Ti  Ti6  1  0.625000  0.625000  0.125000  1
  Ti  Ti7  1  0.125000  0.625000  0.625000  1
  O  O8  1  0.549902  0.950098  0.549902  1
  O  O9  1  0.950098  0.549902  0.950098  1
  O  O10  1  0.950098  0.950098  0.549902  1
  O  O11  1  0.299902  0.299902  0.700098  1
  O  O12  1  0.299902  0.700098  0.299902  1
  O  O13  1  0.549902  0.549902  0.950098  1
  O  O14  1  0.700098  0.299902  0.700098  1
  O  O15  1  0.549902  0.950098  0.950098  1
  O  O16  1  0.299902  0.700098  0.700098  1
  O  O17  1  0.700098  0.700098  0.299902  1
  O  O18  1  0.000000  0.000000  1.000000  1
  O  O19  1  0.250000  0.250000  0.250000  1
  O  O20  1  0.700098  0.299902  0.299902  1
  O  O21  1  0.950098  0.549902  0.549902  1
