# generated using pymatgen
data_S
_symmetry_space_group_name_H-M   'P 1'
_cell_length_a   10.48392736
_cell_length_b   8.20296867
_cell_length_c   10.50451021
_cell_angle_alpha   90.00000000
_cell_angle_beta   98.58594468
_cell_angle_gamma   90.00000000
_symmetry_Int_Tables_number   1
_chemical_formula_structural   S
_chemical_formula_sum   S28
_cell_volume   893.25665720
_cell_formula_units_Z   28
loop_
 _symmetry_equiv_pos_site_id
 _symmetry_equiv_pos_as_xyz
  1  'x, y, z'
loop_
 _atom_site_type_symbol
 _atom_site_label
 _atom_site_symmetry_multiplicity
 _atom_site_fract_x
 _atom_site_fract_y
 _atom_site_fract_z
 _atom_site_occupancy
  S  S0  1  0.316236  0.924464  0.107347  1
  S  S1  1  0.452342  0.384556  0.660747  1
  S  S2  1  0.077351  0.213459  0.082160  1
  S  S3  1  0.219286  0.607492  0.753209  1
  S  S4  1  0.776594  0.606615  0.866874  1
  S  S5  1  0.223406  0.393385  0.133126  1
  S  S6  1  0.780714  0.392508  0.246791  1
  S  S7  1  0.547658  0.884556  0.839253  1
  S  S8  1  0.077351  0.286541  0.582160  1
  S  S9  1  0.316236  0.575536  0.607347  1
  S  S10  1  0.776594  0.893385  0.366874  1
  S  S11  1  0.452342  0.115444  0.160747  1
  S  S12  1  0.780714  0.107492  0.746791  1
  S  S13  1  0.683764  0.424464  0.392653  1
  S  S14  1  0.683764  0.075536  0.892653  1
  S  S15  1  0.625838  0.694053  0.950461  1
  S  S16  1  0.934830  0.582402  0.261894  1
  S  S17  1  0.922649  0.713459  0.417840  1
  S  S18  1  0.065170  0.417598  0.738106  1
  S  S19  1  0.922649  0.786541  0.917840  1
  S  S20  1  0.374162  0.194053  0.549539  1
  S  S21  1  0.223406  0.106615  0.633126  1
  S  S22  1  0.219286  0.892508  0.253209  1
  S  S23  1  0.374162  0.305947  0.049539  1
  S  S24  1  0.934830  0.917598  0.761894  1
  S  S25  1  0.065170  0.082402  0.238106  1
  S  S26  1  0.625838  0.805947  0.450461  1
  S  S27  1  0.547658  0.615444  0.339253  1
