# generated using pymatgen
data_Tl3SiTe3
_symmetry_space_group_name_H-M   'P 1'
_cell_length_a   9.66124143
_cell_length_b   9.93642963
_cell_length_c   10.71961177
_cell_angle_alpha   89.22677320
_cell_angle_beta   96.33582679
_cell_angle_gamma   100.93381185
_symmetry_Int_Tables_number   1
_chemical_formula_structural   Tl3SiTe3
_chemical_formula_sum   'Tl12 Si4 Te12'
_cell_volume   1004.18283935
_cell_formula_units_Z   4
loop_
 _symmetry_equiv_pos_site_id
 _symmetry_equiv_pos_as_xyz
  1  'x, y, z'
loop_
 _atom_site_type_symbol
 _atom_site_label
 _atom_site_symmetry_multiplicity
 _atom_site_fract_x
 _atom_site_fract_y
 _atom_site_fract_z
 _atom_site_occupancy
  Tl  Tl0  1  0.104388  0.040146  0.353678  1
  Tl  Tl1  1  0.484481  0.372586  0.355100  1
  Tl  Tl2  1  0.194332  0.845123  0.842311  1
  Tl  Tl3  1  0.643078  0.774297  0.086001  1
  Tl  Tl4  1  0.805668  0.154877  0.157689  1
  Tl  Tl5  1  0.685909  0.286891  0.759210  1
  Tl  Tl6  1  0.098513  0.434529  0.658789  1
  Tl  Tl7  1  0.356922  0.225703  0.913999  1
  Tl  Tl8  1  0.314091  0.713109  0.240790  1
  Tl  Tl9  1  0.901487  0.565471  0.341211  1
  Tl  Tl10  1  0.515519  0.627414  0.644900  1
  Tl  Tl11  1  0.895612  0.959854  0.646322  1
  Si  Si12  1  0.913132  0.569729  0.986630  1
  Si  Si13  1  0.086868  0.430271  0.013370  1
  Si  Si14  1  0.425608  0.983254  0.581390  1
  Si  Si15  1  0.574392  0.016746  0.418610  1
  Te  Te16  1  0.307936  0.556374  0.923039  1
  Te  Te17  1  0.321672  0.199486  0.593352  1
  Te  Te18  1  0.125609  0.380896  0.246070  1
  Te  Te19  1  0.225132  0.779305  0.528315  1
  Te  Te20  1  0.001076  0.791283  0.108347  1
  Te  Te21  1  0.774868  0.220695  0.471685  1
  Te  Te22  1  0.678328  0.800514  0.406648  1
  Te  Te23  1  0.577275  0.934892  0.779098  1
  Te  Te24  1  0.692064  0.443626  0.076961  1
  Te  Te25  1  0.874391  0.619104  0.753930  1
  Te  Te26  1  0.422725  0.065108  0.220902  1
  Te  Te27  1  0.998924  0.208717  0.891653  1
