# generated using pymatgen
data_H3CS
_symmetry_space_group_name_H-M   'P 1'
_cell_length_a   8.74644263
_cell_length_b   6.65319514
_cell_length_c   9.00590913
_cell_angle_alpha   90.00000000
_cell_angle_beta   94.14540903
_cell_angle_gamma   90.00000000
_symmetry_Int_Tables_number   1
_chemical_formula_structural   H3CS
_chemical_formula_sum   'H24 C8 S8'
_cell_volume   522.69890005
_cell_formula_units_Z   8
loop_
 _symmetry_equiv_pos_site_id
 _symmetry_equiv_pos_as_xyz
  1  'x, y, z'
loop_
 _atom_site_type_symbol
 _atom_site_label
 _atom_site_symmetry_multiplicity
 _atom_site_fract_x
 _atom_site_fract_y
 _atom_site_fract_z
 _atom_site_occupancy
  H  H0  1  0.895054  0.169329  0.416954  1
  H  H1  1  0.097034  0.728682  0.028341  1
  H  H2  1  0.143438  0.864141  0.199747  1
  H  H3  1  0.350994  0.591202  0.390918  1
  H  H4  1  0.738430  0.061114  0.507548  1
  H  H5  1  0.902966  0.271318  0.971659  1
  H  H6  1  0.452315  0.632106  0.114980  1
  H  H7  1  0.395054  0.330671  0.416954  1
  H  H8  1  0.856562  0.135859  0.800253  1
  H  H9  1  0.104946  0.830671  0.583046  1
  H  H10  1  0.643438  0.635859  0.199747  1
  H  H11  1  0.597034  0.771318  0.028341  1
  H  H12  1  0.238430  0.438886  0.507548  1
  H  H13  1  0.402966  0.228682  0.971659  1
  H  H14  1  0.952315  0.867894  0.114980  1
  H  H15  1  0.850994  0.908798  0.390918  1
  H  H16  1  0.604946  0.669329  0.583046  1
  H  H17  1  0.547685  0.367894  0.885020  1
  H  H18  1  0.149006  0.091202  0.609082  1
  H  H19  1  0.761570  0.561114  0.492452  1
  H  H20  1  0.649006  0.408798  0.609082  1
  H  H21  1  0.356562  0.364141  0.800253  1
  H  H22  1  0.261570  0.938886  0.492452  1
  H  H23  1  0.047685  0.132106  0.885020  1
  C  C24  1  0.801672  0.058200  0.406784  1
  C  C25  1  0.556162  0.724415  0.135266  1
  C  C26  1  0.301672  0.441800  0.406784  1
  C  C27  1  0.198328  0.941800  0.593216  1
  C  C28  1  0.698328  0.558200  0.593216  1
  C  C29  1  0.943838  0.224415  0.864734  1
  C  C30  1  0.443838  0.275585  0.864734  1
  C  C31  1  0.056162  0.775585  0.135266  1
  S  S32  1  0.997315  0.557986  0.238955  1
  S  S33  1  0.179098  0.365410  0.245194  1
  S  S34  1  0.497315  0.942014  0.238955  1
  S  S35  1  0.502685  0.057986  0.761045  1
  S  S36  1  0.320902  0.865410  0.754806  1
  S  S37  1  0.820902  0.634590  0.754806  1
  S  S38  1  0.679098  0.134590  0.245194  1
  S  S39  1  0.002685  0.442014  0.761045  1
