# generated using pymatgen
data_NaNiAsO4
_symmetry_space_group_name_H-M   'P 1'
_cell_length_a   9.36057888
_cell_length_b   9.36057888
_cell_length_c   9.36057888
_cell_angle_alpha   31.14700291
_cell_angle_beta   31.14700291
_cell_angle_gamma   31.14700291
_symmetry_Int_Tables_number   1
_chemical_formula_structural   NaNiAsO4
_chemical_formula_sum   'Na2 Ni2 As2 O8'
_cell_volume   194.69885536
_cell_formula_units_Z   2
loop_
 _symmetry_equiv_pos_site_id
 _symmetry_equiv_pos_as_xyz
  1  'x, y, z'
loop_
 _atom_site_type_symbol
 _atom_site_label
 _atom_site_symmetry_multiplicity
 _atom_site_fract_x
 _atom_site_fract_y
 _atom_site_fract_z
 _atom_site_occupancy
  Na  Na0  1  0.287326  0.287326  0.287326  1
  Na  Na1  1  0.712674  0.712674  0.712674  1
  Ni  Ni2  1  0.164240  0.164240  0.164240  1
  Ni  Ni3  1  0.835760  0.835760  0.835760  1
  As  As4  1  0.566057  0.566057  0.566057  1
  As  As5  1  0.433943  0.433943  0.433943  1
  O  O6  1  0.221003  0.880434  0.535622  1
  O  O7  1  0.778997  0.119566  0.464378  1
  O  O8  1  0.535622  0.221003  0.880434  1
  O  O9  1  0.880434  0.535622  0.221003  1
  O  O10  1  0.629123  0.629123  0.629123  1
  O  O11  1  0.119566  0.464378  0.778997  1
  O  O12  1  0.370877  0.370877  0.370877  1
  O  O13  1  0.464378  0.778997  0.119566  1
