# generated using pymatgen
data_K2Pd(NO3)4
_symmetry_space_group_name_H-M   'P 1'
_cell_length_a   8.13887179
_cell_length_b   15.92584147
_cell_length_c   9.67561839
_cell_angle_alpha   90.00000000
_cell_angle_beta   91.33396838
_cell_angle_gamma   90.00000000
_symmetry_Int_Tables_number   1
_chemical_formula_structural   K2Pd(NO3)4
_chemical_formula_sum   'K8 Pd4 N16 O48'
_cell_volume   1253.79810697
_cell_formula_units_Z   4
loop_
 _symmetry_equiv_pos_site_id
 _symmetry_equiv_pos_as_xyz
  1  'x, y, z'
loop_
 _atom_site_type_symbol
 _atom_site_label
 _atom_site_symmetry_multiplicity
 _atom_site_fract_x
 _atom_site_fract_y
 _atom_site_fract_z
 _atom_site_occupancy
  K  K0  1  0.224767  0.839651  0.984873  1
  K  K1  1  0.224767  0.660349  0.484873  1
  K  K2  1  0.254431  0.093572  0.450037  1
  K  K3  1  0.745569  0.906428  0.549963  1
  K  K4  1  0.775233  0.160349  0.015127  1
  K  K5  1  0.254431  0.406428  0.950037  1
  K  K6  1  0.745569  0.593572  0.049963  1
  K  K7  1  0.775233  0.339651  0.515127  1
  Pd  Pd8  1  0.730006  0.879914  0.175891  1
  Pd  Pd9  1  0.730006  0.620086  0.675891  1
  Pd  Pd10  1  0.269994  0.120086  0.824109  1
  Pd  Pd11  1  0.269994  0.379914  0.324109  1
  N  N12  1  0.570061  0.193824  0.714879  1
  N  N13  1  0.431056  0.962059  0.762208  1
  N  N14  1  0.429939  0.806176  0.285121  1
  N  N15  1  0.954223  0.040989  0.760073  1
  N  N16  1  0.954223  0.459011  0.260073  1
  N  N17  1  0.897973  0.766201  0.792555  1
  N  N18  1  0.897973  0.733799  0.292555  1
  N  N19  1  0.568944  0.462059  0.737792  1
  N  N20  1  0.570061  0.306176  0.214879  1
  N  N21  1  0.045777  0.540989  0.739927  1
  N  N22  1  0.429939  0.693824  0.785121  1
  N  N23  1  0.045777  0.959011  0.239927  1
  N  N24  1  0.102027  0.233799  0.207445  1
  N  N25  1  0.431056  0.537941  0.262208  1
  N  N26  1  0.102027  0.266201  0.707445  1
  N  N27  1  0.568944  0.037941  0.237792  1
  O  O28  1  0.454026  0.998520  0.650464  1
  O  O29  1  0.515312  0.109164  0.208979  1
  O  O30  1  0.949225  0.840004  0.787718  1
  O  O31  1  0.487889  0.198463  0.605675  1
  O  O32  1  0.192574  0.525863  0.717138  1
  O  O33  1  0.807426  0.474137  0.282862  1
  O  O34  1  0.512111  0.801537  0.394325  1
  O  O35  1  0.966910  0.586079  0.643408  1
  O  O36  1  0.033090  0.086079  0.856592  1
  O  O37  1  0.050775  0.159996  0.212282  1
  O  O38  1  0.454026  0.501480  0.150464  1
  O  O39  1  0.050775  0.340004  0.712282  1
  O  O40  1  0.656145  0.499107  0.640591  1
  O  O41  1  0.972351  0.516938  0.844052  1
  O  O42  1  0.714038  0.220280  0.729670  1
  O  O43  1  0.492303  0.840708  0.173171  1
  O  O44  1  0.949225  0.659996  0.287718  1
  O  O45  1  0.802372  0.757357  0.186414  1
  O  O46  1  0.197628  0.242643  0.813586  1
  O  O47  1  0.931631  0.716298  0.887683  1
  O  O48  1  0.656145  0.000893  0.140591  1
  O  O49  1  0.931631  0.783702  0.387683  1
  O  O50  1  0.068369  0.283702  0.112317  1
  O  O51  1  0.972351  0.983062  0.344052  1
  O  O52  1  0.343855  0.500893  0.359409  1
  O  O53  1  0.507697  0.340708  0.326829  1
  O  O54  1  0.966910  0.913921  0.143408  1
  O  O55  1  0.285962  0.720280  0.770330  1
  O  O56  1  0.507697  0.159292  0.826829  1
  O  O57  1  0.492303  0.659292  0.673171  1
  O  O58  1  0.192574  0.974137  0.217138  1
  O  O59  1  0.487889  0.301537  0.105675  1
  O  O60  1  0.545974  0.498520  0.849536  1
  O  O61  1  0.802372  0.742643  0.686414  1
  O  O62  1  0.512111  0.698463  0.894325  1
  O  O63  1  0.027649  0.016938  0.655948  1
  O  O64  1  0.033090  0.413921  0.356592  1
  O  O65  1  0.484688  0.890836  0.791021  1
  O  O66  1  0.714038  0.279720  0.229670  1
  O  O67  1  0.807426  0.025863  0.782862  1
  O  O68  1  0.068369  0.216298  0.612317  1
  O  O69  1  0.515312  0.390836  0.708979  1
  O  O70  1  0.027649  0.483062  0.155948  1
  O  O71  1  0.545974  0.001480  0.349536  1
  O  O72  1  0.197628  0.257357  0.313586  1
  O  O73  1  0.343855  0.999107  0.859409  1
  O  O74  1  0.285962  0.779720  0.270330  1
  O  O75  1  0.484688  0.609164  0.291021  1
