# generated using pymatgen
data_K5In(MoO4)4
_symmetry_space_group_name_H-M   'P 1'
_cell_length_a   9.67587517
_cell_length_b   9.67587517
_cell_length_c   10.72814879
_cell_angle_alpha   71.82441448
_cell_angle_beta   108.17558552
_cell_angle_gamma   100.89328042
_symmetry_Int_Tables_number   1
_chemical_formula_structural   K5In(MoO4)4
_chemical_formula_sum   'K10 In2 Mo8 O32'
_cell_volume   901.98038486
_cell_formula_units_Z   2
loop_
 _symmetry_equiv_pos_site_id
 _symmetry_equiv_pos_as_xyz
  1  'x, y, z'
loop_
 _atom_site_type_symbol
 _atom_site_label
 _atom_site_symmetry_multiplicity
 _atom_site_fract_x
 _atom_site_fract_y
 _atom_site_fract_z
 _atom_site_occupancy
  K  K0  1  0.075848  0.657391  0.072084  1
  K  K1  1  0.382311  0.818311  0.937355  1
  K  K2  1  0.617689  0.181689  0.062645  1
  K  K3  1  0.818311  0.382311  0.562645  1
  K  K4  1  0.924152  0.342609  0.927916  1
  K  K5  1  0.657391  0.075848  0.427916  1
  K  K6  1  0.342609  0.924152  0.572084  1
  K  K7  1  0.181689  0.617689  0.437355  1
  K  K8  1  0.390684  0.390684  0.250000  1
  K  K9  1  0.609316  0.609316  0.750000  1
  In  In10  1  0.115027  0.115027  0.750000  1
  In  In11  1  0.884973  0.884973  0.250000  1
  Mo  Mo12  1  0.044170  0.217645  0.368818  1
  Mo  Mo13  1  0.262267  0.469444  0.840170  1
  Mo  Mo14  1  0.955830  0.782355  0.631182  1
  Mo  Mo15  1  0.217645  0.044170  0.131182  1
  Mo  Mo16  1  0.737733  0.530556  0.159830  1
  Mo  Mo17  1  0.530556  0.737733  0.340170  1
  Mo  Mo18  1  0.469444  0.262267  0.659830  1
  Mo  Mo19  1  0.782355  0.955830  0.868818  1
  O  O20  1  0.478885  0.789277  0.464204  1
  O  O21  1  0.573017  0.616972  0.078424  1
  O  O22  1  0.789277  0.478885  0.035796  1
  O  O23  1  0.593031  0.937921  0.782645  1
  O  O24  1  0.700190  0.366603  0.284635  1
  O  O25  1  0.633397  0.299810  0.784635  1
  O  O26  1  0.937921  0.593031  0.717355  1
  O  O27  1  0.406969  0.062079  0.217355  1
  O  O28  1  0.616972  0.573017  0.421576  1
  O  O29  1  0.900340  0.110418  0.268960  1
  O  O30  1  0.383028  0.426983  0.578424  1
  O  O31  1  0.197060  0.008603  0.969283  1
  O  O32  1  0.008603  0.197060  0.530717  1
  O  O33  1  0.210723  0.521115  0.964204  1
  O  O34  1  0.426983  0.383028  0.921576  1
  O  O35  1  0.212617  0.151627  0.403517  1
  O  O36  1  0.889582  0.099660  0.768960  1
  O  O37  1  0.110418  0.900340  0.231040  1
  O  O38  1  0.663723  0.877571  0.264154  1
  O  O39  1  0.122429  0.336277  0.764154  1
  O  O40  1  0.062079  0.406969  0.282645  1
  O  O41  1  0.521115  0.210723  0.535796  1
  O  O42  1  0.877571  0.663723  0.235846  1
  O  O43  1  0.336277  0.122429  0.735846  1
  O  O44  1  0.802940  0.991397  0.030717  1
  O  O45  1  0.099660  0.889582  0.731040  1
  O  O46  1  0.991397  0.802940  0.469283  1
  O  O47  1  0.151627  0.212617  0.096483  1
  O  O48  1  0.299810  0.633397  0.715365  1
  O  O49  1  0.848373  0.787383  0.903517  1
  O  O50  1  0.787383  0.848373  0.596483  1
  O  O51  1  0.366603  0.700190  0.215365  1
