# generated using pymatgen
data_ZnS
_symmetry_space_group_name_H-M   'P 1'
_cell_length_a   3.85353275
_cell_length_b   3.85353275
_cell_length_c   75.57171118
_cell_angle_alpha   90.00000000
_cell_angle_beta   90.00000000
_cell_angle_gamma   120.00000000
_symmetry_Int_Tables_number   1
_chemical_formula_structural   ZnS
_chemical_formula_sum   'Zn24 S24'
_cell_volume   971.86959885
_cell_formula_units_Z   24
loop_
 _symmetry_equiv_pos_site_id
 _symmetry_equiv_pos_as_xyz
  1  'x, y, z'
loop_
 _atom_site_type_symbol
 _atom_site_label
 _atom_site_symmetry_multiplicity
 _atom_site_fract_x
 _atom_site_fract_y
 _atom_site_fract_z
 _atom_site_occupancy
  Zn  Zn0  1  0.000000  0.000000  0.333343  1
  Zn  Zn1  1  0.333333  0.666667  0.666668  1
  Zn  Zn2  1  0.333333  0.666667  0.291669  1
  Zn  Zn3  1  0.666667  0.333333  0.083333  1
  Zn  Zn4  1  0.000000  0.000000  0.583334  1
  Zn  Zn5  1  0.000000  0.000000  0.708330  1
  Zn  Zn6  1  0.666667  0.333333  0.500001  1
  Zn  Zn7  1  0.666667  0.333333  0.916668  1
  Zn  Zn8  1  0.666667  0.333333  0.208333  1
  Zn  Zn9  1  0.666667  0.333333  0.625001  1
  Zn  Zn10  1  0.000000  0.000000  0.833334  1
  Zn  Zn11  1  0.333333  0.666667  0.541672  1
  Zn  Zn12  1  0.333333  0.666667  0.041681  1
  Zn  Zn13  1  0.000000  0.000000  0.125001  1
  Zn  Zn14  1  0.333333  0.666667  0.166671  1
  Zn  Zn15  1  0.333333  0.666667  0.416672  1
  Zn  Zn16  1  0.000000  0.000000  0.458334  1
  Zn  Zn17  1  0.333333  0.666667  0.750011  1
  Zn  Zn18  1  0.333333  0.666667  0.958339  1
  Zn  Zn19  1  0.000000  0.000000  0.249998  1
  Zn  Zn20  1  0.666667  0.333333  0.791671  1
  Zn  Zn21  1  0.666667  0.333333  0.375001  1
  Zn  Zn22  1  0.333333  0.666667  0.874998  1
  Zn  Zn23  1  0.000000  0.000000  0.999998  1
  S  S24  1  0.666667  0.333333  0.947938  1
  S  S25  1  0.333333  0.666667  0.781247  1
  S  S26  1  0.333333  0.666667  0.197916  1
  S  S27  1  0.000000  0.000000  0.364578  1
  S  S28  1  0.000000  0.000000  0.489580  1
  S  S29  1  0.666667  0.333333  0.531248  1
  S  S30  1  0.666667  0.333333  0.656248  1
  S  S31  1  0.000000  0.000000  0.739602  1
  S  S32  1  0.333333  0.666667  0.447916  1
  S  S33  1  0.666667  0.333333  0.239578  1
  S  S34  1  0.333333  0.666667  0.906226  1
  S  S35  1  0.333333  0.666667  0.989555  1
  S  S36  1  0.666667  0.333333  0.114578  1
  S  S37  1  0.000000  0.000000  0.614580  1
  S  S38  1  0.000000  0.000000  0.156248  1
  S  S39  1  0.000000  0.000000  0.281226  1
  S  S40  1  0.333333  0.666667  0.697893  1
  S  S41  1  0.333333  0.666667  0.072915  1
  S  S42  1  0.333333  0.666667  0.572916  1
  S  S43  1  0.000000  0.000000  0.864579  1
  S  S44  1  0.666667  0.333333  0.822916  1
  S  S45  1  0.666667  0.333333  0.406248  1
  S  S46  1  0.333333  0.666667  0.322939  1
  S  S47  1  0.000000  0.000000  0.031270  1
