# generated using pymatgen
data_Be2BO3F
_symmetry_space_group_name_H-M   'P 1'
_cell_length_a   8.79989446
_cell_length_b   8.79989446
_cell_length_c   8.79989446
_cell_angle_alpha   29.42002869
_cell_angle_beta   29.42002869
_cell_angle_gamma   29.42002869
_symmetry_Int_Tables_number   1
_chemical_formula_structural   Be2BO3F
_chemical_formula_sum   'Be4 B2 O6 F2'
_cell_volume   145.51928842
_cell_formula_units_Z   2
loop_
 _symmetry_equiv_pos_site_id
 _symmetry_equiv_pos_as_xyz
  1  'x, y, z'
loop_
 _atom_site_type_symbol
 _atom_site_label
 _atom_site_symmetry_multiplicity
 _atom_site_fract_x
 _atom_site_fract_y
 _atom_site_fract_z
 _atom_site_occupancy
  Be  Be0  1  0.437103  0.437103  0.437103  1
  Be  Be1  1  0.062897  0.062897  0.062897  1
  Be  Be2  1  0.937103  0.937103  0.937103  1
  Be  Be3  1  0.562897  0.562897  0.562897  1
  B  B4  1  0.750000  0.750000  0.750000  1
  B  B5  1  0.250000  0.250000  0.250000  1
  O  O6  1  0.058827  0.750000  0.441173  1
  O  O7  1  0.250000  0.558827  0.941173  1
  O  O8  1  0.750000  0.441173  0.058827  1
  O  O9  1  0.941173  0.250000  0.558827  1
  O  O10  1  0.441173  0.058827  0.750000  1
  O  O11  1  0.558827  0.941173  0.250000  1
  F  F12  1  0.500000  0.500000  0.500000  1
  F  F13  1  0.000000  0.000000  0.000000  1
