# generated using pymatgen
data_P3NCl12
_symmetry_space_group_name_H-M   'P 1'
_cell_length_a   12.17217784
_cell_length_b   21.76179433
_cell_length_c   16.40020698
_cell_angle_alpha   90.00000000
_cell_angle_beta   119.08291194
_cell_angle_gamma   90.00000000
_symmetry_Int_Tables_number   1
_chemical_formula_structural   P3NCl12
_chemical_formula_sum   'P24 N8 Cl96'
_cell_volume   3796.49316009
_cell_formula_units_Z   8
loop_
 _symmetry_equiv_pos_site_id
 _symmetry_equiv_pos_as_xyz
  1  'x, y, z'
loop_
 _atom_site_type_symbol
 _atom_site_label
 _atom_site_symmetry_multiplicity
 _atom_site_fract_x
 _atom_site_fract_y
 _atom_site_fract_z
 _atom_site_occupancy
  P  P0  1  0.441520  0.707239  0.370557  1
  P  P1  1  0.041547  0.470004  0.833380  1
  P  P2  1  0.537401  0.775150  0.546798  1
  P  P3  1  0.087614  0.036576  0.842685  1
  P  P4  1  0.023148  0.716274  0.435910  1
  P  P5  1  0.976852  0.283726  0.564090  1
  P  P6  1  0.537401  0.724850  0.046798  1
  P  P7  1  0.958453  0.970004  0.666620  1
  P  P8  1  0.454893  0.470331  0.215464  1
  P  P9  1  0.958453  0.529996  0.166620  1
  P  P10  1  0.087614  0.463424  0.342685  1
  P  P11  1  0.545107  0.529669  0.784536  1
  P  P12  1  0.462599  0.275150  0.953202  1
  P  P13  1  0.558480  0.207239  0.129443  1
  P  P14  1  0.462599  0.224850  0.453202  1
  P  P15  1  0.023148  0.783726  0.935910  1
  P  P16  1  0.912386  0.963424  0.157315  1
  P  P17  1  0.041547  0.029996  0.333380  1
  P  P18  1  0.441520  0.792761  0.870557  1
  P  P19  1  0.545107  0.970331  0.284536  1
  P  P20  1  0.976852  0.216274  0.064090  1
  P  P21  1  0.912386  0.536576  0.657315  1
  P  P22  1  0.454893  0.029669  0.715464  1
  P  P23  1  0.558480  0.292761  0.629443  1
  N  N24  1  0.936630  0.015427  0.230875  1
  N  N25  1  0.546722  0.240896  0.559112  1
  N  N26  1  0.936630  0.484573  0.730875  1
  N  N27  1  0.063370  0.515427  0.269125  1
  N  N28  1  0.453278  0.759104  0.440888  1
  N  N29  1  0.546722  0.259104  0.059112  1
  N  N30  1  0.063370  0.984573  0.769125  1
  N  N31  1  0.453278  0.740896  0.940888  1
  Cl  Cl32  1  0.296252  0.409314  0.147028  1
  Cl  Cl33  1  0.946928  0.450768  0.369216  1
  Cl  Cl34  1  0.718686  0.783538  0.584456  1
  Cl  Cl35  1  0.597888  0.695557  0.362727  1
  Cl  Cl36  1  0.208298  0.455045  0.843897  1
  Cl  Cl37  1  0.614677  0.532382  0.285569  1
  Cl  Cl38  1  0.136772  0.223737  0.641920  1
  Cl  Cl39  1  0.146598  0.796302  0.485362  1
  Cl  Cl40  1  0.066839  0.536595  0.923420  1
  Cl  Cl41  1  0.853402  0.296302  0.014638  1
  Cl  Cl42  1  0.863228  0.723737  0.858080  1
  Cl  Cl43  1  0.879786  0.617729  0.696444  1
  Cl  Cl44  1  0.417767  0.893087  0.245687  1
  Cl  Cl45  1  0.053072  0.950768  0.130784  1
  Cl  Cl46  1  0.672103  0.451238  0.822531  1
  Cl  Cl47  1  0.052726  0.709904  0.316067  1
  Cl  Cl48  1  0.601021  0.125821  0.098426  1
  Cl  Cl49  1  0.551540  0.960930  0.153908  1
  Cl  Cl50  1  0.995209  0.395420  0.878105  1
  Cl  Cl51  1  0.791702  0.544955  0.156103  1
  Cl  Cl52  1  0.516558  0.354411  0.926573  1
  Cl  Cl53  1  0.597888  0.804443  0.862727  1
  Cl  Cl54  1  0.181854  0.843152  0.014757  1
  Cl  Cl55  1  0.052726  0.790096  0.816067  1
  Cl  Cl56  1  0.483442  0.854411  0.573427  1
  Cl  Cl57  1  0.236665  0.485107  0.461956  1
  Cl  Cl58  1  0.898973  0.863114  0.887242  1
  Cl  Cl59  1  0.101027  0.363114  0.612758  1
  Cl  Cl60  1  0.120214  0.382271  0.303556  1
  Cl  Cl61  1  0.537289  0.981084  0.413059  1
  Cl  Cl62  1  0.066839  0.963405  0.423420  1
  Cl  Cl63  1  0.703748  0.590686  0.852972  1
  Cl  Cl64  1  0.898973  0.636886  0.387242  1
  Cl  Cl65  1  0.763335  0.514893  0.538044  1
  Cl  Cl66  1  0.692949  0.229110  0.255237  1
  Cl  Cl67  1  0.402112  0.304443  0.637273  1
  Cl  Cl68  1  0.236665  0.014893  0.961956  1
  Cl  Cl69  1  0.993454  0.723729  0.556911  1
  Cl  Cl70  1  0.006546  0.276271  0.443089  1
  Cl  Cl71  1  0.385323  0.467618  0.714431  1
  Cl  Cl72  1  0.136772  0.276263  0.141920  1
  Cl  Cl73  1  0.863228  0.776263  0.358080  1
  Cl  Cl74  1  0.614677  0.967618  0.785569  1
  Cl  Cl75  1  0.933161  0.036595  0.576580  1
  Cl  Cl76  1  0.993454  0.776271  0.056911  1
  Cl  Cl77  1  0.601021  0.374179  0.598426  1
  Cl  Cl78  1  0.120214  0.117729  0.803556  1
  Cl  Cl79  1  0.703748  0.909314  0.352972  1
  Cl  Cl80  1  0.471312  0.213040  0.868025  1
  Cl  Cl81  1  0.471312  0.286960  0.368025  1
  Cl  Cl82  1  0.718686  0.716462  0.084456  1
  Cl  Cl83  1  0.327897  0.548762  0.177469  1
  Cl  Cl84  1  0.947274  0.290096  0.683933  1
  Cl  Cl85  1  0.448460  0.039070  0.846092  1
  Cl  Cl86  1  0.281314  0.216462  0.415544  1
  Cl  Cl87  1  0.006546  0.223729  0.943089  1
  Cl  Cl88  1  0.818146  0.343152  0.485243  1
  Cl  Cl89  1  0.327897  0.951238  0.677469  1
  Cl  Cl90  1  0.462711  0.481084  0.086941  1
  Cl  Cl91  1  0.582233  0.106913  0.754313  1
  Cl  Cl92  1  0.692949  0.270890  0.755237  1
  Cl  Cl93  1  0.053072  0.549232  0.630784  1
  Cl  Cl94  1  0.528688  0.713040  0.631975  1
  Cl  Cl95  1  0.402112  0.195557  0.137273  1
  Cl  Cl96  1  0.398979  0.625821  0.401574  1
  Cl  Cl97  1  0.307051  0.729110  0.244763  1
  Cl  Cl98  1  0.516558  0.145589  0.426573  1
  Cl  Cl99  1  0.528688  0.786960  0.131975  1
  Cl  Cl100  1  0.672103  0.048762  0.322531  1
  Cl  Cl101  1  0.296252  0.090686  0.647028  1
  Cl  Cl102  1  0.004791  0.604580  0.121895  1
  Cl  Cl103  1  0.483442  0.645589  0.073427  1
  Cl  Cl104  1  0.947274  0.209904  0.183933  1
  Cl  Cl105  1  0.853402  0.203698  0.514638  1
  Cl  Cl106  1  0.879786  0.882271  0.196444  1
  Cl  Cl107  1  0.281314  0.283538  0.915544  1
  Cl  Cl108  1  0.101027  0.136886  0.112758  1
  Cl  Cl109  1  0.004791  0.895420  0.621895  1
  Cl  Cl110  1  0.181854  0.656848  0.514757  1
  Cl  Cl111  1  0.208298  0.044955  0.343897  1
  Cl  Cl112  1  0.763335  0.985107  0.038044  1
  Cl  Cl113  1  0.398979  0.874179  0.901574  1
  Cl  Cl114  1  0.462711  0.018916  0.586941  1
  Cl  Cl115  1  0.818146  0.156848  0.985243  1
  Cl  Cl116  1  0.385323  0.032382  0.214431  1
  Cl  Cl117  1  0.307051  0.770890  0.744763  1
  Cl  Cl118  1  0.791702  0.955045  0.656103  1
  Cl  Cl119  1  0.551540  0.539070  0.653908  1
  Cl  Cl120  1  0.537289  0.518916  0.913059  1
  Cl  Cl121  1  0.995209  0.104580  0.378105  1
  Cl  Cl122  1  0.933161  0.463405  0.076580  1
  Cl  Cl123  1  0.448460  0.460930  0.346092  1
  Cl  Cl124  1  0.417767  0.606913  0.745687  1
  Cl  Cl125  1  0.582233  0.393087  0.254313  1
  Cl  Cl126  1  0.946928  0.049232  0.869216  1
  Cl  Cl127  1  0.146598  0.703698  0.985362  1
