# generated using pymatgen
data_Li9Cr3P8O29
_symmetry_space_group_name_H-M   'P 1'
_cell_length_a   9.82302636
_cell_length_b   9.82302636
_cell_length_c   13.76693271
_cell_angle_alpha   90.00000000
_cell_angle_beta   90.00000000
_cell_angle_gamma   120.00000000
_symmetry_Int_Tables_number   1
_chemical_formula_structural   Li9Cr3P8O29
_chemical_formula_sum   'Li18 Cr6 P16 O58'
_cell_volume   1150.42534190
_cell_formula_units_Z   2
loop_
 _symmetry_equiv_pos_site_id
 _symmetry_equiv_pos_as_xyz
  1  'x, y, z'
loop_
 _atom_site_type_symbol
 _atom_site_label
 _atom_site_symmetry_multiplicity
 _atom_site_fract_x
 _atom_site_fract_y
 _atom_site_fract_z
 _atom_site_occupancy
  Li  Li0  1  0.764037  0.100367  0.063452  1
  Li  Li1  1  0.336331  0.100367  0.563452  1
  Li  Li2  1  0.764037  0.663669  0.563452  1
  Li  Li3  1  0.000000  0.000000  0.500000  1
  Li  Li4  1  0.899633  0.235963  0.563452  1
  Li  Li5  1  0.333333  0.666667  0.619795  1
  Li  Li6  1  0.100367  0.764037  0.436548  1
  Li  Li7  1  0.663669  0.764037  0.936548  1
  Li  Li8  1  0.336331  0.235963  0.063452  1
  Li  Li9  1  0.666667  0.333333  0.380205  1
  Li  Li10  1  0.899633  0.663669  0.063452  1
  Li  Li11  1  0.333333  0.666667  0.119795  1
  Li  Li12  1  0.663669  0.899633  0.436548  1
  Li  Li13  1  0.235963  0.336331  0.436548  1
  Li  Li14  1  0.000000  0.000000  0.000000  1
  Li  Li15  1  0.235963  0.899633  0.936548  1
  Li  Li16  1  0.666667  0.333333  0.880205  1
  Li  Li17  1  0.100367  0.336331  0.936548  1
  Cr  Cr18  1  0.433347  0.433347  0.250000  1
  Cr  Cr19  1  0.000000  0.433347  0.750000  1
  Cr  Cr20  1  0.566653  0.000000  0.250000  1
  Cr  Cr21  1  0.566653  0.566653  0.750000  1
  Cr  Cr22  1  0.000000  0.566653  0.250000  1
  Cr  Cr23  1  0.433347  0.000000  0.750000  1
  P  P24  1  0.910132  0.227405  0.344068  1
  P  P25  1  0.317273  0.227405  0.844068  1
  P  P26  1  0.910132  0.682727  0.844068  1
  P  P27  1  0.682727  0.772595  0.155932  1
  P  P28  1  0.227405  0.317273  0.655932  1
  P  P29  1  0.089868  0.772595  0.655932  1
  P  P30  1  0.666667  0.333333  0.624876  1
  P  P31  1  0.666667  0.333333  0.124876  1
  P  P32  1  0.333333  0.666667  0.375124  1
  P  P33  1  0.772595  0.682727  0.344068  1
  P  P34  1  0.682727  0.910132  0.655932  1
  P  P35  1  0.772595  0.089868  0.844068  1
  P  P36  1  0.227405  0.910132  0.155932  1
  P  P37  1  0.317273  0.089868  0.344068  1
  P  P38  1  0.089868  0.317273  0.155932  1
  P  P39  1  0.333333  0.666667  0.875124  1
  O  O40  1  0.666667  0.333333  0.014775  1
  O  O41  1  0.213628  0.213628  0.750000  1
  O  O42  1  0.078372  0.747475  0.155706  1
  O  O43  1  0.078372  0.330897  0.655706  1
  O  O44  1  0.488325  0.677452  0.836937  1
  O  O45  1  0.000000  0.786372  0.750000  1
  O  O46  1  0.227807  0.002181  0.066790  1
  O  O47  1  0.189127  0.511675  0.836937  1
  O  O48  1  0.774374  0.772193  0.066790  1
  O  O49  1  0.921628  0.669103  0.344294  1
  O  O50  1  0.892182  0.518598  0.833731  1
  O  O51  1  0.666667  0.333333  0.514775  1
  O  O52  1  0.000000  0.213628  0.250000  1
  O  O53  1  0.997819  0.225626  0.066790  1
  O  O54  1  0.626416  0.518598  0.333731  1
  O  O55  1  0.774374  0.002181  0.566790  1
  O  O56  1  0.373584  0.481402  0.666269  1
  O  O57  1  0.518598  0.892182  0.666269  1
  O  O58  1  0.511675  0.189127  0.663063  1
  O  O59  1  0.997819  0.772193  0.566790  1
  O  O60  1  0.213628  0.000000  0.250000  1
  O  O61  1  0.225626  0.997819  0.433210  1
  O  O62  1  0.227807  0.225626  0.566790  1
  O  O63  1  0.225626  0.227807  0.933210  1
  O  O64  1  0.481402  0.107818  0.333731  1
  O  O65  1  0.322548  0.810873  0.836937  1
  O  O66  1  0.511675  0.322548  0.163063  1
  O  O67  1  0.107818  0.626416  0.666269  1
  O  O68  1  0.488325  0.810873  0.336937  1
  O  O69  1  0.002181  0.774374  0.933210  1
  O  O70  1  0.747475  0.078372  0.344294  1
  O  O71  1  0.481402  0.373584  0.833731  1
  O  O72  1  0.626416  0.107818  0.833731  1
  O  O73  1  0.677452  0.488325  0.663063  1
  O  O74  1  0.772193  0.997819  0.933210  1
  O  O75  1  0.373584  0.892182  0.166269  1
  O  O76  1  0.747475  0.669103  0.844294  1
  O  O77  1  0.677452  0.189127  0.163063  1
  O  O78  1  0.786372  0.000000  0.750000  1
  O  O79  1  0.189127  0.677452  0.336937  1
  O  O80  1  0.669103  0.747475  0.655706  1
  O  O81  1  0.810873  0.322548  0.663063  1
  O  O82  1  0.518598  0.626416  0.166269  1
  O  O83  1  0.002181  0.227807  0.433210  1
  O  O84  1  0.921628  0.252525  0.844294  1
  O  O85  1  0.330897  0.078372  0.844294  1
  O  O86  1  0.333333  0.666667  0.485225  1
  O  O87  1  0.107818  0.481402  0.166269  1
  O  O88  1  0.810873  0.488325  0.163063  1
  O  O89  1  0.333333  0.666667  0.985225  1
  O  O90  1  0.322548  0.511675  0.336937  1
  O  O91  1  0.772193  0.774374  0.433210  1
  O  O92  1  0.892182  0.373584  0.333731  1
  O  O93  1  0.669103  0.921628  0.155706  1
  O  O94  1  0.252525  0.330897  0.155706  1
  O  O95  1  0.330897  0.252525  0.344294  1
  O  O96  1  0.252525  0.921628  0.655706  1
  O  O97  1  0.786372  0.786372  0.250000  1
