# generated using pymatgen
data_Al(PO3)3
_symmetry_space_group_name_H-M   'P 1'
_cell_length_a   11.51486736
_cell_length_b   11.51486736
_cell_length_c   9.36966455
_cell_angle_alpha   70.19456459
_cell_angle_beta   109.80543541
_cell_angle_gamma   69.11025367
_symmetry_Int_Tables_number   1
_chemical_formula_structural   Al(PO3)3
_chemical_formula_sum   'Al6 P18 O54'
_cell_volume   930.82849825
_cell_formula_units_Z   6
loop_
 _symmetry_equiv_pos_site_id
 _symmetry_equiv_pos_as_xyz
  1  'x, y, z'
loop_
 _atom_site_type_symbol
 _atom_site_label
 _atom_site_symmetry_multiplicity
 _atom_site_fract_x
 _atom_site_fract_y
 _atom_site_fract_z
 _atom_site_occupancy
  Al  Al0  1  0.405005  0.419342  0.485792  1
  Al  Al1  1  0.580658  0.594995  0.985792  1
  Al  Al2  1  0.075056  0.085609  0.489516  1
  Al  Al3  1  0.914391  0.924944  0.989516  1
  Al  Al4  1  0.767245  0.741961  0.519162  1
  Al  Al5  1  0.258039  0.232755  0.019162  1
  P  P6  1  0.325024  0.618998  0.651597  1
  P  P7  1  0.381002  0.674976  0.151597  1
  P  P8  1  0.004573  0.267096  0.679117  1
  P  P9  1  0.732904  0.995427  0.179117  1
  P  P10  1  0.673900  0.932821  0.685281  1
  P  P11  1  0.067179  0.326100  0.185281  1
  P  P12  1  0.094027  0.843045  0.807771  1
  P  P13  1  0.156955  0.905973  0.307771  1
  P  P14  1  0.779330  0.494297  0.831952  1
  P  P15  1  0.505703  0.220670  0.331952  1
  P  P16  1  0.439570  0.162964  0.832505  1
  P  P17  1  0.837036  0.560430  0.332505  1
  P  P18  1  0.118549  0.583490  0.774649  1
  P  P19  1  0.416510  0.881451  0.274649  1
  P  P20  1  0.747151  0.284169  0.719637  1
  P  P21  1  0.715831  0.252849  0.219637  1
  P  P22  1  0.426289  0.938001  0.736571  1
  P  P23  1  0.061999  0.573711  0.236571  1
  O  O24  1  0.766965  0.806890  0.679184  1
  O  O25  1  0.193110  0.233035  0.179184  1
  O  O26  1  0.411522  0.514732  0.613552  1
  O  O27  1  0.485268  0.588478  0.113552  1
  O  O28  1  0.078544  0.141432  0.659853  1
  O  O29  1  0.858568  0.921456  0.159853  1
  O  O30  1  0.629079  0.077017  0.521091  1
  O  O31  1  0.922983  0.370921  0.021091  1
  O  O32  1  0.190795  0.764196  0.466941  1
  O  O33  1  0.235804  0.809205  0.966941  1
  O  O34  1  0.962553  0.412465  0.517785  1
  O  O35  1  0.587535  0.037447  0.017785  1
  O  O36  1  0.741299  0.934150  0.852315  1
  O  O37  1  0.065850  0.258701  0.352315  1
  O  O38  1  0.406177  0.652629  0.777431  1
  O  O39  1  0.347371  0.593823  0.277431  1
  O  O40  1  0.083718  0.259286  0.849203  1
  O  O41  1  0.740714  0.916282  0.349203  1
  O  O42  1  0.819105  0.132712  0.870571  1
  O  O43  1  0.867288  0.180895  0.370571  1
  O  O44  1  0.518143  0.792691  0.907379  1
  O  O45  1  0.207309  0.481857  0.407379  1
  O  O46  1  0.171176  0.437608  0.922116  1
  O  O47  1  0.562392  0.828824  0.422116  1
  O  O48  1  0.601823  0.348497  0.561508  1
  O  O49  1  0.651503  0.398177  0.061508  1
  O  O50  1  0.281872  0.977438  0.600917  1
  O  O51  1  0.022562  0.718128  0.100917  1
  O  O52  1  0.970555  0.664633  0.612167  1
  O  O53  1  0.335367  0.029445  0.112167  1
  O  O54  1  0.465614  0.246618  0.698629  1
  O  O55  1  0.753382  0.534386  0.198629  1
  O  O56  1  0.087337  0.913126  0.635553  1
  O  O57  1  0.086874  0.912663  0.135553  1
  O  O58  1  0.813525  0.560366  0.696697  1
  O  O59  1  0.439634  0.186475  0.196697  1
  O  O60  1  0.328021  0.248427  0.863232  1
  O  O61  1  0.751573  0.671979  0.363232  1
  O  O62  1  0.965172  0.928174  0.815524  1
  O  O63  1  0.071826  0.034828  0.315524  1
  O  O64  1  0.672868  0.597810  0.853059  1
  O  O65  1  0.402190  0.327132  0.353059  1
  O  O66  1  0.701955  0.153597  0.138447  1
  O  O67  1  0.846403  0.298045  0.638447  1
  O  O68  1  0.441626  0.762217  0.219451  1
  O  O69  1  0.237783  0.558374  0.719451  1
  O  O70  1  0.046484  0.482448  0.141454  1
  O  O71  1  0.517552  0.953516  0.641454  1
  O  O72  1  0.607451  0.273754  0.291848  1
  O  O73  1  0.726246  0.392549  0.791848  1
  O  O74  1  0.319164  0.870637  0.361675  1
  O  O75  1  0.129363  0.680836  0.861675  1
  O  O76  1  0.936102  0.609217  0.279069  1
  O  O77  1  0.390783  0.063898  0.779069  1
