# generated using pymatgen
data_Si6Cl10O7
_symmetry_space_group_name_H-M   'P 1'
_cell_length_a   6.45488307
_cell_length_b   21.40350010
_cell_length_c   8.63825126
_cell_angle_alpha   90.00000000
_cell_angle_beta   99.28449553
_cell_angle_gamma   90.00000000
_symmetry_Int_Tables_number   1
_chemical_formula_structural   Si6Cl10O7
_chemical_formula_sum   'Si12 Cl20 O14'
_cell_volume   1177.80095062
_cell_formula_units_Z   2
loop_
 _symmetry_equiv_pos_site_id
 _symmetry_equiv_pos_as_xyz
  1  'x, y, z'
loop_
 _atom_site_type_symbol
 _atom_site_label
 _atom_site_symmetry_multiplicity
 _atom_site_fract_x
 _atom_site_fract_y
 _atom_site_fract_z
 _atom_site_occupancy
  Si  Si0  1  0.782645  0.750000  0.381398  1
  Si  Si1  1  0.217355  0.250000  0.618602  1
  Si  Si2  1  0.992595  0.618887  0.449259  1
  Si  Si3  1  0.007405  0.118887  0.550741  1
  Si  Si4  1  0.007405  0.381113  0.550741  1
  Si  Si5  1  0.992595  0.881113  0.449259  1
  Si  Si6  1  0.875356  0.620892  0.798177  1
  Si  Si7  1  0.124644  0.120892  0.201823  1
  Si  Si8  1  0.124644  0.379108  0.201823  1
  Si  Si9  1  0.875356  0.879108  0.798177  1
  Si  Si10  1  0.649915  0.750000  0.721147  1
  Si  Si11  1  0.350085  0.250000  0.278853  1
  Cl  Cl12  1  0.558808  0.750000  0.187757  1
  Cl  Cl13  1  0.441192  0.250000  0.812243  1
  Cl  Cl14  1  0.301989  0.604225  0.444176  1
  Cl  Cl15  1  0.698011  0.104225  0.555824  1
  Cl  Cl16  1  0.698011  0.395775  0.555824  1
  Cl  Cl17  1  0.301989  0.895775  0.444176  1
  Cl  Cl18  1  0.820493  0.553865  0.313146  1
  Cl  Cl19  1  0.179507  0.053865  0.686854  1
  Cl  Cl20  1  0.179507  0.446135  0.686854  1
  Cl  Cl21  1  0.820493  0.946135  0.313146  1
  Cl  Cl22  1  0.673945  0.551506  0.832925  1
  Cl  Cl23  1  0.326055  0.051506  0.167075  1
  Cl  Cl24  1  0.326055  0.448494  0.167075  1
  Cl  Cl25  1  0.673945  0.948494  0.832925  1
  Cl  Cl26  1  0.131099  0.617195  0.968415  1
  Cl  Cl27  1  0.868901  0.117195  0.031585  1
  Cl  Cl28  1  0.868901  0.382805  0.031585  1
  Cl  Cl29  1  0.131099  0.882805  0.968415  1
  Cl  Cl30  1  0.341205  0.750000  0.743112  1
  Cl  Cl31  1  0.658795  0.250000  0.256888  1
  O  O32  1  0.668510  0.750000  0.536103  1
  O  O33  1  0.331490  0.250000  0.463897  1
  O  O34  1  0.930346  0.688418  0.381259  1
  O  O35  1  0.069654  0.188418  0.618741  1
  O  O36  1  0.069654  0.311582  0.618741  1
  O  O37  1  0.930346  0.811582  0.381259  1
  O  O38  1  0.947271  0.612426  0.627853  1
  O  O39  1  0.052729  0.112426  0.372147  1
  O  O40  1  0.052729  0.387574  0.372147  1
  O  O41  1  0.947271  0.887574  0.627853  1
  O  O42  1  0.761313  0.688331  0.807042  1
  O  O43  1  0.238687  0.188331  0.192958  1
  O  O44  1  0.238687  0.311669  0.192958  1
  O  O45  1  0.761313  0.811669  0.807042  1
