# generated using pymatgen
data_SmCuS2
_symmetry_space_group_name_H-M   'P 1'
_cell_length_a   6.45408389
_cell_length_b   7.12722180
_cell_length_c   6.83519938
_cell_angle_alpha   90.00000000
_cell_angle_beta   97.45117664
_cell_angle_gamma   90.00000000
_symmetry_Int_Tables_number   1
_chemical_formula_structural   SmCuS2
_chemical_formula_sum   'Sm4 Cu4 S8'
_cell_volume   311.76201160
_cell_formula_units_Z   4
loop_
 _symmetry_equiv_pos_site_id
 _symmetry_equiv_pos_as_xyz
  1  'x, y, z'
loop_
 _atom_site_type_symbol
 _atom_site_label
 _atom_site_symmetry_multiplicity
 _atom_site_fract_x
 _atom_site_fract_y
 _atom_site_fract_z
 _atom_site_occupancy
  Sm  Sm0  1  0.808058  0.950729  0.199661  1
  Sm  Sm1  1  0.191942  0.450729  0.300339  1
  Sm  Sm2  1  0.191942  0.049271  0.800339  1
  Sm  Sm3  1  0.808058  0.549271  0.699661  1
  Cu  Cu4  1  0.422826  0.662307  0.949916  1
  Cu  Cu5  1  0.577174  0.337693  0.050084  1
  Cu  Cu6  1  0.577174  0.162307  0.550084  1
  Cu  Cu7  1  0.422826  0.837693  0.449916  1
  S  S8  1  0.080585  0.726217  0.998386  1
  S  S9  1  0.919415  0.226217  0.501614  1
  S  S10  1  0.919415  0.273783  0.001614  1
  S  S11  1  0.080585  0.773783  0.498386  1
  S  S12  1  0.409429  0.113907  0.221060  1
  S  S13  1  0.409429  0.386093  0.721060  1
  S  S14  1  0.590571  0.886093  0.778940  1
  S  S15  1  0.590571  0.613907  0.278940  1
