# generated using pymatgen
data_Li2MnF6
_symmetry_space_group_name_H-M   'P 1'
_cell_length_a   8.69150490
_cell_length_b   8.69150490
_cell_length_c   4.48317510
_cell_angle_alpha   90.00000000
_cell_angle_beta   90.00000000
_cell_angle_gamma   120.00000000
_symmetry_Int_Tables_number   1
_chemical_formula_structural   Li2MnF6
_chemical_formula_sum   'Li6 Mn3 F18'
_cell_volume   293.29610273
_cell_formula_units_Z   3
loop_
 _symmetry_equiv_pos_site_id
 _symmetry_equiv_pos_as_xyz
  1  'x, y, z'
loop_
 _atom_site_type_symbol
 _atom_site_label
 _atom_site_symmetry_multiplicity
 _atom_site_fract_x
 _atom_site_fract_y
 _atom_site_fract_z
 _atom_site_occupancy
  Li  Li0  1  0.343049  0.343049  0.000000  1
  Li  Li1  1  0.000000  0.656951  0.000000  1
  Li  Li2  1  0.656951  0.000000  0.000000  1
  Li  Li3  1  0.343049  0.000000  0.000000  1
  Li  Li4  1  0.656951  0.656951  0.000000  1
  Li  Li5  1  0.000000  0.343049  0.000000  1
  Mn  Mn6  1  0.666667  0.333333  0.509067  1
  Mn  Mn7  1  0.333333  0.666667  0.490933  1
  Mn  Mn8  1  0.000000  0.000000  0.000000  1
  F  F9  1  0.790784  0.895392  0.215665  1
  F  F10  1  0.895392  0.790784  0.784335  1
  F  F11  1  0.895392  0.104608  0.784335  1
  F  F12  1  0.232668  0.767332  0.726101  1
  F  F13  1  0.232668  0.465336  0.726101  1
  F  F14  1  0.209216  0.104608  0.784335  1
  F  F15  1  0.465336  0.232668  0.273899  1
  F  F16  1  0.767332  0.534664  0.273899  1
  F  F17  1  0.767332  0.232668  0.273899  1
  F  F18  1  0.434786  0.565214  0.251092  1
  F  F19  1  0.434786  0.869571  0.251092  1
  F  F20  1  0.130429  0.565214  0.251092  1
  F  F21  1  0.869571  0.434786  0.748908  1
  F  F22  1  0.565214  0.130429  0.748908  1
  F  F23  1  0.565214  0.434786  0.748908  1
  F  F24  1  0.104608  0.895392  0.215665  1
  F  F25  1  0.534664  0.767332  0.726101  1
  F  F26  1  0.104608  0.209216  0.215665  1
