# generated using pymatgen
data_CaZr(PO4)2
_symmetry_space_group_name_H-M   'P 1'
_cell_length_a   6.31303001
_cell_length_b   6.80786571
_cell_length_c   14.80569477
_cell_angle_alpha   90.00000000
_cell_angle_beta   90.00000000
_cell_angle_gamma   90.00000000
_symmetry_Int_Tables_number   1
_chemical_formula_structural   CaZr(PO4)2
_chemical_formula_sum   'Ca4 Zr4 P8 O32'
_cell_volume   636.32300717
_cell_formula_units_Z   4
loop_
 _symmetry_equiv_pos_site_id
 _symmetry_equiv_pos_as_xyz
  1  'x, y, z'
loop_
 _atom_site_type_symbol
 _atom_site_label
 _atom_site_symmetry_multiplicity
 _atom_site_fract_x
 _atom_site_fract_y
 _atom_site_fract_z
 _atom_site_occupancy
  Ca  Ca0  1  0.552561  0.750000  0.150462  1
  Ca  Ca1  1  0.052561  0.750000  0.349538  1
  Ca  Ca2  1  0.947439  0.250000  0.650462  1
  Ca  Ca3  1  0.447439  0.250000  0.849538  1
  Zr  Zr4  1  0.175610  0.750000  0.890889  1
  Zr  Zr5  1  0.824390  0.250000  0.109111  1
  Zr  Zr6  1  0.675610  0.750000  0.609111  1
  Zr  Zr7  1  0.324390  0.250000  0.390889  1
  P  P8  1  0.131171  0.750000  0.648294  1
  P  P9  1  0.868829  0.250000  0.351706  1
  P  P10  1  0.041305  0.750000  0.115556  1
  P  P11  1  0.368829  0.250000  0.148294  1
  P  P12  1  0.541305  0.750000  0.384444  1
  P  P13  1  0.631171  0.750000  0.851706  1
  P  P14  1  0.958695  0.250000  0.884444  1
  P  P15  1  0.458695  0.250000  0.615556  1
  O  O16  1  0.389926  0.929476  0.386746  1
  O  O17  1  0.841580  0.750000  0.902249  1
  O  O18  1  0.341580  0.750000  0.597751  1
  O  O19  1  0.889926  0.929476  0.113254  1
  O  O20  1  0.610074  0.070524  0.613254  1
  O  O21  1  0.389926  0.570524  0.386746  1
  O  O22  1  0.168740  0.750000  0.751033  1
  O  O23  1  0.110074  0.070524  0.886746  1
  O  O24  1  0.515907  0.077525  0.120127  1
  O  O25  1  0.889926  0.570524  0.113254  1
  O  O26  1  0.158420  0.250000  0.097751  1
  O  O27  1  0.195325  0.750000  0.032821  1
  O  O28  1  0.181125  0.750000  0.200835  1
  O  O29  1  0.658420  0.250000  0.402249  1
  O  O30  1  0.015907  0.422475  0.379873  1
  O  O31  1  0.668740  0.750000  0.748967  1
  O  O32  1  0.015907  0.077525  0.379873  1
  O  O33  1  0.831260  0.250000  0.248967  1
  O  O34  1  0.695325  0.750000  0.467179  1
  O  O35  1  0.804675  0.250000  0.967179  1
  O  O36  1  0.984093  0.577525  0.620127  1
  O  O37  1  0.484093  0.577525  0.879873  1
  O  O38  1  0.515907  0.422475  0.120127  1
  O  O39  1  0.318875  0.250000  0.700835  1
  O  O40  1  0.681125  0.750000  0.299165  1
  O  O41  1  0.984093  0.922475  0.620127  1
  O  O42  1  0.331260  0.250000  0.251033  1
  O  O43  1  0.610074  0.429476  0.613254  1
  O  O44  1  0.484093  0.922475  0.879873  1
  O  O45  1  0.818875  0.250000  0.799165  1
  O  O46  1  0.304675  0.250000  0.532821  1
  O  O47  1  0.110074  0.429476  0.886746  1
