# generated using pymatgen
data_Li7Cr4P9O32
_symmetry_space_group_name_H-M   'P 1'
_cell_length_a   13.80638381
_cell_length_b   13.80638381
_cell_length_c   6.35558022
_cell_angle_alpha   90.00000000
_cell_angle_beta   90.00000000
_cell_angle_gamma   90.00000000
_symmetry_Int_Tables_number   1
_chemical_formula_structural   Li7Cr4P9O32
_chemical_formula_sum   'Li14 Cr8 P18 O64'
_cell_volume   1211.47676584
_cell_formula_units_Z   2
loop_
 _symmetry_equiv_pos_site_id
 _symmetry_equiv_pos_as_xyz
  1  'x, y, z'
loop_
 _atom_site_type_symbol
 _atom_site_label
 _atom_site_symmetry_multiplicity
 _atom_site_fract_x
 _atom_site_fract_y
 _atom_site_fract_z
 _atom_site_occupancy
  Li  Li0  1  0.000000  0.000000  0.000000  1
  Li  Li1  1  0.895742  0.744868  0.824775  1
  Li  Li2  1  0.755132  0.604258  0.324775  1
  Li  Li3  1  0.744868  0.104258  0.175225  1
  Li  Li4  1  0.604258  0.244868  0.675225  1
  Li  Li5  1  0.500000  0.500000  0.500000  1
  Li  Li6  1  0.500000  0.000000  0.860322  1
  Li  Li7  1  0.500000  0.000000  0.360322  1
  Li  Li8  1  0.395742  0.755132  0.675225  1
  Li  Li9  1  0.000000  0.500000  0.139678  1
  Li  Li10  1  0.000000  0.500000  0.639678  1
  Li  Li11  1  0.104258  0.255132  0.824775  1
  Li  Li12  1  0.244868  0.395742  0.324775  1
  Li  Li13  1  0.255132  0.895742  0.175225  1
  Cr  Cr14  1  0.878763  0.196541  0.620296  1
  Cr  Cr15  1  0.803459  0.878763  0.379704  1
  Cr  Cr16  1  0.696541  0.378763  0.120296  1
  Cr  Cr17  1  0.621237  0.696541  0.879704  1
  Cr  Cr18  1  0.378763  0.303459  0.879704  1
  Cr  Cr19  1  0.303459  0.621237  0.120296  1
  Cr  Cr20  1  0.196541  0.121237  0.379704  1
  Cr  Cr21  1  0.121237  0.803459  0.620296  1
  P  P22  1  0.500000  0.500000  0.000000  1
  P  P23  1  0.559679  0.193972  0.114261  1
  P  P24  1  0.608361  0.747703  0.368940  1
  P  P25  1  0.693972  0.059679  0.614261  1
  P  P26  1  0.747703  0.391639  0.631060  1
  P  P27  1  0.752297  0.891639  0.868940  1
  P  P28  1  0.806028  0.559679  0.885739  1
  P  P29  1  0.891639  0.247703  0.131060  1
  P  P30  1  0.000000  0.000000  0.500000  1
  P  P31  1  0.059679  0.306028  0.385739  1
  P  P32  1  0.108361  0.752297  0.131060  1
  P  P33  1  0.193972  0.440321  0.885739  1
  P  P34  1  0.247703  0.108361  0.868940  1
  P  P35  1  0.252297  0.608361  0.631060  1
  P  P36  1  0.306028  0.940321  0.614261  1
  P  P37  1  0.391639  0.252297  0.368940  1
  P  P38  1  0.440321  0.806028  0.114261  1
  P  P39  1  0.940321  0.693972  0.385739  1
  O  O40  1  0.562496  0.563231  0.849230  1
  O  O41  1  0.892565  0.187369  0.931162  1
  O  O42  1  0.915559  0.558219  0.892677  1
  O  O43  1  0.941781  0.584441  0.392677  1
  O  O44  1  0.937504  0.063231  0.650770  1
  O  O45  1  0.936769  0.937504  0.349230  1
  O  O46  1  0.987016  0.745215  0.575844  1
  O  O47  1  0.995040  0.727603  0.169805  1
  O  O48  1  0.004960  0.272397  0.169805  1
  O  O49  1  0.012984  0.254785  0.575844  1
  O  O50  1  0.063231  0.062496  0.349230  1
  O  O51  1  0.062496  0.936769  0.650770  1
  O  O52  1  0.058219  0.415559  0.392677  1
  O  O53  1  0.084441  0.441781  0.892677  1
  O  O54  1  0.107435  0.812631  0.931162  1
  O  O55  1  0.141218  0.819405  0.310337  1
  O  O56  1  0.156342  0.661713  0.620132  1
  O  O57  1  0.161713  0.656342  0.120132  1
  O  O58  1  0.163451  0.267116  0.352422  1
  O  O59  1  0.180595  0.141218  0.689663  1
  O  O60  1  0.187369  0.107435  0.068838  1
  O  O61  1  0.227603  0.495040  0.669805  1
  O  O62  1  0.232884  0.336549  0.852422  1
  O  O63  1  0.245215  0.487016  0.075844  1
  O  O64  1  0.254785  0.987016  0.424156  1
  O  O65  1  0.267116  0.836549  0.647578  1
  O  O66  1  0.272397  0.995040  0.830195  1
  O  O67  1  0.312631  0.607435  0.431162  1
  O  O68  1  0.319405  0.641218  0.810337  1
  O  O69  1  0.336549  0.767116  0.147578  1
  O  O70  1  0.338287  0.156342  0.379868  1
  O  O71  1  0.343658  0.161713  0.879868  1
  O  O72  1  0.358782  0.319405  0.189663  1
  O  O73  1  0.392565  0.312631  0.568838  1
  O  O74  1  0.415559  0.941781  0.607323  1
  O  O75  1  0.441781  0.915559  0.107323  1
  O  O76  1  0.437504  0.436769  0.849230  1
  O  O77  1  0.436769  0.562496  0.150770  1
  O  O78  1  0.487016  0.754785  0.924156  1
  O  O79  1  0.495040  0.772397  0.330195  1
  O  O80  1  0.504960  0.227603  0.330195  1
  O  O81  1  0.512984  0.245215  0.924156  1
  O  O82  1  0.563231  0.437504  0.150770  1
  O  O83  1  0.858782  0.180595  0.310337  1
  O  O84  1  0.558219  0.084441  0.107323  1
  O  O85  1  0.584441  0.058219  0.607323  1
  O  O86  1  0.607435  0.687369  0.568838  1
  O  O87  1  0.641218  0.680595  0.189663  1
  O  O88  1  0.656342  0.838287  0.879868  1
  O  O89  1  0.661713  0.843658  0.379868  1
  O  O90  1  0.663451  0.232884  0.147578  1
  O  O91  1  0.680595  0.358782  0.810337  1
  O  O92  1  0.687369  0.392565  0.431162  1
  O  O93  1  0.727603  0.004960  0.830195  1
  O  O94  1  0.732884  0.163451  0.647578  1
  O  O95  1  0.745215  0.012984  0.424156  1
  O  O96  1  0.843658  0.338287  0.620132  1
  O  O97  1  0.767116  0.663451  0.852422  1
  O  O98  1  0.772397  0.504960  0.669805  1
  O  O99  1  0.812631  0.892565  0.068838  1
  O  O100  1  0.819405  0.858782  0.689663  1
  O  O101  1  0.836549  0.732884  0.352422  1
  O  O102  1  0.838287  0.343658  0.120132  1
  O  O103  1  0.754785  0.512984  0.075844  1
