# generated using pymatgen
data_Ca2Mg5Si8(O11F)2
_symmetry_space_group_name_H-M   'P 1'
_cell_length_a   10.37304361
_cell_length_b   10.37304361
_cell_length_c   5.32796318
_cell_angle_alpha   83.13018772
_cell_angle_beta   96.86981228
_cell_angle_gamma   57.23106023
_symmetry_Int_Tables_number   1
_chemical_formula_structural   Ca2Mg5Si8(O11F)2
_chemical_formula_sum   'Ca2 Mg5 Si8 O22 F2'
_cell_volume   466.77943398
_cell_formula_units_Z   1
loop_
 _symmetry_equiv_pos_site_id
 _symmetry_equiv_pos_as_xyz
  1  'x, y, z'
loop_
 _atom_site_type_symbol
 _atom_site_label
 _atom_site_symmetry_multiplicity
 _atom_site_fract_x
 _atom_site_fract_y
 _atom_site_fract_z
 _atom_site_occupancy
  Ca  Ca0  1  0.722410  0.722410  0.500000  1
  Ca  Ca1  1  0.277590  0.277590  0.500000  1
  Mg  Mg2  1  0.911542  0.911542  0.500000  1
  Mg  Mg3  1  0.000000  0.000000  0.000000  1
  Mg  Mg4  1  0.088458  0.088458  0.500000  1
  Mg  Mg5  1  0.176734  0.176734  0.000000  1
  Mg  Mg6  1  0.823266  0.823266  0.000000  1
  Si  Si7  1  0.802139  0.364989  0.704264  1
  Si  Si8  1  0.540459  0.118074  0.196732  1
  Si  Si9  1  0.364989  0.802139  0.295736  1
  Si  Si10  1  0.881926  0.459541  0.196732  1
  Si  Si11  1  0.197861  0.635011  0.295736  1
  Si  Si12  1  0.459541  0.881926  0.803268  1
  Si  Si13  1  0.118074  0.540459  0.803268  1
  Si  Si14  1  0.635011  0.197861  0.704264  1
  O  O15  1  0.481127  0.787906  0.098664  1
  O  O16  1  0.197093  0.972656  0.217611  1
  O  O17  1  0.225112  0.536031  0.585556  1
  O  O18  1  0.774888  0.463969  0.414444  1
  O  O19  1  0.711267  0.948743  0.275889  1
  O  O20  1  0.051257  0.288733  0.275889  1
  O  O21  1  0.660025  0.339975  0.707428  1
  O  O22  1  0.536031  0.225112  0.414444  1
  O  O23  1  0.972656  0.197093  0.782389  1
  O  O24  1  0.117690  0.386433  0.792265  1
  O  O25  1  0.802907  0.027344  0.782389  1
  O  O26  1  0.518873  0.212094  0.901336  1
  O  O27  1  0.882310  0.613567  0.207735  1
  O  O28  1  0.027344  0.802907  0.217611  1
  O  O29  1  0.288733  0.051257  0.724111  1
  O  O30  1  0.613567  0.882310  0.792265  1
  O  O31  1  0.948743  0.711267  0.724111  1
  O  O32  1  0.787906  0.481127  0.901336  1
  O  O33  1  0.339975  0.660025  0.292572  1
  O  O34  1  0.386433  0.117690  0.207735  1
  O  O35  1  0.212094  0.518873  0.098664  1
  O  O36  1  0.463969  0.774888  0.585556  1
  F  F37  1  0.101172  0.898828  0.711653  1
  F  F38  1  0.898828  0.101172  0.288347  1
