# generated using pymatgen
data_Na4Ge2Te5
_symmetry_space_group_name_H-M   'P 1'
_cell_length_a   14.31725162
_cell_length_b   13.08538535
_cell_length_c   15.25556177
_cell_angle_alpha   90.00000000
_cell_angle_beta   92.74618318
_cell_angle_gamma   90.00000000
_symmetry_Int_Tables_number   1
_chemical_formula_structural   Na4Ge2Te5
_chemical_formula_sum   'Na32 Ge16 Te40'
_cell_volume   2854.79771277
_cell_formula_units_Z   8
loop_
 _symmetry_equiv_pos_site_id
 _symmetry_equiv_pos_as_xyz
  1  'x, y, z'
loop_
 _atom_site_type_symbol
 _atom_site_label
 _atom_site_symmetry_multiplicity
 _atom_site_fract_x
 _atom_site_fract_y
 _atom_site_fract_z
 _atom_site_occupancy
  Na  Na0  1  0.095097  0.379264  0.448580  1
  Na  Na1  1  0.577339  0.865398  0.927176  1
  Na  Na2  1  0.988753  0.843226  0.768729  1
  Na  Na3  1  0.284451  0.356685  0.846628  1
  Na  Na4  1  0.619712  0.365961  0.962623  1
  Na  Na5  1  0.491310  0.409679  0.227703  1
  Na  Na6  1  0.284451  0.143315  0.346628  1
  Na  Na7  1  0.577339  0.634602  0.427176  1
  Na  Na8  1  0.902288  0.379081  0.060365  1
  Na  Na9  1  0.202430  0.907424  0.140658  1
  Na  Na10  1  0.715549  0.643315  0.153372  1
  Na  Na11  1  0.380288  0.865961  0.537377  1
  Na  Na12  1  0.797570  0.407424  0.359342  1
  Na  Na13  1  0.988753  0.656774  0.268729  1
  Na  Na14  1  0.619712  0.134039  0.462623  1
  Na  Na15  1  0.904903  0.620736  0.551420  1
  Na  Na16  1  0.797570  0.092576  0.859342  1
  Na  Na17  1  0.422661  0.365398  0.572824  1
  Na  Na18  1  0.715549  0.856685  0.653372  1
  Na  Na19  1  0.202430  0.592576  0.640658  1
  Na  Na20  1  0.011247  0.156774  0.231271  1
  Na  Na21  1  0.904903  0.879264  0.051420  1
  Na  Na22  1  0.011247  0.343226  0.731271  1
  Na  Na23  1  0.491310  0.090321  0.727703  1
  Na  Na24  1  0.097712  0.620919  0.939635  1
  Na  Na25  1  0.095097  0.120736  0.948580  1
  Na  Na26  1  0.508690  0.909679  0.272297  1
  Na  Na27  1  0.902288  0.120919  0.560365  1
  Na  Na28  1  0.508690  0.590321  0.772297  1
  Na  Na29  1  0.422661  0.134602  0.072824  1
  Na  Na30  1  0.097712  0.879081  0.439635  1
  Na  Na31  1  0.380288  0.634039  0.037377  1
  Ge  Ge32  1  0.320694  0.696835  0.285649  1
  Ge  Ge33  1  0.220780  0.336546  0.081742  1
  Ge  Ge34  1  0.220780  0.163454  0.581742  1
  Ge  Ge35  1  0.719925  0.409499  0.586048  1
  Ge  Ge36  1  0.174033  0.442017  0.209613  1
  Ge  Ge37  1  0.825967  0.557983  0.790387  1
  Ge  Ge38  1  0.825967  0.942017  0.290387  1
  Ge  Ge39  1  0.679306  0.303165  0.714351  1
  Ge  Ge40  1  0.679306  0.196835  0.214351  1
  Ge  Ge41  1  0.779220  0.836546  0.418258  1
  Ge  Ge42  1  0.280075  0.590501  0.413952  1
  Ge  Ge43  1  0.719925  0.090501  0.086048  1
  Ge  Ge44  1  0.174033  0.057983  0.709613  1
  Ge  Ge45  1  0.280075  0.909499  0.913952  1
  Ge  Ge46  1  0.320694  0.803165  0.785649  1
  Ge  Ge47  1  0.779220  0.663454  0.918258  1
  Te  Te48  1  0.212619  0.348115  0.645512  1
  Te  Te49  1  0.995969  0.595740  0.750827  1
  Te  Te50  1  0.702382  0.904283  0.157481  1
  Te  Te51  1  0.902777  0.870332  0.544956  1
  Te  Te52  1  0.612671  0.884038  0.464948  1
  Te  Te53  1  0.387329  0.384038  0.035052  1
  Te  Te54  1  0.513641  0.338875  0.766942  1
  Te  Te55  1  0.188878  0.638896  0.163843  1
  Te  Te56  1  0.294400  0.884618  0.333620  1
  Te  Te57  1  0.297618  0.095717  0.842519  1
  Te  Te58  1  0.811122  0.138896  0.336157  1
  Te  Te59  1  0.004031  0.404260  0.249173  1
  Te  Te60  1  0.995969  0.904260  0.250827  1
  Te  Te61  1  0.486359  0.661125  0.233058  1
  Te  Te62  1  0.602999  0.380240  0.455115  1
  Te  Te63  1  0.188878  0.861104  0.663843  1
  Te  Te64  1  0.787381  0.651885  0.354488  1
  Te  Te65  1  0.004031  0.095740  0.749173  1
  Te  Te66  1  0.397001  0.880240  0.044885  1
  Te  Te67  1  0.397001  0.619760  0.544885  1
  Te  Te68  1  0.811122  0.361104  0.836157  1
  Te  Te69  1  0.513641  0.161125  0.266942  1
  Te  Te70  1  0.387329  0.115962  0.535052  1
  Te  Te71  1  0.705600  0.115382  0.666380  1
  Te  Te72  1  0.486359  0.838875  0.733058  1
  Te  Te73  1  0.212619  0.151885  0.145512  1
  Te  Te74  1  0.097223  0.370332  0.955044  1
  Te  Te75  1  0.294400  0.615382  0.833620  1
  Te  Te76  1  0.109636  0.629446  0.452933  1
  Te  Te77  1  0.097223  0.129668  0.455044  1
  Te  Te78  1  0.890364  0.370554  0.547067  1
  Te  Te79  1  0.109636  0.870554  0.952933  1
  Te  Te80  1  0.787381  0.848115  0.854488  1
  Te  Te81  1  0.602999  0.119760  0.955115  1
  Te  Te82  1  0.705600  0.384618  0.166380  1
  Te  Te83  1  0.612671  0.615962  0.964948  1
  Te  Te84  1  0.890364  0.129446  0.047067  1
  Te  Te85  1  0.702382  0.595717  0.657481  1
  Te  Te86  1  0.297618  0.404283  0.342519  1
  Te  Te87  1  0.902777  0.629668  0.044956  1
