# generated using pymatgen
data_Y3GaO6
_symmetry_space_group_name_H-M   'P 1'
_cell_length_a   7.16708743
_cell_length_b   7.16708743
_cell_length_c   5.45711244
_cell_angle_alpha   90.00000000
_cell_angle_beta   90.00000000
_cell_angle_gamma   102.88228375
_symmetry_Int_Tables_number   1
_chemical_formula_structural   Y3GaO6
_chemical_formula_sum   'Y6 Ga2 O12'
_cell_volume   273.26075994
_cell_formula_units_Z   2
loop_
 _symmetry_equiv_pos_site_id
 _symmetry_equiv_pos_as_xyz
  1  'x, y, z'
loop_
 _atom_site_type_symbol
 _atom_site_label
 _atom_site_symmetry_multiplicity
 _atom_site_fract_x
 _atom_site_fract_y
 _atom_site_fract_z
 _atom_site_occupancy
  Y  Y0  1  0.088222  0.298468  0.468469  1
  Y  Y1  1  0.701532  0.911778  0.468469  1
  Y  Y2  1  0.398011  0.601989  0.922182  1
  Y  Y3  1  0.601989  0.398011  0.422182  1
  Y  Y4  1  0.911778  0.701532  0.968469  1
  Y  Y5  1  0.298468  0.088222  0.968469  1
  Ga  Ga6  1  0.194515  0.805485  0.499036  1
  Ga  Ga7  1  0.805485  0.194515  0.999036  1
  O  O8  1  0.323167  0.356294  0.196938  1
  O  O9  1  0.785149  0.214851  0.661362  1
  O  O10  1  0.577605  0.106840  0.178217  1
  O  O11  1  0.676833  0.643706  0.696938  1
  O  O12  1  0.422395  0.893160  0.678217  1
  O  O13  1  0.356294  0.323167  0.696938  1
  O  O14  1  0.893160  0.422395  0.178217  1
  O  O15  1  0.959642  0.040358  0.139390  1
  O  O16  1  0.106840  0.577605  0.678217  1
  O  O17  1  0.040358  0.959642  0.639390  1
  O  O18  1  0.643706  0.676833  0.196938  1
  O  O19  1  0.214851  0.785149  0.161362  1
