# generated using pymatgen
data_K4Ba(VS4)2
_symmetry_space_group_name_H-M   'P 1'
_cell_length_a   11.52454079
_cell_length_b   11.52454079
_cell_length_c   11.52454079
_cell_angle_alpha   133.52433767
_cell_angle_beta   128.39767565
_cell_angle_gamma   71.95411039
_symmetry_Int_Tables_number   1
_chemical_formula_structural   K4Ba(VS4)2
_chemical_formula_sum   'K8 Ba2 V4 S16'
_cell_volume   850.85116763
_cell_formula_units_Z   2
loop_
 _symmetry_equiv_pos_site_id
 _symmetry_equiv_pos_as_xyz
  1  'x, y, z'
loop_
 _atom_site_type_symbol
 _atom_site_label
 _atom_site_symmetry_multiplicity
 _atom_site_fract_x
 _atom_site_fract_y
 _atom_site_fract_z
 _atom_site_occupancy
  K  K0  1  0.498514  0.248514  0.250000  1
  K  K1  1  0.001486  0.751486  0.250000  1
  K  K2  1  0.577142  0.703092  0.125950  1
  K  K3  1  0.422858  0.296908  0.874050  1
  K  K4  1  0.501486  0.751486  0.750000  1
  K  K5  1  0.077142  0.451192  0.374050  1
  K  K6  1  0.922858  0.548808  0.625950  1
  K  K7  1  0.998514  0.248514  0.750000  1
  Ba  Ba8  1  0.250000  0.000000  0.250000  1
  Ba  Ba9  1  0.750000  1.000000  0.750000  1
  V  V10  1  0.134045  0.925463  0.791418  1
  V  V11  1  0.865955  0.074537  0.208582  1
  V  V12  1  0.365955  0.657373  0.291418  1
  V  V13  1  0.634045  0.342627  0.708582  1
  S  S14  1  0.587530  0.603781  0.368101  1
  S  S15  1  0.751375  0.983502  0.232127  1
  S  S16  1  0.892384  0.868476  0.976092  1
  S  S17  1  0.764320  0.396219  0.983749  1
  S  S18  1  0.735680  0.219429  0.131899  1
  S  S19  1  0.748625  0.480752  0.732127  1
  S  S20  1  0.248625  0.016498  0.767873  1
  S  S21  1  0.235680  0.603781  0.016251  1
  S  S22  1  0.251375  0.519248  0.267873  1
  S  S23  1  0.264320  0.780571  0.868101  1
  S  S24  1  0.107616  0.131524  0.023908  1
  S  S25  1  0.912470  0.780571  0.516251  1
  S  S26  1  0.087530  0.219429  0.483749  1
  S  S27  1  0.607616  0.083708  0.476092  1
  S  S28  1  0.412470  0.396219  0.631899  1
  S  S29  1  0.392384  0.916292  0.523908  1
