# generated using pymatgen
data_Cs2Ca2Be3F12
_symmetry_space_group_name_H-M   'P 1'
_cell_length_a   10.81764582
_cell_length_b   10.81764582
_cell_length_c   10.81764582
_cell_angle_alpha   90.00000000
_cell_angle_beta   90.00000000
_cell_angle_gamma   90.00000000
_symmetry_Int_Tables_number   1
_chemical_formula_structural   Cs2Ca2Be3F12
_chemical_formula_sum   'Cs8 Ca8 Be12 F48'
_cell_volume   1265.89671938
_cell_formula_units_Z   4
loop_
 _symmetry_equiv_pos_site_id
 _symmetry_equiv_pos_as_xyz
  1  'x, y, z'
loop_
 _atom_site_type_symbol
 _atom_site_label
 _atom_site_symmetry_multiplicity
 _atom_site_fract_x
 _atom_site_fract_y
 _atom_site_fract_z
 _atom_site_occupancy
  Cs  Cs0  1  0.935324  0.564676  0.435324  1
  Cs  Cs1  1  0.435324  0.935324  0.564676  1
  Cs  Cs2  1  0.564676  0.435324  0.935324  1
  Cs  Cs3  1  0.203059  0.703059  0.796941  1
  Cs  Cs4  1  0.796941  0.203059  0.703059  1
  Cs  Cs5  1  0.296941  0.296941  0.296941  1
  Cs  Cs6  1  0.703059  0.796941  0.203059  1
  Cs  Cs7  1  0.064676  0.064676  0.064676  1
  Ca  Ca8  1  0.917653  0.417653  0.082347  1
  Ca  Ca9  1  0.582347  0.582347  0.582347  1
  Ca  Ca10  1  0.082347  0.917653  0.417653  1
  Ca  Ca11  1  0.344725  0.655275  0.155275  1
  Ca  Ca12  1  0.655275  0.155275  0.344725  1
  Ca  Ca13  1  0.155275  0.344725  0.655275  1
  Ca  Ca14  1  0.844725  0.844725  0.844725  1
  Ca  Ca15  1  0.417653  0.082347  0.917653  1
  Be  Be16  1  0.735906  0.125238  0.031799  1
  Be  Be17  1  0.468201  0.264094  0.625238  1
  Be  Be18  1  0.531799  0.764094  0.874762  1
  Be  Be19  1  0.235906  0.374762  0.968201  1
  Be  Be20  1  0.968201  0.235906  0.374762  1
  Be  Be21  1  0.031799  0.735906  0.125238  1
  Be  Be22  1  0.874762  0.531799  0.764094  1
  Be  Be23  1  0.264094  0.625238  0.468201  1
  Be  Be24  1  0.374762  0.968201  0.235906  1
  Be  Be25  1  0.764094  0.874762  0.531799  1
  Be  Be26  1  0.625238  0.468201  0.264094  1
  Be  Be27  1  0.125238  0.031799  0.735906  1
  F  F28  1  0.486470  0.187207  0.747338  1
  F  F29  1  0.830574  0.244654  0.418792  1
  F  F30  1  0.187207  0.747338  0.486470  1
  F  F31  1  0.581208  0.330574  0.255346  1
  F  F32  1  0.986470  0.312793  0.252662  1
  F  F33  1  0.705678  0.975987  0.445109  1
  F  F34  1  0.755346  0.918792  0.669426  1
  F  F35  1  0.554891  0.205678  0.524013  1
  F  F36  1  0.995105  0.599022  0.150285  1
  F  F37  1  0.205678  0.524013  0.554891  1
  F  F38  1  0.244654  0.418792  0.830574  1
  F  F39  1  0.918792  0.669426  0.755346  1
  F  F40  1  0.975987  0.445109  0.705678  1
  F  F41  1  0.312793  0.252662  0.986470  1
  F  F42  1  0.349715  0.004895  0.099022  1
  F  F43  1  0.294322  0.475987  0.054891  1
  F  F44  1  0.475987  0.054891  0.294322  1
  F  F45  1  0.004895  0.099022  0.349715  1
  F  F46  1  0.252662  0.986470  0.312793  1
  F  F47  1  0.747338  0.486470  0.187207  1
  F  F48  1  0.013530  0.812793  0.247338  1
  F  F49  1  0.495105  0.900978  0.849715  1
  F  F50  1  0.669426  0.755346  0.918792  1
  F  F51  1  0.099022  0.349715  0.004895  1
  F  F52  1  0.400978  0.650285  0.504895  1
  F  F53  1  0.255346  0.581208  0.330574  1
  F  F54  1  0.081208  0.169426  0.744654  1
  F  F55  1  0.054891  0.294322  0.475987  1
  F  F56  1  0.849715  0.495105  0.900978  1
  F  F57  1  0.794322  0.024013  0.945109  1
  F  F58  1  0.445109  0.705678  0.975987  1
  F  F59  1  0.599022  0.150285  0.995105  1
  F  F60  1  0.524013  0.554891  0.205678  1
  F  F61  1  0.504895  0.400978  0.650285  1
  F  F62  1  0.150285  0.995105  0.599022  1
  F  F63  1  0.687207  0.752662  0.513530  1
  F  F64  1  0.330574  0.255346  0.581208  1
  F  F65  1  0.024013  0.945109  0.794322  1
  F  F66  1  0.900978  0.849715  0.495105  1
  F  F67  1  0.812793  0.247338  0.013530  1
  F  F68  1  0.744654  0.081208  0.169426  1
  F  F69  1  0.418792  0.830574  0.244654  1
  F  F70  1  0.752662  0.513530  0.687207  1
  F  F71  1  0.247338  0.013530  0.812793  1
  F  F72  1  0.169426  0.744654  0.081208  1
  F  F73  1  0.945109  0.794322  0.024013  1
  F  F74  1  0.650285  0.504895  0.400978  1
  F  F75  1  0.513530  0.687207  0.752662  1
