# generated using pymatgen
data_Na4MoS3O14
_symmetry_space_group_name_H-M   'P 1'
_cell_length_a   8.62643229
_cell_length_b   9.47054839
_cell_length_c   15.34929853
_cell_angle_alpha   90.00000000
_cell_angle_beta   90.00000000
_cell_angle_gamma   90.00000000
_symmetry_Int_Tables_number   1
_chemical_formula_structural   Na4MoS3O14
_chemical_formula_sum   'Na16 Mo4 S12 O56'
_cell_volume   1253.99232406
_cell_formula_units_Z   4
loop_
 _symmetry_equiv_pos_site_id
 _symmetry_equiv_pos_as_xyz
  1  'x, y, z'
loop_
 _atom_site_type_symbol
 _atom_site_label
 _atom_site_symmetry_multiplicity
 _atom_site_fract_x
 _atom_site_fract_y
 _atom_site_fract_z
 _atom_site_occupancy
  Na  Na0  1  0.805672  0.759917  0.317380  1
  Na  Na1  1  0.199941  0.580379  0.338300  1
  Na  Na2  1  0.432147  0.965862  0.287756  1
  Na  Na3  1  0.829989  0.486031  0.969364  1
  Na  Na4  1  0.329989  0.013969  0.030636  1
  Na  Na5  1  0.194328  0.259917  0.182620  1
  Na  Na6  1  0.800059  0.080379  0.161700  1
  Na  Na7  1  0.067853  0.034138  0.787756  1
  Na  Na8  1  0.305672  0.740083  0.682620  1
  Na  Na9  1  0.699941  0.919621  0.661700  1
  Na  Na10  1  0.567853  0.465862  0.212244  1
  Na  Na11  1  0.932147  0.534138  0.712244  1
  Na  Na12  1  0.170011  0.986031  0.530636  1
  Na  Na13  1  0.300059  0.419621  0.838300  1
  Na  Na14  1  0.670011  0.513969  0.469364  1
  Na  Na15  1  0.694328  0.240083  0.817380  1
  Mo  Mo16  1  0.725773  0.891539  0.926872  1
  Mo  Mo17  1  0.774227  0.108461  0.426872  1
  Mo  Mo18  1  0.225773  0.608461  0.073128  1
  Mo  Mo19  1  0.274227  0.391539  0.573128  1
  S  S20  1  0.421872  0.297059  0.381539  1
  S  S21  1  0.578128  0.797059  0.118461  1
  S  S22  1  0.372945  0.123240  0.703808  1
  S  S23  1  0.472039  0.356531  0.015639  1
  S  S24  1  0.972039  0.143469  0.984361  1
  S  S25  1  0.127055  0.876760  0.203808  1
  S  S26  1  0.627055  0.623240  0.796192  1
  S  S27  1  0.027961  0.643469  0.515639  1
  S  S28  1  0.921872  0.202941  0.618461  1
  S  S29  1  0.872945  0.376760  0.296192  1
  S  S30  1  0.527961  0.856531  0.484361  1
  S  S31  1  0.078128  0.702941  0.881539  1
  O  O32  1  0.498404  0.796767  0.570731  1
  O  O33  1  0.704733  0.778480  0.050911  1
  O  O34  1  0.393575  0.257124  0.074960  1
  O  O35  1  0.426919  0.758721  0.075402  1
  O  O36  1  0.703434  0.030449  0.331457  1
  O  O37  1  0.052822  0.520759  0.056538  1
  O  O38  1  0.881612  0.278860  0.377332  1
  O  O39  1  0.645462  0.980655  0.504720  1
  O  O40  1  0.145462  0.519345  0.495280  1
  O  O41  1  0.568867  0.947151  0.145050  1
  O  O42  1  0.431133  0.447151  0.354950  1
  O  O43  1  0.501596  0.296767  0.929269  1
  O  O44  1  0.464976  0.594541  0.772705  1
  O  O45  1  0.926919  0.741279  0.924598  1
  O  O46  1  0.073081  0.241279  0.575402  1
  O  O47  1  0.109458  0.079616  0.943465  1
  O  O48  1  0.786546  0.301887  0.227799  1
  O  O49  1  0.947178  0.020759  0.443462  1
  O  O50  1  0.204733  0.721520  0.949089  1
  O  O51  1  0.618388  0.721140  0.877332  1
  O  O52  1  0.893575  0.242876  0.925040  1
  O  O53  1  0.106425  0.742876  0.574960  1
  O  O54  1  0.964976  0.905459  0.227295  1
  O  O55  1  0.354538  0.480655  0.995280  1
  O  O56  1  0.890542  0.579616  0.556535  1
  O  O57  1  0.296566  0.530449  0.168543  1
  O  O58  1  0.606425  0.757124  0.425040  1
  O  O59  1  0.609458  0.420384  0.056535  1
  O  O60  1  0.203434  0.469551  0.668543  1
  O  O61  1  0.289585  0.994574  0.676427  1
  O  O62  1  0.118388  0.778860  0.122668  1
  O  O63  1  0.931133  0.052849  0.645050  1
  O  O64  1  0.112535  0.793985  0.806473  1
  O  O65  1  0.796566  0.969551  0.831457  1
  O  O66  1  0.447178  0.479241  0.556538  1
  O  O67  1  0.998404  0.703233  0.429269  1
  O  O68  1  0.710415  0.494574  0.823573  1
  O  O69  1  0.068867  0.552849  0.854950  1
  O  O70  1  0.854538  0.019345  0.004720  1
  O  O71  1  0.390542  0.920384  0.443465  1
  O  O72  1  0.387465  0.206015  0.306473  1
  O  O73  1  0.035024  0.405459  0.272705  1
  O  O74  1  0.887465  0.293985  0.693527  1
  O  O75  1  0.535024  0.094541  0.727295  1
  O  O76  1  0.381612  0.221140  0.622668  1
  O  O77  1  0.295267  0.278480  0.449089  1
  O  O78  1  0.001596  0.203233  0.070731  1
  O  O79  1  0.286546  0.198113  0.772201  1
  O  O80  1  0.612535  0.706015  0.193527  1
  O  O81  1  0.552822  0.979241  0.943462  1
  O  O82  1  0.789585  0.505426  0.323573  1
  O  O83  1  0.210415  0.005426  0.176427  1
  O  O84  1  0.795267  0.221520  0.550911  1
  O  O85  1  0.213454  0.801887  0.272201  1
  O  O86  1  0.573081  0.258721  0.424598  1
  O  O87  1  0.713454  0.698113  0.727799  1
