# generated using pymatgen
data_S
_symmetry_space_group_name_H-M   'P 1'
_cell_length_a   11.85470299
_cell_length_b   11.85470299
_cell_length_c   9.65966852
_cell_angle_alpha   78.83428894
_cell_angle_beta   101.16571106
_cell_angle_gamma   129.73798874
_symmetry_Int_Tables_number   1
_chemical_formula_structural   S
_chemical_formula_sum   S32
_cell_volume   1019.73459958
_cell_formula_units_Z   32
loop_
 _symmetry_equiv_pos_site_id
 _symmetry_equiv_pos_as_xyz
  1  'x, y, z'
loop_
 _atom_site_type_symbol
 _atom_site_label
 _atom_site_symmetry_multiplicity
 _atom_site_fract_x
 _atom_site_fract_y
 _atom_site_fract_z
 _atom_site_occupancy
  S  S0  1  0.118012  0.534481  0.861462  1
  S  S1  1  0.488889  0.915644  0.692804  1
  S  S2  1  0.363732  0.257921  0.957486  1
  S  S3  1  0.309290  0.061520  0.922048  1
  S  S4  1  0.159861  0.967482  0.748690  1
  S  S5  1  0.863994  0.953595  0.686487  1
  S  S6  1  0.061520  0.309290  0.577952  1
  S  S7  1  0.136006  0.046405  0.313513  1
  S  S8  1  0.032518  0.840139  0.248690  1
  S  S9  1  0.938480  0.690710  0.422048  1
  S  S10  1  0.840139  0.032518  0.251310  1
  S  S11  1  0.534481  0.118012  0.638538  1
  S  S12  1  0.915644  0.488889  0.807196  1
  S  S13  1  0.663091  0.207536  0.470550  1
  S  S14  1  0.881988  0.465519  0.138538  1
  S  S15  1  0.690710  0.938480  0.077952  1
  S  S16  1  0.207536  0.663091  0.029450  1
  S  S17  1  0.465519  0.881988  0.361462  1
  S  S18  1  0.967482  0.159861  0.751310  1
  S  S19  1  0.511111  0.084356  0.307196  1
  S  S20  1  0.581941  0.490655  0.309514  1
  S  S21  1  0.046405  0.136006  0.186487  1
  S  S22  1  0.792464  0.336909  0.970550  1
  S  S23  1  0.953595  0.863994  0.813513  1
  S  S24  1  0.418059  0.509345  0.690486  1
  S  S25  1  0.084356  0.511111  0.192804  1
  S  S26  1  0.742079  0.636268  0.457486  1
  S  S27  1  0.490655  0.581941  0.190486  1
  S  S28  1  0.336909  0.792464  0.529450  1
  S  S29  1  0.257921  0.363732  0.542514  1
  S  S30  1  0.636268  0.742079  0.042514  1
  S  S31  1  0.509345  0.418059  0.809514  1
