# generated using pymatgen
data_SnP2(Cl5O)2
_symmetry_space_group_name_H-M   'P 1'
_cell_length_a   8.29107060
_cell_length_b   14.95523850
_cell_length_c   15.06508043
_cell_angle_alpha   90.00000000
_cell_angle_beta   90.00000000
_cell_angle_gamma   90.00000000
_symmetry_Int_Tables_number   1
_chemical_formula_structural   SnP2(Cl5O)2
_chemical_formula_sum   'Sn4 P8 Cl40 O8'
_cell_volume   1867.99371755
_cell_formula_units_Z   4
loop_
 _symmetry_equiv_pos_site_id
 _symmetry_equiv_pos_as_xyz
  1  'x, y, z'
loop_
 _atom_site_type_symbol
 _atom_site_label
 _atom_site_symmetry_multiplicity
 _atom_site_fract_x
 _atom_site_fract_y
 _atom_site_fract_z
 _atom_site_occupancy
  Sn  Sn0  1  0.500000  0.254468  0.657269  1
  Sn  Sn1  1  0.500000  0.745532  0.342731  1
  Sn  Sn2  1  0.000000  0.754468  0.842731  1
  Sn  Sn3  1  0.000000  0.245532  0.157269  1
  P  P4  1  0.500000  0.413948  0.843660  1
  P  P5  1  0.000000  0.607447  0.641224  1
  P  P6  1  0.000000  0.086052  0.343660  1
  P  P7  1  0.500000  0.107447  0.858776  1
  P  P8  1  0.000000  0.913948  0.656340  1
  P  P9  1  0.500000  0.892553  0.141224  1
  P  P10  1  0.500000  0.586052  0.156340  1
  P  P11  1  0.000000  0.392553  0.358776  1
  Cl  Cl12  1  0.691445  0.624259  0.086367  1
  Cl  Cl13  1  0.000000  0.046785  0.651715  1
  Cl  Cl14  1  0.282544  0.760573  0.815615  1
  Cl  Cl15  1  0.000000  0.953215  0.348285  1
  Cl  Cl16  1  0.500000  0.109592  0.589175  1
  Cl  Cl17  1  0.282544  0.239427  0.184385  1
  Cl  Cl18  1  0.500000  0.890408  0.410825  1
  Cl  Cl19  1  0.690705  0.971818  0.156160  1
  Cl  Cl20  1  0.690705  0.028182  0.843840  1
  Cl  Cl21  1  0.309295  0.971818  0.156160  1
  Cl  Cl22  1  0.217456  0.739427  0.315615  1
  Cl  Cl23  1  0.000000  0.609592  0.910825  1
  Cl  Cl24  1  0.308555  0.624259  0.086367  1
  Cl  Cl25  1  0.000000  0.851998  0.967889  1
  Cl  Cl26  1  0.782544  0.260573  0.684385  1
  Cl  Cl27  1  0.808555  0.124259  0.413633  1
  Cl  Cl28  1  0.500000  0.856479  0.014311  1
  Cl  Cl29  1  0.808555  0.875741  0.586367  1
  Cl  Cl30  1  0.500000  0.546785  0.848285  1
  Cl  Cl31  1  0.717456  0.760573  0.815615  1
  Cl  Cl32  1  0.000000  0.390408  0.089175  1
  Cl  Cl33  1  0.500000  0.143521  0.985689  1
  Cl  Cl34  1  0.217456  0.260573  0.684385  1
  Cl  Cl35  1  0.190705  0.528182  0.656160  1
  Cl  Cl36  1  0.000000  0.356479  0.485689  1
  Cl  Cl37  1  0.500000  0.351998  0.532111  1
  Cl  Cl38  1  0.691445  0.375741  0.913633  1
  Cl  Cl39  1  0.500000  0.648002  0.467889  1
  Cl  Cl40  1  0.191445  0.124259  0.413633  1
  Cl  Cl41  1  0.782544  0.739427  0.315615  1
  Cl  Cl42  1  0.308555  0.375741  0.913633  1
  Cl  Cl43  1  0.000000  0.148002  0.032111  1
  Cl  Cl44  1  0.809295  0.528182  0.656160  1
  Cl  Cl45  1  0.309295  0.028182  0.843840  1
  Cl  Cl46  1  0.191445  0.875741  0.586367  1
  Cl  Cl47  1  0.190705  0.471818  0.343840  1
  Cl  Cl48  1  0.809295  0.471818  0.343840  1
  Cl  Cl49  1  0.000000  0.643521  0.514311  1
  Cl  Cl50  1  0.500000  0.453215  0.151715  1
  Cl  Cl51  1  0.717456  0.239427  0.184385  1
  O  O52  1  0.000000  0.882058  0.750021  1
  O  O53  1  0.000000  0.686911  0.700344  1
  O  O54  1  0.000000  0.117942  0.249979  1
  O  O55  1  0.500000  0.813089  0.200344  1
  O  O56  1  0.000000  0.313089  0.299656  1
  O  O57  1  0.500000  0.617942  0.250021  1
  O  O58  1  0.500000  0.186911  0.799656  1
  O  O59  1  0.500000  0.382058  0.749979  1
