# generated using pymatgen
data_Cs4P2Se9
_symmetry_space_group_name_H-M   'P 1'
_cell_length_a   7.55844755
_cell_length_b   7.55844755
_cell_length_c   20.12257598
_cell_angle_alpha   87.34008568
_cell_angle_beta   92.65991432
_cell_angle_gamma   87.21444012
_symmetry_Int_Tables_number   1
_chemical_formula_structural   Cs4P2Se9
_chemical_formula_sum   'Cs8 P4 Se18'
_cell_volume   1145.64480715
_cell_formula_units_Z   2
loop_
 _symmetry_equiv_pos_site_id
 _symmetry_equiv_pos_as_xyz
  1  'x, y, z'
loop_
 _atom_site_type_symbol
 _atom_site_label
 _atom_site_symmetry_multiplicity
 _atom_site_fract_x
 _atom_site_fract_y
 _atom_site_fract_z
 _atom_site_occupancy
  Cs  Cs0  1  0.716929  0.784127  0.525307  1
  Cs  Cs1  1  0.283071  0.215873  0.474693  1
  Cs  Cs2  1  0.784127  0.716929  0.974693  1
  Cs  Cs3  1  0.563092  0.243267  0.825574  1
  Cs  Cs4  1  0.243267  0.563092  0.674426  1
  Cs  Cs5  1  0.756733  0.436908  0.325574  1
  Cs  Cs6  1  0.215873  0.283071  0.025307  1
  Cs  Cs7  1  0.436908  0.756733  0.174426  1
  P  P8  1  0.732097  0.253047  0.623229  1
  P  P9  1  0.253047  0.732097  0.876771  1
  P  P10  1  0.746953  0.267903  0.123229  1
  P  P11  1  0.267903  0.746953  0.376771  1
  Se  Se12  1  0.111917  0.494130  0.855420  1
  Se  Se13  1  0.888083  0.505870  0.144580  1
  Se  Se14  1  0.508300  0.248289  0.179639  1
  Se  Se15  1  0.505870  0.888083  0.355420  1
  Se  Se16  1  0.751711  0.491700  0.679639  1
  Se  Se17  1  0.494130  0.111917  0.644580  1
  Se  Se18  1  0.248289  0.508300  0.320361  1
  Se  Se19  1  0.015332  0.939864  0.349424  1
  Se  Se20  1  0.281596  0.791231  0.983196  1
  Se  Se21  1  0.984668  0.060136  0.650576  1
  Se  Se22  1  0.791231  0.281596  0.516804  1
  Se  Se23  1  0.939864  0.015332  0.150576  1
  Se  Se24  1  0.491700  0.751711  0.820361  1
  Se  Se25  1  0.718404  0.208769  0.016804  1
  Se  Se26  1  0.060136  0.984668  0.849424  1
  Se  Se27  1  0.906026  0.906026  0.750000  1
  Se  Se28  1  0.208769  0.718404  0.483196  1
  Se  Se29  1  0.093974  0.093974  0.250000  1
