# generated using pymatgen
data_Cd2SnO4
_symmetry_space_group_name_H-M   'P 1'
_cell_length_a   3.24936856
_cell_length_b   5.66476881
_cell_length_c   10.12710303
_cell_angle_alpha   90.00000000
_cell_angle_beta   90.00000000
_cell_angle_gamma   90.00000000
_symmetry_Int_Tables_number   1
_chemical_formula_structural   Cd2SnO4
_chemical_formula_sum   'Cd4 Sn2 O8'
_cell_volume   186.40879223
_cell_formula_units_Z   2
loop_
 _symmetry_equiv_pos_site_id
 _symmetry_equiv_pos_as_xyz
  1  'x, y, z'
loop_
 _atom_site_type_symbol
 _atom_site_label
 _atom_site_symmetry_multiplicity
 _atom_site_fract_x
 _atom_site_fract_y
 _atom_site_fract_z
 _atom_site_occupancy
  Cd  Cd0  1  0.500000  0.059658  0.323797  1
  Cd  Cd1  1  0.500000  0.940342  0.676203  1
  Cd  Cd2  1  0.500000  0.440342  0.823797  1
  Cd  Cd3  1  0.500000  0.559658  0.176203  1
  Sn  Sn4  1  0.000000  0.000000  0.000000  1
  Sn  Sn5  1  0.000000  0.500000  0.500000  1
  O  O6  1  0.000000  0.134278  0.808346  1
  O  O7  1  0.000000  0.865722  0.191654  1
  O  O8  1  0.000000  0.634278  0.691654  1
  O  O9  1  0.000000  0.365722  0.308346  1
  O  O10  1  0.500000  0.264668  0.538979  1
  O  O11  1  0.500000  0.735332  0.461021  1
  O  O12  1  0.500000  0.235332  0.038979  1
  O  O13  1  0.500000  0.764668  0.961021  1
