# generated using pymatgen
data_Tb3CuGeS7
_symmetry_space_group_name_H-M   'P 1'
_cell_length_a   9.90966300
_cell_length_b   9.90966300
_cell_length_c   5.84075660
_cell_angle_alpha   90.00000000
_cell_angle_beta   90.00000000
_cell_angle_gamma   120.00000000
_symmetry_Int_Tables_number   1
_chemical_formula_structural   Tb3CuGeS7
_chemical_formula_sum   'Tb6 Cu2 Ge2 S14'
_cell_volume   496.72670770
_cell_formula_units_Z   2
loop_
 _symmetry_equiv_pos_site_id
 _symmetry_equiv_pos_as_xyz
  1  'x, y, z'
loop_
 _atom_site_type_symbol
 _atom_site_label
 _atom_site_symmetry_multiplicity
 _atom_site_fract_x
 _atom_site_fract_y
 _atom_site_fract_z
 _atom_site_occupancy
  Tb  Tb0  1  0.132780  0.775557  0.755271  1
  Tb  Tb1  1  0.224443  0.357223  0.755271  1
  Tb  Tb2  1  0.775557  0.642777  0.255271  1
  Tb  Tb3  1  0.642777  0.867220  0.755271  1
  Tb  Tb4  1  0.357223  0.132780  0.255271  1
  Tb  Tb5  1  0.867220  0.224443  0.255271  1
  Cu  Cu6  1  0.000000  0.000000  0.687560  1
  Cu  Cu7  1  0.000000  0.000000  0.187560  1
  Ge  Ge8  1  0.666667  0.333333  0.835863  1
  Ge  Ge9  1  0.333333  0.666667  0.335863  1
  S  S10  1  0.901437  0.480483  0.997343  1
  S  S11  1  0.333333  0.666667  0.958063  1
  S  S12  1  0.159582  0.258422  0.216325  1
  S  S13  1  0.480483  0.579047  0.497343  1
  S  S14  1  0.098563  0.519517  0.497343  1
  S  S15  1  0.258422  0.098840  0.716325  1
  S  S16  1  0.420953  0.901437  0.497343  1
  S  S17  1  0.901160  0.159582  0.716325  1
  S  S18  1  0.741578  0.901160  0.216325  1
  S  S19  1  0.519517  0.420953  0.997343  1
  S  S20  1  0.098840  0.840418  0.216325  1
  S  S21  1  0.666667  0.333333  0.458063  1
  S  S22  1  0.579047  0.098563  0.997343  1
  S  S23  1  0.840418  0.741578  0.716325  1
