# generated using pymatgen
data_Sn2WO5
_symmetry_space_group_name_H-M   'P 1'
_cell_length_a   8.21719198
_cell_length_b   14.10663529
_cell_length_c   10.88744829
_cell_angle_alpha   90.00000000
_cell_angle_beta   113.65403016
_cell_angle_gamma   90.00000000
_symmetry_Int_Tables_number   1
_chemical_formula_structural   Sn2WO5
_chemical_formula_sum   'Sn16 W8 O40'
_cell_volume   1156.00906623
_cell_formula_units_Z   8
loop_
 _symmetry_equiv_pos_site_id
 _symmetry_equiv_pos_as_xyz
  1  'x, y, z'
loop_
 _atom_site_type_symbol
 _atom_site_label
 _atom_site_symmetry_multiplicity
 _atom_site_fract_x
 _atom_site_fract_y
 _atom_site_fract_z
 _atom_site_occupancy
  Sn  Sn0  1  0.912289  0.102816  0.729442  1
  Sn  Sn1  1  0.087711  0.897184  0.270558  1
  Sn  Sn2  1  0.552685  0.843772  0.616756  1
  Sn  Sn3  1  0.232773  0.652195  0.453686  1
  Sn  Sn4  1  0.552685  0.656228  0.116756  1
  Sn  Sn5  1  0.694803  0.600159  0.803181  1
  Sn  Sn6  1  0.305197  0.399841  0.196819  1
  Sn  Sn7  1  0.767227  0.347805  0.546314  1
  Sn  Sn8  1  0.912289  0.397184  0.229442  1
  Sn  Sn9  1  0.232773  0.847805  0.953686  1
  Sn  Sn10  1  0.087711  0.602816  0.770558  1
  Sn  Sn11  1  0.447315  0.156228  0.383244  1
  Sn  Sn12  1  0.767227  0.152195  0.046314  1
  Sn  Sn13  1  0.694803  0.899841  0.303181  1
  Sn  Sn14  1  0.305197  0.100159  0.696819  1
  Sn  Sn15  1  0.447315  0.343772  0.883244  1
  W  W16  1  0.276569  0.170794  0.030202  1
  W  W17  1  0.723431  0.829206  0.969798  1
  W  W18  1  0.723431  0.670794  0.469798  1
  W  W19  1  0.276569  0.329206  0.530202  1
  W  W20  1  0.941181  0.176453  0.398623  1
  W  W21  1  0.058819  0.823547  0.601377  1
  W  W22  1  0.058819  0.676453  0.101377  1
  W  W23  1  0.941181  0.323547  0.898623  1
  O  O24  1  0.193473  0.384379  0.346093  1
  O  O25  1  0.194681  0.183756  0.437937  1
  O  O26  1  0.730982  0.217185  0.421907  1
  O  O27  1  0.122278  0.743696  0.275016  1
  O  O28  1  0.122278  0.756304  0.775016  1
  O  O29  1  0.979567  0.820064  0.015246  1
  O  O30  1  0.024455  0.121874  0.580696  1
  O  O31  1  0.336163  0.259573  0.701161  1
  O  O32  1  0.806527  0.884379  0.153907  1
  O  O33  1  0.975545  0.621874  0.919304  1
  O  O34  1  0.663837  0.740427  0.298839  1
  O  O35  1  0.877722  0.256304  0.724984  1
  O  O36  1  0.877722  0.243696  0.224984  1
  O  O37  1  0.024455  0.378126  0.080696  1
  O  O38  1  0.269018  0.717185  0.078093  1
  O  O39  1  0.806527  0.615621  0.653907  1
  O  O40  1  0.485351  0.287532  0.504555  1
  O  O41  1  0.131868  0.566838  0.190915  1
  O  O42  1  0.131868  0.933162  0.690915  1
  O  O43  1  0.654311  0.937623  0.881724  1
  O  O44  1  0.805319  0.816244  0.562063  1
  O  O45  1  0.020433  0.320064  0.484754  1
  O  O46  1  0.868132  0.066838  0.309085  1
  O  O47  1  0.485351  0.212468  0.004555  1
  O  O48  1  0.975545  0.878126  0.419304  1
  O  O49  1  0.805319  0.683756  0.062063  1
  O  O50  1  0.345689  0.437623  0.618276  1
  O  O51  1  0.979567  0.679936  0.515246  1
  O  O52  1  0.514649  0.712468  0.495445  1
  O  O53  1  0.730982  0.282815  0.921907  1
  O  O54  1  0.194681  0.316244  0.937937  1
  O  O55  1  0.514649  0.787532  0.995445  1
  O  O56  1  0.868132  0.433162  0.809085  1
  O  O57  1  0.269018  0.782815  0.578093  1
  O  O58  1  0.336163  0.240427  0.201161  1
  O  O59  1  0.663837  0.759573  0.798839  1
  O  O60  1  0.654311  0.562377  0.381724  1
  O  O61  1  0.193473  0.115621  0.846093  1
  O  O62  1  0.345689  0.062377  0.118276  1
  O  O63  1  0.020433  0.179936  0.984754  1
