# generated using pymatgen
data_Cs2PSe5
_symmetry_space_group_name_H-M   'P 1'
_cell_length_a   7.61495576
_cell_length_b   7.77226748
_cell_length_c   10.45290932
_cell_angle_alpha   85.16390674
_cell_angle_beta   87.55491425
_cell_angle_gamma   85.84832893
_symmetry_Int_Tables_number   1
_chemical_formula_structural   Cs2PSe5
_chemical_formula_sum   'Cs4 P2 Se10'
_cell_volume   614.42413816
_cell_formula_units_Z   2
loop_
 _symmetry_equiv_pos_site_id
 _symmetry_equiv_pos_as_xyz
  1  'x, y, z'
loop_
 _atom_site_type_symbol
 _atom_site_label
 _atom_site_symmetry_multiplicity
 _atom_site_fract_x
 _atom_site_fract_y
 _atom_site_fract_z
 _atom_site_occupancy
  Cs  Cs0  1  0.803883  0.140490  0.633823  1
  Cs  Cs1  1  0.196117  0.859510  0.366177  1
  Cs  Cs2  1  0.221350  0.274527  0.967899  1
  Cs  Cs3  1  0.778650  0.725473  0.032101  1
  P  P4  1  0.250325  0.789274  0.777298  1
  P  P5  1  0.749675  0.210726  0.222702  1
  Se  Se6  1  0.976283  0.327879  0.291715  1
  Se  Se7  1  0.502935  0.598233  0.759090  1
  Se  Se8  1  0.303600  0.037945  0.674528  1
  Se  Se9  1  0.023717  0.672121  0.708285  1
  Se  Se10  1  0.596101  0.602274  0.542120  1
  Se  Se11  1  0.403899  0.397726  0.457880  1
  Se  Se12  1  0.271730  0.767748  0.988910  1
  Se  Se13  1  0.696400  0.962055  0.325472  1
  Se  Se14  1  0.728270  0.232252  0.011090  1
  Se  Se15  1  0.497065  0.401767  0.240910  1
