# generated using pymatgen
data_Tl3CO3F
_symmetry_space_group_name_H-M   'P 1'
_cell_length_a   7.62867139
_cell_length_b   6.24972833
_cell_length_c   7.64527257
_cell_angle_alpha   90.00000000
_cell_angle_beta   119.89191012
_cell_angle_gamma   90.00000000
_symmetry_Int_Tables_number   1
_chemical_formula_structural   Tl3CO3F
_chemical_formula_sum   'Tl6 C2 O6 F2'
_cell_volume   316.01351018
_cell_formula_units_Z   2
loop_
 _symmetry_equiv_pos_site_id
 _symmetry_equiv_pos_as_xyz
  1  'x, y, z'
loop_
 _atom_site_type_symbol
 _atom_site_label
 _atom_site_symmetry_multiplicity
 _atom_site_fract_x
 _atom_site_fract_y
 _atom_site_fract_z
 _atom_site_occupancy
  Tl  Tl0  1  0.334317  0.250000  0.583066  1
  Tl  Tl1  1  0.084541  0.750000  0.249275  1
  Tl  Tl2  1  0.665683  0.750000  0.416934  1
  Tl  Tl3  1  0.915459  0.250000  0.750725  1
  Tl  Tl4  1  0.746636  0.250000  0.166413  1
  Tl  Tl5  1  0.253364  0.750000  0.833587  1
  C  C6  1  0.328778  0.250000  0.166901  1
  C  C7  1  0.671222  0.750000  0.833099  1
  O  O8  1  0.306282  0.250000  0.986169  1
  O  O9  1  0.170293  0.250000  0.189855  1
  O  O10  1  0.509692  0.250000  0.324836  1
  O  O11  1  0.693718  0.750000  0.013831  1
  O  O12  1  0.829707  0.750000  0.810145  1
  O  O13  1  0.490308  0.750000  0.675164  1
  F  F14  1  0.000000  0.000000  0.500000  1
  F  F15  1  0.000000  0.500000  0.500000  1
