# generated using pymatgen
data_K3Bi2(PO4)3
_symmetry_space_group_name_H-M   'P 1'
_cell_length_a   9.73002174
_cell_length_b   9.73002174
_cell_length_c   6.93213825
_cell_angle_alpha   72.46930059
_cell_angle_beta   107.53069941
_cell_angle_gamma   91.18503574
_symmetry_Int_Tables_number   1
_chemical_formula_structural   K3Bi2(PO4)3
_chemical_formula_sum   'K6 Bi4 P6 O24'
_cell_volume   594.96896595
_cell_formula_units_Z   2
loop_
 _symmetry_equiv_pos_site_id
 _symmetry_equiv_pos_as_xyz
  1  'x, y, z'
loop_
 _atom_site_type_symbol
 _atom_site_label
 _atom_site_symmetry_multiplicity
 _atom_site_fract_x
 _atom_site_fract_y
 _atom_site_fract_z
 _atom_site_occupancy
  K  K0  1  0.012953  0.012953  0.250000  1
  K  K1  1  0.500000  0.500000  0.000000  1
  K  K2  1  0.987047  0.987047  0.750000  1
  K  K3  1  0.274219  0.274219  0.250000  1
  K  K4  1  0.500000  0.500000  0.500000  1
  K  K5  1  0.725781  0.725781  0.750000  1
  Bi  Bi6  1  0.614033  0.090389  0.830400  1
  Bi  Bi7  1  0.909611  0.385967  0.330400  1
  Bi  Bi8  1  0.090389  0.614033  0.669600  1
  Bi  Bi9  1  0.385967  0.909611  0.169600  1
  P  P10  1  0.347358  0.861937  0.637205  1
  P  P11  1  0.754416  0.754416  0.250000  1
  P  P12  1  0.245584  0.245584  0.750000  1
  P  P13  1  0.861937  0.347358  0.862795  1
  P  P14  1  0.652642  0.138063  0.362795  1
  P  P15  1  0.138063  0.652642  0.137205  1
  O  O16  1  0.382496  0.240977  0.681611  1
  O  O17  1  0.985703  0.334878  0.076308  1
  O  O18  1  0.890160  0.759652  0.441112  1
  O  O19  1  0.759652  0.890160  0.058888  1
  O  O20  1  0.556260  0.088609  0.171038  1
  O  O21  1  0.240348  0.109840  0.941112  1
  O  O22  1  0.156473  0.806797  0.160159  1
  O  O23  1  0.843527  0.193203  0.839841  1
  O  O24  1  0.278247  0.584797  0.132980  1
  O  O25  1  0.665122  0.014297  0.576308  1
  O  O26  1  0.415203  0.721753  0.632980  1
  O  O27  1  0.088609  0.556260  0.328962  1
  O  O28  1  0.193203  0.843527  0.660159  1
  O  O29  1  0.617504  0.759023  0.318389  1
  O  O30  1  0.334878  0.985703  0.423692  1
  O  O31  1  0.014297  0.665122  0.923692  1
  O  O32  1  0.759023  0.617504  0.181611  1
  O  O33  1  0.806797  0.156473  0.339841  1
  O  O34  1  0.443740  0.911391  0.828962  1
  O  O35  1  0.584797  0.278247  0.367020  1
  O  O36  1  0.911391  0.443740  0.671038  1
  O  O37  1  0.721753  0.415203  0.867020  1
  O  O38  1  0.240977  0.382496  0.818389  1
  O  O39  1  0.109840  0.240348  0.558888  1
