# generated using pymatgen
data_CuHgSBr
_symmetry_space_group_name_H-M   'P 1'
_cell_length_a   4.11045471
_cell_length_b   9.57892914
_cell_length_c   10.10252608
_cell_angle_alpha   90.00000000
_cell_angle_beta   90.00000000
_cell_angle_gamma   90.00000000
_symmetry_Int_Tables_number   1
_chemical_formula_structural   CuHgSBr
_chemical_formula_sum   'Cu4 Hg4 S4 Br4'
_cell_volume   397.77438070
_cell_formula_units_Z   4
loop_
 _symmetry_equiv_pos_site_id
 _symmetry_equiv_pos_as_xyz
  1  'x, y, z'
loop_
 _atom_site_type_symbol
 _atom_site_label
 _atom_site_symmetry_multiplicity
 _atom_site_fract_x
 _atom_site_fract_y
 _atom_site_fract_z
 _atom_site_occupancy
  Cu  Cu0  1  0.000000  0.207363  0.076313  1
  Cu  Cu1  1  0.000000  0.207363  0.423687  1
  Cu  Cu2  1  0.000000  0.792637  0.576313  1
  Cu  Cu3  1  0.000000  0.792637  0.923687  1
  Hg  Hg4  1  0.500000  0.779898  0.250000  1
  Hg  Hg5  1  0.500000  0.220102  0.750000  1
  Hg  Hg6  1  0.500000  0.500000  0.500000  1
  Hg  Hg7  1  0.500000  0.500000  0.000000  1
  S  S8  1  0.500000  0.245383  0.990855  1
  S  S9  1  0.500000  0.245383  0.509145  1
  S  S10  1  0.500000  0.754617  0.009145  1
  S  S11  1  0.500000  0.754617  0.490855  1
  Br  Br12  1  0.000000  0.550431  0.750000  1
  Br  Br13  1  0.000000  0.449569  0.250000  1
  Br  Br14  1  0.000000  0.971985  0.750000  1
  Br  Br15  1  0.000000  0.028015  0.250000  1
