# generated using pymatgen
data_Rb2PbO2
_symmetry_space_group_name_H-M   'P 1'
_cell_length_a   7.74360378
_cell_length_b   8.00042949
_cell_length_c   10.64833631
_cell_angle_alpha   85.19106850
_cell_angle_beta   109.69825964
_cell_angle_gamma   118.68422855
_symmetry_Int_Tables_number   1
_chemical_formula_structural   Rb2PbO2
_chemical_formula_sum   'Rb8 Pb4 O8'
_cell_volume   542.43048986
_cell_formula_units_Z   4
loop_
 _symmetry_equiv_pos_site_id
 _symmetry_equiv_pos_as_xyz
  1  'x, y, z'
loop_
 _atom_site_type_symbol
 _atom_site_label
 _atom_site_symmetry_multiplicity
 _atom_site_fract_x
 _atom_site_fract_y
 _atom_site_fract_z
 _atom_site_occupancy
  Rb  Rb0  1  0.923921  0.933292  0.176449  1
  Rb  Rb1  1  0.076079  0.066708  0.823551  1
  Rb  Rb2  1  0.761368  0.268616  0.493267  1
  Rb  Rb3  1  0.238632  0.731384  0.506733  1
  Rb  Rb4  1  0.398008  0.431653  0.141564  1
  Rb  Rb5  1  0.601992  0.568347  0.858436  1
  Rb  Rb6  1  0.935668  0.451307  0.169528  1
  Rb  Rb7  1  0.064332  0.548693  0.830472  1
  Pb  Pb8  1  0.402141  0.940592  0.125429  1
  Pb  Pb9  1  0.597859  0.059408  0.874571  1
  Pb  Pb10  1  0.305707  0.296861  0.526389  1
  Pb  Pb11  1  0.694293  0.703139  0.473611  1
  O  O12  1  0.070711  0.787192  0.022301  1
  O  O13  1  0.929289  0.212808  0.977699  1
  O  O14  1  0.503547  0.807305  0.005072  1
  O  O15  1  0.496453  0.192695  0.994928  1
  O  O16  1  0.194526  0.402270  0.644855  1
  O  O17  1  0.805474  0.597730  0.355145  1
  O  O18  1  0.657858  0.484025  0.625552  1
  O  O19  1  0.342142  0.515975  0.374448  1
