# generated using pymatgen
data_Be3P2
_symmetry_space_group_name_H-M   'P 1'
_cell_length_a   8.82735595
_cell_length_b   8.82735595
_cell_length_c   8.82735595
_cell_angle_alpha   109.47122063
_cell_angle_beta   109.47122063
_cell_angle_gamma   109.47122063
_symmetry_Int_Tables_number   1
_chemical_formula_structural   Be3P2
_chemical_formula_sum   'Be24 P16'
_cell_volume   529.50495272
_cell_formula_units_Z   8
loop_
 _symmetry_equiv_pos_site_id
 _symmetry_equiv_pos_as_xyz
  1  'x, y, z'
loop_
 _atom_site_type_symbol
 _atom_site_label
 _atom_site_symmetry_multiplicity
 _atom_site_fract_x
 _atom_site_fract_y
 _atom_site_fract_z
 _atom_site_occupancy
  Be  Be0  1  0.504718  0.248803  0.995815  1
  Be  Be1  1  0.752988  0.508903  0.504185  1
  Be  Be2  1  0.991097  0.744085  0.995282  1
  Be  Be3  1  0.747012  0.251197  0.755915  1
  Be  Be4  1  0.004718  0.008903  0.255915  1
  Be  Be5  1  0.504185  0.752988  0.508903  1
  Be  Be6  1  0.244085  0.252988  0.748803  1
  Be  Be7  1  0.491097  0.495815  0.247012  1
  Be  Be8  1  0.755915  0.747012  0.251197  1
  Be  Be9  1  0.751197  0.004185  0.495282  1
  Be  Be10  1  0.008903  0.255915  0.004718  1
  Be  Be11  1  0.004185  0.495282  0.751197  1
  Be  Be12  1  0.252988  0.748803  0.244085  1
  Be  Be13  1  0.248803  0.995815  0.504718  1
  Be  Be14  1  0.251197  0.755915  0.747012  1
  Be  Be15  1  0.748803  0.244085  0.252988  1
  Be  Be16  1  0.495282  0.751197  0.004185  1
  Be  Be17  1  0.744085  0.995282  0.991097  1
  Be  Be18  1  0.995282  0.991097  0.744085  1
  Be  Be19  1  0.995815  0.504718  0.248803  1
  Be  Be20  1  0.508903  0.504185  0.752988  1
  Be  Be21  1  0.495815  0.247012  0.491097  1
  Be  Be22  1  0.247012  0.491097  0.495815  1
  Be  Be23  1  0.255915  0.004718  0.008903  1
  P  P24  1  0.244374  0.994374  0.250000  1
  P  P25  1  0.744374  0.494374  0.250000  1
  P  P26  1  0.494374  0.250000  0.744374  1
  P  P27  1  0.755626  0.005626  0.750000  1
  P  P28  1  0.250000  0.744374  0.494374  1
  P  P29  1  0.994374  0.250000  0.244374  1
  P  P30  1  0.250000  0.244374  0.994374  1
  P  P31  1  0.505626  0.750000  0.255626  1
  P  P32  1  0.750000  0.755626  0.005626  1
  P  P33  1  0.500000  0.500000  0.500000  1
  P  P34  1  0.005626  0.750000  0.755626  1
  P  P35  1  1.000000  1.000000  0.500000  1
  P  P36  1  0.750000  0.255626  0.505626  1
  P  P37  1  0.255626  0.505626  0.750000  1
  P  P38  1  1.000000  0.500000  0.000000  1
  P  P39  1  0.500000  1.000000  0.000000  1
