# generated using pymatgen
data_KHfH2OF5
_symmetry_space_group_name_H-M   'P 1'
_cell_length_a   7.63751087
_cell_length_b   12.33447228
_cell_length_c   11.16068558
_cell_angle_alpha   90.00000000
_cell_angle_beta   98.80325356
_cell_angle_gamma   90.00000000
_symmetry_Int_Tables_number   1
_chemical_formula_structural   KHfH2OF5
_chemical_formula_sum   'K8 Hf8 H16 O8 F40'
_cell_volume   1039.00297781
_cell_formula_units_Z   8
loop_
 _symmetry_equiv_pos_site_id
 _symmetry_equiv_pos_as_xyz
  1  'x, y, z'
loop_
 _atom_site_type_symbol
 _atom_site_label
 _atom_site_symmetry_multiplicity
 _atom_site_fract_x
 _atom_site_fract_y
 _atom_site_fract_z
 _atom_site_occupancy
  K  K0  1  0.296260  0.476342  0.119607  1
  K  K1  1  0.703740  0.976342  0.380393  1
  K  K2  1  0.703740  0.523658  0.880393  1
  K  K3  1  0.296260  0.023658  0.619607  1
  K  K4  1  0.797617  0.538428  0.351727  1
  K  K5  1  0.202383  0.038428  0.148273  1
  K  K6  1  0.202383  0.461572  0.648273  1
  K  K7  1  0.797617  0.961572  0.851727  1
  Hf  Hf8  1  0.976708  0.737658  0.123131  1
  Hf  Hf9  1  0.023292  0.237658  0.376869  1
  Hf  Hf10  1  0.023292  0.262342  0.876869  1
  Hf  Hf11  1  0.976708  0.762342  0.623131  1
  Hf  Hf12  1  0.529085  0.745685  0.107302  1
  Hf  Hf13  1  0.470915  0.245685  0.392698  1
  Hf  Hf14  1  0.470915  0.254315  0.892698  1
  Hf  Hf15  1  0.529085  0.754315  0.607302  1
  H  H16  1  0.248658  0.836328  0.300396  1
  H  H17  1  0.751342  0.336328  0.199604  1
  H  H18  1  0.751342  0.163672  0.699604  1
  H  H19  1  0.248658  0.663672  0.800396  1
  H  H20  1  0.068671  0.847270  0.354205  1
  H  H21  1  0.931329  0.347270  0.145795  1
  H  H22  1  0.931329  0.152730  0.645795  1
  H  H23  1  0.068671  0.652730  0.854205  1
  H  H24  1  0.251263  0.855267  0.949227  1
  H  H25  1  0.748737  0.355267  0.550773  1
  H  H26  1  0.748737  0.144733  0.050773  1
  H  H27  1  0.251263  0.644733  0.449227  1
  H  H28  1  0.416727  0.851291  0.874608  1
  H  H29  1  0.583273  0.351291  0.625392  1
  H  H30  1  0.583273  0.148709  0.125392  1
  H  H31  1  0.416727  0.648709  0.374608  1
  O  O32  1  0.120332  0.843844  0.277166  1
  O  O33  1  0.879668  0.343844  0.222834  1
  O  O34  1  0.879668  0.156156  0.722834  1
  O  O35  1  0.120332  0.656156  0.777166  1
  O  O36  1  0.381173  0.853845  0.956901  1
  O  O37  1  0.618827  0.353845  0.543099  1
  O  O38  1  0.618827  0.146155  0.043099  1
  O  O39  1  0.381173  0.646155  0.456901  1
  F  F40  1  0.474963  0.879854  0.197891  1
  F  F41  1  0.525037  0.379854  0.302109  1
  F  F42  1  0.525037  0.120146  0.802109  1
  F  F43  1  0.474963  0.620146  0.697891  1
  F  F44  1  0.252834  0.727488  0.114487  1
  F  F45  1  0.747166  0.227488  0.385513  1
  F  F46  1  0.747166  0.272512  0.885513  1
  F  F47  1  0.252834  0.772512  0.614487  1
  F  F48  1  0.209904  0.298632  0.274429  1
  F  F49  1  0.790096  0.798632  0.225571  1
  F  F50  1  0.790096  0.701368  0.725571  1
  F  F51  1  0.209904  0.201368  0.774429  1
  F  F52  1  0.511056  0.648781  0.252435  1
  F  F53  1  0.488944  0.148781  0.247565  1
  F  F54  1  0.488944  0.351219  0.747565  1
  F  F55  1  0.511056  0.851219  0.752435  1
  F  F56  1  0.716571  0.799753  0.004219  1
  F  F57  1  0.283429  0.299753  0.495781  1
  F  F58  1  0.283429  0.200247  0.995781  1
  F  F59  1  0.716571  0.700247  0.504219  1
  F  F60  1  0.013068  0.357528  0.023461  1
  F  F61  1  0.986932  0.857528  0.476539  1
  F  F62  1  0.986932  0.642472  0.976539  1
  F  F63  1  0.013068  0.142472  0.523461  1
  F  F64  1  0.062234  0.620034  0.241564  1
  F  F65  1  0.937766  0.120034  0.258436  1
  F  F66  1  0.937766  0.379966  0.758436  1
  F  F67  1  0.062234  0.879966  0.741564  1
  F  F68  1  0.033791  0.870965  0.028392  1
  F  F69  1  0.966209  0.370965  0.471608  1
  F  F70  1  0.966209  0.129035  0.971608  1
  F  F71  1  0.033791  0.629035  0.528392  1
  F  F72  1  0.250549  0.129268  0.384285  1
  F  F73  1  0.749451  0.629268  0.115715  1
  F  F74  1  0.749451  0.870732  0.615715  1
  F  F75  1  0.250549  0.370732  0.884285  1
  F  F76  1  0.446208  0.633835  0.979119  1
  F  F77  1  0.553792  0.133835  0.520881  1
  F  F78  1  0.553792  0.366165  0.020881  1
  F  F79  1  0.446208  0.866165  0.479119  1
