# generated using pymatgen
data_VH10N2(OF2)2
_symmetry_space_group_name_H-M   'P 1'
_cell_length_a   7.07955058
_cell_length_b   9.80783936
_cell_length_c   10.31354049
_cell_angle_alpha   90.00000000
_cell_angle_beta   101.63806836
_cell_angle_gamma   90.00000000
_symmetry_Int_Tables_number   1
_chemical_formula_structural   VH10N2(OF2)2
_chemical_formula_sum   'V4 H40 N8 O8 F16'
_cell_volume   701.39922655
_cell_formula_units_Z   4
loop_
 _symmetry_equiv_pos_site_id
 _symmetry_equiv_pos_as_xyz
  1  'x, y, z'
loop_
 _atom_site_type_symbol
 _atom_site_label
 _atom_site_symmetry_multiplicity
 _atom_site_fract_x
 _atom_site_fract_y
 _atom_site_fract_z
 _atom_site_occupancy
  V  V0  1  0.229908  0.046034  0.249804  1
  V  V1  1  0.229908  0.453966  0.749804  1
  V  V2  1  0.770092  0.546034  0.250196  1
  V  V3  1  0.770092  0.953966  0.750196  1
  H  H4  1  0.894546  0.564500  0.842811  1
  H  H5  1  0.376515  0.858208  0.052353  1
  H  H6  1  0.894546  0.935500  0.342811  1
  H  H7  1  0.376515  0.641792  0.552353  1
  H  H8  1  0.220540  0.466671  0.032761  1
  H  H9  1  0.662024  0.225494  0.556264  1
  H  H10  1  0.349368  0.418990  0.184957  1
  H  H11  1  0.220540  0.033329  0.532761  1
  H  H12  1  0.779460  0.533329  0.967239  1
  H  H13  1  0.105454  0.435500  0.157189  1
  H  H14  1  0.623485  0.358208  0.447647  1
  H  H15  1  0.952608  0.872236  0.063808  1
  H  H16  1  0.105454  0.064500  0.657189  1
  H  H17  1  0.498858  0.350322  0.569712  1
  H  H18  1  0.650632  0.918990  0.315043  1
  H  H19  1  0.793472  0.695917  0.910482  1
  H  H20  1  0.337976  0.725494  0.943736  1
  H  H21  1  0.206528  0.195917  0.589518  1
  H  H22  1  0.258197  0.878781  0.891403  1
  H  H23  1  0.349368  0.081010  0.684957  1
  H  H24  1  0.047392  0.127764  0.936192  1
  H  H25  1  0.779460  0.966671  0.467239  1
  H  H26  1  0.053337  0.775193  0.181749  1
  H  H27  1  0.662024  0.274506  0.056264  1
  H  H28  1  0.501142  0.850322  0.930288  1
  H  H29  1  0.741803  0.378781  0.608597  1
  H  H30  1  0.501142  0.649678  0.430288  1
  H  H31  1  0.337976  0.774506  0.443736  1
  H  H32  1  0.650632  0.581010  0.815043  1
  H  H33  1  0.047392  0.372236  0.436192  1
  H  H34  1  0.258197  0.621219  0.391403  1
  H  H35  1  0.793472  0.804083  0.410482  1
  H  H36  1  0.206528  0.304083  0.089518  1
  H  H37  1  0.741803  0.121219  0.108597  1
  H  H38  1  0.946663  0.224807  0.818251  1
  H  H39  1  0.952608  0.627764  0.563808  1
  H  H40  1  0.946663  0.275193  0.318251  1
  H  H41  1  0.053337  0.724807  0.681749  1
  H  H42  1  0.623485  0.141792  0.947647  1
  H  H43  1  0.498858  0.149678  0.069712  1
  N  N44  1  0.219769  0.093866  0.615823  1
  N  N45  1  0.630505  0.170933  0.045585  1
  N  N46  1  0.630505  0.329067  0.545585  1
  N  N47  1  0.369495  0.670933  0.454415  1
  N  N48  1  0.780231  0.593866  0.884177  1
  N  N49  1  0.780231  0.906134  0.384177  1
  N  N50  1  0.219769  0.406134  0.115823  1
  N  N51  1  0.369495  0.829067  0.954415  1
  O  O52  1  0.934547  0.363520  0.362160  1
  O  O53  1  0.652598  0.669364  0.160992  1
  O  O54  1  0.065453  0.636480  0.637840  1
  O  O55  1  0.652598  0.830636  0.660992  1
  O  O56  1  0.065453  0.863520  0.137840  1
  O  O57  1  0.347402  0.169364  0.339008  1
  O  O58  1  0.347402  0.330636  0.839008  1
  O  O59  1  0.934547  0.136480  0.862160  1
  F  F60  1  0.444304  0.935638  0.213677  1
  F  F61  1  0.555696  0.064362  0.786323  1
  F  F62  1  0.036915  0.887221  0.757542  1
  F  F63  1  0.204038  0.925815  0.399819  1
  F  F64  1  0.776273  0.877489  0.929977  1
  F  F65  1  0.223727  0.122511  0.070023  1
  F  F66  1  0.204038  0.574185  0.899819  1
  F  F67  1  0.795962  0.074185  0.600181  1
  F  F68  1  0.776273  0.622511  0.429977  1
  F  F69  1  0.963085  0.387221  0.742458  1
  F  F70  1  0.963085  0.112779  0.242458  1
  F  F71  1  0.555696  0.435638  0.286323  1
  F  F72  1  0.223727  0.377489  0.570023  1
  F  F73  1  0.036915  0.612779  0.257542  1
  F  F74  1  0.795962  0.425815  0.100181  1
  F  F75  1  0.444304  0.564362  0.713677  1
