# generated using pymatgen
data_Sr2BIN2
_symmetry_space_group_name_H-M   'P 1'
_cell_length_a   10.42051946
_cell_length_b   4.23943708
_cell_length_c   13.41209253
_cell_angle_alpha   90.00000000
_cell_angle_beta   91.41520065
_cell_angle_gamma   90.00000000
_symmetry_Int_Tables_number   1
_chemical_formula_structural   Sr2BIN2
_chemical_formula_sum   'Sr8 B4 I4 N8'
_cell_volume   592.32711247
_cell_formula_units_Z   4
loop_
 _symmetry_equiv_pos_site_id
 _symmetry_equiv_pos_as_xyz
  1  'x, y, z'
loop_
 _atom_site_type_symbol
 _atom_site_label
 _atom_site_symmetry_multiplicity
 _atom_site_fract_x
 _atom_site_fract_y
 _atom_site_fract_z
 _atom_site_occupancy
  Sr  Sr0  1  0.804521  0.250000  0.616603  1
  Sr  Sr1  1  0.648437  0.750000  0.370585  1
  Sr  Sr2  1  0.604418  0.750000  0.825302  1
  Sr  Sr3  1  0.924416  0.250000  0.095628  1
  Sr  Sr4  1  0.395582  0.250000  0.174698  1
  Sr  Sr5  1  0.195479  0.750000  0.383397  1
  Sr  Sr6  1  0.075584  0.750000  0.904372  1
  Sr  Sr7  1  0.351563  0.250000  0.629415  1
  B  B8  1  0.839036  0.250000  0.852717  1
  B  B9  1  0.583331  0.750000  0.604466  1
  B  B10  1  0.160964  0.750000  0.147283  1
  B  B11  1  0.416669  0.250000  0.395534  1
  I  I12  1  0.347427  0.250000  0.903825  1
  I  I13  1  0.921103  0.250000  0.357971  1
  I  I14  1  0.652573  0.750000  0.096175  1
  I  I15  1  0.078897  0.750000  0.642029  1
  N  N16  1  0.477645  0.750000  0.660353  1
  N  N17  1  0.305290  0.250000  0.444807  1
  N  N18  1  0.522355  0.250000  0.339647  1
  N  N19  1  0.268948  0.750000  0.205243  1
  N  N20  1  0.694710  0.750000  0.555193  1
  N  N21  1  0.731052  0.250000  0.794757  1
  N  N22  1  0.947174  0.250000  0.909467  1
  N  N23  1  0.052826  0.750000  0.090533  1
