# generated using pymatgen
data_KMnF4
_symmetry_space_group_name_H-M   'P 1'
_cell_length_a   5.91195852
_cell_length_b   7.84839067
_cell_length_c   7.88665888
_cell_angle_alpha   90.00000000
_cell_angle_beta   90.62742045
_cell_angle_gamma   90.00000000
_symmetry_Int_Tables_number   1
_chemical_formula_structural   KMnF4
_chemical_formula_sum   'K4 Mn4 F16'
_cell_volume   365.91398496
_cell_formula_units_Z   4
loop_
 _symmetry_equiv_pos_site_id
 _symmetry_equiv_pos_as_xyz
  1  'x, y, z'
loop_
 _atom_site_type_symbol
 _atom_site_label
 _atom_site_symmetry_multiplicity
 _atom_site_fract_x
 _atom_site_fract_y
 _atom_site_fract_z
 _atom_site_occupancy
  K  K0  1  0.492318  0.306681  0.745748  1
  K  K1  1  0.507682  0.806681  0.754252  1
  K  K2  1  0.507682  0.693319  0.254252  1
  K  K3  1  0.492318  0.193319  0.245748  1
  Mn  Mn4  1  0.000000  0.000000  0.500000  1
  Mn  Mn5  1  0.000000  0.500000  0.000000  1
  Mn  Mn6  1  0.000000  0.500000  0.500000  1
  Mn  Mn7  1  0.000000  0.000000  0.000000  1
  F  F8  1  0.289730  0.924154  0.053696  1
  F  F9  1  0.709339  0.441785  0.064585  1
  F  F10  1  0.709339  0.058215  0.564585  1
  F  F11  1  0.290661  0.558215  0.935415  1
  F  F12  1  0.115088  0.229809  0.002972  1
  F  F13  1  0.884912  0.729809  0.497028  1
  F  F14  1  0.884912  0.770191  0.997028  1
  F  F15  1  0.115088  0.270191  0.502972  1
  F  F16  1  0.905173  0.018408  0.267322  1
  F  F17  1  0.289730  0.575846  0.553696  1
  F  F18  1  0.094827  0.981592  0.732678  1
  F  F19  1  0.905173  0.481592  0.767322  1
  F  F20  1  0.094827  0.518408  0.232678  1
  F  F21  1  0.710270  0.424154  0.446304  1
  F  F22  1  0.710270  0.075846  0.946304  1
  F  F23  1  0.290661  0.941785  0.435415  1
