# generated using pymatgen
data_Hg3AsSe4Br
_symmetry_space_group_name_H-M   'P 1'
_cell_length_a   7.87690488
_cell_length_b   7.87690488
_cell_length_c   10.34961687
_cell_angle_alpha   90.00000000
_cell_angle_beta   90.00000000
_cell_angle_gamma   120.00000000
_symmetry_Int_Tables_number   1
_chemical_formula_structural   Hg3AsSe4Br
_chemical_formula_sum   'Hg6 As2 Se8 Br2'
_cell_volume   556.11691796
_cell_formula_units_Z   2
loop_
 _symmetry_equiv_pos_site_id
 _symmetry_equiv_pos_as_xyz
  1  'x, y, z'
loop_
 _atom_site_type_symbol
 _atom_site_label
 _atom_site_symmetry_multiplicity
 _atom_site_fract_x
 _atom_site_fract_y
 _atom_site_fract_z
 _atom_site_occupancy
  Hg  Hg0  1  0.499679  0.500321  0.238482  1
  Hg  Hg1  1  0.500321  0.000641  0.738482  1
  Hg  Hg2  1  0.500321  0.499679  0.738482  1
  Hg  Hg3  1  0.000641  0.500321  0.238482  1
  Hg  Hg4  1  0.499679  0.999359  0.238482  1
  Hg  Hg5  1  0.999359  0.499679  0.738482  1
  As  As6  1  0.000000  0.000000  0.233319  1
  As  As7  1  0.000000  0.000000  0.733319  1
  Se  Se8  1  0.848993  0.697986  0.360460  1
  Se  Se9  1  0.333333  0.666667  0.111146  1
  Se  Se10  1  0.151007  0.848993  0.860460  1
  Se  Se11  1  0.151007  0.302014  0.860460  1
  Se  Se12  1  0.697986  0.848993  0.860460  1
  Se  Se13  1  0.848993  0.151007  0.360460  1
  Se  Se14  1  0.666667  0.333333  0.611146  1
  Se  Se15  1  0.302014  0.151007  0.360460  1
  Br  Br16  1  0.333333  0.666667  0.542809  1
  Br  Br17  1  0.666667  0.333333  0.042809  1
