# generated using pymatgen
data_Hg4Se4O9
_symmetry_space_group_name_H-M   'P 1'
_cell_length_a   9.97520098
_cell_length_b   10.56629329
_cell_length_c   15.29665172
_cell_angle_alpha   90.00000000
_cell_angle_beta   126.70365962
_cell_angle_gamma   90.00000000
_symmetry_Int_Tables_number   1
_chemical_formula_structural   Hg4Se4O9
_chemical_formula_sum   'Hg16 Se16 O36'
_cell_volume   1292.62596784
_cell_formula_units_Z   4
loop_
 _symmetry_equiv_pos_site_id
 _symmetry_equiv_pos_as_xyz
  1  'x, y, z'
loop_
 _atom_site_type_symbol
 _atom_site_label
 _atom_site_symmetry_multiplicity
 _atom_site_fract_x
 _atom_site_fract_y
 _atom_site_fract_z
 _atom_site_occupancy
  Hg  Hg0  1  0.530864  0.718702  0.571313  1
  Hg  Hg1  1  0.469136  0.281298  0.428687  1
  Hg  Hg2  1  0.051896  0.709419  0.284322  1
  Hg  Hg3  1  0.661962  0.454201  0.203305  1
  Hg  Hg4  1  0.948104  0.209419  0.215678  1
  Hg  Hg5  1  0.338038  0.954201  0.296695  1
  Hg  Hg6  1  0.338038  0.545799  0.796695  1
  Hg  Hg7  1  0.372226  0.590234  0.262572  1
  Hg  Hg8  1  0.948104  0.290581  0.715678  1
  Hg  Hg9  1  0.661962  0.045799  0.703305  1
  Hg  Hg10  1  0.051896  0.790581  0.784322  1
  Hg  Hg11  1  0.530864  0.781298  0.071313  1
  Hg  Hg12  1  0.627774  0.090234  0.237428  1
  Hg  Hg13  1  0.627774  0.409766  0.737428  1
  Hg  Hg14  1  0.469136  0.218702  0.928687  1
  Hg  Hg15  1  0.372226  0.909766  0.762572  1
  Se  Se16  1  0.789537  0.755591  0.340213  1
  Se  Se17  1  0.266311  0.026211  0.002396  1
  Se  Se18  1  0.210463  0.244409  0.659787  1
  Se  Se19  1  0.789537  0.744409  0.840213  1
  Se  Se20  1  0.733689  0.973789  0.997604  1
  Se  Se21  1  0.155382  0.734321  0.674083  1
  Se  Se22  1  0.768020  0.007327  0.525486  1
  Se  Se23  1  0.231980  0.507327  0.974514  1
  Se  Se24  1  0.231980  0.992673  0.474514  1
  Se  Se25  1  0.266311  0.473789  0.502396  1
  Se  Se26  1  0.155382  0.765679  0.174083  1
  Se  Se27  1  0.844618  0.265679  0.325917  1
  Se  Se28  1  0.844618  0.234321  0.825917  1
  Se  Se29  1  0.733689  0.526211  0.497604  1
  Se  Se30  1  0.210463  0.255591  0.159787  1
  Se  Se31  1  0.768020  0.492673  0.025486  1
  O  O32  1  0.623262  0.966989  0.388868  1
  O  O33  1  0.298612  0.072657  0.407248  1
  O  O34  1  0.603709  0.816515  0.730309  1
  O  O35  1  0.396291  0.183485  0.269691  1
  O  O36  1  0.702425  0.064428  0.076347  1
  O  O37  1  0.297575  0.935572  0.923653  1
  O  O38  1  0.359158  0.329469  0.517245  1
  O  O39  1  0.188633  0.375300  0.224550  1
  O  O40  1  0.396291  0.316515  0.769691  1
  O  O41  1  0.420281  0.541490  0.633036  1
  O  O42  1  0.603709  0.683485  0.230309  1
  O  O43  1  0.936808  0.855007  0.858732  1
  O  O44  1  0.274282  0.662543  0.964493  1
  O  O45  1  0.376738  0.033011  0.611132  1
  O  O46  1  0.725718  0.337457  0.035507  1
  O  O47  1  0.701388  0.572657  0.092752  1
  O  O48  1  0.725718  0.162543  0.535507  1
  O  O49  1  0.376738  0.466989  0.111132  1
  O  O50  1  0.298612  0.427343  0.907248  1
  O  O51  1  0.640842  0.829469  0.982755  1
  O  O52  1  0.702425  0.435572  0.576347  1
  O  O53  1  0.359158  0.170531  0.017245  1
  O  O54  1  0.297575  0.564428  0.423653  1
  O  O55  1  0.188633  0.124700  0.724550  1
  O  O56  1  0.936808  0.644993  0.358732  1
  O  O57  1  0.811367  0.875300  0.275450  1
  O  O58  1  0.063192  0.144993  0.141268  1
  O  O59  1  0.701388  0.927343  0.592752  1
  O  O60  1  0.579719  0.458510  0.366964  1
  O  O61  1  0.811367  0.624700  0.775450  1
  O  O62  1  0.640842  0.670531  0.482755  1
  O  O63  1  0.579719  0.041490  0.866964  1
  O  O64  1  0.063192  0.355007  0.641268  1
  O  O65  1  0.274282  0.837457  0.464493  1
  O  O66  1  0.623262  0.533011  0.888868  1
  O  O67  1  0.420281  0.958510  0.133036  1
