# generated using pymatgen
data_SiO2
_symmetry_space_group_name_H-M   'P 1'
_cell_length_a   4.91879580
_cell_length_b   8.76191366
_cell_length_c   10.58682259
_cell_angle_alpha   90.00000000
_cell_angle_beta   90.00000000
_cell_angle_gamma   90.00000000
_symmetry_Int_Tables_number   1
_chemical_formula_structural   SiO2
_chemical_formula_sum   'Si12 O24'
_cell_volume   456.27155871
_cell_formula_units_Z   12
loop_
 _symmetry_equiv_pos_site_id
 _symmetry_equiv_pos_as_xyz
  1  'x, y, z'
loop_
 _atom_site_type_symbol
 _atom_site_label
 _atom_site_symmetry_multiplicity
 _atom_site_fract_x
 _atom_site_fract_y
 _atom_site_fract_z
 _atom_site_occupancy
  Si  Si0  1  0.057809  0.286825  0.915757  1
  Si  Si1  1  0.942191  0.786825  0.584243  1
  Si  Si2  1  0.442191  0.786825  0.415757  1
  Si  Si3  1  0.250000  0.000000  0.782100  1
  Si  Si4  1  0.557809  0.213175  0.584243  1
  Si  Si5  1  0.057809  0.213175  0.415757  1
  Si  Si6  1  0.942191  0.713175  0.084243  1
  Si  Si7  1  0.750000  0.500000  0.717900  1
  Si  Si8  1  0.750000  0.000000  0.217900  1
  Si  Si9  1  0.557809  0.286825  0.084243  1
  Si  Si10  1  0.442191  0.713175  0.915757  1
  Si  Si11  1  0.250000  0.500000  0.282100  1
  O  O12  1  0.444998  0.890676  0.868778  1
  O  O13  1  0.944998  0.890676  0.131222  1
  O  O14  1  0.956970  0.395607  0.801289  1
  O  O15  1  0.944998  0.609324  0.631222  1
  O  O16  1  0.369798  0.179384  0.460217  1
  O  O17  1  0.055002  0.390676  0.368778  1
  O  O18  1  0.555002  0.109324  0.131222  1
  O  O19  1  0.456970  0.395607  0.198711  1
  O  O20  1  0.043030  0.604393  0.198711  1
  O  O21  1  0.543030  0.604393  0.801289  1
  O  O22  1  0.555002  0.390676  0.631222  1
  O  O23  1  0.043030  0.895607  0.698711  1
  O  O24  1  0.869798  0.320616  0.039783  1
  O  O25  1  0.543030  0.895607  0.301289  1
  O  O26  1  0.956970  0.104393  0.301289  1
  O  O27  1  0.869798  0.179384  0.539783  1
  O  O28  1  0.630202  0.820616  0.539783  1
  O  O29  1  0.444998  0.609324  0.368778  1
  O  O30  1  0.456970  0.104393  0.698711  1
  O  O31  1  0.630202  0.679384  0.039783  1
  O  O32  1  0.130202  0.679384  0.960217  1
  O  O33  1  0.369798  0.320616  0.960217  1
  O  O34  1  0.130202  0.820616  0.460217  1
  O  O35  1  0.055002  0.109324  0.868778  1
