# generated using pymatgen
data_BaAlF5
_symmetry_space_group_name_H-M   'P 1'
_cell_length_a   5.24880130
_cell_length_b   19.85039227
_cell_length_c   9.12615429
_cell_angle_alpha   90.00000000
_cell_angle_beta   122.46838152
_cell_angle_gamma   90.00000000
_symmetry_Int_Tables_number   1
_chemical_formula_structural   BaAlF5
_chemical_formula_sum   'Ba8 Al8 F40'
_cell_volume   802.22984406
_cell_formula_units_Z   8
loop_
 _symmetry_equiv_pos_site_id
 _symmetry_equiv_pos_as_xyz
  1  'x, y, z'
loop_
 _atom_site_type_symbol
 _atom_site_label
 _atom_site_symmetry_multiplicity
 _atom_site_fract_x
 _atom_site_fract_y
 _atom_site_fract_z
 _atom_site_occupancy
  Ba  Ba0  1  0.545665  0.459356  0.759102  1
  Ba  Ba1  1  0.782222  0.269764  0.521274  1
  Ba  Ba2  1  0.454335  0.540644  0.240898  1
  Ba  Ba3  1  0.217778  0.769764  0.978726  1
  Ba  Ba4  1  0.454335  0.959356  0.740898  1
  Ba  Ba5  1  0.217778  0.730236  0.478726  1
  Ba  Ba6  1  0.782222  0.230236  0.021274  1
  Ba  Ba7  1  0.545665  0.040644  0.259102  1
  Al  Al8  1  0.282361  0.131294  0.530572  1
  Al  Al9  1  0.918315  0.608078  0.650086  1
  Al  Al10  1  0.081685  0.391922  0.349914  1
  Al  Al11  1  0.717639  0.868706  0.469428  1
  Al  Al12  1  0.918315  0.891922  0.150086  1
  Al  Al13  1  0.081685  0.108078  0.849914  1
  Al  Al14  1  0.282361  0.368706  0.030572  1
  Al  Al15  1  0.717639  0.631294  0.969428  1
  F  F16  1  0.455282  0.154697  0.414858  1
  F  F17  1  0.915051  0.159548  0.357370  1
  F  F18  1  0.631783  0.711132  0.856529  1
  F  F19  1  0.915051  0.340452  0.857370  1
  F  F20  1  0.211793  0.454086  0.944931  1
  F  F21  1  0.067607  0.383457  0.542728  1
  F  F22  1  0.133193  0.018535  0.881786  1
  F  F23  1  0.896425  0.899859  0.347634  1
  F  F24  1  0.866807  0.981465  0.118214  1
  F  F25  1  0.544718  0.845303  0.585142  1
  F  F26  1  0.368217  0.288868  0.143471  1
  F  F27  1  0.485733  0.381676  0.484819  1
  F  F28  1  0.103575  0.399859  0.152366  1
  F  F29  1  0.659034  0.404164  0.214412  1
  F  F30  1  0.455282  0.345303  0.914858  1
  F  F31  1  0.024427  0.302075  0.314325  1
  F  F32  1  0.631783  0.788868  0.356529  1
  F  F33  1  0.133193  0.481465  0.381786  1
  F  F34  1  0.514267  0.881676  0.015181  1
  F  F35  1  0.084949  0.659548  0.142630  1
  F  F36  1  0.340966  0.904164  0.285588  1
  F  F37  1  0.659034  0.095836  0.714412  1
  F  F38  1  0.024427  0.197925  0.814325  1
  F  F39  1  0.975573  0.802075  0.185675  1
  F  F40  1  0.788207  0.954086  0.555069  1
  F  F41  1  0.514267  0.618324  0.515181  1
  F  F42  1  0.211793  0.045914  0.444931  1
  F  F43  1  0.866807  0.518535  0.618214  1
  F  F44  1  0.485733  0.118324  0.984819  1
  F  F45  1  0.896425  0.600141  0.847634  1
  F  F46  1  0.932393  0.616543  0.457272  1
  F  F47  1  0.084949  0.840452  0.642630  1
  F  F48  1  0.368217  0.211132  0.643471  1
  F  F49  1  0.067607  0.116543  0.042728  1
  F  F50  1  0.788207  0.545914  0.055069  1
  F  F51  1  0.932393  0.883457  0.957272  1
  F  F52  1  0.340966  0.595836  0.785588  1
  F  F53  1  0.975573  0.697925  0.685675  1
  F  F54  1  0.103575  0.100141  0.652366  1
  F  F55  1  0.544718  0.654697  0.085142  1
