# generated using pymatgen
data_Nd2Cu(GeO4)2
_symmetry_space_group_name_H-M   'P 1'
_cell_length_a   9.17752309
_cell_length_b   9.17752309
_cell_length_c   5.21112332
_cell_angle_alpha   73.98113245
_cell_angle_beta   106.01886755
_cell_angle_gamma   65.46032213
_symmetry_Int_Tables_number   1
_chemical_formula_structural   Nd2Cu(GeO4)2
_chemical_formula_sum   'Nd4 Cu2 Ge4 O16'
_cell_volume   343.35291805
_cell_formula_units_Z   2
loop_
 _symmetry_equiv_pos_site_id
 _symmetry_equiv_pos_as_xyz
  1  'x, y, z'
loop_
 _atom_site_type_symbol
 _atom_site_label
 _atom_site_symmetry_multiplicity
 _atom_site_fract_x
 _atom_site_fract_y
 _atom_site_fract_z
 _atom_site_occupancy
  Nd  Nd0  1  0.638768  0.118748  0.290154  1
  Nd  Nd1  1  0.378167  0.863253  0.798736  1
  Nd  Nd2  1  0.136747  0.621833  0.798736  1
  Nd  Nd3  1  0.881252  0.361232  0.290154  1
  Cu  Cu4  1  0.763500  0.822681  0.991555  1
  Cu  Cu5  1  0.177319  0.236500  0.991555  1
  Ge  Ge6  1  0.999603  0.000397  0.988558  1
  Ge  Ge7  1  0.726674  0.694108  0.533171  1
  Ge  Ge8  1  0.504363  0.495637  0.589042  1
  Ge  Ge9  1  0.305892  0.273326  0.533171  1
  O  O10  1  0.110952  0.406833  0.172390  1
  O  O11  1  0.335275  0.664725  0.622879  1
  O  O12  1  0.668309  0.331691  0.956368  1
  O  O13  1  0.169162  0.830838  0.952449  1
  O  O14  1  0.184871  0.162170  0.686999  1
  O  O15  1  0.411289  0.404417  0.373268  1
  O  O16  1  0.900691  0.912683  0.189967  1
  O  O17  1  0.333183  0.321893  0.852750  1
  O  O18  1  0.838797  0.161203  0.611897  1
  O  O19  1  0.837830  0.815129  0.686999  1
  O  O20  1  0.595583  0.588711  0.373268  1
  O  O21  1  0.927521  0.538881  0.541476  1
  O  O22  1  0.678107  0.666817  0.852750  1
  O  O23  1  0.087317  0.099309  0.189967  1
  O  O24  1  0.461119  0.072479  0.541476  1
  O  O25  1  0.593167  0.889048  0.172390  1
