# generated using pymatgen
data_Na5Y4Si4O16F
_symmetry_space_group_name_H-M   'P 1'
_cell_length_a   8.70725913
_cell_length_b   8.70725913
_cell_length_c   8.70725913
_cell_angle_alpha   95.63454034
_cell_angle_beta   95.63454034
_cell_angle_gamma   143.47856795
_symmetry_Int_Tables_number   1
_chemical_formula_structural   Na5Y4Si4O16F
_chemical_formula_sum   'Na5 Y4 Si4 O16 F1'
_cell_volume   373.08750729
_cell_formula_units_Z   1
loop_
 _symmetry_equiv_pos_site_id
 _symmetry_equiv_pos_as_xyz
  1  'x, y, z'
loop_
 _atom_site_type_symbol
 _atom_site_label
 _atom_site_symmetry_multiplicity
 _atom_site_fract_x
 _atom_site_fract_y
 _atom_site_fract_z
 _atom_site_occupancy
  Na  Na0  1  0.404637  0.098974  0.484543  1
  Na  Na1  1  0.500000  0.500000  0.000000  1
  Na  Na2  1  0.079906  0.595363  0.694337  1
  Na  Na3  1  0.901026  0.385569  0.305663  1
  Na  Na4  1  0.614431  0.920094  0.515457  1
  Y  Y5  1  0.841204  0.139560  0.933363  1
  Y  Y6  1  0.860440  0.793803  0.701644  1
  Y  Y7  1  0.092159  0.158796  0.298356  1
  Y  Y8  1  0.206197  0.907841  0.066637  1
  Si  Si9  1  0.263669  0.407361  0.649327  1
  Si  Si10  1  0.592639  0.241966  0.856308  1
  Si  Si11  1  0.385658  0.736331  0.143692  1
  Si  Si12  1  0.758034  0.614342  0.350673  1
  O  O13  1  0.625867  0.129257  0.722109  1
  O  O14  1  0.208906  0.448900  0.172986  1
  O  O15  1  0.685375  0.920874  0.138268  1
  O  O16  1  0.669388  0.229969  0.031879  1
  O  O17  1  0.551100  0.724086  0.760006  1
  O  O18  1  0.870743  0.592852  0.496610  1
  O  O19  1  0.452893  0.314625  0.235499  1
  O  O20  1  0.079126  0.217394  0.764501  1
  O  O21  1  0.096242  0.374133  0.503390  1
  O  O22  1  0.407148  0.903758  0.277891  1
  O  O23  1  0.275914  0.035920  0.827014  1
  O  O24  1  0.782606  0.547107  0.861732  1
  O  O25  1  0.964080  0.791094  0.239994  1
  O  O26  1  0.198090  0.637509  0.968121  1
  O  O27  1  0.770031  0.801910  0.439419  1
  O  O28  1  0.362491  0.330612  0.560581  1
  F  F29  1  0.000000  0.000000  0.000000  1
