# generated using pymatgen
data_Zn(SbO2)2
_symmetry_space_group_name_H-M   'P 1'
_cell_length_a   8.66893248
_cell_length_b   8.66893248
_cell_length_c   6.08141099
_cell_angle_alpha   90.00000000
_cell_angle_beta   90.00000000
_cell_angle_gamma   90.00000000
_symmetry_Int_Tables_number   1
_chemical_formula_structural   Zn(SbO2)2
_chemical_formula_sum   'Zn4 Sb8 O16'
_cell_volume   457.02040973
_cell_formula_units_Z   4
loop_
 _symmetry_equiv_pos_site_id
 _symmetry_equiv_pos_as_xyz
  1  'x, y, z'
loop_
 _atom_site_type_symbol
 _atom_site_label
 _atom_site_symmetry_multiplicity
 _atom_site_fract_x
 _atom_site_fract_y
 _atom_site_fract_z
 _atom_site_occupancy
  Zn  Zn0  1  0.500000  0.000000  0.250000  1
  Zn  Zn1  1  0.000000  0.500000  0.750000  1
  Zn  Zn2  1  0.500000  0.000000  0.750000  1
  Zn  Zn3  1  0.000000  0.500000  0.250000  1
  Sb  Sb4  1  0.835871  0.820295  0.000000  1
  Sb  Sb5  1  0.820295  0.164129  0.500000  1
  Sb  Sb6  1  0.179705  0.835871  0.500000  1
  Sb  Sb7  1  0.164129  0.179705  0.000000  1
  Sb  Sb8  1  0.335871  0.679705  0.000000  1
  Sb  Sb9  1  0.664129  0.320295  0.000000  1
  Sb  Sb10  1  0.679705  0.664129  0.500000  1
  Sb  Sb11  1  0.320295  0.335871  0.500000  1
  O  O12  1  0.405970  0.861651  0.500000  1
  O  O13  1  0.594030  0.138349  0.500000  1
  O  O14  1  0.138349  0.405970  0.000000  1
  O  O15  1  0.861651  0.594030  0.000000  1
  O  O16  1  0.361651  0.905970  0.000000  1
  O  O17  1  0.905970  0.638349  0.500000  1
  O  O18  1  0.094030  0.361651  0.500000  1
  O  O19  1  0.638349  0.094030  0.000000  1
  O  O20  1  0.181381  0.681381  0.750000  1
  O  O21  1  0.681381  0.818619  0.250000  1
  O  O22  1  0.318619  0.181381  0.250000  1
  O  O23  1  0.818619  0.318619  0.750000  1
  O  O24  1  0.181381  0.681381  0.250000  1
  O  O25  1  0.681381  0.818619  0.750000  1
  O  O26  1  0.318619  0.181381  0.750000  1
  O  O27  1  0.818619  0.318619  0.250000  1
