# generated using pymatgen
data_Tl4SnSe3
_symmetry_space_group_name_H-M   'P 1'
_cell_length_a   8.69016381
_cell_length_b   8.68089033
_cell_length_c   26.80623203
_cell_angle_alpha   90.00000000
_cell_angle_beta   90.08498913
_cell_angle_gamma   90.00000000
_symmetry_Int_Tables_number   1
_chemical_formula_structural   Tl4SnSe3
_chemical_formula_sum   'Tl32 Sn8 Se24'
_cell_volume   2022.21593008
_cell_formula_units_Z   8
loop_
 _symmetry_equiv_pos_site_id
 _symmetry_equiv_pos_as_xyz
  1  'x, y, z'
loop_
 _atom_site_type_symbol
 _atom_site_label
 _atom_site_symmetry_multiplicity
 _atom_site_fract_x
 _atom_site_fract_y
 _atom_site_fract_z
 _atom_site_occupancy
  Tl  Tl0  1  0.634428  0.073907  0.931728  1
  Tl  Tl1  1  0.874050  0.083334  0.676406  1
  Tl  Tl2  1  0.616024  0.086078  0.425441  1
  Tl  Tl3  1  0.879635  0.080799  0.173611  1
  Tl  Tl4  1  0.917240  0.127288  0.825323  1
  Tl  Tl5  1  0.909962  0.119097  0.321108  1
  Tl  Tl6  1  0.576123  0.125559  0.074506  1
  Tl  Tl7  1  0.581242  0.121356  0.576737  1
  Tl  Tl8  1  0.245568  0.257792  0.971673  1
  Tl  Tl9  1  0.922698  0.371383  0.075661  1
  Tl  Tl10  1  0.587586  0.373067  0.827256  1
  Tl  Tl11  1  0.910725  0.379941  0.572939  1
  Tl  Tl12  1  0.578648  0.371467  0.326486  1
  Tl  Tl13  1  0.614890  0.414480  0.675502  1
  Tl  Tl14  1  0.614481  0.409218  0.174929  1
  Tl  Tl15  1  0.875209  0.413187  0.425149  1
  Tl  Tl16  1  0.120365  0.580799  0.826389  1
  Tl  Tl17  1  0.365572  0.573907  0.068272  1
  Tl  Tl18  1  0.125950  0.583334  0.323594  1
  Tl  Tl19  1  0.383976  0.586078  0.574559  1
  Tl  Tl20  1  0.423877  0.625559  0.925494  1
  Tl  Tl21  1  0.418758  0.621356  0.423263  1
  Tl  Tl22  1  0.082760  0.627288  0.174677  1
  Tl  Tl23  1  0.090038  0.619097  0.678892  1
  Tl  Tl24  1  0.754432  0.757792  0.028327  1
  Tl  Tl25  1  0.077302  0.871383  0.924339  1
  Tl  Tl26  1  0.089275  0.879941  0.427061  1
  Tl  Tl27  1  0.412414  0.873067  0.172744  1
  Tl  Tl28  1  0.421352  0.871467  0.673514  1
  Tl  Tl29  1  0.385519  0.909218  0.825071  1
  Tl  Tl30  1  0.385110  0.914480  0.324498  1
  Tl  Tl31  1  0.124791  0.913187  0.574851  1
  Sn  Sn32  1  0.256468  0.267225  0.494164  1
  Sn  Sn33  1  0.258823  0.227742  0.743179  1
  Sn  Sn34  1  0.255459  0.232314  0.242617  1
  Sn  Sn35  1  0.850319  0.455426  0.932396  1
  Sn  Sn36  1  0.744541  0.732314  0.757383  1
  Sn  Sn37  1  0.743532  0.767225  0.505836  1
  Sn  Sn38  1  0.741177  0.727742  0.256821  1
  Sn  Sn39  1  0.149681  0.955426  0.067604  1
  Se  Se40  1  0.932809  0.085033  0.004394  1
  Se  Se41  1  0.894684  0.059701  0.502697  1
  Se  Se42  1  0.560809  0.102030  0.747515  1
  Se  Se43  1  0.557763  0.103620  0.245647  1
  Se  Se44  1  0.240369  0.243772  0.596085  1
  Se  Se45  1  0.248236  0.232147  0.102076  1
  Se  Se46  1  0.244654  0.253315  0.845458  1
  Se  Se47  1  0.238389  0.252821  0.345978  1
  Se  Se48  1  0.605750  0.408113  0.997514  1
  Se  Se49  1  0.892438  0.437614  0.753770  1
  Se  Se50  1  0.560979  0.393001  0.497881  1
  Se  Se51  1  0.893654  0.438174  0.251196  1
  Se  Se52  1  0.442237  0.603620  0.754353  1
  Se  Se53  1  0.067191  0.585033  0.995606  1
  Se  Se54  1  0.439191  0.602030  0.252485  1
  Se  Se55  1  0.105316  0.559701  0.497303  1
  Se  Se56  1  0.751764  0.732147  0.897924  1
  Se  Se57  1  0.759631  0.743772  0.403915  1
  Se  Se58  1  0.761611  0.752821  0.654022  1
  Se  Se59  1  0.755346  0.753315  0.154542  1
  Se  Se60  1  0.394250  0.908113  0.002486  1
  Se  Se61  1  0.439021  0.893001  0.502119  1
  Se  Se62  1  0.106346  0.938174  0.748804  1
  Se  Se63  1  0.107562  0.937614  0.246230  1
