# generated using pymatgen
data_NaCo3As3(HO6)2
_symmetry_space_group_name_H-M   'P 1'
_cell_length_a   8.72610661
_cell_length_b   8.72610661
_cell_length_c   6.91107154
_cell_angle_alpha   74.06966765
_cell_angle_beta   105.93033235
_cell_angle_gamma   88.55189689
_symmetry_Int_Tables_number   1
_chemical_formula_structural   NaCo3As3(HO6)2
_chemical_formula_sum   'Na2 Co6 As6 H4 O24'
_cell_volume   483.71105232
_cell_formula_units_Z   2
loop_
 _symmetry_equiv_pos_site_id
 _symmetry_equiv_pos_as_xyz
  1  'x, y, z'
loop_
 _atom_site_type_symbol
 _atom_site_label
 _atom_site_symmetry_multiplicity
 _atom_site_fract_x
 _atom_site_fract_y
 _atom_site_fract_z
 _atom_site_occupancy
  Na  Na0  1  0.995579  0.995579  0.750000  1
  Na  Na1  1  0.004421  0.004421  0.250000  1
  Co  Co2  1  0.722196  0.722196  0.250000  1
  Co  Co3  1  0.277804  0.277804  0.750000  1
  Co  Co4  1  0.044823  0.630627  0.114775  1
  Co  Co5  1  0.630627  0.044823  0.385225  1
  Co  Co6  1  0.955177  0.369373  0.885225  1
  Co  Co7  1  0.369373  0.955177  0.614775  1
  As  As8  1  0.314556  0.314556  0.250000  1
  As  As9  1  0.685444  0.685444  0.750000  1
  As  As10  1  0.895759  0.332772  0.388443  1
  As  As11  1  0.332772  0.895759  0.111557  1
  As  As12  1  0.104241  0.667228  0.611557  1
  As  As13  1  0.667228  0.104241  0.888443  1
  H  H14  1  0.617804  0.391132  0.303980  1
  H  H15  1  0.391132  0.617804  0.196020  1
  H  H16  1  0.382196  0.608868  0.696020  1
  H  H17  1  0.608868  0.382196  0.803980  1
  O  O18  1  0.798119  0.727839  0.975134  1
  O  O19  1  0.727839  0.798119  0.524866  1
  O  O20  1  0.201881  0.272161  0.024866  1
  O  O21  1  0.272161  0.201881  0.475134  1
  O  O22  1  0.280965  0.515918  0.227423  1
  O  O23  1  0.515918  0.280965  0.272577  1
  O  O24  1  0.719035  0.484082  0.772577  1
  O  O25  1  0.484082  0.719035  0.727423  1
  O  O26  1  0.974683  0.669392  0.371985  1
  O  O27  1  0.669392  0.974683  0.128015  1
  O  O28  1  0.025317  0.330608  0.628015  1
  O  O29  1  0.330608  0.025317  0.871985  1
  O  O30  1  0.462503  0.720914  0.165444  1
  O  O31  1  0.720914  0.462503  0.334556  1
  O  O32  1  0.537497  0.279086  0.834556  1
  O  O33  1  0.279086  0.537497  0.665444  1
  O  O34  1  0.978093  0.398639  0.186136  1
  O  O35  1  0.398639  0.978093  0.313864  1
  O  O36  1  0.021907  0.601361  0.813864  1
  O  O37  1  0.601361  0.021907  0.686136  1
  O  O38  1  0.140851  0.848900  0.093032  1
  O  O39  1  0.848900  0.140851  0.406968  1
  O  O40  1  0.859149  0.151100  0.906968  1
  O  O41  1  0.151100  0.859149  0.593032  1
