# generated using pymatgen
data_Pr2Ti3(ClO4)2
_symmetry_space_group_name_H-M   'P 1'
_cell_length_a   5.07643078
_cell_length_b   11.75888914
_cell_length_c   14.96560342
_cell_angle_alpha   90.00000000
_cell_angle_beta   90.00000000
_cell_angle_gamma   90.00000000
_symmetry_Int_Tables_number   1
_chemical_formula_structural   Pr2Ti3(ClO4)2
_chemical_formula_sum   'Pr8 Ti12 Cl8 O32'
_cell_volume   893.34456006
_cell_formula_units_Z   4
loop_
 _symmetry_equiv_pos_site_id
 _symmetry_equiv_pos_as_xyz
  1  'x, y, z'
loop_
 _atom_site_type_symbol
 _atom_site_label
 _atom_site_symmetry_multiplicity
 _atom_site_fract_x
 _atom_site_fract_y
 _atom_site_fract_z
 _atom_site_occupancy
  Pr  Pr0  1  0.021330  0.861974  0.162100  1
  Pr  Pr1  1  0.478670  0.861974  0.837900  1
  Pr  Pr2  1  0.521330  0.138026  0.162100  1
  Pr  Pr3  1  0.978670  0.138026  0.837900  1
  Pr  Pr4  1  0.021330  0.361974  0.337900  1
  Pr  Pr5  1  0.478670  0.361974  0.662100  1
  Pr  Pr6  1  0.978670  0.638026  0.662100  1
  Pr  Pr7  1  0.521330  0.638026  0.337900  1
  Ti  Ti8  1  0.750000  0.091025  0.500000  1
  Ti  Ti9  1  0.250000  0.408975  0.000000  1
  Ti  Ti10  1  0.250000  0.908975  0.500000  1
  Ti  Ti11  1  0.627624  0.423674  0.162507  1
  Ti  Ti12  1  0.127623  0.076326  0.337493  1
  Ti  Ti13  1  0.372376  0.576326  0.837493  1
  Ti  Ti14  1  0.872376  0.423674  0.837493  1
  Ti  Ti15  1  0.750000  0.591025  0.000000  1
  Ti  Ti16  1  0.127623  0.576326  0.162507  1
  Ti  Ti17  1  0.627624  0.923674  0.337493  1
  Ti  Ti18  1  0.372376  0.076326  0.662507  1
  Ti  Ti19  1  0.872376  0.923674  0.662507  1
  Cl  Cl20  1  0.482992  0.602317  0.576128  1
  Cl  Cl21  1  0.517008  0.397683  0.423872  1
  Cl  Cl22  1  0.017008  0.602317  0.423872  1
  Cl  Cl23  1  0.517008  0.897683  0.076128  1
  Cl  Cl24  1  0.017008  0.102317  0.076128  1
  Cl  Cl25  1  0.982992  0.897683  0.923872  1
  Cl  Cl26  1  0.482992  0.102317  0.923872  1
  Cl  Cl27  1  0.982992  0.397683  0.576128  1
  O  O28  1  0.437500  0.544940  0.076713  1
  O  O29  1  0.672466  0.530723  0.762738  1
  O  O30  1  0.827534  0.530723  0.237262  1
  O  O31  1  0.747028  0.299605  0.220642  1
  O  O32  1  0.827534  0.030723  0.262738  1
  O  O33  1  0.575208  0.181188  0.581084  1
  O  O34  1  0.252972  0.700395  0.779358  1
  O  O35  1  0.252972  0.200395  0.720642  1
  O  O36  1  0.672466  0.030723  0.737262  1
  O  O37  1  0.327534  0.969277  0.262738  1
  O  O38  1  0.075209  0.818812  0.581084  1
  O  O39  1  0.752972  0.799605  0.720642  1
  O  O40  1  0.937500  0.955060  0.423287  1
  O  O41  1  0.075209  0.318812  0.918916  1
  O  O42  1  0.172466  0.969277  0.737262  1
  O  O43  1  0.062500  0.544940  0.923287  1
  O  O44  1  0.062500  0.044940  0.576713  1
  O  O45  1  0.575208  0.681188  0.918916  1
  O  O46  1  0.247028  0.700395  0.220642  1
  O  O47  1  0.562500  0.455060  0.923287  1
  O  O48  1  0.327534  0.469277  0.237262  1
  O  O49  1  0.424792  0.818812  0.418916  1
  O  O50  1  0.562500  0.955060  0.576713  1
  O  O51  1  0.924792  0.681188  0.081084  1
  O  O52  1  0.172466  0.469277  0.762738  1
  O  O53  1  0.424792  0.318812  0.081084  1
  O  O54  1  0.747028  0.799605  0.279358  1
  O  O55  1  0.437500  0.044940  0.423287  1
  O  O56  1  0.937500  0.455060  0.076713  1
  O  O57  1  0.924792  0.181188  0.418916  1
  O  O58  1  0.752972  0.299605  0.779358  1
  O  O59  1  0.247028  0.200395  0.279358  1
