# generated using pymatgen
data_Ca(BO2)2
_symmetry_space_group_name_H-M   'P 1'
_cell_length_a   6.44680420
_cell_length_b   11.43188936
_cell_length_c   11.46615782
_cell_angle_alpha   90.00000000
_cell_angle_beta   90.00000000
_cell_angle_gamma   90.00000000
_symmetry_Int_Tables_number   1
_chemical_formula_structural   Ca(BO2)2
_chemical_formula_sum   'Ca12 B24 O48'
_cell_volume   845.04611193
_cell_formula_units_Z   12
loop_
 _symmetry_equiv_pos_site_id
 _symmetry_equiv_pos_as_xyz
  1  'x, y, z'
loop_
 _atom_site_type_symbol
 _atom_site_label
 _atom_site_symmetry_multiplicity
 _atom_site_fract_x
 _atom_site_fract_y
 _atom_site_fract_z
 _atom_site_occupancy
  Ca  Ca0  1  0.449271  0.001392  0.572438  1
  Ca  Ca1  1  0.112697  0.279198  0.253400  1
  Ca  Ca2  1  0.612697  0.779198  0.246600  1
  Ca  Ca3  1  0.841092  0.234684  0.532534  1
  Ca  Ca4  1  0.550729  0.501392  0.427562  1
  Ca  Ca5  1  0.158908  0.734684  0.467466  1
  Ca  Ca6  1  0.887303  0.779198  0.746600  1
  Ca  Ca7  1  0.050729  0.001392  0.072438  1
  Ca  Ca8  1  0.387303  0.279198  0.753400  1
  Ca  Ca9  1  0.949271  0.501392  0.927562  1
  Ca  Ca10  1  0.658908  0.234684  0.032534  1
  Ca  Ca11  1  0.341092  0.734684  0.967466  1
  B  B12  1  0.746934  0.039361  0.859708  1
  B  B13  1  0.881163  0.240096  0.787479  1
  B  B14  1  0.381163  0.740096  0.712521  1
  B  B15  1  0.920382  0.551046  0.249271  1
  B  B16  1  0.753066  0.039361  0.359708  1
  B  B17  1  0.246934  0.539361  0.640292  1
  B  B18  1  0.123329  0.247570  0.974985  1
  B  B19  1  0.420382  0.051046  0.250729  1
  B  B20  1  0.118837  0.740096  0.212521  1
  B  B21  1  0.018083  0.479869  0.466074  1
  B  B22  1  0.518083  0.979869  0.033926  1
  B  B23  1  0.981917  0.979869  0.533926  1
  B  B24  1  0.399729  0.944074  0.822069  1
  B  B25  1  0.376671  0.247570  0.474985  1
  B  B26  1  0.100271  0.944074  0.322069  1
  B  B27  1  0.253066  0.539361  0.140292  1
  B  B28  1  0.079618  0.051046  0.750729  1
  B  B29  1  0.579618  0.551046  0.749271  1
  B  B30  1  0.600271  0.444074  0.177931  1
  B  B31  1  0.899729  0.444074  0.677931  1
  B  B32  1  0.876671  0.747570  0.025015  1
  B  B33  1  0.623329  0.747570  0.525015  1
  B  B34  1  0.481917  0.479869  0.966074  1
  B  B35  1  0.618837  0.240096  0.287479  1
  O  O36  1  0.171541  0.255797  0.453743  1
  O  O37  1  0.328459  0.255797  0.953743  1
  O  O38  1  0.671541  0.755797  0.046257  1
  O  O39  1  0.531044  0.700109  0.427887  1
  O  O40  1  0.798658  0.332722  0.712483  1
  O  O41  1  0.533214  0.011489  0.354367  1
  O  O42  1  0.521888  0.298504  0.393395  1
  O  O43  1  0.123564  0.450049  0.701034  1
  O  O44  1  0.201342  0.832722  0.287517  1
  O  O45  1  0.968956  0.700109  0.927887  1
  O  O46  1  0.468579  0.172772  0.218045  1
  O  O47  1  0.021888  0.798504  0.106605  1
  O  O48  1  0.031421  0.172772  0.718045  1
  O  O49  1  0.966786  0.011489  0.854367  1
  O  O50  1  0.978112  0.298504  0.893395  1
  O  O51  1  0.303555  0.044001  0.765457  1
  O  O52  1  0.696445  0.544001  0.234543  1
  O  O53  1  0.698955  0.030350  0.993595  1
  O  O54  1  0.968579  0.672772  0.281955  1
  O  O55  1  0.198955  0.530350  0.506405  1
  O  O56  1  0.623564  0.950049  0.798966  1
  O  O57  1  0.022154  0.968194  0.650055  1
  O  O58  1  0.293988  0.663771  0.173367  1
  O  O59  1  0.206012  0.663771  0.673367  1
  O  O60  1  0.876436  0.950049  0.298966  1
  O  O61  1  0.031044  0.200109  0.072113  1
  O  O62  1  0.478112  0.798504  0.606605  1
  O  O63  1  0.477846  0.968194  0.150055  1
  O  O64  1  0.522154  0.468194  0.849945  1
  O  O65  1  0.468956  0.200109  0.572113  1
  O  O66  1  0.863855  0.446459  0.543572  1
  O  O67  1  0.376436  0.450049  0.201034  1
  O  O68  1  0.033214  0.511489  0.145633  1
  O  O69  1  0.301045  0.530350  0.006405  1
  O  O70  1  0.298658  0.832722  0.787517  1
  O  O71  1  0.793988  0.163771  0.326633  1
  O  O72  1  0.977846  0.468194  0.349945  1
  O  O73  1  0.636145  0.446459  0.043572  1
  O  O74  1  0.466786  0.511489  0.645633  1
  O  O75  1  0.196445  0.044001  0.265457  1
  O  O76  1  0.701342  0.332722  0.212483  1
  O  O77  1  0.803555  0.544001  0.734543  1
  O  O78  1  0.531421  0.672772  0.781955  1
  O  O79  1  0.136145  0.946459  0.456428  1
  O  O80  1  0.801045  0.030350  0.493595  1
  O  O81  1  0.828459  0.755797  0.546257  1
  O  O82  1  0.706012  0.163771  0.826633  1
  O  O83  1  0.363855  0.946459  0.956428  1
