# generated using pymatgen
data_Na2ZrGe2O7
_symmetry_space_group_name_H-M   'P 1'
_cell_length_a   5.70858512
_cell_length_b   6.75715514
_cell_length_c   9.26486271
_cell_angle_alpha   70.47846057
_cell_angle_beta   88.72967999
_cell_angle_gamma   86.89572010
_symmetry_Int_Tables_number   1
_chemical_formula_structural   Na2ZrGe2O7
_chemical_formula_sum   'Na4 Zr2 Ge4 O14'
_cell_volume   336.33979388
_cell_formula_units_Z   2
loop_
 _symmetry_equiv_pos_site_id
 _symmetry_equiv_pos_as_xyz
  1  'x, y, z'
loop_
 _atom_site_type_symbol
 _atom_site_label
 _atom_site_symmetry_multiplicity
 _atom_site_fract_x
 _atom_site_fract_y
 _atom_site_fract_z
 _atom_site_occupancy
  Na  Na0  1  0.765843  0.655258  0.504114  1
  Na  Na1  1  0.729587  0.902028  0.116390  1
  Na  Na2  1  0.234157  0.344742  0.495886  1
  Na  Na3  1  0.270413  0.097972  0.883610  1
  Zr  Zr4  1  0.770652  0.298225  0.276322  1
  Zr  Zr5  1  0.229348  0.701775  0.723678  1
  Ge  Ge6  1  0.304807  0.946431  0.335214  1
  Ge  Ge7  1  0.224476  0.643768  0.144551  1
  Ge  Ge8  1  0.695193  0.053569  0.664786  1
  Ge  Ge9  1  0.775524  0.356232  0.855449  1
  O  O10  1  0.542311  0.519588  0.758163  1
  O  O11  1  0.716977  0.095333  0.849256  1
  O  O12  1  0.949480  0.585300  0.235338  1
  O  O13  1  0.742605  0.288824  0.513070  1
  O  O14  1  0.395193  0.996380  0.663884  1
  O  O15  1  0.604807  0.003620  0.336116  1
  O  O16  1  0.257395  0.711176  0.486930  1
  O  O17  1  0.899210  0.851750  0.667584  1
  O  O18  1  0.100790  0.148250  0.332416  1
  O  O19  1  0.789934  0.297383  0.053434  1
  O  O20  1  0.050520  0.414700  0.764662  1
  O  O21  1  0.210066  0.702617  0.946566  1
  O  O22  1  0.283023  0.904667  0.150744  1
  O  O23  1  0.457689  0.480412  0.241837  1
