# generated using pymatgen
data_K2Nb3Cl7O5
_symmetry_space_group_name_H-M   'P 1'
_cell_length_a   9.65668426
_cell_length_b   9.65668426
_cell_length_c   11.31733891
_cell_angle_alpha   69.91254844
_cell_angle_beta   110.08745156
_cell_angle_gamma   124.45433139
_symmetry_Int_Tables_number   1
_chemical_formula_structural   K2Nb3Cl7O5
_chemical_formula_sum   'K4 Nb6 Cl14 O10'
_cell_volume   801.98902384
_cell_formula_units_Z   2
loop_
 _symmetry_equiv_pos_site_id
 _symmetry_equiv_pos_as_xyz
  1  'x, y, z'
loop_
 _atom_site_type_symbol
 _atom_site_label
 _atom_site_symmetry_multiplicity
 _atom_site_fract_x
 _atom_site_fract_y
 _atom_site_fract_z
 _atom_site_occupancy
  K  K0  1  0.829818  0.238769  0.143282  1
  K  K1  1  0.238769  0.829818  0.356718  1
  K  K2  1  0.761231  0.170182  0.643282  1
  K  K3  1  0.170182  0.761231  0.856718  1
  Nb  Nb4  1  0.785521  0.791312  0.027102  1
  Nb  Nb5  1  0.208688  0.214479  0.527102  1
  Nb  Nb6  1  0.214479  0.208688  0.972898  1
  Nb  Nb7  1  0.537013  0.537013  0.750000  1
  Nb  Nb8  1  0.462987  0.462987  0.250000  1
  Nb  Nb9  1  0.791312  0.785521  0.472898  1
  Cl  Cl10  1  0.061702  0.366018  0.865961  1
  Cl  Cl11  1  0.366018  0.061702  0.634039  1
  Cl  Cl12  1  0.363014  0.049488  0.046227  1
  Cl  Cl13  1  0.633982  0.938298  0.365961  1
  Cl  Cl14  1  0.272968  0.576930  0.161321  1
  Cl  Cl15  1  0.909824  0.909824  0.250000  1
  Cl  Cl16  1  0.049488  0.363014  0.453773  1
  Cl  Cl17  1  0.636986  0.950512  0.953773  1
  Cl  Cl18  1  0.576930  0.272968  0.338679  1
  Cl  Cl19  1  0.950512  0.636986  0.546227  1
  Cl  Cl20  1  0.090176  0.090176  0.750000  1
  Cl  Cl21  1  0.727032  0.423070  0.838679  1
  Cl  Cl22  1  0.423070  0.727032  0.661321  1
  Cl  Cl23  1  0.938298  0.633982  0.134039  1
  O  O24  1  0.396602  0.401143  0.625407  1
  O  O25  1  0.288875  0.284374  0.121026  1
  O  O26  1  0.284374  0.288875  0.378974  1
  O  O27  1  0.711125  0.715626  0.878974  1
  O  O28  1  0.603398  0.598857  0.374593  1
  O  O29  1  0.000000  0.000000  0.000000  1
  O  O30  1  0.715626  0.711125  0.621026  1
  O  O31  1  0.598857  0.603398  0.125407  1
  O  O32  1  0.401143  0.396602  0.874593  1
  O  O33  1  0.000000  0.000000  0.500000  1
