# generated using pymatgen
data_P2W2O11
_symmetry_space_group_name_H-M   'P 1'
_cell_length_a   7.99838784
_cell_length_b   12.74268680
_cell_length_c   8.01021395
_cell_angle_alpha   90.00000000
_cell_angle_beta   92.38589166
_cell_angle_gamma   90.00000000
_symmetry_Int_Tables_number   1
_chemical_formula_structural   P2W2O11
_chemical_formula_sum   'P8 W8 O44'
_cell_volume   815.70088957
_cell_formula_units_Z   4
loop_
 _symmetry_equiv_pos_site_id
 _symmetry_equiv_pos_as_xyz
  1  'x, y, z'
loop_
 _atom_site_type_symbol
 _atom_site_label
 _atom_site_symmetry_multiplicity
 _atom_site_fract_x
 _atom_site_fract_y
 _atom_site_fract_z
 _atom_site_occupancy
  P  P0  1  0.747795  0.750000  0.893845  1
  P  P1  1  0.749776  0.004134  0.384336  1
  P  P2  1  0.749776  0.495866  0.384336  1
  P  P3  1  0.927755  0.250000  0.655757  1
  P  P4  1  0.250224  0.995866  0.615664  1
  P  P5  1  0.250224  0.504134  0.615664  1
  P  P6  1  0.252205  0.250000  0.106155  1
  P  P7  1  0.072245  0.750000  0.344243  1
  W  W8  1  0.149276  0.997932  0.192368  1
  W  W9  1  0.850724  0.002068  0.807632  1
  W  W10  1  0.637540  0.250000  0.309771  1
  W  W11  1  0.638697  0.750000  0.305922  1
  W  W12  1  0.361303  0.250000  0.694078  1
  W  W13  1  0.149276  0.502068  0.192368  1
  W  W14  1  0.850724  0.497932  0.807632  1
  W  W15  1  0.362460  0.750000  0.690229  1
  O  O16  1  0.743735  0.505665  0.578526  1
  O  O17  1  0.103900  0.250000  0.591994  1
  O  O18  1  0.443174  0.250000  0.484286  1
  O  O19  1  0.000000  0.500000  0.000000  1
  O  O20  1  0.169043  0.346867  0.184187  1
  O  O21  1  0.743735  0.994335  0.578526  1
  O  O22  1  0.629069  0.096546  0.335280  1
  O  O23  1  0.331106  0.095162  0.694302  1
  O  O24  1  0.000000  0.000000  0.000000  1
  O  O25  1  0.923818  0.475135  0.328457  1
  O  O26  1  0.668894  0.904838  0.305698  1
  O  O27  1  0.787982  0.250000  0.160528  1
  O  O28  1  0.203705  0.750000  0.491700  1
  O  O29  1  0.370931  0.903454  0.664720  1
  O  O30  1  0.669330  0.474678  0.911349  1
  O  O31  1  0.226550  0.250000  0.916931  1
  O  O32  1  0.330670  0.974678  0.088651  1
  O  O33  1  0.556826  0.750000  0.515714  1
  O  O34  1  0.897057  0.347971  0.765587  1
  O  O35  1  0.896100  0.750000  0.408006  1
  O  O36  1  0.556589  0.750000  0.847507  1
  O  O37  1  0.773450  0.750000  0.083069  1
  O  O38  1  0.076182  0.524865  0.671543  1
  O  O39  1  0.256265  0.494335  0.421474  1
  O  O40  1  0.629069  0.403454  0.335280  1
  O  O41  1  0.443411  0.250000  0.152493  1
  O  O42  1  0.212018  0.750000  0.839472  1
  O  O43  1  0.669330  0.025322  0.911349  1
  O  O44  1  0.169043  0.153133  0.184187  1
  O  O45  1  0.796295  0.250000  0.508300  1
  O  O46  1  0.102943  0.652029  0.234413  1
  O  O47  1  0.370931  0.596546  0.664720  1
  O  O48  1  0.547468  0.250000  0.812439  1
  O  O49  1  0.102943  0.847971  0.234413  1
  O  O50  1  0.331106  0.404838  0.694302  1
  O  O51  1  0.830957  0.846867  0.815813  1
  O  O52  1  0.830957  0.653133  0.815813  1
  O  O53  1  0.256265  0.005665  0.421474  1
  O  O54  1  0.668894  0.595162  0.305698  1
  O  O55  1  0.923818  0.024865  0.328457  1
  O  O56  1  0.897057  0.152029  0.765587  1
  O  O57  1  0.076182  0.975135  0.671543  1
  O  O58  1  0.330670  0.525322  0.088651  1
  O  O59  1  0.452532  0.750000  0.187561  1
