# generated using pymatgen
data_YSeO3F
_symmetry_space_group_name_H-M   'P 1'
_cell_length_a   6.67568313
_cell_length_b   7.00393494
_cell_length_c   7.30064927
_cell_angle_alpha   90.00000000
_cell_angle_beta   98.71364524
_cell_angle_gamma   90.00000000
_symmetry_Int_Tables_number   1
_chemical_formula_structural   YSeO3F
_chemical_formula_sum   'Y4 Se4 O12 F4'
_cell_volume   337.40961247
_cell_formula_units_Z   4
loop_
 _symmetry_equiv_pos_site_id
 _symmetry_equiv_pos_as_xyz
  1  'x, y, z'
loop_
 _atom_site_type_symbol
 _atom_site_label
 _atom_site_symmetry_multiplicity
 _atom_site_fract_x
 _atom_site_fract_y
 _atom_site_fract_z
 _atom_site_occupancy
  Y  Y0  1  0.140840  0.360195  0.323727  1
  Y  Y1  1  0.859160  0.860195  0.176273  1
  Y  Y2  1  0.859160  0.639805  0.676273  1
  Y  Y3  1  0.140840  0.139805  0.823727  1
  Se  Se4  1  0.649557  0.118989  0.711277  1
  Se  Se5  1  0.350443  0.881011  0.288723  1
  Se  Se6  1  0.649557  0.381011  0.211277  1
  Se  Se7  1  0.350443  0.618989  0.788723  1
  O  O8  1  0.174136  0.030957  0.148639  1
  O  O9  1  0.512872  0.686353  0.640497  1
  O  O10  1  0.825864  0.969043  0.851361  1
  O  O11  1  0.175164  0.695122  0.279998  1
  O  O12  1  0.824836  0.195122  0.220002  1
  O  O13  1  0.487128  0.186353  0.859503  1
  O  O14  1  0.174136  0.469043  0.648639  1
  O  O15  1  0.824836  0.304878  0.720002  1
  O  O16  1  0.825864  0.530957  0.351361  1
  O  O17  1  0.487128  0.313647  0.359503  1
  O  O18  1  0.175164  0.804878  0.779998  1
  O  O19  1  0.512872  0.813647  0.140497  1
  F  F20  1  0.832498  0.881520  0.475347  1
  F  F21  1  0.832498  0.618480  0.975347  1
  F  F22  1  0.167502  0.381520  0.024653  1
  F  F23  1  0.167502  0.118480  0.524653  1
