# generated using pymatgen
data_CuP4S3I
_symmetry_space_group_name_H-M   'P 1'
_cell_length_a   11.79479169
_cell_length_b   11.79479169
_cell_length_c   10.90966477
_cell_angle_alpha   90.00000000
_cell_angle_beta   90.00000000
_cell_angle_gamma   139.43323538
_symmetry_Int_Tables_number   1
_chemical_formula_structural   CuP4S3I
_chemical_formula_sum   'Cu4 P16 S12 I4'
_cell_volume   987.02511204
_cell_formula_units_Z   4
loop_
 _symmetry_equiv_pos_site_id
 _symmetry_equiv_pos_as_xyz
  1  'x, y, z'
loop_
 _atom_site_type_symbol
 _atom_site_label
 _atom_site_symmetry_multiplicity
 _atom_site_fract_x
 _atom_site_fract_y
 _atom_site_fract_z
 _atom_site_occupancy
  Cu  Cu0  1  0.796455  0.796455  0.500000  1
  Cu  Cu1  1  0.296455  0.296455  0.000000  1
  Cu  Cu2  1  0.703545  0.703545  0.000000  1
  Cu  Cu3  1  0.203545  0.203545  0.500000  1
  P  P4  1  0.619759  0.380241  0.293642  1
  P  P5  1  0.282770  0.717230  0.473283  1
  P  P6  1  0.444583  0.280705  0.459055  1
  P  P7  1  0.719295  0.555417  0.459055  1
  P  P8  1  0.055417  0.219295  0.959055  1
  P  P9  1  0.944583  0.780705  0.040945  1
  P  P10  1  0.880241  0.119759  0.793642  1
  P  P11  1  0.780705  0.944583  0.959055  1
  P  P12  1  0.119759  0.880241  0.206358  1
  P  P13  1  0.219295  0.055417  0.040945  1
  P  P14  1  0.217230  0.782770  0.973283  1
  P  P15  1  0.555417  0.719295  0.540945  1
  P  P16  1  0.717230  0.282770  0.526717  1
  P  P17  1  0.380241  0.619759  0.706358  1
  P  P18  1  0.280705  0.444583  0.540945  1
  P  P19  1  0.782770  0.217230  0.026717  1
  S  S20  1  0.143609  0.459892  0.436341  1
  S  S21  1  0.286965  0.713035  0.668591  1
  S  S22  1  0.540108  0.856391  0.436341  1
  S  S23  1  0.786965  0.213035  0.831409  1
  S  S24  1  0.643609  0.959892  0.063659  1
  S  S25  1  0.713035  0.286965  0.331409  1
  S  S26  1  0.856391  0.540108  0.563659  1
  S  S27  1  0.040108  0.356391  0.063659  1
  S  S28  1  0.959892  0.643609  0.936341  1
  S  S29  1  0.213035  0.786965  0.168591  1
  S  S30  1  0.459892  0.143609  0.563659  1
  S  S31  1  0.356391  0.040108  0.936341  1
  I  I32  1  0.468210  0.531790  0.176491  1
  I  I33  1  0.968210  0.031790  0.323509  1
  I  I34  1  0.531790  0.468210  0.823509  1
  I  I35  1  0.031790  0.968210  0.676491  1
