# generated using pymatgen
data_Sc(PO3)3
_symmetry_space_group_name_H-M   'P 1'
_cell_length_a   12.06365868
_cell_length_b   12.06365868
_cell_length_c   9.84419362
_cell_angle_alpha   69.86432370
_cell_angle_beta   110.13567630
_cell_angle_gamma   69.54690072
_symmetry_Int_Tables_number   1
_chemical_formula_structural   Sc(PO3)3
_chemical_formula_sum   'Sc6 P18 O54'
_cell_volume   1070.23633476
_cell_formula_units_Z   6
loop_
 _symmetry_equiv_pos_site_id
 _symmetry_equiv_pos_as_xyz
  1  'x, y, z'
loop_
 _atom_site_type_symbol
 _atom_site_label
 _atom_site_symmetry_multiplicity
 _atom_site_fract_x
 _atom_site_fract_y
 _atom_site_fract_z
 _atom_site_occupancy
  Sc  Sc0  1  0.581993  0.595651  0.986424  1
  Sc  Sc1  1  0.073302  0.083099  0.486924  1
  Sc  Sc2  1  0.404349  0.418007  0.486424  1
  Sc  Sc3  1  0.256005  0.232044  0.022279  1
  Sc  Sc4  1  0.767956  0.743995  0.522279  1
  Sc  Sc5  1  0.916901  0.926698  0.986924  1
  P  P6  1  0.446449  0.154474  0.838356  1
  P  P7  1  0.170447  0.892510  0.318815  1
  P  P8  1  0.375243  0.681742  0.151154  1
  P  P9  1  0.721875  0.005869  0.167423  1
  P  P10  1  0.515236  0.211336  0.336815  1
  P  P11  1  0.051532  0.569203  0.230994  1
  P  P12  1  0.318258  0.624757  0.651154  1
  P  P13  1  0.662442  0.945425  0.679068  1
  P  P14  1  0.756209  0.292754  0.712639  1
  P  P15  1  0.994131  0.278125  0.667423  1
  P  P16  1  0.430797  0.948468  0.730994  1
  P  P17  1  0.707246  0.243791  0.212639  1
  P  P18  1  0.107490  0.829553  0.818815  1
  P  P19  1  0.127428  0.589502  0.781326  1
  P  P20  1  0.410498  0.872572  0.281326  1
  P  P21  1  0.788664  0.484764  0.836815  1
  P  P22  1  0.845526  0.553551  0.338356  1
  P  P23  1  0.054575  0.337558  0.179068  1
  O  O24  1  0.836524  0.326427  0.619331  1
  O  O25  1  0.840183  0.142517  0.852267  1
  O  O26  1  0.103898  0.894873  0.157147  1
  O  O27  1  0.430030  0.767638  0.214817  1
  O  O28  1  0.397224  0.062468  0.782788  1
  O  O29  1  0.477484  0.601637  0.116834  1
  O  O30  1  0.937532  0.602776  0.282788  1
  O  O31  1  0.341527  0.234284  0.869789  1
  O  O32  1  0.015954  0.708256  0.105465  1
  O  O33  1  0.232362  0.569970  0.714817  1
  O  O34  1  0.553379  0.822893  0.414975  1
  O  O35  1  0.735775  0.924888  0.333251  1
  O  O36  1  0.611938  0.260692  0.293201  1
  O  O37  1  0.923930  0.367530  0.022210  1
  O  O38  1  0.053729  0.155860  0.649092  1
  O  O39  1  0.588629  0.032342  0.016828  1
  O  O40  1  0.181629  0.256761  0.179802  1
  O  O41  1  0.330012  0.846205  0.378400  1
  O  O42  1  0.020434  0.492903  0.129147  1
  O  O43  1  0.343782  0.602051  0.271103  1
  O  O44  1  0.743239  0.818371  0.679802  1
  O  O45  1  0.827036  0.549319  0.715026  1
  O  O46  1  0.527346  0.805182  0.889204  1
  O  O47  1  0.177107  0.446621  0.914975  1
  O  O48  1  0.094464  0.021948  0.317045  1
  O  O49  1  0.291744  0.984046  0.605465  1
  O  O50  1  0.234940  0.807862  0.972357  1
  O  O51  1  0.105127  0.896102  0.657147  1
  O  O52  1  0.192138  0.765060  0.472357  1
  O  O53  1  0.418375  0.318289  0.351490  1
  O  O54  1  0.322596  0.019500  0.131885  1
  O  O55  1  0.728512  0.948428  0.836846  1
  O  O56  1  0.051572  0.271488  0.336846  1
  O  O57  1  0.507097  0.979566  0.629147  1
  O  O58  1  0.472114  0.236175  0.712016  1
  O  O59  1  0.857483  0.159817  0.352267  1
  O  O60  1  0.450681  0.172964  0.215026  1
  O  O61  1  0.739308  0.388062  0.793201  1
  O  O62  1  0.194818  0.472654  0.389204  1
  O  O63  1  0.681711  0.581625  0.851490  1
  O  O64  1  0.844140  0.946271  0.149092  1
  O  O65  1  0.650319  0.387008  0.072268  1
  O  O66  1  0.967658  0.411371  0.516828  1
  O  O67  1  0.632470  0.076070  0.522210  1
  O  O68  1  0.612992  0.349681  0.572268  1
  O  O69  1  0.398363  0.522516  0.616834  1
  O  O70  1  0.980500  0.677404  0.631885  1
  O  O71  1  0.075112  0.264225  0.833251  1
  O  O72  1  0.397949  0.656218  0.771103  1
  O  O73  1  0.673573  0.163476  0.119331  1
  O  O74  1  0.763825  0.527886  0.212016  1
  O  O75  1  0.153795  0.669988  0.878400  1
  O  O76  1  0.978052  0.905536  0.817045  1
  O  O77  1  0.765716  0.658473  0.369789  1
