# generated using pymatgen
data_Rb2RuO4
_symmetry_space_group_name_H-M   'P 1'
_cell_length_a   6.38885829
_cell_length_b   8.24128535
_cell_length_c   11.25637323
_cell_angle_alpha   90.00000000
_cell_angle_beta   90.00000000
_cell_angle_gamma   90.00000000
_symmetry_Int_Tables_number   1
_chemical_formula_structural   Rb2RuO4
_chemical_formula_sum   'Rb8 Ru4 O16'
_cell_volume   592.67511345
_cell_formula_units_Z   4
loop_
 _symmetry_equiv_pos_site_id
 _symmetry_equiv_pos_as_xyz
  1  'x, y, z'
loop_
 _atom_site_type_symbol
 _atom_site_label
 _atom_site_symmetry_multiplicity
 _atom_site_fract_x
 _atom_site_fract_y
 _atom_site_fract_z
 _atom_site_occupancy
  Rb  Rb0  1  0.750000  0.336625  0.419045  1
  Rb  Rb1  1  0.250000  0.663375  0.580955  1
  Rb  Rb2  1  0.750000  0.836625  0.080955  1
  Rb  Rb3  1  0.250000  0.163375  0.919045  1
  Rb  Rb4  1  0.750000  0.506620  0.795103  1
  Rb  Rb5  1  0.250000  0.493380  0.204897  1
  Rb  Rb6  1  0.750000  0.006620  0.704897  1
  Rb  Rb7  1  0.250000  0.993380  0.295103  1
  Ru  Ru8  1  0.750000  0.779093  0.421403  1
  Ru  Ru9  1  0.250000  0.220907  0.578597  1
  Ru  Ru10  1  0.750000  0.279093  0.078597  1
  Ru  Ru11  1  0.250000  0.720907  0.921403  1
  O  O12  1  0.750000  0.695008  0.569831  1
  O  O13  1  0.250000  0.304992  0.430169  1
  O  O14  1  0.750000  0.195008  0.930169  1
  O  O15  1  0.250000  0.804992  0.069831  1
  O  O16  1  0.750000  0.495842  0.075930  1
  O  O17  1  0.250000  0.504158  0.924070  1
  O  O18  1  0.750000  0.995842  0.424070  1
  O  O19  1  0.250000  0.004158  0.575930  1
  O  O20  1  0.520441  0.702533  0.347359  1
  O  O21  1  0.020441  0.297467  0.652641  1
  O  O22  1  0.979559  0.202533  0.152641  1
  O  O23  1  0.479559  0.797467  0.847359  1
  O  O24  1  0.479559  0.297467  0.652641  1
  O  O25  1  0.979559  0.702533  0.347359  1
  O  O26  1  0.020441  0.797467  0.847359  1
  O  O27  1  0.520441  0.202533  0.152641  1
