# generated using pymatgen
data_MgH12S2O9
_symmetry_space_group_name_H-M   'P 1'
_cell_length_a   6.89925741
_cell_length_b   9.50011745
_cell_length_c   14.51067227
_cell_angle_alpha   90.00000000
_cell_angle_beta   90.00000000
_cell_angle_gamma   90.00000000
_symmetry_Int_Tables_number   1
_chemical_formula_structural   MgH12S2O9
_chemical_formula_sum   'Mg4 H48 S8 O36'
_cell_volume   951.08395849
_cell_formula_units_Z   4
loop_
 _symmetry_equiv_pos_site_id
 _symmetry_equiv_pos_as_xyz
  1  'x, y, z'
loop_
 _atom_site_type_symbol
 _atom_site_label
 _atom_site_symmetry_multiplicity
 _atom_site_fract_x
 _atom_site_fract_y
 _atom_site_fract_z
 _atom_site_occupancy
  Mg  Mg0  1  0.000000  0.000000  0.000000  1
  Mg  Mg1  1  0.500000  0.500000  0.000000  1
  Mg  Mg2  1  0.500000  0.500000  0.500000  1
  Mg  Mg3  1  0.000000  0.000000  0.500000  1
  H  H4  1  0.267885  0.877340  0.111509  1
  H  H5  1  0.767885  0.622660  0.888491  1
  H  H6  1  0.232115  0.377340  0.388491  1
  H  H7  1  0.732115  0.122660  0.611509  1
  H  H8  1  0.732115  0.122660  0.888491  1
  H  H9  1  0.232115  0.377340  0.111509  1
  H  H10  1  0.767885  0.622660  0.611509  1
  H  H11  1  0.267885  0.877340  0.388491  1
  H  H12  1  0.064556  0.805755  0.131864  1
  H  H13  1  0.564556  0.694245  0.868136  1
  H  H14  1  0.435444  0.305755  0.368136  1
  H  H15  1  0.935444  0.194245  0.631864  1
  H  H16  1  0.935444  0.194245  0.868136  1
  H  H17  1  0.435444  0.305755  0.131864  1
  H  H18  1  0.564556  0.694245  0.631864  1
  H  H19  1  0.064556  0.805755  0.368136  1
  H  H20  1  0.072510  0.117186  0.162548  1
  H  H21  1  0.572510  0.382814  0.837452  1
  H  H22  1  0.427490  0.617186  0.337452  1
  H  H23  1  0.927490  0.882814  0.662548  1
  H  H24  1  0.927490  0.882814  0.837452  1
  H  H25  1  0.427490  0.617186  0.162548  1
  H  H26  1  0.572510  0.382814  0.662548  1
  H  H27  1  0.072510  0.117186  0.337452  1
  H  H28  1  0.849663  0.149434  0.149270  1
  H  H29  1  0.349663  0.350566  0.850730  1
  H  H30  1  0.650337  0.649434  0.350730  1
  H  H31  1  0.150337  0.850566  0.649270  1
  H  H32  1  0.150337  0.850566  0.850730  1
  H  H33  1  0.650337  0.649434  0.149270  1
  H  H34  1  0.349663  0.350566  0.649270  1
  H  H35  1  0.849663  0.149434  0.350730  1
  H  H36  1  0.648878  0.915122  0.075702  1
  H  H37  1  0.148878  0.584878  0.924298  1
  H  H38  1  0.851122  0.415122  0.424298  1
  H  H39  1  0.351122  0.084878  0.575702  1
  H  H40  1  0.351122  0.084878  0.924298  1
  H  H41  1  0.851122  0.415122  0.075702  1
  H  H42  1  0.148878  0.584878  0.575702  1
  H  H43  1  0.648878  0.915122  0.424298  1
  H  H44  1  0.699201  0.812963  0.991014  1
  H  H45  1  0.199201  0.687037  0.008986  1
  H  H46  1  0.800799  0.312963  0.508986  1
  H  H47  1  0.300799  0.187037  0.491014  1
  H  H48  1  0.300799  0.187037  0.008986  1
  H  H49  1  0.800799  0.312963  0.991014  1
  H  H50  1  0.199201  0.687037  0.491014  1
  H  H51  1  0.699201  0.812963  0.508986  1
  S  S52  1  0.435591  0.037430  0.250000  1
  S  S53  1  0.935591  0.462570  0.750000  1
  S  S54  1  0.064409  0.537430  0.250000  1
  S  S55  1  0.564409  0.962570  0.750000  1
  S  S56  1  0.610432  0.210251  0.250000  1
  S  S57  1  0.110432  0.289749  0.750000  1
  S  S58  1  0.889568  0.710251  0.250000  1
  S  S59  1  0.389568  0.789749  0.750000  1
  O  O60  1  0.471611  0.953973  0.165323  1
  O  O61  1  0.971611  0.546027  0.834677  1
  O  O62  1  0.028389  0.453973  0.334677  1
  O  O63  1  0.528389  0.046027  0.665323  1
  O  O64  1  0.528389  0.046027  0.834677  1
  O  O65  1  0.028389  0.453973  0.165323  1
  O  O66  1  0.971611  0.546027  0.665323  1
  O  O67  1  0.471611  0.953973  0.334677  1
  O  O68  1  0.231465  0.089981  0.250000  1
  O  O69  1  0.731465  0.410019  0.750000  1
  O  O70  1  0.268535  0.589981  0.250000  1
  O  O71  1  0.768535  0.910019  0.750000  1
  O  O72  1  0.147503  0.842214  0.081058  1
  O  O73  1  0.647503  0.657786  0.918942  1
  O  O74  1  0.352497  0.342214  0.418942  1
  O  O75  1  0.852497  0.157786  0.581058  1
  O  O76  1  0.852497  0.157786  0.918942  1
  O  O77  1  0.352497  0.342214  0.081058  1
  O  O78  1  0.647503  0.657786  0.581058  1
  O  O79  1  0.147503  0.842214  0.418942  1
  O  O80  1  0.969162  0.125578  0.115058  1
  O  O81  1  0.469162  0.374422  0.884942  1
  O  O82  1  0.530838  0.625578  0.384942  1
  O  O83  1  0.030838  0.874422  0.615058  1
  O  O84  1  0.030838  0.874422  0.884942  1
  O  O85  1  0.530838  0.625578  0.115058  1
  O  O86  1  0.469162  0.374422  0.615058  1
  O  O87  1  0.969162  0.125578  0.384942  1
  O  O88  1  0.740277  0.898507  0.024650  1
  O  O89  1  0.240277  0.601493  0.975350  1
  O  O90  1  0.759723  0.398507  0.475350  1
  O  O91  1  0.259723  0.101493  0.524650  1
  O  O92  1  0.259723  0.101493  0.975350  1
  O  O93  1  0.759723  0.398507  0.024650  1
  O  O94  1  0.240277  0.601493  0.524650  1
  O  O95  1  0.740277  0.898507  0.475350  1
