# generated using pymatgen
data_SbS2NCl8
_symmetry_space_group_name_H-M   'P 1'
_cell_length_a   7.79509733
_cell_length_b   11.71574301
_cell_length_c   16.63242437
_cell_angle_alpha   90.00000000
_cell_angle_beta   98.38082534
_cell_angle_gamma   90.00000000
_symmetry_Int_Tables_number   1
_chemical_formula_structural   SbS2NCl8
_chemical_formula_sum   'Sb4 S8 N4 Cl32'
_cell_volume   1502.74135016
_cell_formula_units_Z   4
loop_
 _symmetry_equiv_pos_site_id
 _symmetry_equiv_pos_as_xyz
  1  'x, y, z'
loop_
 _atom_site_type_symbol
 _atom_site_label
 _atom_site_symmetry_multiplicity
 _atom_site_fract_x
 _atom_site_fract_y
 _atom_site_fract_z
 _atom_site_occupancy
  Sb  Sb0  1  0.753925  0.800311  0.153047  1
  Sb  Sb1  1  0.753925  0.699689  0.653047  1
  Sb  Sb2  1  0.246075  0.199689  0.846953  1
  Sb  Sb3  1  0.246075  0.300311  0.346953  1
  S  S4  1  0.200479  0.721023  0.017839  1
  S  S5  1  0.799521  0.278977  0.982161  1
  S  S6  1  0.716948  0.215732  0.147137  1
  S  S7  1  0.799521  0.221023  0.482161  1
  S  S8  1  0.200479  0.778977  0.517839  1
  S  S9  1  0.283052  0.784268  0.852863  1
  S  S10  1  0.716948  0.284268  0.647137  1
  S  S11  1  0.283052  0.715732  0.352863  1
  N  N12  1  0.765213  0.218738  0.060583  1
  N  N13  1  0.234787  0.781262  0.939417  1
  N  N14  1  0.234787  0.718738  0.439417  1
  N  N15  1  0.765213  0.281262  0.560583  1
  Cl  Cl16  1  0.975755  0.845528  0.677900  1
  Cl  Cl17  1  0.458541  0.336594  0.813471  1
  Cl  Cl18  1  0.770769  0.450115  0.991222  1
  Cl  Cl19  1  0.975755  0.654472  0.177900  1
  Cl  Cl20  1  0.034762  0.433999  0.381985  1
  Cl  Cl21  1  0.770769  0.049885  0.491222  1
  Cl  Cl22  1  0.673894  0.373890  0.186640  1
  Cl  Cl23  1  0.471610  0.058607  0.874944  1
  Cl  Cl24  1  0.024245  0.154472  0.322100  1
  Cl  Cl25  1  0.812037  0.642175  0.792981  1
  Cl  Cl26  1  0.965238  0.933999  0.118015  1
  Cl  Cl27  1  0.034762  0.066001  0.881985  1
  Cl  Cl28  1  0.229231  0.950115  0.508778  1
  Cl  Cl29  1  0.326106  0.626110  0.813360  1
  Cl  Cl30  1  0.528390  0.558607  0.625056  1
  Cl  Cl31  1  0.698129  0.761531  0.512033  1
  Cl  Cl32  1  0.301871  0.261531  0.987967  1
  Cl  Cl33  1  0.301871  0.238469  0.487967  1
  Cl  Cl34  1  0.965238  0.566001  0.618015  1
  Cl  Cl35  1  0.229231  0.549885  0.008778  1
  Cl  Cl36  1  0.024245  0.345528  0.822100  1
  Cl  Cl37  1  0.541459  0.663406  0.186529  1
  Cl  Cl38  1  0.471610  0.441393  0.374944  1
  Cl  Cl39  1  0.673894  0.126110  0.686640  1
  Cl  Cl40  1  0.458541  0.163406  0.313471  1
  Cl  Cl41  1  0.326106  0.873890  0.313360  1
  Cl  Cl42  1  0.528390  0.941393  0.125056  1
  Cl  Cl43  1  0.187963  0.142175  0.707019  1
  Cl  Cl44  1  0.541459  0.836594  0.686529  1
  Cl  Cl45  1  0.812037  0.857825  0.292981  1
  Cl  Cl46  1  0.187963  0.357825  0.207019  1
  Cl  Cl47  1  0.698129  0.738469  0.012033  1
