# generated using pymatgen
data_AgHg2PO4
_symmetry_space_group_name_H-M   'P 1'
_cell_length_a   6.27168474
_cell_length_b   8.84929252
_cell_length_c   9.49439210
_cell_angle_alpha   90.00000000
_cell_angle_beta   90.00000000
_cell_angle_gamma   90.00000000
_symmetry_Int_Tables_number   1
_chemical_formula_structural   AgHg2PO4
_chemical_formula_sum   'Ag4 Hg8 P4 O16'
_cell_volume   526.93850385
_cell_formula_units_Z   4
loop_
 _symmetry_equiv_pos_site_id
 _symmetry_equiv_pos_as_xyz
  1  'x, y, z'
loop_
 _atom_site_type_symbol
 _atom_site_label
 _atom_site_symmetry_multiplicity
 _atom_site_fract_x
 _atom_site_fract_y
 _atom_site_fract_z
 _atom_site_occupancy
  Ag  Ag0  1  0.000000  0.528826  0.148846  1
  Ag  Ag1  1  0.000000  0.028826  0.351154  1
  Ag  Ag2  1  0.000000  0.971174  0.648846  1
  Ag  Ag3  1  0.000000  0.471174  0.851154  1
  Hg  Hg4  1  0.213798  0.752975  0.467943  1
  Hg  Hg5  1  0.786202  0.747025  0.967943  1
  Hg  Hg6  1  0.786202  0.252975  0.032057  1
  Hg  Hg7  1  0.786202  0.247025  0.532057  1
  Hg  Hg8  1  0.213798  0.247025  0.532057  1
  Hg  Hg9  1  0.213798  0.252975  0.032057  1
  Hg  Hg10  1  0.213798  0.747025  0.967943  1
  Hg  Hg11  1  0.786202  0.752975  0.467943  1
  P  P12  1  0.500000  0.456188  0.285906  1
  P  P13  1  0.500000  0.543812  0.714094  1
  P  P14  1  0.500000  0.043812  0.785906  1
  P  P15  1  0.500000  0.956188  0.214094  1
  O  O16  1  0.290710  0.048624  0.197281  1
  O  O17  1  0.500000  0.116189  0.635775  1
  O  O18  1  0.500000  0.828769  0.097884  1
  O  O19  1  0.500000  0.171231  0.902116  1
  O  O20  1  0.709290  0.451376  0.697281  1
  O  O21  1  0.500000  0.328769  0.402116  1
  O  O22  1  0.290710  0.951376  0.802719  1
  O  O23  1  0.500000  0.883811  0.364225  1
  O  O24  1  0.709290  0.951376  0.802719  1
  O  O25  1  0.500000  0.616189  0.864225  1
  O  O26  1  0.290710  0.548624  0.302719  1
  O  O27  1  0.709290  0.048624  0.197281  1
  O  O28  1  0.500000  0.383811  0.135775  1
  O  O29  1  0.500000  0.671231  0.597884  1
  O  O30  1  0.709290  0.548624  0.302719  1
  O  O31  1  0.290710  0.451376  0.697281  1
