# generated using pymatgen
data_LiCa9Mn(PO4)7
_symmetry_space_group_name_H-M   'P 1'
_cell_length_a   13.90664890
_cell_length_b   13.90664890
_cell_length_c   13.90664890
_cell_angle_alpha   44.09217917
_cell_angle_beta   44.09217917
_cell_angle_gamma   44.09217917
_symmetry_Int_Tables_number   1
_chemical_formula_structural   LiCa9Mn(PO4)7
_chemical_formula_sum   'Li2 Ca18 Mn2 P14 O56'
_cell_volume   1182.91556835
_cell_formula_units_Z   2
loop_
 _symmetry_equiv_pos_site_id
 _symmetry_equiv_pos_as_xyz
  1  'x, y, z'
loop_
 _atom_site_type_symbol
 _atom_site_label
 _atom_site_symmetry_multiplicity
 _atom_site_fract_x
 _atom_site_fract_y
 _atom_site_fract_z
 _atom_site_occupancy
  Li  Li0  1  0.821960  0.821960  0.821960  1
  Li  Li1  1  0.321960  0.321960  0.321960  1
  Ca  Ca2  1  0.423308  0.839923  0.434972  1
  Ca  Ca3  1  0.065595  0.646702  0.093216  1
  Ca  Ca4  1  0.646702  0.093216  0.065595  1
  Ca  Ca5  1  0.441263  0.030368  0.050059  1
  Ca  Ca6  1  0.934972  0.339923  0.923308  1
  Ca  Ca7  1  0.050059  0.441263  0.030368  1
  Ca  Ca8  1  0.550059  0.530368  0.941263  1
  Ca  Ca9  1  0.093216  0.065595  0.646702  1
  Ca  Ca10  1  0.565595  0.593216  0.146702  1
  Ca  Ca11  1  0.434972  0.423308  0.839923  1
  Ca  Ca12  1  0.839923  0.434972  0.423308  1
  Ca  Ca13  1  0.146702  0.565595  0.593216  1
  Ca  Ca14  1  0.941263  0.550059  0.530368  1
  Ca  Ca15  1  0.530368  0.941263  0.550059  1
  Ca  Ca16  1  0.339923  0.923308  0.934972  1
  Ca  Ca17  1  0.593216  0.146702  0.565595  1
  Ca  Ca18  1  0.923308  0.934972  0.339923  1
  Ca  Ca19  1  0.030368  0.050059  0.441263  1
  Mn  Mn20  1  0.997954  0.997954  0.997954  1
  Mn  Mn21  1  0.497954  0.497954  0.497954  1
  P  P22  1  0.274359  0.813827  0.313668  1
  P  P23  1  0.313827  0.774359  0.813668  1
  P  P24  1  0.694456  0.731273  0.169309  1
  P  P25  1  0.194456  0.669309  0.231273  1
  P  P26  1  0.313668  0.274359  0.813827  1
  P  P27  1  0.774359  0.813668  0.313827  1
  P  P28  1  0.813827  0.313668  0.274359  1
  P  P29  1  0.813668  0.313827  0.774359  1
  P  P30  1  0.233132  0.233132  0.233132  1
  P  P31  1  0.169309  0.694456  0.731273  1
  P  P32  1  0.669309  0.231273  0.194456  1
  P  P33  1  0.733132  0.733132  0.733132  1
  P  P34  1  0.731273  0.169309  0.694456  1
  P  P35  1  0.231273  0.194456  0.669309  1
  O  O36  1  0.810833  0.827434  0.384839  1
  O  O37  1  0.310833  0.884839  0.327434  1
  O  O38  1  0.353806  0.601490  0.910445  1
  O  O39  1  0.124231  0.844301  0.130860  1
  O  O40  1  0.344301  0.624231  0.630860  1
  O  O41  1  0.601490  0.910445  0.353806  1
  O  O42  1  0.361925  0.636909  0.378035  1
  O  O43  1  0.630860  0.344301  0.624231  1
  O  O44  1  0.118501  0.867402  0.654675  1
  O  O45  1  0.067168  0.662755  0.751299  1
  O  O46  1  0.605591  0.745080  0.888293  1
  O  O47  1  0.888293  0.605591  0.745080  1
  O  O48  1  0.107206  0.661769  0.392269  1
  O  O49  1  0.367402  0.618501  0.154675  1
  O  O50  1  0.751299  0.067168  0.662755  1
  O  O51  1  0.567168  0.251299  0.162755  1
  O  O52  1  0.410445  0.101490  0.853806  1
  O  O53  1  0.101490  0.853806  0.410445  1
  O  O54  1  0.618501  0.154675  0.367402  1
  O  O55  1  0.142862  0.327958  0.875013  1
  O  O56  1  0.661769  0.392269  0.107206  1
  O  O57  1  0.691806  0.691806  0.691806  1
  O  O58  1  0.607206  0.892269  0.161769  1
  O  O59  1  0.827958  0.642862  0.375013  1
  O  O60  1  0.154675  0.367402  0.618501  1
  O  O61  1  0.251299  0.162755  0.567168  1
  O  O62  1  0.136909  0.861925  0.878035  1
  O  O63  1  0.388293  0.245080  0.105591  1
  O  O64  1  0.161769  0.607206  0.892269  1
  O  O65  1  0.884839  0.327434  0.310833  1
  O  O66  1  0.867402  0.654675  0.118501  1
  O  O67  1  0.624231  0.630860  0.344301  1
  O  O68  1  0.853806  0.410445  0.101490  1
  O  O69  1  0.392269  0.107206  0.661769  1
  O  O70  1  0.910445  0.353806  0.601490  1
  O  O71  1  0.745080  0.888293  0.605591  1
  O  O72  1  0.378035  0.361925  0.636909  1
  O  O73  1  0.654675  0.118501  0.867402  1
  O  O74  1  0.642862  0.375013  0.827958  1
  O  O75  1  0.827434  0.384839  0.810833  1
  O  O76  1  0.384839  0.810833  0.827434  1
  O  O77  1  0.327958  0.875013  0.142862  1
  O  O78  1  0.130860  0.124231  0.844301  1
  O  O79  1  0.327434  0.310833  0.884839  1
  O  O80  1  0.844301  0.130860  0.124231  1
  O  O81  1  0.105591  0.388293  0.245080  1
  O  O82  1  0.162755  0.567168  0.251299  1
  O  O83  1  0.245080  0.105591  0.388293  1
  O  O84  1  0.636909  0.378035  0.361925  1
  O  O85  1  0.892269  0.161769  0.607206  1
  O  O86  1  0.375013  0.827958  0.642862  1
  O  O87  1  0.875013  0.142862  0.327958  1
  O  O88  1  0.662755  0.751299  0.067168  1
  O  O89  1  0.878035  0.136909  0.861925  1
  O  O90  1  0.861925  0.878035  0.136909  1
  O  O91  1  0.191806  0.191806  0.191806  1
