# generated using pymatgen
data_Sr2SnSe5
_symmetry_space_group_name_H-M   'P 1'
_cell_length_a   8.74402387
_cell_length_b   12.25456058
_cell_length_c   16.78449890
_cell_angle_alpha   90.00000000
_cell_angle_beta   90.00000000
_cell_angle_gamma   90.00000000
_symmetry_Int_Tables_number   1
_chemical_formula_structural   Sr2SnSe5
_chemical_formula_sum   'Sr16 Sn8 Se40'
_cell_volume   1798.52905232
_cell_formula_units_Z   8
loop_
 _symmetry_equiv_pos_site_id
 _symmetry_equiv_pos_as_xyz
  1  'x, y, z'
loop_
 _atom_site_type_symbol
 _atom_site_label
 _atom_site_symmetry_multiplicity
 _atom_site_fract_x
 _atom_site_fract_y
 _atom_site_fract_z
 _atom_site_occupancy
  Sr  Sr0  1  0.241761  0.254529  0.430203  1
  Sr  Sr1  1  0.255922  0.615054  0.821427  1
  Sr  Sr2  1  0.758814  0.382520  0.179360  1
  Sr  Sr3  1  0.744078  0.115054  0.678573  1
  Sr  Sr4  1  0.241186  0.117480  0.679360  1
  Sr  Sr5  1  0.758814  0.617480  0.820640  1
  Sr  Sr6  1  0.744078  0.884946  0.321427  1
  Sr  Sr7  1  0.739576  0.746741  0.570419  1
  Sr  Sr8  1  0.758239  0.754529  0.069797  1
  Sr  Sr9  1  0.241761  0.745471  0.569797  1
  Sr  Sr10  1  0.758239  0.245471  0.930203  1
  Sr  Sr11  1  0.260424  0.753259  0.070419  1
  Sr  Sr12  1  0.739576  0.253259  0.429581  1
  Sr  Sr13  1  0.255922  0.384946  0.178573  1
  Sr  Sr14  1  0.260424  0.246741  0.929581  1
  Sr  Sr15  1  0.241186  0.882520  0.320640  1
  Sn  Sn16  1  0.015766  0.091907  0.174163  1
  Sn  Sn17  1  0.984234  0.408093  0.674163  1
  Sn  Sn18  1  0.495773  0.053252  0.104171  1
  Sn  Sn19  1  0.504227  0.553252  0.395829  1
  Sn  Sn20  1  0.984234  0.591907  0.325837  1
  Sn  Sn21  1  0.495773  0.946748  0.895829  1
  Sn  Sn22  1  0.504227  0.446748  0.604171  1
  Sn  Sn23  1  0.015766  0.908093  0.825837  1
  Se  Se24  1  0.282698  0.871288  0.762471  1
  Se  Se25  1  0.985983  0.937655  0.608443  1
  Se  Se26  1  0.014017  0.562345  0.108443  1
  Se  Se27  1  0.514418  0.740677  0.927245  1
  Se  Se28  1  0.494421  0.369380  0.318446  1
  Se  Se29  1  0.012874  0.246859  0.070404  1
  Se  Se30  1  0.987126  0.253141  0.570404  1
  Se  Se31  1  0.282698  0.128712  0.237529  1
  Se  Se32  1  0.230886  0.632520  0.248867  1
  Se  Se33  1  0.485582  0.759323  0.427245  1
  Se  Se34  1  0.652489  0.000000  0.500000  1
  Se  Se35  1  0.486847  0.058070  0.390225  1
  Se  Se36  1  0.157117  0.000000  0.500000  1
  Se  Se37  1  0.985983  0.062345  0.391557  1
  Se  Se38  1  0.994454  0.619309  0.674969  1
  Se  Se39  1  0.842883  0.500000  0.000000  1
  Se  Se40  1  0.277897  0.500000  0.500000  1
  Se  Se41  1  0.005546  0.119309  0.825031  1
  Se  Se42  1  0.513153  0.441930  0.890225  1
  Se  Se43  1  0.994454  0.380691  0.325031  1
  Se  Se44  1  0.494421  0.630620  0.681554  1
  Se  Se45  1  0.723787  0.500000  0.500000  1
  Se  Se46  1  0.513153  0.558070  0.109775  1
  Se  Se47  1  0.505579  0.869380  0.181554  1
  Se  Se48  1  0.505579  0.130620  0.818446  1
  Se  Se49  1  0.485582  0.240677  0.572755  1
  Se  Se50  1  0.486847  0.941930  0.609775  1
  Se  Se51  1  0.014017  0.437655  0.891557  1
  Se  Se52  1  0.012874  0.753141  0.929596  1
  Se  Se53  1  0.005546  0.880691  0.174969  1
  Se  Se54  1  0.347511  0.500000  0.000000  1
  Se  Se55  1  0.769114  0.132520  0.251133  1
  Se  Se56  1  0.514418  0.259323  0.072755  1
  Se  Se57  1  0.722103  0.000000  0.000000  1
  Se  Se58  1  0.717302  0.371288  0.737529  1
  Se  Se59  1  0.769114  0.867480  0.748867  1
  Se  Se60  1  0.717302  0.628712  0.262471  1
  Se  Se61  1  0.987126  0.746859  0.429596  1
  Se  Se62  1  0.230886  0.367480  0.751133  1
  Se  Se63  1  0.276213  0.000000  0.000000  1
