# generated using pymatgen
data_K3IO5
_symmetry_space_group_name_H-M   'P 1'
_cell_length_a   6.31764678
_cell_length_b   6.31764678
_cell_length_c   16.86444693
_cell_angle_alpha   90.00000000
_cell_angle_beta   90.00000000
_cell_angle_gamma   90.00000000
_symmetry_Int_Tables_number   1
_chemical_formula_structural   K3IO5
_chemical_formula_sum   'K12 I4 O20'
_cell_volume   673.10495052
_cell_formula_units_Z   4
loop_
 _symmetry_equiv_pos_site_id
 _symmetry_equiv_pos_as_xyz
  1  'x, y, z'
loop_
 _atom_site_type_symbol
 _atom_site_label
 _atom_site_symmetry_multiplicity
 _atom_site_fract_x
 _atom_site_fract_y
 _atom_site_fract_z
 _atom_site_occupancy
  K  K0  1  0.500000  0.000000  0.388102  1
  K  K1  1  0.000000  0.500000  0.111898  1
  K  K2  1  0.000000  0.500000  0.611898  1
  K  K3  1  0.500000  0.000000  0.888102  1
  K  K4  1  0.500000  0.500000  0.000000  1
  K  K5  1  0.000000  0.000000  0.000000  1
  K  K6  1  0.000000  0.000000  0.500000  1
  K  K7  1  0.500000  0.500000  0.500000  1
  K  K8  1  0.500000  0.500000  0.250000  1
  K  K9  1  0.000000  0.000000  0.250000  1
  K  K10  1  0.000000  0.000000  0.750000  1
  K  K11  1  0.500000  0.500000  0.750000  1
  I  I12  1  0.500000  0.000000  0.128468  1
  I  I13  1  0.000000  0.500000  0.371532  1
  I  I14  1  0.000000  0.500000  0.871532  1
  I  I15  1  0.500000  0.000000  0.628468  1
  O  O16  1  0.500000  0.000000  0.236895  1
  O  O17  1  0.000000  0.500000  0.263105  1
  O  O18  1  0.000000  0.500000  0.763105  1
  O  O19  1  0.500000  0.000000  0.736895  1
  O  O20  1  0.693882  0.216596  0.106100  1
  O  O21  1  0.283404  0.193882  0.106100  1
  O  O22  1  0.716596  0.806118  0.106100  1
  O  O23  1  0.193882  0.283404  0.393900  1
  O  O24  1  0.806118  0.716596  0.393900  1
  O  O25  1  0.306118  0.783404  0.106100  1
  O  O26  1  0.216596  0.693882  0.393900  1
  O  O27  1  0.783404  0.306118  0.393900  1
  O  O28  1  0.806118  0.283404  0.893900  1
  O  O29  1  0.216596  0.306118  0.893900  1
  O  O30  1  0.783404  0.693882  0.893900  1
  O  O31  1  0.306118  0.216596  0.606100  1
  O  O32  1  0.693882  0.783404  0.606100  1
  O  O33  1  0.193882  0.716596  0.893900  1
  O  O34  1  0.283404  0.806118  0.606100  1
  O  O35  1  0.716596  0.193882  0.606100  1
