# generated using pymatgen
data_K5LiGe2O7
_symmetry_space_group_name_H-M   'P 1'
_cell_length_a   6.32563024
_cell_length_b   16.10275025
_cell_length_c   10.73956518
_cell_angle_alpha   90.00000000
_cell_angle_beta   109.57662571
_cell_angle_gamma   90.00000000
_symmetry_Int_Tables_number   1
_chemical_formula_structural   K5LiGe2O7
_chemical_formula_sum   'K20 Li4 Ge8 O28'
_cell_volume   1030.69695987
_cell_formula_units_Z   4
loop_
 _symmetry_equiv_pos_site_id
 _symmetry_equiv_pos_as_xyz
  1  'x, y, z'
loop_
 _atom_site_type_symbol
 _atom_site_label
 _atom_site_symmetry_multiplicity
 _atom_site_fract_x
 _atom_site_fract_y
 _atom_site_fract_z
 _atom_site_occupancy
  K  K0  1  0.753032  0.567681  0.582845  1
  K  K1  1  0.246968  0.067681  0.917155  1
  K  K2  1  0.739765  0.943439  0.420458  1
  K  K3  1  0.700242  0.164585  0.913900  1
  K  K4  1  0.739765  0.556561  0.920458  1
  K  K5  1  0.753032  0.932319  0.082845  1
  K  K6  1  0.700242  0.335415  0.413900  1
  K  K7  1  0.299758  0.664585  0.586100  1
  K  K8  1  0.260235  0.056561  0.579542  1
  K  K9  1  0.246968  0.432319  0.417155  1
  K  K10  1  0.219273  0.653629  0.889753  1
  K  K11  1  0.260235  0.443439  0.079542  1
  K  K12  1  0.780727  0.346371  0.110247  1
  K  K13  1  0.229206  0.631764  0.233867  1
  K  K14  1  0.229206  0.868236  0.733867  1
  K  K15  1  0.780727  0.153629  0.610247  1
  K  K16  1  0.770794  0.368236  0.766133  1
  K  K17  1  0.299758  0.835415  0.086100  1
  K  K18  1  0.770794  0.131764  0.266133  1
  K  K19  1  0.219273  0.846371  0.389753  1
  Li  Li20  1  0.703552  0.719843  0.103743  1
  Li  Li21  1  0.296448  0.219843  0.396257  1
  Li  Li22  1  0.703552  0.780157  0.603743  1
  Li  Li23  1  0.296448  0.280157  0.896257  1
  Ge  Ge24  1  0.735210  0.946154  0.744542  1
  Ge  Ge25  1  0.264790  0.446154  0.755458  1
  Ge  Ge26  1  0.230441  0.234592  0.113048  1
  Ge  Ge27  1  0.264790  0.053846  0.255458  1
  Ge  Ge28  1  0.735210  0.553846  0.244542  1
  Ge  Ge29  1  0.769559  0.765408  0.886952  1
  Ge  Ge30  1  0.769559  0.734592  0.386952  1
  Ge  Ge31  1  0.230441  0.265408  0.613048  1
  O  O32  1  0.938109  0.000334  0.695202  1
  O  O33  1  0.549514  0.888927  0.610849  1
  O  O34  1  0.265955  0.297615  0.252436  1
  O  O35  1  0.033117  0.280658  0.970406  1
  O  O36  1  0.476563  0.281900  0.571940  1
  O  O37  1  0.523437  0.718100  0.428060  1
  O  O38  1  0.734045  0.702385  0.747564  1
  O  O39  1  0.734045  0.797615  0.247564  1
  O  O40  1  0.938109  0.499666  0.195202  1
  O  O41  1  0.061891  0.500334  0.804798  1
  O  O42  1  0.966883  0.780658  0.529594  1
  O  O43  1  0.523437  0.781900  0.928060  1
  O  O44  1  0.101263  0.366447  0.632189  1
  O  O45  1  0.450486  0.111073  0.389151  1
  O  O46  1  0.450486  0.388927  0.889151  1
  O  O47  1  0.549514  0.611073  0.110849  1
  O  O48  1  0.476563  0.218100  0.071940  1
  O  O49  1  0.590737  0.491242  0.325117  1
  O  O50  1  0.590737  0.008758  0.825117  1
  O  O51  1  0.061891  0.999666  0.304798  1
  O  O52  1  0.898737  0.633553  0.367811  1
  O  O53  1  0.033117  0.219342  0.470406  1
  O  O54  1  0.409263  0.991242  0.174883  1
  O  O55  1  0.265955  0.202385  0.752436  1
  O  O56  1  0.101263  0.133553  0.132189  1
  O  O57  1  0.898737  0.866447  0.867811  1
  O  O58  1  0.966883  0.719342  0.029594  1
  O  O59  1  0.409263  0.508758  0.674883  1
