# generated using pymatgen
data_LuSeO3F
_symmetry_space_group_name_H-M   'P 1'
_cell_length_a   6.54534282
_cell_length_b   6.89828971
_cell_length_c   7.10315079
_cell_angle_alpha   90.00000000
_cell_angle_beta   98.07105494
_cell_angle_gamma   90.00000000
_symmetry_Int_Tables_number   1
_chemical_formula_structural   LuSeO3F
_chemical_formula_sum   'Lu4 Se4 O12 F4'
_cell_volume   317.54231282
_cell_formula_units_Z   4
loop_
 _symmetry_equiv_pos_site_id
 _symmetry_equiv_pos_as_xyz
  1  'x, y, z'
loop_
 _atom_site_type_symbol
 _atom_site_label
 _atom_site_symmetry_multiplicity
 _atom_site_fract_x
 _atom_site_fract_y
 _atom_site_fract_z
 _atom_site_occupancy
  Lu  Lu0  1  0.862962  0.641658  0.174412  1
  Lu  Lu1  1  0.862962  0.858342  0.674412  1
  Lu  Lu2  1  0.137038  0.141658  0.325588  1
  Lu  Lu3  1  0.137038  0.358342  0.825588  1
  Se  Se4  1  0.352218  0.620509  0.289977  1
  Se  Se5  1  0.647782  0.379491  0.710023  1
  Se  Se6  1  0.647782  0.120509  0.210023  1
  Se  Se7  1  0.352218  0.879491  0.789977  1
  O  O8  1  0.479053  0.186848  0.362277  1
  O  O9  1  0.171573  0.029461  0.646416  1
  O  O10  1  0.828427  0.529461  0.853584  1
  O  O11  1  0.479053  0.313152  0.862277  1
  O  O12  1  0.826499  0.190611  0.721465  1
  O  O13  1  0.828427  0.970539  0.353584  1
  O  O14  1  0.826499  0.309389  0.221465  1
  O  O15  1  0.173501  0.809389  0.278535  1
  O  O16  1  0.520947  0.813152  0.637723  1
  O  O17  1  0.173501  0.690611  0.778535  1
  O  O18  1  0.171573  0.470539  0.146416  1
  O  O19  1  0.520947  0.686848  0.137723  1
  F  F20  1  0.836038  0.621360  0.472677  1
  F  F21  1  0.163962  0.121360  0.027323  1
  F  F22  1  0.836038  0.878640  0.972677  1
  F  F23  1  0.163962  0.378640  0.527323  1
