# generated using pymatgen
data_ZrP2O7
_symmetry_space_group_name_H-M   'P 1'
_cell_length_a   5.48248283
_cell_length_b   6.86343845
_cell_length_c   8.57016284
_cell_angle_alpha   90.00000000
_cell_angle_beta   90.00000000
_cell_angle_gamma   90.00000000
_symmetry_Int_Tables_number   1
_chemical_formula_structural   ZrP2O7
_chemical_formula_sum   'Zr2 P4 O14'
_cell_volume   322.48394468
_cell_formula_units_Z   2
loop_
 _symmetry_equiv_pos_site_id
 _symmetry_equiv_pos_as_xyz
  1  'x, y, z'
loop_
 _atom_site_type_symbol
 _atom_site_label
 _atom_site_symmetry_multiplicity
 _atom_site_fract_x
 _atom_site_fract_y
 _atom_site_fract_z
 _atom_site_occupancy
  Zr  Zr0  1  0.000000  0.500000  0.000000  1
  Zr  Zr1  1  0.500000  0.000000  0.500000  1
  P  P2  1  0.000000  0.311959  0.393149  1
  P  P3  1  0.500000  0.811959  0.106851  1
  P  P4  1  0.500000  0.188041  0.893149  1
  P  P5  1  0.000000  0.688041  0.606851  1
  O  O6  1  0.269128  0.699048  0.067317  1
  O  O7  1  0.500000  0.882992  0.275071  1
  O  O8  1  0.000000  0.382992  0.224929  1
  O  O9  1  0.230872  0.199048  0.432683  1
  O  O10  1  0.000000  0.617008  0.775071  1
  O  O11  1  0.730872  0.300952  0.932683  1
  O  O12  1  0.230872  0.800952  0.567317  1
  O  O13  1  0.500000  0.117008  0.724929  1
  O  O14  1  0.769128  0.800952  0.567317  1
  O  O15  1  0.269128  0.300952  0.932683  1
  O  O16  1  0.000000  0.500000  0.500000  1
  O  O17  1  0.769128  0.199048  0.432683  1
  O  O18  1  0.730872  0.699048  0.067317  1
  O  O19  1  0.500000  0.000000  0.000000  1
