# generated using pymatgen
data_NaLiB4O7
_symmetry_space_group_name_H-M   'P 1'
_cell_length_a   9.80597321
_cell_length_b   8.85085363
_cell_length_c   8.51312826
_cell_angle_alpha   68.73549215
_cell_angle_beta   57.26130655
_cell_angle_gamma   54.00320130
_symmetry_Int_Tables_number   1
_chemical_formula_structural   NaLiB4O7
_chemical_formula_sum   'Na4 Li4 B16 O28'
_cell_volume   501.72720575
_cell_formula_units_Z   4
loop_
 _symmetry_equiv_pos_site_id
 _symmetry_equiv_pos_as_xyz
  1  'x, y, z'
loop_
 _atom_site_type_symbol
 _atom_site_label
 _atom_site_symmetry_multiplicity
 _atom_site_fract_x
 _atom_site_fract_y
 _atom_site_fract_z
 _atom_site_occupancy
  Na  Na0  1  0.965251  0.014251  0.737204  1
  Na  Na1  1  0.283294  0.737204  0.014251  1
  Na  Na2  1  0.235749  0.284749  0.966706  1
  Na  Na3  1  0.512796  0.966706  0.284749  1
  Li  Li4  1  0.490953  0.238530  0.504151  1
  Li  Li5  1  0.745849  0.483635  0.759047  1
  Li  Li6  1  0.011470  0.759047  0.483635  1
  Li  Li7  1  0.766365  0.504151  0.238530  1
  B  B8  1  0.941677  0.113174  0.229496  1
  B  B9  1  0.136826  0.308323  0.534347  1
  B  B10  1  0.020504  0.534347  0.308323  1
  B  B11  1  0.639993  0.013038  0.789072  1
  B  B12  1  0.557897  0.789072  0.013038  1
  B  B13  1  0.715653  0.229496  0.113174  1
  B  B14  1  0.361489  0.378464  0.230366  1
  B  B15  1  0.545151  0.864558  0.703700  1
  B  B16  1  0.886590  0.703700  0.864558  1
  B  B17  1  0.029681  0.230366  0.378464  1
  B  B18  1  0.871536  0.888511  0.220319  1
  B  B19  1  0.546300  0.363410  0.704849  1
  B  B20  1  0.019634  0.220319  0.888511  1
  B  B21  1  0.385442  0.704849  0.363410  1
  B  B22  1  0.236962  0.610007  0.692103  1
  B  B23  1  0.460928  0.692103  0.610007  1
  O  O24  1  0.752852  0.032005  0.141092  1
  O  O25  1  0.589821  0.498795  0.671543  1
  O  O26  1  0.838520  0.855817  0.739414  1
  O  O27  1  0.108908  0.175949  0.497148  1
  O  O28  1  0.332935  0.273074  0.399529  1
  O  O29  1  0.068131  0.600651  0.838316  1
  O  O30  1  0.850471  0.255538  0.917065  1
  O  O31  1  0.510586  0.683751  0.411480  1
  O  O32  1  0.884462  0.717918  0.263515  1
  O  O33  1  0.751205  0.660179  0.010158  1
  O  O34  1  0.746569  0.253431  0.253431  1
  O  O35  1  0.994462  0.399529  0.273074  1
  O  O36  1  0.996569  0.503431  0.503431  1
  O  O37  1  0.578457  0.010158  0.660179  1
  O  O38  1  0.074051  0.141092  0.032005  1
  O  O39  1  0.239842  0.671543  0.498795  1
  O  O40  1  0.266805  0.733195  0.733195  1
  O  O41  1  0.411684  0.757099  0.181869  1
  O  O42  1  0.492901  0.838316  0.600651  1
  O  O43  1  0.134105  0.263515  0.717918  1
  O  O44  1  0.532082  0.365538  0.115895  1
  O  O45  1  0.516805  0.983195  0.983195  1
  O  O46  1  0.976926  0.917065  0.255538  1
  O  O47  1  0.986485  0.115895  0.365538  1
  O  O48  1  0.217995  0.497148  0.175949  1
  O  O49  1  0.394183  0.411480  0.683751  1
  O  O50  1  0.649349  0.181869  0.757099  1
  O  O51  1  0.566249  0.739414  0.855817  1
