# generated using pymatgen
data_K4AsH5S3O16
_symmetry_space_group_name_H-M   'P 1'
_cell_length_a   9.03189728
_cell_length_b   10.31274871
_cell_length_c   10.94105332
_cell_angle_alpha   72.55112359
_cell_angle_beta   66.75677966
_cell_angle_gamma   65.27875074
_symmetry_Int_Tables_number   1
_chemical_formula_structural   K4AsH5S3O16
_chemical_formula_sum   'K8 As2 H10 S6 O32'
_cell_volume   839.39282108
_cell_formula_units_Z   2
loop_
 _symmetry_equiv_pos_site_id
 _symmetry_equiv_pos_as_xyz
  1  'x, y, z'
loop_
 _atom_site_type_symbol
 _atom_site_label
 _atom_site_symmetry_multiplicity
 _atom_site_fract_x
 _atom_site_fract_y
 _atom_site_fract_z
 _atom_site_occupancy
  K  K0  1  0.732586  0.021591  0.989241  1
  K  K1  1  0.767731  0.929008  0.404501  1
  K  K2  1  0.782722  0.454607  0.495695  1
  K  K3  1  0.217278  0.545393  0.504305  1
  K  K4  1  0.755154  0.572285  0.100841  1
  K  K5  1  0.267414  0.978409  0.010759  1
  K  K6  1  0.232269  0.070992  0.595499  1
  K  K7  1  0.244846  0.427715  0.899159  1
  As  As8  1  0.471503  0.317298  0.220585  1
  As  As9  1  0.528497  0.682702  0.779415  1
  H  H10  1  0.671609  0.760846  0.868547  1
  H  H11  1  0.809780  0.090686  0.647903  1
  H  H12  1  0.742612  0.238106  0.245287  1
  H  H13  1  0.322448  0.613502  0.144325  1
  H  H14  1  0.328391  0.239154  0.131453  1
  H  H15  1  0.190220  0.909314  0.352097  1
  H  H16  1  0.677552  0.386498  0.855675  1
  H  H17  1  0.257388  0.761894  0.754713  1
  H  H18  1  0.217874  0.274459  0.362219  1
  H  H19  1  0.782126  0.725541  0.637781  1
  S  S20  1  0.035946  0.196023  0.270515  1
  S  S21  1  0.964054  0.803977  0.729485  1
  S  S22  1  0.468153  0.821204  0.316455  1
  S  S23  1  0.956359  0.314415  0.814566  1
  S  S24  1  0.043641  0.685585  0.185434  1
  S  S25  1  0.531847  0.178796  0.683545  1
  O  O26  1  0.666586  0.190869  0.237634  1
  O  O27  1  0.556551  0.742947  0.898748  1
  O  O28  1  0.137206  0.702202  0.737178  1
  O  O29  1  0.050606  0.571574  0.126735  1
  O  O30  1  0.723508  0.183231  0.615992  1
  O  O31  1  0.428574  0.327566  0.641855  1
  O  O32  1  0.525509  0.514065  0.817511  1
  O  O33  1  0.929105  0.773693  0.620030  1
  O  O34  1  0.333414  0.809131  0.762366  1
  O  O35  1  0.927511  0.829763  0.147776  1
  O  O36  1  0.474790  0.930357  0.372810  1
  O  O37  1  0.571426  0.672434  0.358145  1
  O  O38  1  0.227083  0.705000  0.118339  1
  O  O39  1  0.830530  0.781769  0.861310  1
  O  O40  1  0.072489  0.170237  0.852224  1
  O  O41  1  0.169470  0.218231  0.138690  1
  O  O42  1  0.986448  0.354332  0.667695  1
  O  O43  1  0.525210  0.069643  0.627190  1
  O  O44  1  0.013552  0.645668  0.332305  1
  O  O45  1  0.688064  0.702645  0.626294  1
  O  O46  1  0.474491  0.485935  0.182489  1
  O  O47  1  0.949394  0.428426  0.873265  1
  O  O48  1  0.443449  0.257053  0.101252  1
  O  O49  1  0.959934  0.955870  0.700953  1
  O  O50  1  0.276492  0.816769  0.384008  1
  O  O51  1  0.500023  0.141223  0.830540  1
  O  O52  1  0.499977  0.858777  0.169460  1
  O  O53  1  0.070895  0.226307  0.379970  1
  O  O54  1  0.311936  0.297355  0.373706  1
  O  O55  1  0.862794  0.297798  0.262822  1
  O  O56  1  0.040066  0.044130  0.299047  1
  O  O57  1  0.772917  0.295000  0.881661  1
