# generated using pymatgen
data_RbSbS(O2F)2
_symmetry_space_group_name_H-M   'P 1'
_cell_length_a   5.41747365
_cell_length_b   9.76087755
_cell_length_c   11.63745764
_cell_angle_alpha   90.00000000
_cell_angle_beta   90.00000000
_cell_angle_gamma   90.00000000
_symmetry_Int_Tables_number   1
_chemical_formula_structural   RbSbS(O2F)2
_chemical_formula_sum   'Rb4 Sb4 S4 O16 F8'
_cell_volume   615.38057803
_cell_formula_units_Z   4
loop_
 _symmetry_equiv_pos_site_id
 _symmetry_equiv_pos_as_xyz
  1  'x, y, z'
loop_
 _atom_site_type_symbol
 _atom_site_label
 _atom_site_symmetry_multiplicity
 _atom_site_fract_x
 _atom_site_fract_y
 _atom_site_fract_z
 _atom_site_occupancy
  Rb  Rb0  1  0.241734  0.515860  0.840584  1
  Rb  Rb1  1  0.241734  0.015860  0.659416  1
  Rb  Rb2  1  0.741734  0.984140  0.340584  1
  Rb  Rb3  1  0.741734  0.484140  0.159416  1
  Sb  Sb4  1  0.757296  0.828785  0.916450  1
  Sb  Sb5  1  0.257296  0.671215  0.416450  1
  Sb  Sb6  1  0.757296  0.328785  0.583550  1
  Sb  Sb7  1  0.257296  0.171215  0.083550  1
  S  S8  1  0.200761  0.798917  0.133709  1
  S  S9  1  0.700761  0.201083  0.866291  1
  S  S10  1  0.200761  0.298917  0.366291  1
  S  S11  1  0.700761  0.701083  0.633709  1
  O  O12  1  0.328718  0.701321  0.059394  1
  O  O13  1  0.354579  0.418284  0.334994  1
  O  O14  1  0.965500  0.354274  0.422391  1
  O  O15  1  0.465500  0.145726  0.922391  1
  O  O16  1  0.854579  0.581716  0.665006  1
  O  O17  1  0.854579  0.081716  0.834994  1
  O  O18  1  0.106167  0.227236  0.258748  1
  O  O19  1  0.606167  0.272764  0.758748  1
  O  O20  1  0.828718  0.298679  0.940606  1
  O  O21  1  0.965500  0.854274  0.077609  1
  O  O22  1  0.354579  0.918284  0.165006  1
  O  O23  1  0.606167  0.772764  0.741252  1
  O  O24  1  0.106167  0.727236  0.241252  1
  O  O25  1  0.328718  0.201321  0.440606  1
  O  O26  1  0.465500  0.645726  0.577609  1
  O  O27  1  0.828718  0.798679  0.559394  1
  F  F28  1  0.581663  0.679721  0.341177  1
  F  F29  1  0.287384  0.372413  0.061166  1
  F  F30  1  0.287384  0.872413  0.438834  1
  F  F31  1  0.581663  0.179721  0.158823  1
  F  F32  1  0.081663  0.320279  0.658823  1
  F  F33  1  0.081663  0.820279  0.841177  1
  F  F34  1  0.787384  0.627587  0.938834  1
  F  F35  1  0.787384  0.127587  0.561166  1
