# generated using pymatgen
data_Ba2V4Cd3O15
_symmetry_space_group_name_H-M   'P 1'
_cell_length_a   7.33627614
_cell_length_b   10.12252991
_cell_length_c   19.96722343
_cell_angle_alpha   90.00000000
_cell_angle_beta   90.00000000
_cell_angle_gamma   90.00000000
_symmetry_Int_Tables_number   1
_chemical_formula_structural   Ba2V4Cd3O15
_chemical_formula_sum   'Ba8 V16 Cd12 O60'
_cell_volume   1482.79945013
_cell_formula_units_Z   4
loop_
 _symmetry_equiv_pos_site_id
 _symmetry_equiv_pos_as_xyz
  1  'x, y, z'
loop_
 _atom_site_type_symbol
 _atom_site_label
 _atom_site_symmetry_multiplicity
 _atom_site_fract_x
 _atom_site_fract_y
 _atom_site_fract_z
 _atom_site_occupancy
  Ba  Ba0  1  0.049113  0.254050  0.201808  1
  Ba  Ba1  1  0.450887  0.745950  0.701808  1
  Ba  Ba2  1  0.266358  0.871163  0.501892  1
  Ba  Ba3  1  0.233642  0.128837  0.001892  1
  Ba  Ba4  1  0.733642  0.371163  0.998108  1
  Ba  Ba5  1  0.950887  0.754050  0.298192  1
  Ba  Ba6  1  0.549113  0.245950  0.798192  1
  Ba  Ba7  1  0.766358  0.628837  0.498108  1
  V  V8  1  0.171246  0.064448  0.347679  1
  V  V9  1  0.769826  0.975702  0.493227  1
  V  V10  1  0.557672  0.281404  0.166861  1
  V  V11  1  0.828754  0.564448  0.152321  1
  V  V12  1  0.147137  0.902014  0.135431  1
  V  V13  1  0.730174  0.024298  0.993227  1
  V  V14  1  0.230174  0.475702  0.006773  1
  V  V15  1  0.671246  0.435552  0.652321  1
  V  V16  1  0.269826  0.524298  0.506773  1
  V  V17  1  0.328754  0.935552  0.847679  1
  V  V18  1  0.852863  0.402014  0.364569  1
  V  V19  1  0.647137  0.597986  0.864569  1
  V  V20  1  0.942328  0.718596  0.666861  1
  V  V21  1  0.057672  0.218596  0.833139  1
  V  V22  1  0.352863  0.097986  0.635431  1
  V  V23  1  0.442328  0.781404  0.333139  1
  Cd  Cd24  1  0.628329  0.907795  0.167371  1
  Cd  Cd25  1  0.931987  0.742393  0.987493  1
  Cd  Cd26  1  0.128329  0.592205  0.832629  1
  Cd  Cd27  1  0.350691  0.597169  0.179402  1
  Cd  Cd28  1  0.431987  0.757607  0.012507  1
  Cd  Cd29  1  0.068013  0.242393  0.512507  1
  Cd  Cd30  1  0.850691  0.902831  0.820598  1
  Cd  Cd31  1  0.871671  0.092205  0.667371  1
  Cd  Cd32  1  0.649309  0.097169  0.320598  1
  Cd  Cd33  1  0.568013  0.257607  0.487493  1
  Cd  Cd34  1  0.371671  0.407795  0.332629  1
  Cd  Cd35  1  0.149309  0.402831  0.679402  1
  O  O36  1  0.589526  0.127309  0.949021  1
  O  O37  1  0.200040  0.066430  0.134167  1
  O  O38  1  0.890166  0.126009  0.789991  1
  O  O39  1  0.645734  0.650489  0.948379  1
  O  O40  1  0.661718  0.387798  0.571035  1
  O  O41  1  0.138387  0.366364  0.798153  1
  O  O42  1  0.244559  0.889407  0.346295  1
  O  O43  1  0.982953  0.248143  0.910445  1
  O  O44  1  0.831249  0.677924  0.823414  1
  O  O45  1  0.299960  0.933570  0.634167  1
  O  O46  1  0.965067  0.070249  0.305776  1
  O  O47  1  0.608682  0.920082  0.052279  1
  O  O48  1  0.017047  0.748143  0.589555  1
  O  O49  1  0.669236  0.657384  0.193851  1
  O  O50  1  0.361613  0.633636  0.298153  1
  O  O51  1  0.939338  0.876801  0.176080  1
  O  O52  1  0.700040  0.433570  0.865833  1
  O  O53  1  0.869280  0.123305  0.038832  1
  O  O54  1  0.089526  0.372691  0.050979  1
  O  O55  1  0.168751  0.177924  0.676586  1
  O  O56  1  0.108682  0.579918  0.947721  1
  O  O57  1  0.439338  0.623199  0.823920  1
  O  O58  1  0.255441  0.110593  0.846295  1
  O  O59  1  0.390166  0.373991  0.210009  1
  O  O60  1  0.560662  0.123199  0.676080  1
  O  O61  1  0.109834  0.626009  0.710009  1
  O  O62  1  0.330764  0.157384  0.306149  1
  O  O63  1  0.410474  0.627309  0.550979  1
  O  O64  1  0.369280  0.376695  0.961168  1
  O  O65  1  0.482953  0.251857  0.089555  1
  O  O66  1  0.034933  0.570249  0.194224  1
  O  O67  1  0.630720  0.876695  0.538832  1
  O  O68  1  0.636779  0.071638  0.435007  1
  O  O69  1  0.668751  0.322076  0.323414  1
  O  O70  1  0.338282  0.887798  0.928965  1
  O  O71  1  0.854266  0.349511  0.448379  1
  O  O72  1  0.331249  0.822076  0.176586  1
  O  O73  1  0.891318  0.079918  0.552279  1
  O  O74  1  0.863221  0.928362  0.935007  1
  O  O75  1  0.838282  0.612202  0.071035  1
  O  O76  1  0.136779  0.428362  0.564993  1
  O  O77  1  0.534933  0.929751  0.805776  1
  O  O78  1  0.638387  0.133636  0.201847  1
  O  O79  1  0.145734  0.849511  0.051621  1
  O  O80  1  0.130720  0.623305  0.461168  1
  O  O81  1  0.799960  0.566430  0.365833  1
  O  O82  1  0.169236  0.842616  0.806149  1
  O  O83  1  0.354266  0.150489  0.551621  1
  O  O84  1  0.060662  0.376801  0.323920  1
  O  O85  1  0.830764  0.342616  0.693851  1
  O  O86  1  0.861613  0.866364  0.701847  1
  O  O87  1  0.363221  0.571638  0.064993  1
  O  O88  1  0.609834  0.873991  0.289991  1
  O  O89  1  0.465067  0.429751  0.694224  1
  O  O90  1  0.517047  0.751857  0.410445  1
  O  O91  1  0.910474  0.872691  0.449021  1
  O  O92  1  0.391318  0.420082  0.447721  1
  O  O93  1  0.161718  0.112202  0.428965  1
  O  O94  1  0.755441  0.389407  0.153705  1
  O  O95  1  0.744559  0.610593  0.653705  1
