# generated using pymatgen
data_Ho2Ge2O7
_symmetry_space_group_name_H-M   'P 1'
_cell_length_a   6.84983449
_cell_length_b   6.84983449
_cell_length_c   12.47712664
_cell_angle_alpha   90.00000000
_cell_angle_beta   90.00000000
_cell_angle_gamma   90.00000000
_symmetry_Int_Tables_number   1
_chemical_formula_structural   Ho2Ge2O7
_chemical_formula_sum   'Ho8 Ge8 O28'
_cell_volume   585.42968338
_cell_formula_units_Z   4
loop_
 _symmetry_equiv_pos_site_id
 _symmetry_equiv_pos_as_xyz
  1  'x, y, z'
loop_
 _atom_site_type_symbol
 _atom_site_label
 _atom_site_symmetry_multiplicity
 _atom_site_fract_x
 _atom_site_fract_y
 _atom_site_fract_z
 _atom_site_occupancy
  Ho  Ho0  1  0.852652  0.624451  0.884983  1
  Ho  Ho1  1  0.352652  0.875549  0.865017  1
  Ho  Ho2  1  0.375549  0.147348  0.615017  1
  Ho  Ho3  1  0.647348  0.124451  0.365017  1
  Ho  Ho4  1  0.147348  0.375549  0.384983  1
  Ho  Ho5  1  0.124451  0.647348  0.634983  1
  Ho  Ho6  1  0.624451  0.852652  0.115017  1
  Ho  Ho7  1  0.875549  0.352652  0.134983  1
  Ge  Ge8  1  0.400962  0.347730  0.130858  1
  Ge  Ge9  1  0.652270  0.599038  0.369142  1
  Ge  Ge10  1  0.599038  0.652270  0.630858  1
  Ge  Ge11  1  0.099038  0.847730  0.119142  1
  Ge  Ge12  1  0.847730  0.099038  0.880858  1
  Ge  Ge13  1  0.152270  0.900962  0.380858  1
  Ge  Ge14  1  0.900962  0.152270  0.619142  1
  Ge  Ge15  1  0.347730  0.400962  0.869142  1
  O  O16  1  0.357431  0.183174  0.794607  1
  O  O17  1  0.079340  0.968395  0.623402  1
  O  O18  1  0.683174  0.142569  0.544607  1
  O  O19  1  0.661054  0.935364  0.929149  1
  O  O20  1  0.338946  0.064636  0.429149  1
  O  O21  1  0.435364  0.838946  0.679149  1
  O  O22  1  0.531605  0.579340  0.873402  1
  O  O23  1  0.420660  0.468395  0.626598  1
  O  O24  1  0.197163  0.802837  0.250000  1
  O  O25  1  0.579340  0.531605  0.126598  1
  O  O26  1  0.302837  0.302837  0.000000  1
  O  O27  1  0.920660  0.031605  0.123402  1
  O  O28  1  0.142569  0.683174  0.455393  1
  O  O29  1  0.935364  0.661054  0.070851  1
  O  O30  1  0.857431  0.316826  0.955393  1
  O  O31  1  0.031605  0.920660  0.876598  1
  O  O32  1  0.161054  0.564636  0.820851  1
  O  O33  1  0.316826  0.857431  0.044607  1
  O  O34  1  0.642569  0.816826  0.294607  1
  O  O35  1  0.183174  0.357431  0.205393  1
  O  O36  1  0.564636  0.161054  0.179149  1
  O  O37  1  0.816826  0.642569  0.705393  1
  O  O38  1  0.968395  0.079340  0.376598  1
  O  O39  1  0.064636  0.338946  0.570851  1
  O  O40  1  0.697163  0.697163  0.500000  1
  O  O41  1  0.838946  0.435364  0.320851  1
  O  O42  1  0.802837  0.197163  0.750000  1
  O  O43  1  0.468395  0.420660  0.373402  1
