# generated using pymatgen
data_Tl3Hg2S3ClO12
_symmetry_space_group_name_H-M   'P 1'
_cell_length_a   8.11573900
_cell_length_b   9.98962052
_cell_length_c   10.18244020
_cell_angle_alpha   90.00000000
_cell_angle_beta   110.56311605
_cell_angle_gamma   90.00000000
_symmetry_Int_Tables_number   1
_chemical_formula_structural   Tl3Hg2S3ClO12
_chemical_formula_sum   'Tl6 Hg4 S6 Cl2 O24'
_cell_volume   772.92505478
_cell_formula_units_Z   2
loop_
 _symmetry_equiv_pos_site_id
 _symmetry_equiv_pos_as_xyz
  1  'x, y, z'
loop_
 _atom_site_type_symbol
 _atom_site_label
 _atom_site_symmetry_multiplicity
 _atom_site_fract_x
 _atom_site_fract_y
 _atom_site_fract_z
 _atom_site_occupancy
  Tl  Tl0  1  0.091298  0.743391  0.271221  1
  Tl  Tl1  1  0.690069  0.876708  0.860596  1
  Tl  Tl2  1  0.309931  0.376708  0.139404  1
  Tl  Tl3  1  0.322333  0.554540  0.707666  1
  Tl  Tl4  1  0.908702  0.243391  0.728779  1
  Tl  Tl5  1  0.677667  0.054540  0.292334  1
  Hg  Hg6  1  0.756824  0.421669  0.041477  1
  Hg  Hg7  1  0.267955  0.138243  0.499175  1
  Hg  Hg8  1  0.243176  0.921669  0.958523  1
  Hg  Hg9  1  0.732045  0.638243  0.500825  1
  S  S10  1  0.017196  0.086624  0.107701  1
  S  S11  1  0.444497  0.202554  0.862177  1
  S  S12  1  0.982804  0.586624  0.892299  1
  S  S13  1  0.089160  0.885663  0.610554  1
  S  S14  1  0.555503  0.702554  0.137823  1
  S  S15  1  0.910840  0.385663  0.389446  1
  Cl  Cl16  1  0.479727  0.292808  0.484526  1
  Cl  Cl17  1  0.520273  0.792808  0.515474  1
  O  O18  1  0.494133  0.349165  0.906328  1
  O  O19  1  0.128371  0.953605  0.488200  1
  O  O20  1  0.047137  0.459777  0.356937  1
  O  O21  1  0.984855  0.540068  0.038507  1
  O  O22  1  0.572937  0.632794  0.013548  1
  O  O23  1  0.952863  0.959777  0.643063  1
  O  O24  1  0.270613  0.210903  0.746143  1
  O  O25  1  0.879266  0.007554  0.137471  1
  O  O26  1  0.427063  0.132794  0.986452  1
  O  O27  1  0.871629  0.453605  0.511800  1
  O  O28  1  0.023003  0.732131  0.905369  1
  O  O29  1  0.015145  0.040068  0.961493  1
  O  O30  1  0.034005  0.747740  0.557084  1
  O  O31  1  0.420301  0.641422  0.184240  1
  O  O32  1  0.579699  0.141422  0.815760  1
  O  O33  1  0.729387  0.710903  0.253857  1
  O  O34  1  0.120734  0.507554  0.862529  1
  O  O35  1  0.976997  0.232131  0.094631  1
  O  O36  1  0.505867  0.849165  0.093672  1
  O  O37  1  0.194317  0.061030  0.212337  1
  O  O38  1  0.259174  0.878111  0.733554  1
  O  O39  1  0.740826  0.378111  0.266446  1
  O  O40  1  0.805683  0.561030  0.787663  1
  O  O41  1  0.965995  0.247740  0.442916  1
