# generated using pymatgen
data_SmCu(MoO4)2
_symmetry_space_group_name_H-M   'P 1'
_cell_length_a   9.98273153
_cell_length_b   10.42041344
_cell_length_c   14.86667902
_cell_angle_alpha   90.00000000
_cell_angle_beta   90.00000000
_cell_angle_gamma   90.00000000
_symmetry_Int_Tables_number   1
_chemical_formula_structural   SmCu(MoO4)2
_chemical_formula_sum   'Sm8 Cu8 Mo16 O64'
_cell_volume   1546.49424012
_cell_formula_units_Z   8
loop_
 _symmetry_equiv_pos_site_id
 _symmetry_equiv_pos_as_xyz
  1  'x, y, z'
loop_
 _atom_site_type_symbol
 _atom_site_label
 _atom_site_symmetry_multiplicity
 _atom_site_fract_x
 _atom_site_fract_y
 _atom_site_fract_z
 _atom_site_occupancy
  Sm  Sm0  1  0.222942  0.464916  0.396064  1
  Sm  Sm1  1  0.277058  0.464916  0.896064  1
  Sm  Sm2  1  0.222942  0.964916  0.103936  1
  Sm  Sm3  1  0.277058  0.964916  0.603936  1
  Sm  Sm4  1  0.722942  0.535084  0.103936  1
  Sm  Sm5  1  0.777058  0.535084  0.603936  1
  Sm  Sm6  1  0.722942  0.035084  0.396064  1
  Sm  Sm7  1  0.777058  0.035084  0.896064  1
  Cu  Cu8  1  0.807172  0.182682  0.694761  1
  Cu  Cu9  1  0.692828  0.682682  0.305239  1
  Cu  Cu10  1  0.807172  0.682682  0.805239  1
  Cu  Cu11  1  0.307172  0.317318  0.694761  1
  Cu  Cu12  1  0.192828  0.817318  0.305239  1
  Cu  Cu13  1  0.307172  0.817318  0.805239  1
  Cu  Cu14  1  0.692828  0.182682  0.194761  1
  Cu  Cu15  1  0.192828  0.317318  0.194761  1
  Mo  Mo16  1  0.830188  0.897470  0.152947  1
  Mo  Mo17  1  0.500827  0.720248  0.442302  1
  Mo  Mo18  1  0.500827  0.220248  0.057698  1
  Mo  Mo19  1  0.169812  0.602530  0.652947  1
  Mo  Mo20  1  0.330188  0.102530  0.347053  1
  Mo  Mo21  1  0.000827  0.779752  0.442302  1
  Mo  Mo22  1  0.499173  0.279752  0.557698  1
  Mo  Mo23  1  0.669812  0.397470  0.847053  1
  Mo  Mo24  1  0.169812  0.102530  0.847053  1
  Mo  Mo25  1  0.499173  0.779752  0.942302  1
  Mo  Mo26  1  0.669812  0.897470  0.652947  1
  Mo  Mo27  1  0.999173  0.220248  0.557698  1
  Mo  Mo28  1  0.000827  0.279752  0.057698  1
  Mo  Mo29  1  0.830188  0.397470  0.347053  1
  Mo  Mo30  1  0.330188  0.602530  0.152947  1
  Mo  Mo31  1  0.999173  0.720248  0.942302  1
  O  O32  1  0.255296  0.487187  0.727043  1
  O  O33  1  0.599791  0.386407  0.624579  1
  O  O34  1  0.391811  0.830780  0.497521  1
  O  O35  1  0.112142  0.181685  0.131428  1
  O  O36  1  0.244704  0.987187  0.272957  1
  O  O37  1  0.711716  0.424447  0.961647  1
  O  O38  1  0.211716  0.075553  0.961647  1
  O  O39  1  0.108189  0.830780  0.997521  1
  O  O40  1  0.725550  0.736973  0.682165  1
  O  O41  1  0.493102  0.412006  0.834323  1
  O  O42  1  0.274450  0.263027  0.317835  1
  O  O43  1  0.406284  0.867213  0.024341  1
  O  O44  1  0.887858  0.318315  0.631428  1
  O  O45  1  0.744704  0.012813  0.227043  1
  O  O46  1  0.608189  0.669220  0.997521  1
  O  O47  1  0.599791  0.886407  0.875421  1
  O  O48  1  0.493102  0.912006  0.665677  1
  O  O49  1  0.774450  0.236973  0.317835  1
  O  O50  1  0.387858  0.681685  0.868572  1
  O  O51  1  0.112142  0.681685  0.368572  1
  O  O52  1  0.006898  0.912006  0.165677  1
  O  O53  1  0.774450  0.736973  0.182165  1
  O  O54  1  0.755296  0.012813  0.727043  1
  O  O55  1  0.099791  0.613593  0.875421  1
  O  O56  1  0.288284  0.075553  0.461647  1
  O  O57  1  0.006898  0.412006  0.334323  1
  O  O58  1  0.788284  0.924447  0.038353  1
  O  O59  1  0.788284  0.424447  0.461647  1
  O  O60  1  0.108189  0.330780  0.502479  1
  O  O61  1  0.725550  0.236973  0.817835  1
  O  O62  1  0.288284  0.575553  0.038353  1
  O  O63  1  0.225550  0.263027  0.817835  1
  O  O64  1  0.406284  0.367213  0.475659  1
  O  O65  1  0.506898  0.587994  0.165677  1
  O  O66  1  0.891811  0.669220  0.497521  1
  O  O67  1  0.225550  0.763027  0.682165  1
  O  O68  1  0.711716  0.924447  0.538353  1
  O  O69  1  0.400209  0.113593  0.124579  1
  O  O70  1  0.755296  0.512813  0.772957  1
  O  O71  1  0.993102  0.587994  0.665677  1
  O  O72  1  0.244704  0.487187  0.227043  1
  O  O73  1  0.255296  0.987187  0.772957  1
  O  O74  1  0.906284  0.632787  0.024341  1
  O  O75  1  0.211716  0.575553  0.538353  1
  O  O76  1  0.400209  0.613593  0.375421  1
  O  O77  1  0.593716  0.632787  0.524341  1
  O  O78  1  0.593716  0.132787  0.975659  1
  O  O79  1  0.274450  0.763027  0.182165  1
  O  O80  1  0.391811  0.330780  0.002479  1
  O  O81  1  0.093716  0.867213  0.524341  1
  O  O82  1  0.099791  0.113593  0.624579  1
  O  O83  1  0.891811  0.169220  0.002479  1
  O  O84  1  0.906284  0.132787  0.475659  1
  O  O85  1  0.900209  0.386407  0.124579  1
  O  O86  1  0.612142  0.818315  0.368572  1
  O  O87  1  0.744704  0.512813  0.272957  1
  O  O88  1  0.387858  0.181685  0.631428  1
  O  O89  1  0.887858  0.818315  0.868572  1
  O  O90  1  0.900209  0.886407  0.375421  1
  O  O91  1  0.506898  0.087994  0.334323  1
  O  O92  1  0.612142  0.318315  0.131428  1
  O  O93  1  0.093716  0.367213  0.975659  1
  O  O94  1  0.993102  0.087994  0.834323  1
  O  O95  1  0.608189  0.169220  0.502479  1
