# generated using pymatgen
data_Rb2MoAs2O9
_symmetry_space_group_name_H-M   'P 1'
_cell_length_a   7.66609263
_cell_length_b   7.79360945
_cell_length_c   9.23294700
_cell_angle_alpha   109.83137008
_cell_angle_beta   102.36523602
_cell_angle_gamma   87.98526161
_symmetry_Int_Tables_number   1
_chemical_formula_structural   Rb2MoAs2O9
_chemical_formula_sum   'Rb4 Mo2 As4 O18'
_cell_volume   506.46199051
_cell_formula_units_Z   2
loop_
 _symmetry_equiv_pos_site_id
 _symmetry_equiv_pos_as_xyz
  1  'x, y, z'
loop_
 _atom_site_type_symbol
 _atom_site_label
 _atom_site_symmetry_multiplicity
 _atom_site_fract_x
 _atom_site_fract_y
 _atom_site_fract_z
 _atom_site_occupancy
  Rb  Rb0  1  0.916357  0.252570  0.634543  1
  Rb  Rb1  1  0.189567  0.831354  0.881173  1
  Rb  Rb2  1  0.083643  0.747430  0.365457  1
  Rb  Rb3  1  0.810433  0.168646  0.118827  1
  Mo  Mo4  1  0.426117  0.236680  0.745269  1
  Mo  Mo5  1  0.573883  0.763320  0.254731  1
  As  As6  1  0.316610  0.348010  0.098168  1
  As  As7  1  0.683390  0.651990  0.901832  1
  As  As8  1  0.672292  0.835956  0.642325  1
  As  As9  1  0.327708  0.164044  0.357675  1
  O  O10  1  0.730905  0.947510  0.335431  1
  O  O11  1  0.482959  0.222359  0.537330  1
  O  O12  1  0.286992  0.421896  0.767266  1
  O  O13  1  0.713008  0.578104  0.232734  1
  O  O14  1  0.655136  0.059858  0.754575  1
  O  O15  1  0.330830  0.580748  0.160594  1
  O  O16  1  0.517041  0.777641  0.462670  1
  O  O17  1  0.568992  0.703363  0.729452  1
  O  O18  1  0.344864  0.940142  0.245425  1
  O  O19  1  0.112861  0.248656  0.024795  1
  O  O20  1  0.887139  0.751344  0.975205  1
  O  O21  1  0.880862  0.780682  0.624395  1
  O  O22  1  0.461406  0.246761  0.972513  1
  O  O23  1  0.431008  0.296637  0.270548  1
  O  O24  1  0.269095  0.052490  0.664569  1
  O  O25  1  0.669170  0.419252  0.839406  1
  O  O26  1  0.119138  0.219318  0.375605  1
  O  O27  1  0.538594  0.753239  0.027487  1
