# generated using pymatgen
data_Li2Mo(PO3)5
_symmetry_space_group_name_H-M   'P 1'
_cell_length_a   5.33560175
_cell_length_b   13.55315136
_cell_length_c   8.96104103
_cell_angle_alpha   90.00000000
_cell_angle_beta   102.33478058
_cell_angle_gamma   90.00000000
_symmetry_Int_Tables_number   1
_chemical_formula_structural   Li2Mo(PO3)5
_chemical_formula_sum   'Li4 Mo2 P10 O30'
_cell_volume   633.05204789
_cell_formula_units_Z   2
loop_
 _symmetry_equiv_pos_site_id
 _symmetry_equiv_pos_as_xyz
  1  'x, y, z'
loop_
 _atom_site_type_symbol
 _atom_site_label
 _atom_site_symmetry_multiplicity
 _atom_site_fract_x
 _atom_site_fract_y
 _atom_site_fract_z
 _atom_site_occupancy
  Li  Li0  1  0.944431  0.377159  0.420314  1
  Li  Li1  1  0.055569  0.622841  0.579686  1
  Li  Li2  1  0.944431  0.122841  0.420314  1
  Li  Li3  1  0.055569  0.877159  0.579686  1
  Mo  Mo4  1  0.500000  0.000000  0.000000  1
  Mo  Mo5  1  0.500000  0.500000  0.000000  1
  P  P6  1  0.006358  0.857808  0.016852  1
  P  P7  1  0.006358  0.642192  0.016852  1
  P  P8  1  0.457437  0.250000  0.484740  1
  P  P9  1  0.993642  0.142192  0.983148  1
  P  P10  1  0.662976  0.422797  0.681033  1
  P  P11  1  0.662976  0.077203  0.681033  1
  P  P12  1  0.542563  0.750000  0.515260  1
  P  P13  1  0.337024  0.577203  0.318967  1
  P  P14  1  0.993642  0.357808  0.983148  1
  P  P15  1  0.337024  0.922797  0.318967  1
  O  O16  1  0.478860  0.507040  0.235247  1
  O  O17  1  0.862135  0.073052  0.074561  1
  O  O18  1  0.811287  0.036996  0.571350  1
  O  O19  1  0.137865  0.573052  0.925439  1
  O  O20  1  0.521140  0.007040  0.764753  1
  O  O21  1  0.067545  0.750000  0.962381  1
  O  O22  1  0.277659  0.132007  0.995656  1
  O  O23  1  0.137865  0.926948  0.925439  1
  O  O24  1  0.455208  0.342352  0.602211  1
  O  O25  1  0.853995  0.144467  0.806867  1
  O  O26  1  0.277659  0.367993  0.995656  1
  O  O27  1  0.188713  0.536996  0.428650  1
  O  O28  1  0.194469  0.250000  0.382978  1
  O  O29  1  0.146005  0.855533  0.193133  1
  O  O30  1  0.853995  0.355533  0.806867  1
  O  O31  1  0.298424  0.750000  0.572753  1
  O  O32  1  0.701576  0.250000  0.427247  1
  O  O33  1  0.932455  0.250000  0.037619  1
  O  O34  1  0.455208  0.157648  0.602211  1
  O  O35  1  0.722341  0.867993  0.004344  1
  O  O36  1  0.188713  0.963004  0.428650  1
  O  O37  1  0.146005  0.644467  0.193133  1
  O  O38  1  0.811287  0.463004  0.571350  1
  O  O39  1  0.544792  0.657648  0.397789  1
  O  O40  1  0.722341  0.632007  0.004344  1
  O  O41  1  0.544792  0.842352  0.397789  1
  O  O42  1  0.521140  0.492960  0.764753  1
  O  O43  1  0.805531  0.750000  0.617022  1
  O  O44  1  0.862135  0.426948  0.074561  1
  O  O45  1  0.478860  0.992960  0.235247  1
