# generated using pymatgen
data_K4Rb2Co2O5
_symmetry_space_group_name_H-M   'P 1'
_cell_length_a   6.80198222
_cell_length_b   6.80198222
_cell_length_c   11.87734115
_cell_angle_alpha   90.00000000
_cell_angle_beta   90.00000000
_cell_angle_gamma   90.00000000
_symmetry_Int_Tables_number   1
_chemical_formula_structural   K4Rb2Co2O5
_chemical_formula_sum   'K8 Rb4 Co4 O10'
_cell_volume   549.52849309
_cell_formula_units_Z   2
loop_
 _symmetry_equiv_pos_site_id
 _symmetry_equiv_pos_as_xyz
  1  'x, y, z'
loop_
 _atom_site_type_symbol
 _atom_site_label
 _atom_site_symmetry_multiplicity
 _atom_site_fract_x
 _atom_site_fract_y
 _atom_site_fract_z
 _atom_site_occupancy
  K  K0  1  0.500000  0.000000  0.250000  1
  K  K1  1  0.500000  0.000000  0.750000  1
  K  K2  1  0.000000  0.000000  0.779039  1
  K  K3  1  0.500000  0.500000  0.279039  1
  K  K4  1  0.500000  0.500000  0.720961  1
  K  K5  1  0.000000  0.000000  0.220961  1
  K  K6  1  0.000000  0.500000  0.250000  1
  K  K7  1  0.000000  0.500000  0.750000  1
  Rb  Rb8  1  0.313562  0.313562  0.000000  1
  Rb  Rb9  1  0.186438  0.813562  0.500000  1
  Rb  Rb10  1  0.813562  0.186438  0.500000  1
  Rb  Rb11  1  0.686438  0.686438  0.000000  1
  Co  Co12  1  0.204308  0.795692  0.000000  1
  Co  Co13  1  0.704308  0.704308  0.500000  1
  Co  Co14  1  0.295692  0.295692  0.500000  1
  Co  Co15  1  0.795692  0.204308  0.000000  1
  O  O16  1  0.500000  0.500000  0.500000  1
  O  O17  1  0.000000  0.000000  0.000000  1
  O  O18  1  0.783417  0.783417  0.359805  1
  O  O19  1  0.216583  0.216583  0.359805  1
  O  O20  1  0.783417  0.783417  0.640195  1
  O  O21  1  0.283417  0.716583  0.859805  1
  O  O22  1  0.716583  0.283417  0.859805  1
  O  O23  1  0.716583  0.283417  0.140195  1
  O  O24  1  0.216583  0.216583  0.640195  1
  O  O25  1  0.283417  0.716583  0.140195  1
