# generated using pymatgen
data_Sr2GeO4
_symmetry_space_group_name_H-M   'P 1'
_cell_length_a   5.95225495
_cell_length_b   10.04933231
_cell_length_c   14.47679875
_cell_angle_alpha   90.00000000
_cell_angle_beta   90.00000000
_cell_angle_gamma   90.00000000
_symmetry_Int_Tables_number   1
_chemical_formula_structural   Sr2GeO4
_chemical_formula_sum   'Sr16 Ge8 O32'
_cell_volume   865.94691547
_cell_formula_units_Z   8
loop_
 _symmetry_equiv_pos_site_id
 _symmetry_equiv_pos_as_xyz
  1  'x, y, z'
loop_
 _atom_site_type_symbol
 _atom_site_label
 _atom_site_symmetry_multiplicity
 _atom_site_fract_x
 _atom_site_fract_y
 _atom_site_fract_z
 _atom_site_occupancy
  Sr  Sr0  1  0.789159  0.428197  0.296342  1
  Sr  Sr1  1  0.710841  0.428197  0.796342  1
  Sr  Sr2  1  0.793564  0.702485  0.120515  1
  Sr  Sr3  1  0.721800  0.069040  0.543163  1
  Sr  Sr4  1  0.206436  0.202485  0.879485  1
  Sr  Sr5  1  0.706436  0.702485  0.620515  1
  Sr  Sr6  1  0.278200  0.569040  0.456837  1
  Sr  Sr7  1  0.228392  0.297405  0.628706  1
  Sr  Sr8  1  0.271608  0.297405  0.128706  1
  Sr  Sr9  1  0.728392  0.797405  0.871294  1
  Sr  Sr10  1  0.289159  0.928197  0.203658  1
  Sr  Sr11  1  0.778200  0.069040  0.043163  1
  Sr  Sr12  1  0.210841  0.928197  0.703658  1
  Sr  Sr13  1  0.293564  0.202485  0.379485  1
  Sr  Sr14  1  0.771608  0.797405  0.371294  1
  Sr  Sr15  1  0.221800  0.569040  0.956837  1
  Ge  Ge16  1  0.720534  0.084211  0.764042  1
  Ge  Ge17  1  0.728345  0.415459  0.021072  1
  Ge  Ge18  1  0.779466  0.084211  0.264042  1
  Ge  Ge19  1  0.228345  0.915459  0.478928  1
  Ge  Ge20  1  0.771655  0.415459  0.521072  1
  Ge  Ge21  1  0.279466  0.584211  0.235958  1
  Ge  Ge22  1  0.271655  0.915459  0.978928  1
  Ge  Ge23  1  0.220534  0.584211  0.735958  1
  O  O24  1  0.287877  0.064493  0.542517  1
  O  O25  1  0.171378  0.955920  0.363190  1
  O  O26  1  0.045683  0.803531  0.995039  1
  O  O27  1  0.531354  0.138094  0.203829  1
  O  O28  1  0.977170  0.847723  0.528966  1
  O  O29  1  0.010235  0.709037  0.747151  1
  O  O30  1  0.642778  0.935900  0.701466  1
  O  O31  1  0.489765  0.709037  0.247151  1
  O  O32  1  0.989765  0.209037  0.252849  1
  O  O33  1  0.545683  0.303531  0.504961  1
  O  O34  1  0.022830  0.347723  0.471034  1
  O  O35  1  0.468646  0.638094  0.796171  1
  O  O36  1  0.681287  0.050206  0.376531  1
  O  O37  1  0.968646  0.138094  0.703829  1
  O  O38  1  0.454317  0.803531  0.495039  1
  O  O39  1  0.818713  0.050206  0.876531  1
  O  O40  1  0.031354  0.638094  0.296171  1
  O  O41  1  0.181287  0.550206  0.123469  1
  O  O42  1  0.522830  0.847723  0.028966  1
  O  O43  1  0.477170  0.347723  0.971034  1
  O  O44  1  0.828622  0.455920  0.636810  1
  O  O45  1  0.357222  0.435900  0.298534  1
  O  O46  1  0.857222  0.935900  0.201466  1
  O  O47  1  0.212123  0.064493  0.042517  1
  O  O48  1  0.712123  0.564493  0.457483  1
  O  O49  1  0.954317  0.303531  0.004961  1
  O  O50  1  0.318713  0.550206  0.623469  1
  O  O51  1  0.510235  0.209037  0.752849  1
  O  O52  1  0.671378  0.455920  0.136810  1
  O  O53  1  0.142778  0.435900  0.798534  1
  O  O54  1  0.328622  0.955920  0.863190  1
  O  O55  1  0.787877  0.564493  0.957483  1
