# generated using pymatgen
data_YH7C4O11
_symmetry_space_group_name_H-M   'P 1'
_cell_length_a   8.81162956
_cell_length_b   8.81162956
_cell_length_c   12.81185650
_cell_angle_alpha   90.00000000
_cell_angle_beta   90.00000000
_cell_angle_gamma   90.00000000
_symmetry_Int_Tables_number   1
_chemical_formula_structural   YH7C4O11
_chemical_formula_sum   'Y4 H28 C16 O44'
_cell_volume   994.77423419
_cell_formula_units_Z   4
loop_
 _symmetry_equiv_pos_site_id
 _symmetry_equiv_pos_as_xyz
  1  'x, y, z'
loop_
 _atom_site_type_symbol
 _atom_site_label
 _atom_site_symmetry_multiplicity
 _atom_site_fract_x
 _atom_site_fract_y
 _atom_site_fract_z
 _atom_site_occupancy
  Y  Y0  1  0.000000  0.500000  0.459367  1
  Y  Y1  1  0.500000  0.000000  0.540633  1
  Y  Y2  1  0.500000  0.000000  0.040633  1
  Y  Y3  1  0.000000  0.500000  0.959367  1
  H  H4  1  0.820970  0.926460  0.213119  1
  H  H5  1  0.492671  0.305176  0.828699  1
  H  H6  1  0.589578  0.001859  0.776253  1
  H  H7  1  0.500000  0.500000  0.777087  1
  H  H8  1  0.305176  0.507329  0.171301  1
  H  H9  1  0.507329  0.694824  0.828699  1
  H  H10  1  0.992671  0.805176  0.671301  1
  H  H11  1  0.679030  0.573540  0.286881  1
  H  H12  1  0.007329  0.194824  0.671301  1
  H  H13  1  0.500000  0.500000  0.222913  1
  H  H14  1  0.000000  0.000000  0.722913  1
  H  H15  1  0.089578  0.501859  0.723747  1
  H  H16  1  0.926460  0.179030  0.786881  1
  H  H17  1  0.320970  0.426460  0.286881  1
  H  H18  1  0.179030  0.073540  0.213119  1
  H  H19  1  0.998141  0.589578  0.223747  1
  H  H20  1  0.573540  0.320970  0.713119  1
  H  H21  1  0.194824  0.992671  0.328699  1
  H  H22  1  0.910422  0.498141  0.723747  1
  H  H23  1  0.805176  0.007329  0.328699  1
  H  H24  1  0.001859  0.410422  0.223747  1
  H  H25  1  0.073540  0.820970  0.786881  1
  H  H26  1  0.410422  0.998141  0.776253  1
  H  H27  1  0.426460  0.679030  0.713119  1
  H  H28  1  0.000000  0.000000  0.277087  1
  H  H29  1  0.694824  0.492671  0.171301  1
  H  H30  1  0.501859  0.910422  0.276253  1
  H  H31  1  0.498141  0.089578  0.276253  1
  C  C32  1  0.773734  0.204216  0.947054  1
  C  C33  1  0.726014  0.283325  0.049569  1
  C  C34  1  0.704216  0.726266  0.447054  1
  C  C35  1  0.295784  0.273734  0.447054  1
  C  C36  1  0.226266  0.795784  0.947054  1
  C  C37  1  0.716675  0.726014  0.950431  1
  C  C38  1  0.726266  0.295784  0.552946  1
  C  C39  1  0.216675  0.226014  0.549569  1
  C  C40  1  0.226014  0.783325  0.450431  1
  C  C41  1  0.783325  0.773986  0.549569  1
  C  C42  1  0.273986  0.716675  0.049569  1
  C  C43  1  0.204216  0.226266  0.052946  1
  C  C44  1  0.795784  0.773734  0.052946  1
  C  C45  1  0.773986  0.216675  0.450431  1
  C  C46  1  0.273734  0.704216  0.552946  1
  C  C47  1  0.283325  0.273986  0.950431  1
  O  O48  1  0.124747  0.720072  0.396462  1
  O  O49  1  0.779928  0.624747  0.896462  1
  O  O50  1  0.091599  0.291340  0.571380  1
  O  O51  1  0.373394  0.447307  0.218369  1
  O  O52  1  0.500000  0.000000  0.231251  1
  O  O53  1  0.408401  0.208660  0.928620  1
  O  O54  1  0.708660  0.091599  0.428620  1
  O  O55  1  0.791340  0.408401  0.071380  1
  O  O56  1  0.500000  0.000000  0.731251  1
  O  O57  1  0.413069  0.200801  0.421089  1
  O  O58  1  0.875253  0.279928  0.396462  1
  O  O59  1  0.086931  0.299199  0.078911  1
  O  O60  1  0.220072  0.375253  0.896462  1
  O  O61  1  0.116953  0.735492  0.896925  1
  O  O62  1  0.000000  0.500000  0.768749  1
  O  O63  1  0.208660  0.591599  0.071380  1
  O  O64  1  0.264508  0.116953  0.103075  1
  O  O65  1  0.000000  0.500000  0.268749  1
  O  O66  1  0.383047  0.764508  0.603075  1
  O  O67  1  0.552693  0.373394  0.781631  1
  O  O68  1  0.883047  0.264508  0.896925  1
  O  O69  1  0.375253  0.779928  0.103538  1
  O  O70  1  0.764508  0.616953  0.396925  1
  O  O71  1  0.299199  0.913069  0.921089  1
  O  O72  1  0.799199  0.413069  0.578911  1
  O  O73  1  0.126606  0.052693  0.281631  1
  O  O74  1  0.591599  0.791340  0.928620  1
  O  O75  1  0.586931  0.799199  0.421089  1
  O  O76  1  0.447307  0.626606  0.781631  1
  O  O77  1  0.616953  0.235492  0.603075  1
  O  O78  1  0.720072  0.875253  0.603538  1
  O  O79  1  0.735492  0.883047  0.103075  1
  O  O80  1  0.279928  0.124747  0.603538  1
  O  O81  1  0.052693  0.873394  0.718369  1
  O  O82  1  0.908401  0.708660  0.571380  1
  O  O83  1  0.700801  0.086931  0.921089  1
  O  O84  1  0.624747  0.220072  0.103538  1
  O  O85  1  0.235492  0.383047  0.396925  1
  O  O86  1  0.947307  0.126606  0.718369  1
  O  O87  1  0.291340  0.908401  0.428620  1
  O  O88  1  0.200801  0.586931  0.578911  1
  O  O89  1  0.913069  0.700801  0.078911  1
  O  O90  1  0.873394  0.947307  0.281631  1
  O  O91  1  0.626606  0.552693  0.218369  1
