# generated using pymatgen
data_KCa5Mg5Al(SiO3)12
_symmetry_space_group_name_H-M   'P 1'
_cell_length_a   6.66302049
_cell_length_b   6.66302049
_cell_length_c   15.95987568
_cell_angle_alpha   78.30423623
_cell_angle_beta   101.69576377
_cell_angle_gamma   94.85443643
_symmetry_Int_Tables_number   1
_chemical_formula_structural   KCa5Mg5Al(SiO3)12
_chemical_formula_sum   'K1 Ca5 Mg5 Al1 Si12 O36'
_cell_volume   678.73488173
_cell_formula_units_Z   1
loop_
 _symmetry_equiv_pos_site_id
 _symmetry_equiv_pos_as_xyz
  1  'x, y, z'
loop_
 _atom_site_type_symbol
 _atom_site_label
 _atom_site_symmetry_multiplicity
 _atom_site_fract_x
 _atom_site_fract_y
 _atom_site_fract_z
 _atom_site_occupancy
  K  K0  1  0.305609  0.305609  0.500000  1
  Ca  Ca1  1  0.694703  0.700886  0.667639  1
  Ca  Ca2  1  0.299063  0.303135  0.832161  1
  Ca  Ca3  1  0.699624  0.699624  0.000000  1
  Ca  Ca4  1  0.303135  0.299063  0.167839  1
  Ca  Ca5  1  0.700886  0.694703  0.332361  1
  Mg  Mg6  1  0.096190  0.094408  0.665881  1
  Mg  Mg7  1  0.909134  0.907700  0.833921  1
  Mg  Mg8  1  0.093705  0.093705  0.000000  1
  Mg  Mg9  1  0.907700  0.909134  0.166079  1
  Mg  Mg10  1  0.094408  0.096190  0.334119  1
  Al  Al11  1  0.905652  0.905652  0.500000  1
  Si  Si12  1  0.804286  0.378099  0.509495  1
  Si  Si13  1  0.378099  0.804286  0.490505  1
  Si  Si14  1  0.623904  0.188559  0.676336  1
  Si  Si15  1  0.193738  0.624202  0.656660  1
  Si  Si16  1  0.807600  0.381028  0.840415  1
  Si  Si17  1  0.378273  0.809249  0.826302  1
  Si  Si18  1  0.620836  0.194679  0.006389  1
  Si  Si19  1  0.194679  0.620836  0.993611  1
  Si  Si20  1  0.809249  0.378273  0.173698  1
  Si  Si21  1  0.381028  0.807600  0.159585  1
  Si  Si22  1  0.624202  0.193738  0.343340  1
  Si  Si23  1  0.188559  0.623904  0.323664  1
  O  O24  1  0.643332  0.346369  0.416029  1
  O  O25  1  0.884435  0.617064  0.482136  1
  O  O26  1  0.946877  0.178359  0.534679  1
  O  O27  1  0.178359  0.946877  0.465321  1
  O  O28  1  0.617064  0.884435  0.517864  1
  O  O29  1  0.677542  0.368954  0.590617  1
  O  O30  1  0.346369  0.643332  0.583971  1
  O  O31  1  0.397373  0.091157  0.652809  1
  O  O32  1  0.805056  0.026177  0.703936  1
  O  O33  1  0.021230  0.800302  0.621185  1
  O  O34  1  0.114178  0.391526  0.684399  1
  O  O35  1  0.631164  0.331080  0.753426  1
  O  O36  1  0.357032  0.668167  0.748000  1
  O  O37  1  0.887623  0.612422  0.808125  1
  O  O38  1  0.974078  0.204760  0.869641  1
  O  O39  1  0.201500  0.975109  0.797847  1
  O  O40  1  0.611919  0.884277  0.856277  1
  O  O41  1  0.670383  0.371946  0.918920  1
  O  O42  1  0.331755  0.632914  0.914761  1
  O  O43  1  0.388797  0.116380  0.975098  1
  O  O44  1  0.796873  0.027628  0.035648  1
  O  O45  1  0.027628  0.796873  0.964352  1
  O  O46  1  0.116380  0.388797  0.024902  1
  O  O47  1  0.632914  0.331755  0.085239  1
  O  O48  1  0.371946  0.670383  0.081080  1
  O  O49  1  0.884277  0.611919  0.143723  1
  O  O50  1  0.975109  0.201500  0.202153  1
  O  O51  1  0.204760  0.974078  0.130359  1
  O  O52  1  0.612422  0.887623  0.191875  1
  O  O53  1  0.668167  0.357032  0.252000  1
  O  O54  1  0.331080  0.631164  0.246574  1
  O  O55  1  0.391526  0.114178  0.315601  1
  O  O56  1  0.800302  0.021230  0.378815  1
  O  O57  1  0.026177  0.805056  0.296064  1
  O  O58  1  0.091157  0.397373  0.347191  1
  O  O59  1  0.368954  0.677542  0.409383  1
