# generated using pymatgen
data_Mn(IO3)2
_symmetry_space_group_name_H-M   'P 1'
_cell_length_a   5.68669457
_cell_length_b   5.33024010
_cell_length_c   9.74472737
_cell_angle_alpha   90.00000000
_cell_angle_beta   90.34577707
_cell_angle_gamma   90.00000000
_symmetry_Int_Tables_number   1
_chemical_formula_structural   Mn(IO3)2
_chemical_formula_sum   'Mn2 I4 O12'
_cell_volume   295.37141265
_cell_formula_units_Z   2
loop_
 _symmetry_equiv_pos_site_id
 _symmetry_equiv_pos_as_xyz
  1  'x, y, z'
loop_
 _atom_site_type_symbol
 _atom_site_label
 _atom_site_symmetry_multiplicity
 _atom_site_fract_x
 _atom_site_fract_y
 _atom_site_fract_z
 _atom_site_occupancy
  Mn  Mn0  1  0.732863  0.317910  0.245116  1
  Mn  Mn1  1  0.267137  0.817910  0.754884  1
  I  I2  1  0.763147  0.739023  0.566853  1
  I  I3  1  0.229698  0.720381  0.101580  1
  I  I4  1  0.236853  0.239023  0.433147  1
  I  I5  1  0.770302  0.220381  0.898420  1
  O  O6  1  0.349651  0.604470  0.938954  1
  O  O7  1  0.155069  0.035004  0.577461  1
  O  O8  1  0.487142  0.585316  0.618496  1
  O  O9  1  0.951552  0.544555  0.103559  1
  O  O10  1  0.403138  0.532970  0.224638  1
  O  O11  1  0.844931  0.535004  0.422539  1
  O  O12  1  0.512858  0.085316  0.381504  1
  O  O13  1  0.959535  0.595620  0.695720  1
  O  O14  1  0.650349  0.104470  0.061046  1
  O  O15  1  0.040465  0.095620  0.304280  1
  O  O16  1  0.048448  0.044555  0.896441  1
  O  O17  1  0.596862  0.032970  0.775362  1
