# generated using pymatgen
data_Cd(BiO2)2
_symmetry_space_group_name_H-M   'P 1'
_cell_length_a   11.45048243
_cell_length_b   11.45048243
_cell_length_c   11.45048243
_cell_angle_alpha   99.93203909
_cell_angle_beta   99.93203909
_cell_angle_gamma   130.92269301
_symmetry_Int_Tables_number   1
_chemical_formula_structural   Cd(BiO2)2
_chemical_formula_sum   'Cd8 Bi16 O32'
_cell_volume   1031.92746699
_cell_formula_units_Z   8
loop_
 _symmetry_equiv_pos_site_id
 _symmetry_equiv_pos_as_xyz
  1  'x, y, z'
loop_
 _atom_site_type_symbol
 _atom_site_label
 _atom_site_symmetry_multiplicity
 _atom_site_fract_x
 _atom_site_fract_y
 _atom_site_fract_z
 _atom_site_occupancy
  Cd  Cd0  1  0.625000  0.265667  0.140667  1
  Cd  Cd1  1  0.734333  0.375000  0.859333  1
  Cd  Cd2  1  0.515667  0.875000  0.140667  1
  Cd  Cd3  1  0.125000  0.484333  0.859333  1
  Cd  Cd4  1  0.625000  0.484333  0.359333  1
  Cd  Cd5  1  0.515667  0.375000  0.640667  1
  Cd  Cd6  1  0.734333  0.875000  0.359333  1
  Cd  Cd7  1  0.125000  0.265667  0.640667  1
  Bi  Bi8  1  0.092030  0.907970  0.500000  1
  Bi  Bi9  1  0.842030  0.842030  0.684059  1
  Bi  Bi10  1  0.157970  0.157970  0.315941  1
  Bi  Bi11  1  0.407970  0.592030  0.500000  1
  Bi  Bi12  1  0.157970  0.842030  1.000000  1
  Bi  Bi13  1  0.407970  0.907970  0.815941  1
  Bi  Bi14  1  0.092030  0.592030  0.184059  1
  Bi  Bi15  1  0.842030  0.157970  0.000000  1
  Bi  Bi16  1  0.739752  0.098727  0.641025  1
  Bi  Bi17  1  0.348727  0.489751  0.141025  1
  Bi  Bi18  1  0.348727  0.207702  0.858975  1
  Bi  Bi19  1  0.457702  0.098727  0.358975  1
  Bi  Bi20  1  0.901273  0.542298  0.641025  1
  Bi  Bi21  1  0.901273  0.260249  0.358975  1
  Bi  Bi22  1  0.792298  0.651273  0.141025  1
  Bi  Bi23  1  0.510249  0.651273  0.858975  1
  O  O24  1  0.688316  0.145312  0.850753  1
  O  O25  1  0.087562  0.438316  0.043003  1
  O  O26  1  0.395312  0.044559  0.956997  1
  O  O27  1  0.294559  0.837562  0.149247  1
  O  O28  1  0.162438  0.705441  0.850753  1
  O  O29  1  0.854688  0.311684  0.149247  1
  O  O30  1  0.955441  0.604688  0.043003  1
  O  O31  1  0.561684  0.912438  0.956997  1
  O  O32  1  0.561684  0.604688  0.649247  1
  O  O33  1  0.162438  0.311684  0.456997  1
  O  O34  1  0.854688  0.705441  0.543003  1
  O  O35  1  0.955441  0.912438  0.350753  1
  O  O36  1  0.087562  0.044559  0.649247  1
  O  O37  1  0.395312  0.438316  0.350753  1
  O  O38  1  0.294559  0.145312  0.456997  1
  O  O39  1  0.688316  0.837562  0.543003  1
  O  O40  1  0.290717  0.561661  0.729056  1
  O  O41  1  0.811661  0.040717  0.229056  1
  O  O42  1  0.811661  0.582606  0.770944  1
  O  O43  1  0.832606  0.561661  0.270944  1
  O  O44  1  0.438339  0.167394  0.729056  1
  O  O45  1  0.438339  0.709283  0.270944  1
  O  O46  1  0.417394  0.188339  0.229056  1
  O  O47  1  0.959283  0.188339  0.770944  1
  O  O48  1  0.857023  0.142977  0.500000  1
  O  O49  1  0.607023  0.607023  0.214046  1
  O  O50  1  0.392977  0.392977  0.785954  1
  O  O51  1  0.642977  0.357023  0.500000  1
  O  O52  1  0.392977  0.607023  0.000000  1
  O  O53  1  0.642977  0.142977  0.285954  1
  O  O54  1  0.857023  0.357023  0.714046  1
  O  O55  1  0.607023  0.392977  0.000000  1
