# generated using pymatgen
data_Ga2Pb2S5
_symmetry_space_group_name_H-M   'P 1'
_cell_length_a   11.21487811
_cell_length_b   12.12488241
_cell_length_c   12.57454898
_cell_angle_alpha   90.00000000
_cell_angle_beta   90.00000000
_cell_angle_gamma   90.00000000
_symmetry_Int_Tables_number   1
_chemical_formula_structural   Ga2Pb2S5
_chemical_formula_sum   'Ga16 Pb16 S40'
_cell_volume   1709.87558067
_cell_formula_units_Z   8
loop_
 _symmetry_equiv_pos_site_id
 _symmetry_equiv_pos_as_xyz
  1  'x, y, z'
loop_
 _atom_site_type_symbol
 _atom_site_label
 _atom_site_symmetry_multiplicity
 _atom_site_fract_x
 _atom_site_fract_y
 _atom_site_fract_z
 _atom_site_occupancy
  Ga  Ga0  1  0.264829  0.540149  0.525333  1
  Ga  Ga1  1  0.435688  0.800778  0.043166  1
  Ga  Ga2  1  0.264829  0.040149  0.974667  1
  Ga  Ga3  1  0.564312  0.699222  0.543166  1
  Ga  Ga4  1  0.935688  0.699222  0.043166  1
  Ga  Ga5  1  0.564312  0.199222  0.956834  1
  Ga  Ga6  1  0.235171  0.540149  0.025333  1
  Ga  Ga7  1  0.064312  0.300778  0.956834  1
  Ga  Ga8  1  0.935688  0.199222  0.456834  1
  Ga  Ga9  1  0.764829  0.459851  0.974667  1
  Ga  Ga10  1  0.435688  0.300778  0.456834  1
  Ga  Ga11  1  0.735171  0.959851  0.025333  1
  Ga  Ga12  1  0.235171  0.040149  0.474667  1
  Ga  Ga13  1  0.064312  0.800778  0.543166  1
  Ga  Ga14  1  0.735171  0.459851  0.474667  1
  Ga  Ga15  1  0.764829  0.959851  0.525333  1
  Pb  Pb16  1  0.235781  0.754989  0.806539  1
  Pb  Pb17  1  0.490245  0.982799  0.706810  1
  Pb  Pb18  1  0.009755  0.982799  0.206810  1
  Pb  Pb19  1  0.264219  0.754989  0.306539  1
  Pb  Pb20  1  0.509755  0.017201  0.293190  1
  Pb  Pb21  1  0.735781  0.245011  0.693461  1
  Pb  Pb22  1  0.764219  0.745011  0.306539  1
  Pb  Pb23  1  0.990245  0.517201  0.706810  1
  Pb  Pb24  1  0.490245  0.482799  0.793190  1
  Pb  Pb25  1  0.264219  0.254989  0.193461  1
  Pb  Pb26  1  0.009755  0.482799  0.293190  1
  Pb  Pb27  1  0.764219  0.245011  0.193461  1
  Pb  Pb28  1  0.509755  0.517201  0.206810  1
  Pb  Pb29  1  0.990245  0.017201  0.793190  1
  Pb  Pb30  1  0.735781  0.745011  0.806539  1
  Pb  Pb31  1  0.235781  0.254989  0.693461  1
  S  S32  1  0.742233  0.137162  0.464742  1
  S  S33  1  0.242233  0.362838  0.464742  1
  S  S34  1  0.006774  0.789570  0.714780  1
  S  S35  1  0.588711  0.376235  0.028344  1
  S  S36  1  0.074014  0.113389  0.567572  1
  S  S37  1  0.425986  0.113389  0.067572  1
  S  S38  1  0.257767  0.862838  0.535258  1
  S  S39  1  0.993226  0.710430  0.214780  1
  S  S40  1  0.242233  0.862838  0.035258  1
  S  S41  1  0.993226  0.210430  0.285220  1
  S  S42  1  0.753843  0.470607  0.794916  1
  S  S43  1  0.746157  0.470607  0.294916  1
  S  S44  1  0.574014  0.886611  0.932428  1
  S  S45  1  0.088711  0.123765  0.028344  1
  S  S46  1  0.253843  0.529393  0.705084  1
  S  S47  1  0.757767  0.637162  0.535258  1
  S  S48  1  0.911289  0.876235  0.971656  1
  S  S49  1  0.246157  0.029393  0.294916  1
  S  S50  1  0.506774  0.210430  0.785220  1
  S  S51  1  0.742233  0.637162  0.035258  1
  S  S52  1  0.411289  0.623765  0.971656  1
  S  S53  1  0.253843  0.029393  0.794916  1
  S  S54  1  0.246157  0.529393  0.205084  1
  S  S55  1  0.574014  0.386611  0.567572  1
  S  S56  1  0.925986  0.886611  0.432428  1
  S  S57  1  0.911289  0.376235  0.528344  1
  S  S58  1  0.925986  0.386611  0.067572  1
  S  S59  1  0.074014  0.613389  0.932428  1
  S  S60  1  0.257767  0.362838  0.964742  1
  S  S61  1  0.425986  0.613389  0.432428  1
  S  S62  1  0.746157  0.970607  0.205084  1
  S  S63  1  0.411289  0.123765  0.528344  1
  S  S64  1  0.757767  0.137162  0.964742  1
  S  S65  1  0.506774  0.710430  0.714780  1
  S  S66  1  0.006774  0.289570  0.785220  1
  S  S67  1  0.088711  0.623765  0.471656  1
  S  S68  1  0.493226  0.289570  0.285220  1
  S  S69  1  0.588711  0.876235  0.471656  1
  S  S70  1  0.493226  0.789570  0.214780  1
  S  S71  1  0.753843  0.970607  0.705084  1
