# generated using pymatgen
data_SiO2
_symmetry_space_group_name_H-M   'P 1'
_cell_length_a   9.06242150
_cell_length_b   9.06242150
_cell_length_c   8.14422781
_cell_angle_alpha   90.00000000
_cell_angle_beta   90.00000000
_cell_angle_gamma   90.00000000
_symmetry_Int_Tables_number   1
_chemical_formula_structural   SiO2
_chemical_formula_sum   'Si16 O32'
_cell_volume   668.86493463
_cell_formula_units_Z   16
loop_
 _symmetry_equiv_pos_site_id
 _symmetry_equiv_pos_as_xyz
  1  'x, y, z'
loop_
 _atom_site_type_symbol
 _atom_site_label
 _atom_site_symmetry_multiplicity
 _atom_site_fract_x
 _atom_site_fract_y
 _atom_site_fract_z
 _atom_site_occupancy
  Si  Si0  1  0.555399  0.282461  0.437183  1
  Si  Si1  1  0.282461  0.555399  0.937183  1
  Si  Si2  1  0.555399  0.717539  0.062817  1
  Si  Si3  1  0.717539  0.555399  0.562817  1
  Si  Si4  1  0.944601  0.782461  0.437183  1
  Si  Si5  1  0.282461  0.444601  0.562817  1
  Si  Si6  1  0.217539  0.055399  0.937183  1
  Si  Si7  1  0.055399  0.782461  0.062817  1
  Si  Si8  1  0.444601  0.717539  0.437183  1
  Si  Si9  1  0.217539  0.944601  0.562817  1
  Si  Si10  1  0.055399  0.217539  0.437183  1
  Si  Si11  1  0.782461  0.055399  0.562817  1
  Si  Si12  1  0.717539  0.444601  0.937183  1
  Si  Si13  1  0.444601  0.282461  0.062817  1
  Si  Si14  1  0.944601  0.217539  0.062817  1
  Si  Si15  1  0.782461  0.944601  0.937183  1
  O  O16  1  0.370200  0.870200  0.500000  1
  O  O17  1  0.916060  0.823205  0.944034  1
  O  O18  1  0.323205  0.583940  0.444034  1
  O  O19  1  0.870200  0.629800  0.500000  1
  O  O20  1  0.261201  0.500000  0.750000  1
  O  O21  1  0.676795  0.416060  0.444034  1
  O  O22  1  0.738799  0.500000  0.750000  1
  O  O23  1  0.916060  0.176795  0.555966  1
  O  O24  1  0.370200  0.129800  0.000000  1
  O  O25  1  0.083940  0.176795  0.944034  1
  O  O26  1  0.583940  0.323205  0.944034  1
  O  O27  1  0.416060  0.676795  0.944034  1
  O  O28  1  0.870200  0.370200  0.000000  1
  O  O29  1  0.583940  0.676795  0.555966  1
  O  O30  1  0.676795  0.583940  0.055966  1
  O  O31  1  0.416060  0.323205  0.555966  1
  O  O32  1  0.500000  0.738799  0.250000  1
  O  O33  1  0.629800  0.129800  0.500000  1
  O  O34  1  0.323205  0.416060  0.055966  1
  O  O35  1  0.083940  0.823205  0.555966  1
  O  O36  1  0.823205  0.916060  0.444034  1
  O  O37  1  0.000000  0.238799  0.250000  1
  O  O38  1  0.176795  0.083940  0.444034  1
  O  O39  1  0.000000  0.761201  0.250000  1
  O  O40  1  0.500000  0.261201  0.250000  1
  O  O41  1  0.176795  0.916060  0.055966  1
  O  O42  1  0.238799  0.000000  0.750000  1
  O  O43  1  0.823205  0.083940  0.055966  1
  O  O44  1  0.761201  0.000000  0.750000  1
  O  O45  1  0.129800  0.629800  0.000000  1
  O  O46  1  0.629800  0.870200  0.000000  1
  O  O47  1  0.129800  0.370200  0.500000  1
