# generated using pymatgen
data_Al2Te2Cl7
_symmetry_space_group_name_H-M   'P 1'
_cell_length_a   9.55073678
_cell_length_b   11.47477819
_cell_length_c   13.73940444
_cell_angle_alpha   90.00000000
_cell_angle_beta   93.97936243
_cell_angle_gamma   90.00000000
_symmetry_Int_Tables_number   1
_chemical_formula_structural   Al2Te2Cl7
_chemical_formula_sum   'Al8 Te8 Cl28'
_cell_volume   1502.10669993
_cell_formula_units_Z   4
loop_
 _symmetry_equiv_pos_site_id
 _symmetry_equiv_pos_as_xyz
  1  'x, y, z'
loop_
 _atom_site_type_symbol
 _atom_site_label
 _atom_site_symmetry_multiplicity
 _atom_site_fract_x
 _atom_site_fract_y
 _atom_site_fract_z
 _atom_site_occupancy
  Al  Al0  1  0.117984  0.177403  0.704522  1
  Al  Al1  1  0.882016  0.677403  0.795478  1
  Al  Al2  1  0.882016  0.822597  0.295478  1
  Al  Al3  1  0.117984  0.322597  0.204522  1
  Al  Al4  1  0.739161  0.082271  0.656037  1
  Al  Al5  1  0.260839  0.582271  0.843963  1
  Al  Al6  1  0.260839  0.917729  0.343963  1
  Al  Al7  1  0.739161  0.417729  0.156037  1
  Te  Te8  1  0.433233  0.153726  0.965112  1
  Te  Te9  1  0.566767  0.653726  0.534888  1
  Te  Te10  1  0.566767  0.846274  0.034888  1
  Te  Te11  1  0.433233  0.346274  0.465112  1
  Te  Te12  1  0.324101  0.935238  0.949332  1
  Te  Te13  1  0.675899  0.435238  0.550668  1
  Te  Te14  1  0.675899  0.064762  0.050668  1
  Te  Te15  1  0.324101  0.564762  0.449332  1
  Cl  Cl16  1  0.109866  0.168053  0.861378  1
  Cl  Cl17  1  0.890134  0.668053  0.638622  1
  Cl  Cl18  1  0.890134  0.831947  0.138622  1
  Cl  Cl19  1  0.109866  0.331947  0.361378  1
  Cl  Cl20  1  0.316751  0.122899  0.661560  1
  Cl  Cl21  1  0.683249  0.622899  0.838440  1
  Cl  Cl22  1  0.683249  0.877101  0.338440  1
  Cl  Cl23  1  0.316751  0.377101  0.161560  1
  Cl  Cl24  1  0.041788  0.332793  0.635956  1
  Cl  Cl25  1  0.958212  0.832793  0.864044  1
  Cl  Cl26  1  0.958212  0.667207  0.364044  1
  Cl  Cl27  1  0.041788  0.167207  0.135956  1
  Cl  Cl28  1  0.969826  0.031772  0.647346  1
  Cl  Cl29  1  0.030174  0.531772  0.852654  1
  Cl  Cl30  1  0.030174  0.968228  0.352654  1
  Cl  Cl31  1  0.969826  0.468228  0.147346  1
  Cl  Cl32  1  0.682867  0.146845  0.510877  1
  Cl  Cl33  1  0.317133  0.646845  0.989123  1
  Cl  Cl34  1  0.317133  0.853155  0.489123  1
  Cl  Cl35  1  0.682867  0.353155  0.010877  1
  Cl  Cl36  1  0.724647  0.216144  0.761500  1
  Cl  Cl37  1  0.275353  0.716144  0.738500  1
  Cl  Cl38  1  0.275353  0.783856  0.238500  1
  Cl  Cl39  1  0.724647  0.283856  0.261500  1
  Cl  Cl40  1  0.637618  0.924370  0.689544  1
  Cl  Cl41  1  0.362382  0.424370  0.810456  1
  Cl  Cl42  1  0.362382  0.075630  0.310456  1
  Cl  Cl43  1  0.637618  0.575630  0.189544  1
