# generated using pymatgen
data_Nd3S2Cl5
_symmetry_space_group_name_H-M   'P 1'
_cell_length_a   7.09429318
_cell_length_b   6.62883125
_cell_length_c   22.12207972
_cell_angle_alpha   90.00000000
_cell_angle_beta   97.84251248
_cell_angle_gamma   90.00000000
_symmetry_Int_Tables_number   1
_chemical_formula_structural   Nd3S2Cl5
_chemical_formula_sum   'Nd12 S8 Cl20'
_cell_volume   1030.60185528
_cell_formula_units_Z   4
loop_
 _symmetry_equiv_pos_site_id
 _symmetry_equiv_pos_as_xyz
  1  'x, y, z'
loop_
 _atom_site_type_symbol
 _atom_site_label
 _atom_site_symmetry_multiplicity
 _atom_site_fract_x
 _atom_site_fract_y
 _atom_site_fract_z
 _atom_site_occupancy
  Nd  Nd0  1  0.837483  0.954638  0.900419  1
  Nd  Nd1  1  0.204148  0.545466  0.596217  1
  Nd  Nd2  1  0.162517  0.045362  0.099581  1
  Nd  Nd3  1  0.856858  0.544461  0.748872  1
  Nd  Nd4  1  0.337483  0.545362  0.900419  1
  Nd  Nd5  1  0.643142  0.044461  0.251128  1
  Nd  Nd6  1  0.356858  0.955539  0.748872  1
  Nd  Nd7  1  0.143142  0.455539  0.251128  1
  Nd  Nd8  1  0.704148  0.954534  0.596217  1
  Nd  Nd9  1  0.795852  0.454534  0.403783  1
  Nd  Nd10  1  0.662517  0.454638  0.099581  1
  Nd  Nd11  1  0.295852  0.045466  0.403783  1
  S  S12  1  0.401906  0.309475  0.173624  1
  S  S13  1  0.901906  0.190525  0.173624  1
  S  S14  1  0.467742  0.309962  0.331524  1
  S  S15  1  0.532258  0.690038  0.668476  1
  S  S16  1  0.032258  0.809962  0.668476  1
  S  S17  1  0.098094  0.809475  0.826376  1
  S  S18  1  0.967742  0.190038  0.331524  1
  S  S19  1  0.598094  0.690525  0.826376  1
  Cl  Cl20  1  0.898711  0.729544  0.512891  1
  Cl  Cl21  1  0.398711  0.770456  0.512891  1
  Cl  Cl22  1  0.277100  0.860521  0.246851  1
  Cl  Cl23  1  0.601289  0.229544  0.487109  1
  Cl  Cl24  1  0.982156  0.343218  0.880096  1
  Cl  Cl25  1  0.156809  0.818740  0.981418  1
  Cl  Cl26  1  0.482156  0.156782  0.880096  1
  Cl  Cl27  1  0.017844  0.656782  0.119904  1
  Cl  Cl28  1  0.777100  0.639479  0.246851  1
  Cl  Cl29  1  0.120620  0.668986  0.374775  1
  Cl  Cl30  1  0.379380  0.168986  0.625225  1
  Cl  Cl31  1  0.222900  0.360521  0.753149  1
  Cl  Cl32  1  0.656809  0.681260  0.981418  1
  Cl  Cl33  1  0.343191  0.318740  0.018582  1
  Cl  Cl34  1  0.843191  0.181260  0.018582  1
  Cl  Cl35  1  0.879380  0.331014  0.625225  1
  Cl  Cl36  1  0.101289  0.270456  0.487109  1
  Cl  Cl37  1  0.722900  0.139479  0.753149  1
  Cl  Cl38  1  0.620620  0.831014  0.374775  1
  Cl  Cl39  1  0.517844  0.843218  0.119904  1
