# generated using pymatgen
data_Na4Ni5(P3O11)2
_symmetry_space_group_name_H-M   'P 1'
_cell_length_a   10.67394840
_cell_length_b   6.66106563
_cell_length_c   12.65769026
_cell_angle_alpha   90.00000000
_cell_angle_beta   103.69461827
_cell_angle_gamma   90.00000000
_symmetry_Int_Tables_number   1
_chemical_formula_structural   Na4Ni5(P3O11)2
_chemical_formula_sum   'Na8 Ni10 P12 O44'
_cell_volume   874.37550129
_cell_formula_units_Z   2
loop_
 _symmetry_equiv_pos_site_id
 _symmetry_equiv_pos_as_xyz
  1  'x, y, z'
loop_
 _atom_site_type_symbol
 _atom_site_label
 _atom_site_symmetry_multiplicity
 _atom_site_fract_x
 _atom_site_fract_y
 _atom_site_fract_z
 _atom_site_occupancy
  Na  Na0  1  0.543787  0.090286  0.158901  1
  Na  Na1  1  0.956213  0.590286  0.841099  1
  Na  Na2  1  0.863526  0.519161  0.352180  1
  Na  Na3  1  0.456213  0.909714  0.841099  1
  Na  Na4  1  0.043787  0.409714  0.158901  1
  Na  Na5  1  0.636474  0.019161  0.647820  1
  Na  Na6  1  0.363526  0.980839  0.352180  1
  Na  Na7  1  0.136474  0.480839  0.647820  1
  Ni  Ni8  1  0.195966  0.007945  0.666541  1
  Ni  Ni9  1  0.304034  0.507945  0.333459  1
  Ni  Ni10  1  0.718036  0.260237  0.867344  1
  Ni  Ni11  1  0.281964  0.739763  0.132656  1
  Ni  Ni12  1  0.695966  0.492055  0.666541  1
  Ni  Ni13  1  0.781964  0.760237  0.132656  1
  Ni  Ni14  1  0.218036  0.239763  0.867344  1
  Ni  Ni15  1  0.500000  0.500000  0.000000  1
  Ni  Ni16  1  0.000000  0.000000  0.000000  1
  Ni  Ni17  1  0.804034  0.992055  0.333459  1
  P  P18  1  0.273888  0.235933  0.085008  1
  P  P19  1  0.773888  0.264067  0.085008  1
  P  P20  1  0.433093  0.387230  0.744845  1
  P  P21  1  0.090919  0.202135  0.417424  1
  P  P22  1  0.226112  0.735933  0.914992  1
  P  P23  1  0.409081  0.702135  0.582576  1
  P  P24  1  0.566907  0.612770  0.255155  1
  P  P25  1  0.933093  0.112770  0.744845  1
  P  P26  1  0.590919  0.297865  0.417424  1
  P  P27  1  0.909081  0.797865  0.582576  1
  P  P28  1  0.726112  0.764067  0.914992  1
  P  P29  1  0.066907  0.887230  0.255155  1
  O  O30  1  0.047426  0.043852  0.166419  1
  O  O31  1  0.057234  0.797978  0.609383  1
  O  O32  1  0.859640  0.628276  0.643469  1
  O  O33  1  0.360466  0.712968  0.998808  1
  O  O34  1  0.844619  0.802731  0.462139  1
  O  O35  1  0.135489  0.990720  0.369563  1
  O  O36  1  0.364511  0.490720  0.630437  1
  O  O37  1  0.365787  0.271184  0.006018  1
  O  O38  1  0.639534  0.287032  0.001192  1
  O  O39  1  0.442766  0.297978  0.390617  1
  O  O40  1  0.234237  0.918480  0.840372  1
  O  O41  1  0.140360  0.371724  0.356531  1
  O  O42  1  0.165285  0.724596  0.242093  1
  O  O43  1  0.180021  0.548440  0.845001  1
  O  O44  1  0.865787  0.228816  0.006018  1
  O  O45  1  0.061717  0.204213  0.731241  1
  O  O46  1  0.942766  0.202022  0.390617  1
  O  O47  1  0.134213  0.771184  0.993982  1
  O  O48  1  0.655381  0.302731  0.537861  1
  O  O49  1  0.640360  0.128276  0.356531  1
  O  O50  1  0.359640  0.871724  0.643469  1
  O  O51  1  0.547426  0.456148  0.166419  1
  O  O52  1  0.864511  0.009280  0.630437  1
  O  O53  1  0.319979  0.048440  0.154999  1
  O  O54  1  0.155381  0.197269  0.537861  1
  O  O55  1  0.635489  0.509280  0.369563  1
  O  O56  1  0.860466  0.787032  0.998808  1
  O  O57  1  0.557234  0.702022  0.609383  1
  O  O58  1  0.734237  0.581520  0.840372  1
  O  O59  1  0.634213  0.728816  0.993982  1
  O  O60  1  0.561717  0.295787  0.731241  1
  O  O61  1  0.834715  0.275404  0.757907  1
  O  O62  1  0.665285  0.775404  0.242093  1
  O  O63  1  0.452574  0.543852  0.833581  1
  O  O64  1  0.438283  0.704213  0.268759  1
  O  O65  1  0.139534  0.212968  0.001192  1
  O  O66  1  0.680021  0.951560  0.845001  1
  O  O67  1  0.952574  0.956148  0.833581  1
  O  O68  1  0.344619  0.697269  0.462139  1
  O  O69  1  0.765763  0.081520  0.159628  1
  O  O70  1  0.819979  0.451560  0.154999  1
  O  O71  1  0.938283  0.795787  0.268759  1
  O  O72  1  0.334715  0.224596  0.757907  1
  O  O73  1  0.265763  0.418480  0.159628  1
