# generated using pymatgen
data_BaGaF5
_symmetry_space_group_name_H-M   'P 1'
_cell_length_a   5.09273783
_cell_length_b   5.76035909
_cell_length_c   14.18373293
_cell_angle_alpha   90.00000000
_cell_angle_beta   90.00000000
_cell_angle_gamma   90.00000000
_symmetry_Int_Tables_number   1
_chemical_formula_structural   BaGaF5
_chemical_formula_sum   'Ba4 Ga4 F20'
_cell_volume   416.09397012
_cell_formula_units_Z   4
loop_
 _symmetry_equiv_pos_site_id
 _symmetry_equiv_pos_as_xyz
  1  'x, y, z'
loop_
 _atom_site_type_symbol
 _atom_site_label
 _atom_site_symmetry_multiplicity
 _atom_site_fract_x
 _atom_site_fract_y
 _atom_site_fract_z
 _atom_site_occupancy
  Ba  Ba0  1  0.729115  0.657810  0.657327  1
  Ba  Ba1  1  0.229115  0.842190  0.342673  1
  Ba  Ba2  1  0.270885  0.157810  0.842673  1
  Ba  Ba3  1  0.770885  0.342190  0.157327  1
  Ga  Ga4  1  0.315069  0.146004  0.585683  1
  Ga  Ga5  1  0.815069  0.353996  0.414317  1
  Ga  Ga6  1  0.684931  0.646004  0.914317  1
  Ga  Ga7  1  0.184931  0.853996  0.085683  1
  F  F8  1  0.952405  0.608419  0.481300  1
  F  F9  1  0.452405  0.891581  0.518700  1
  F  F10  1  0.047595  0.108419  0.018700  1
  F  F11  1  0.547595  0.391581  0.981300  1
  F  F12  1  0.646395  0.561100  0.327974  1
  F  F13  1  0.146395  0.938900  0.672026  1
  F  F14  1  0.353605  0.061100  0.172026  1
  F  F15  1  0.853605  0.438900  0.827974  1
  F  F16  1  0.191254  0.408000  0.652137  1
  F  F17  1  0.691254  0.092000  0.347863  1
  F  F18  1  0.808746  0.908000  0.847863  1
  F  F19  1  0.308746  0.592000  0.152137  1
  F  F20  1  0.605735  0.148185  0.672253  1
  F  F21  1  0.105735  0.351815  0.327747  1
  F  F22  1  0.394265  0.648185  0.827747  1
  F  F23  1  0.894265  0.851815  0.172253  1
  F  F24  1  0.518383  0.359298  0.502711  1
  F  F25  1  0.018383  0.140702  0.497289  1
  F  F26  1  0.481617  0.859298  0.997289  1
  F  F27  1  0.981617  0.640702  0.002711  1
