# generated using pymatgen
data_OsCl4O
_symmetry_space_group_name_H-M   'P 1'
_cell_length_a   10.20948170
_cell_length_b   6.00873181
_cell_length_c   12.73120739
_cell_angle_alpha   90.00000000
_cell_angle_beta   110.51700528
_cell_angle_gamma   90.00000000
_symmetry_Int_Tables_number   1
_chemical_formula_structural   OsCl4O
_chemical_formula_sum   'Os4 Cl16 O4'
_cell_volume   731.46831611
_cell_formula_units_Z   4
loop_
 _symmetry_equiv_pos_site_id
 _symmetry_equiv_pos_as_xyz
  1  'x, y, z'
loop_
 _atom_site_type_symbol
 _atom_site_label
 _atom_site_symmetry_multiplicity
 _atom_site_fract_x
 _atom_site_fract_y
 _atom_site_fract_z
 _atom_site_occupancy
  Os  Os0  1  0.729259  0.610720  0.970225  1
  Os  Os1  1  0.270741  0.389280  0.029775  1
  Os  Os2  1  0.270741  0.110720  0.529775  1
  Os  Os3  1  0.729259  0.889280  0.470225  1
  Cl  Cl4  1  0.769380  0.336502  0.100690  1
  Cl  Cl5  1  0.206559  0.261682  0.172440  1
  Cl  Cl6  1  0.793441  0.738318  0.827560  1
  Cl  Cl7  1  0.230620  0.836502  0.399310  1
  Cl  Cl8  1  0.058581  0.241576  0.418328  1
  Cl  Cl9  1  0.615246  0.340334  0.846730  1
  Cl  Cl10  1  0.615246  0.159666  0.346730  1
  Cl  Cl11  1  0.206559  0.238318  0.672440  1
  Cl  Cl12  1  0.769380  0.163498  0.600690  1
  Cl  Cl13  1  0.793441  0.761682  0.327560  1
  Cl  Cl14  1  0.941419  0.741576  0.081672  1
  Cl  Cl15  1  0.058581  0.258424  0.918328  1
  Cl  Cl16  1  0.230620  0.663498  0.899310  1
  Cl  Cl17  1  0.384754  0.840334  0.653270  1
  Cl  Cl18  1  0.941419  0.758424  0.581672  1
  Cl  Cl19  1  0.384754  0.659666  0.153270  1
  O  O20  1  0.392380  0.283209  0.514945  1
  O  O21  1  0.392380  0.216791  0.014945  1
  O  O22  1  0.607620  0.783209  0.985055  1
  O  O23  1  0.607620  0.716791  0.485055  1
