# generated using pymatgen
data_Li3AlF6
_symmetry_space_group_name_H-M   'P 1'
_cell_length_a   4.94744807
_cell_length_b   8.35011580
_cell_length_c   9.67127713
_cell_angle_alpha   90.00000000
_cell_angle_beta   90.00000000
_cell_angle_gamma   90.00000000
_symmetry_Int_Tables_number   1
_chemical_formula_structural   Li3AlF6
_chemical_formula_sum   'Li12 Al4 F24'
_cell_volume   399.53752126
_cell_formula_units_Z   4
loop_
 _symmetry_equiv_pos_site_id
 _symmetry_equiv_pos_as_xyz
  1  'x, y, z'
loop_
 _atom_site_type_symbol
 _atom_site_label
 _atom_site_symmetry_multiplicity
 _atom_site_fract_x
 _atom_site_fract_y
 _atom_site_fract_z
 _atom_site_occupancy
  Li  Li0  1  0.992152  0.148749  0.125265  1
  Li  Li1  1  0.004818  0.455529  0.894359  1
  Li  Li2  1  0.992152  0.351251  0.625265  1
  Li  Li3  1  0.504818  0.544471  0.105641  1
  Li  Li4  1  0.997068  0.046701  0.854436  1
  Li  Li5  1  0.497068  0.953299  0.145564  1
  Li  Li6  1  0.492152  0.851251  0.874735  1
  Li  Li7  1  0.492152  0.648749  0.374735  1
  Li  Li8  1  0.504818  0.955529  0.605641  1
  Li  Li9  1  0.497068  0.546701  0.645564  1
  Li  Li10  1  0.004818  0.044471  0.394359  1
  Li  Li11  1  0.997068  0.453299  0.354436  1
  Al  Al12  1  0.000054  0.759829  0.127847  1
  Al  Al13  1  0.500054  0.240171  0.872153  1
  Al  Al14  1  0.500054  0.259829  0.372153  1
  Al  Al15  1  0.000054  0.740171  0.627847  1
  F  F16  1  0.301829  0.733572  0.735794  1
  F  F17  1  0.361322  0.066961  0.776901  1
  F  F18  1  0.691986  0.743247  0.524091  1
  F  F19  1  0.648832  0.401999  0.970605  1
  F  F20  1  0.148832  0.598001  0.029395  1
  F  F21  1  0.825880  0.618758  0.244019  1
  F  F22  1  0.691986  0.756753  0.024091  1
  F  F23  1  0.648832  0.098001  0.470605  1
  F  F24  1  0.191986  0.256753  0.475909  1
  F  F25  1  0.325880  0.381242  0.755981  1
  F  F26  1  0.168891  0.908674  0.013106  1
  F  F27  1  0.148832  0.901999  0.529395  1
  F  F28  1  0.168891  0.591326  0.513106  1
  F  F29  1  0.361322  0.433039  0.276901  1
  F  F30  1  0.301829  0.766428  0.235794  1
  F  F31  1  0.861322  0.933039  0.223099  1
  F  F32  1  0.668891  0.408674  0.486894  1
  F  F33  1  0.325880  0.118758  0.255981  1
  F  F34  1  0.861322  0.566961  0.723099  1
  F  F35  1  0.191986  0.243247  0.975909  1
  F  F36  1  0.801829  0.266428  0.264206  1
  F  F37  1  0.668891  0.091326  0.986894  1
  F  F38  1  0.801829  0.233572  0.764206  1
  F  F39  1  0.825880  0.881242  0.744019  1
