# generated using pymatgen
data_CoPtF6
_symmetry_space_group_name_H-M   'P 1'
_cell_length_a   5.48256956
_cell_length_b   5.48256956
_cell_length_c   5.48256956
_cell_angle_alpha   56.52761171
_cell_angle_beta   56.52761171
_cell_angle_gamma   56.52761171
_symmetry_Int_Tables_number   1
_chemical_formula_structural   CoPtF6
_chemical_formula_sum   'Co1 Pt1 F6'
_cell_volume   107.17853738
_cell_formula_units_Z   1
loop_
 _symmetry_equiv_pos_site_id
 _symmetry_equiv_pos_as_xyz
  1  'x, y, z'
loop_
 _atom_site_type_symbol
 _atom_site_label
 _atom_site_symmetry_multiplicity
 _atom_site_fract_x
 _atom_site_fract_y
 _atom_site_fract_z
 _atom_site_occupancy
  Co  Co0  1  0.500000  0.500000  0.500000  1
  Pt  Pt1  1  0.000000  0.000000  0.000000  1
  F  F2  1  0.621194  0.886801  0.246825  1
  F  F3  1  0.886801  0.246825  0.621194  1
  F  F4  1  0.113199  0.753175  0.378806  1
  F  F5  1  0.378806  0.113199  0.753175  1
  F  F6  1  0.246825  0.621194  0.886801  1
  F  F7  1  0.753175  0.378806  0.113199  1
