# generated using pymatgen
data_CsBO2
_symmetry_space_group_name_H-M   'P 1'
_cell_length_a   8.48486590
_cell_length_b   8.48486590
_cell_length_c   8.48486590
_cell_angle_alpha   109.23304426
_cell_angle_beta   109.23304426
_cell_angle_gamma   109.23304426
_symmetry_Int_Tables_number   1
_chemical_formula_structural   CsBO2
_chemical_formula_sum   'Cs6 B6 O12'
_cell_volume   474.33426198
_cell_formula_units_Z   6
loop_
 _symmetry_equiv_pos_site_id
 _symmetry_equiv_pos_as_xyz
  1  'x, y, z'
loop_
 _atom_site_type_symbol
 _atom_site_label
 _atom_site_symmetry_multiplicity
 _atom_site_fract_x
 _atom_site_fract_y
 _atom_site_fract_z
 _atom_site_occupancy
  Cs  Cs0  1  0.191219  0.750000  0.308781  1
  Cs  Cs1  1  0.750000  0.308781  0.191219  1
  Cs  Cs2  1  0.808781  0.250000  0.691219  1
  Cs  Cs3  1  0.691219  0.808781  0.250000  1
  Cs  Cs4  1  0.308781  0.191219  0.750000  1
  Cs  Cs5  1  0.250000  0.691219  0.808781  1
  B  B6  1  0.750000  0.644629  0.855371  1
  B  B7  1  0.355371  0.144629  0.250000  1
  B  B8  1  0.144629  0.250000  0.355371  1
  B  B9  1  0.250000  0.355371  0.144629  1
  B  B10  1  0.855371  0.750000  0.644629  1
  B  B11  1  0.644629  0.855371  0.750000  1
  O  O12  1  0.649285  0.750000  0.850715  1
  O  O13  1  0.250000  0.149285  0.350715  1
  O  O14  1  0.350715  0.250000  0.149285  1
  O  O15  1  0.048611  0.250000  0.451389  1
  O  O16  1  0.750000  0.548611  0.951389  1
  O  O17  1  0.548611  0.951389  0.750000  1
  O  O18  1  0.250000  0.451389  0.048611  1
  O  O19  1  0.750000  0.850715  0.649285  1
  O  O20  1  0.149285  0.350715  0.250000  1
  O  O21  1  0.850715  0.649285  0.750000  1
  O  O22  1  0.951389  0.750000  0.548611  1
  O  O23  1  0.451389  0.048611  0.250000  1
