# generated using pymatgen
data_Cs4Sb2O5
_symmetry_space_group_name_H-M   'P 1'
_cell_length_a   6.48203408
_cell_length_b   6.48203408
_cell_length_c   8.30319535
_cell_angle_alpha   83.52058670
_cell_angle_beta   96.47941330
_cell_angle_gamma   114.01915353
_symmetry_Int_Tables_number   1
_chemical_formula_structural   Cs4Sb2O5
_chemical_formula_sum   'Cs4 Sb2 O5'
_cell_volume   315.76706640
_cell_formula_units_Z   1
loop_
 _symmetry_equiv_pos_site_id
 _symmetry_equiv_pos_as_xyz
  1  'x, y, z'
loop_
 _atom_site_type_symbol
 _atom_site_label
 _atom_site_symmetry_multiplicity
 _atom_site_fract_x
 _atom_site_fract_y
 _atom_site_fract_z
 _atom_site_occupancy
  Cs  Cs0  1  0.005062  0.994938  0.004709  1
  Cs  Cs1  1  0.999507  0.000493  0.500338  1
  Cs  Cs2  1  0.663169  0.336831  0.153332  1
  Cs  Cs3  1  0.334246  0.665754  0.846613  1
  Sb  Sb4  1  0.646778  0.353222  0.671793  1
  Sb  Sb5  1  0.351912  0.648088  0.329956  1
  O  O6  1  0.802938  0.625635  0.787142  1
  O  O7  1  0.164492  0.408642  0.191238  1
  O  O8  1  0.591358  0.835508  0.191238  1
  O  O9  1  0.374365  0.197062  0.787142  1
  O  O10  1  0.523093  0.476907  0.465219  1
