# generated using pymatgen
data_AgTe
_symmetry_space_group_name_H-M   'P 1'
_cell_length_a   4.74265880
_cell_length_b   8.93363039
_cell_length_c   20.35874347
_cell_angle_alpha   90.00000000
_cell_angle_beta   90.00000000
_cell_angle_gamma   90.00000000
_symmetry_Int_Tables_number   1
_chemical_formula_structural   AgTe
_chemical_formula_sum   'Ag16 Te16'
_cell_volume   862.58287546
_cell_formula_units_Z   16
loop_
 _symmetry_equiv_pos_site_id
 _symmetry_equiv_pos_as_xyz
  1  'x, y, z'
loop_
 _atom_site_type_symbol
 _atom_site_label
 _atom_site_symmetry_multiplicity
 _atom_site_fract_x
 _atom_site_fract_y
 _atom_site_fract_z
 _atom_site_occupancy
  Ag  Ag0  1  0.363112  0.015168  0.931491  1
  Ag  Ag1  1  0.748611  0.250000  0.155775  1
  Ag  Ag2  1  0.636888  0.515168  0.068509  1
  Ag  Ag3  1  0.248611  0.750000  0.344225  1
  Ag  Ag4  1  0.320104  0.750000  0.552173  1
  Ag  Ag5  1  0.136888  0.015168  0.431491  1
  Ag  Ag6  1  0.820104  0.250000  0.947827  1
  Ag  Ag7  1  0.363112  0.484832  0.931491  1
  Ag  Ag8  1  0.863112  0.515168  0.568509  1
  Ag  Ag9  1  0.179896  0.750000  0.052173  1
  Ag  Ag10  1  0.636888  0.984832  0.068509  1
  Ag  Ag11  1  0.136888  0.484832  0.431491  1
  Ag  Ag12  1  0.251389  0.750000  0.844225  1
  Ag  Ag13  1  0.679896  0.250000  0.447827  1
  Ag  Ag14  1  0.751389  0.250000  0.655775  1
  Ag  Ag15  1  0.863112  0.984832  0.568509  1
  Te  Te16  1  0.595687  0.022864  0.342564  1
  Te  Te17  1  0.095687  0.977136  0.157436  1
  Te  Te18  1  0.652554  0.750000  0.741000  1
  Te  Te19  1  0.847446  0.750000  0.241000  1
  Te  Te20  1  0.095687  0.522864  0.157436  1
  Te  Te21  1  0.829342  0.750000  0.469401  1
  Te  Te22  1  0.152554  0.250000  0.759000  1
  Te  Te23  1  0.595687  0.477136  0.342564  1
  Te  Te24  1  0.404313  0.522864  0.657436  1
  Te  Te25  1  0.170658  0.250000  0.530599  1
  Te  Te26  1  0.404313  0.977136  0.657436  1
  Te  Te27  1  0.670658  0.750000  0.969401  1
  Te  Te28  1  0.904313  0.022864  0.842564  1
  Te  Te29  1  0.347446  0.250000  0.259000  1
  Te  Te30  1  0.329342  0.250000  0.030599  1
  Te  Te31  1  0.904313  0.477136  0.842564  1
