# generated using pymatgen
data_Mg(SiB6)2
_symmetry_space_group_name_H-M   'P 1'
_cell_length_a   6.12518426
_cell_length_b   8.39675462
_cell_length_c   11.02933521
_cell_angle_alpha   90.00000000
_cell_angle_beta   90.00000000
_cell_angle_gamma   90.00000000
_symmetry_Int_Tables_number   1
_chemical_formula_structural   Mg(SiB6)2
_chemical_formula_sum   'Mg4 Si8 B48'
_cell_volume   567.25712039
_cell_formula_units_Z   4
loop_
 _symmetry_equiv_pos_site_id
 _symmetry_equiv_pos_as_xyz
  1  'x, y, z'
loop_
 _atom_site_type_symbol
 _atom_site_label
 _atom_site_symmetry_multiplicity
 _atom_site_fract_x
 _atom_site_fract_y
 _atom_site_fract_z
 _atom_site_occupancy
  Mg  Mg0  1  0.750000  0.159103  0.429920  1
  Mg  Mg1  1  0.250000  0.659103  0.070080  1
  Mg  Mg2  1  0.750000  0.340897  0.929920  1
  Mg  Mg3  1  0.250000  0.840897  0.570080  1
  Si  Si4  1  0.750000  0.632238  0.918453  1
  Si  Si5  1  0.750000  0.101162  0.084668  1
  Si  Si6  1  0.750000  0.398838  0.584668  1
  Si  Si7  1  0.250000  0.898838  0.915332  1
  Si  Si8  1  0.250000  0.367762  0.081547  1
  Si  Si9  1  0.750000  0.867762  0.418453  1
  Si  Si10  1  0.250000  0.132238  0.581547  1
  Si  Si11  1  0.250000  0.601162  0.415332  1
  B  B12  1  0.015083  0.533060  0.830560  1
  B  B13  1  0.092172  0.166404  0.291685  1
  B  B14  1  0.984917  0.466940  0.169440  1
  B  B15  1  0.750000  0.154621  0.647773  1
  B  B16  1  0.017361  0.030212  0.173013  1
  B  B17  1  0.090989  0.833457  0.212952  1
  B  B18  1  0.750000  0.345379  0.147773  1
  B  B19  1  0.750000  0.648786  0.346539  1
  B  B20  1  0.250000  0.845379  0.352227  1
  B  B21  1  0.409011  0.833457  0.212952  1
  B  B22  1  0.750000  0.943003  0.597265  1
  B  B23  1  0.407828  0.166404  0.291685  1
  B  B24  1  0.250000  0.056997  0.402735  1
  B  B25  1  0.015083  0.966940  0.330560  1
  B  B26  1  0.592172  0.833596  0.708315  1
  B  B27  1  0.090989  0.666543  0.712952  1
  B  B28  1  0.482639  0.469788  0.673013  1
  B  B29  1  0.409011  0.666543  0.712952  1
  B  B30  1  0.590989  0.333457  0.287048  1
  B  B31  1  0.017361  0.469788  0.673013  1
  B  B32  1  0.517361  0.969788  0.826987  1
  B  B33  1  0.907828  0.666404  0.208315  1
  B  B34  1  0.484917  0.533060  0.830560  1
  B  B35  1  0.750000  0.445630  0.399289  1
  B  B36  1  0.515083  0.033060  0.669440  1
  B  B37  1  0.250000  0.945630  0.100711  1
  B  B38  1  0.750000  0.851214  0.846539  1
  B  B39  1  0.590989  0.166543  0.787048  1
  B  B40  1  0.984917  0.033060  0.669440  1
  B  B41  1  0.250000  0.351214  0.653461  1
  B  B42  1  0.982639  0.969788  0.826987  1
  B  B43  1  0.909011  0.333457  0.287048  1
  B  B44  1  0.750000  0.054370  0.899289  1
  B  B45  1  0.982639  0.530212  0.326987  1
  B  B46  1  0.092172  0.333596  0.791685  1
  B  B47  1  0.515083  0.466940  0.169440  1
  B  B48  1  0.407828  0.333596  0.791685  1
  B  B49  1  0.482639  0.030212  0.173013  1
  B  B50  1  0.484917  0.966940  0.330560  1
  B  B51  1  0.909011  0.166543  0.787048  1
  B  B52  1  0.250000  0.554370  0.600711  1
  B  B53  1  0.250000  0.148786  0.153461  1
  B  B54  1  0.517361  0.530212  0.326987  1
  B  B55  1  0.592172  0.666404  0.208315  1
  B  B56  1  0.907828  0.833596  0.708315  1
  B  B57  1  0.750000  0.556997  0.097265  1
  B  B58  1  0.250000  0.654621  0.852227  1
  B  B59  1  0.250000  0.443003  0.902735  1
