# generated using pymatgen
data_LiAl(SiO3)2
_symmetry_space_group_name_H-M   'P 1'
_cell_length_a   5.03859730
_cell_length_b   7.70105302
_cell_length_c   8.70549205
_cell_angle_alpha   114.10120976
_cell_angle_beta   90.06845314
_cell_angle_gamma   90.14604763
_symmetry_Int_Tables_number   1
_chemical_formula_structural   LiAl(SiO3)2
_chemical_formula_sum   'Li2 Al2 Si4 O12'
_cell_volume   308.34588890
_cell_formula_units_Z   2
loop_
 _symmetry_equiv_pos_site_id
 _symmetry_equiv_pos_as_xyz
  1  'x, y, z'
loop_
 _atom_site_type_symbol
 _atom_site_label
 _atom_site_symmetry_multiplicity
 _atom_site_fract_x
 _atom_site_fract_y
 _atom_site_fract_z
 _atom_site_occupancy
  Li  Li0  1  0.361437  0.892219  0.709821  1
  Li  Li1  1  0.864665  0.070665  0.280390  1
  Al  Al2  1  0.354909  0.089299  0.103826  1
  Al  Al3  1  0.871471  0.064890  0.622257  1
  Si  Si4  1  0.312390  0.508394  0.115404  1
  Si  Si5  1  0.371728  0.928410  0.383484  1
  Si  Si6  1  0.815684  0.494419  0.897935  1
  Si  Si7  1  0.854427  0.898705  0.894121  1
  O  O8  1  0.017888  0.550168  0.058616  1
  O  O9  1  0.307138  0.329950  0.166608  1
  O  O10  1  0.188923  0.964638  0.549529  1
  O  O11  1  0.903311  0.305562  0.740703  1
  O  O12  1  0.668849  0.019697  0.442903  1
  O  O13  1  0.404720  0.699414  0.278337  1
  O  O14  1  0.171861  0.953640  0.917110  1
  O  O15  1  0.732027  0.945027  0.740033  1
  O  O16  1  0.516988  0.471282  0.959737  1
  O  O17  1  0.810606  0.672062  0.839525  1
  O  O18  1  0.694832  0.021992  0.070219  1
  O  O19  1  0.235748  0.027669  0.267637  1
