# generated using pymatgen
data_Cr3O8
_symmetry_space_group_name_H-M   'P 1'
_cell_length_a   5.30651056
_cell_length_b   5.30651056
_cell_length_c   6.63821312
_cell_angle_alpha   88.21973719
_cell_angle_beta   91.78026281
_cell_angle_gamma   118.29260738
_symmetry_Int_Tables_number   1
_chemical_formula_structural   Cr3O8
_chemical_formula_sum   'Cr3 O8'
_cell_volume   164.48756131
_cell_formula_units_Z   1
loop_
 _symmetry_equiv_pos_site_id
 _symmetry_equiv_pos_as_xyz
  1  'x, y, z'
loop_
 _atom_site_type_symbol
 _atom_site_label
 _atom_site_symmetry_multiplicity
 _atom_site_fract_x
 _atom_site_fract_y
 _atom_site_fract_z
 _atom_site_occupancy
  Cr  Cr0  1  0.641794  0.358206  0.260478  1
  Cr  Cr1  1  0.000000  0.000000  0.500000  1
  Cr  Cr2  1  0.358206  0.641794  0.739522  1
  O  O3  1  0.207502  0.282848  0.695099  1
  O  O4  1  0.790829  0.209171  0.413134  1
  O  O5  1  0.792498  0.717152  0.304901  1
  O  O6  1  0.316175  0.683825  0.970211  1
  O  O7  1  0.717152  0.792498  0.695099  1
  O  O8  1  0.683825  0.316175  0.029789  1
  O  O9  1  0.282848  0.207502  0.304901  1
  O  O10  1  0.209171  0.790829  0.586866  1
