# generated using pymatgen
data_CrSbF10
_symmetry_space_group_name_H-M   'P 1'
_cell_length_a   5.81966477
_cell_length_b   10.56347423
_cell_length_c   12.46070049
_cell_angle_alpha   90.00000000
_cell_angle_beta   100.54591806
_cell_angle_gamma   90.00000000
_symmetry_Int_Tables_number   1
_chemical_formula_structural   CrSbF10
_chemical_formula_sum   'Cr4 Sb4 F40'
_cell_volume   753.09310891
_cell_formula_units_Z   4
loop_
 _symmetry_equiv_pos_site_id
 _symmetry_equiv_pos_as_xyz
  1  'x, y, z'
loop_
 _atom_site_type_symbol
 _atom_site_label
 _atom_site_symmetry_multiplicity
 _atom_site_fract_x
 _atom_site_fract_y
 _atom_site_fract_z
 _atom_site_occupancy
  Cr  Cr0  1  0.323545  0.245460  0.198758  1
  Cr  Cr1  1  0.323545  0.254540  0.698758  1
  Cr  Cr2  1  0.676455  0.754540  0.801242  1
  Cr  Cr3  1  0.676455  0.745460  0.301242  1
  Sb  Sb4  1  0.000000  0.000000  0.500000  1
  Sb  Sb5  1  0.000000  0.000000  0.000000  1
  Sb  Sb6  1  0.000000  0.500000  0.500000  1
  Sb  Sb7  1  0.000000  0.500000  0.000000  1
  F  F8  1  0.472198  0.390921  0.745394  1
  F  F9  1  0.733955  0.422655  0.538950  1
  F  F10  1  0.804586  0.847652  0.946464  1
  F  F11  1  0.927738  0.073180  0.858982  1
  F  F12  1  0.421137  0.170485  0.817054  1
  F  F13  1  0.266045  0.922655  0.961050  1
  F  F14  1  0.753219  0.946564  0.569550  1
  F  F15  1  0.421137  0.329515  0.317054  1
  F  F16  1  0.246781  0.446564  0.930450  1
  F  F17  1  0.578863  0.670485  0.682946  1
  F  F18  1  0.170681  0.646887  0.051819  1
  F  F19  1  0.753219  0.553436  0.069550  1
  F  F20  1  0.521191  0.199240  0.622962  1
  F  F21  1  0.142653  0.092962  0.636488  1
  F  F22  1  0.946802  0.793993  0.773338  1
  F  F23  1  0.142653  0.407038  0.136488  1
  F  F24  1  0.266045  0.577345  0.461050  1
  F  F25  1  0.857347  0.907038  0.363512  1
  F  F26  1  0.072262  0.573180  0.641018  1
  F  F27  1  0.527802  0.890921  0.754606  1
  F  F28  1  0.829319  0.353113  0.948181  1
  F  F29  1  0.478809  0.800760  0.377038  1
  F  F30  1  0.195414  0.152348  0.053536  1
  F  F31  1  0.478809  0.699240  0.877038  1
  F  F32  1  0.053198  0.206007  0.226662  1
  F  F33  1  0.246781  0.053436  0.430450  1
  F  F34  1  0.927738  0.426820  0.358982  1
  F  F35  1  0.072262  0.926820  0.141018  1
  F  F36  1  0.527802  0.609079  0.254606  1
  F  F37  1  0.733955  0.077345  0.038950  1
  F  F38  1  0.472198  0.109079  0.245394  1
  F  F39  1  0.578863  0.829515  0.182946  1
  F  F40  1  0.829319  0.146887  0.448181  1
  F  F41  1  0.521191  0.300760  0.122962  1
  F  F42  1  0.946802  0.706007  0.273338  1
  F  F43  1  0.170681  0.853113  0.551819  1
  F  F44  1  0.195414  0.347652  0.553536  1
  F  F45  1  0.857347  0.592962  0.863512  1
  F  F46  1  0.804586  0.652348  0.446464  1
  F  F47  1  0.053198  0.293993  0.726662  1
