# generated using pymatgen
data_Li7Fe4P9O32
_symmetry_space_group_name_H-M   'P 1'
_cell_length_a   13.85717719
_cell_length_b   13.85717719
_cell_length_c   6.38794760
_cell_angle_alpha   90.00000000
_cell_angle_beta   90.00000000
_cell_angle_gamma   90.00000000
_symmetry_Int_Tables_number   1
_chemical_formula_structural   Li7Fe4P9O32
_chemical_formula_sum   'Li14 Fe8 P18 O64'
_cell_volume   1226.62238369
_cell_formula_units_Z   2
loop_
 _symmetry_equiv_pos_site_id
 _symmetry_equiv_pos_as_xyz
  1  'x, y, z'
loop_
 _atom_site_type_symbol
 _atom_site_label
 _atom_site_symmetry_multiplicity
 _atom_site_fract_x
 _atom_site_fract_y
 _atom_site_fract_z
 _atom_site_occupancy
  Li  Li0  1  0.000000  0.000000  0.000000  1
  Li  Li1  1  0.000000  0.500000  0.133868  1
  Li  Li2  1  0.000000  0.500000  0.633868  1
  Li  Li3  1  0.106481  0.255358  0.812021  1
  Li  Li4  1  0.244642  0.393519  0.312021  1
  Li  Li5  1  0.255358  0.893519  0.187979  1
  Li  Li6  1  0.393519  0.755358  0.687979  1
  Li  Li7  1  0.500000  0.000000  0.366132  1
  Li  Li8  1  0.500000  0.000000  0.866132  1
  Li  Li9  1  0.500000  0.500000  0.500000  1
  Li  Li10  1  0.606481  0.244642  0.687979  1
  Li  Li11  1  0.744642  0.106481  0.187979  1
  Li  Li12  1  0.755358  0.606481  0.312021  1
  Li  Li13  1  0.893519  0.744642  0.812021  1
  Fe  Fe14  1  0.121095  0.803232  0.623581  1
  Fe  Fe15  1  0.196768  0.121095  0.376419  1
  Fe  Fe16  1  0.303232  0.621095  0.123581  1
  Fe  Fe17  1  0.378905  0.303232  0.876419  1
  Fe  Fe18  1  0.621095  0.696768  0.876419  1
  Fe  Fe19  1  0.696768  0.378905  0.123581  1
  Fe  Fe20  1  0.803232  0.878905  0.376419  1
  Fe  Fe21  1  0.878905  0.196768  0.623581  1
  P  P22  1  0.000000  0.000000  0.500000  1
  P  P23  1  0.059995  0.307940  0.383359  1
  P  P24  1  0.107336  0.753099  0.133540  1
  P  P25  1  0.192060  0.440005  0.883359  1
  P  P26  1  0.246901  0.107336  0.866460  1
  P  P27  1  0.253099  0.607336  0.633540  1
  P  P28  1  0.307940  0.940005  0.616641  1
  P  P29  1  0.392664  0.253099  0.366460  1
  P  P30  1  0.440005  0.807940  0.116641  1
  P  P31  1  0.500000  0.500000  0.000000  1
  P  P32  1  0.559995  0.192060  0.116641  1
  P  P33  1  0.607336  0.746901  0.366460  1
  P  P34  1  0.692060  0.059995  0.616641  1
  P  P35  1  0.746901  0.392664  0.633540  1
  P  P36  1  0.753099  0.892664  0.866460  1
  P  P37  1  0.807940  0.559995  0.883359  1
  P  P38  1  0.892664  0.246901  0.133540  1
  P  P39  1  0.940005  0.692060  0.383359  1
  O  O40  1  0.005547  0.271304  0.170405  1
  O  O41  1  0.013072  0.257875  0.573116  1
  O  O42  1  0.056623  0.416965  0.385566  1
  O  O43  1  0.060462  0.934999  0.649161  1
  O  O44  1  0.065001  0.060462  0.350839  1
  O  O45  1  0.083035  0.443377  0.885566  1
  O  O46  1  0.106481  0.812018  0.932381  1
  O  O47  1  0.139957  0.820015  0.312307  1
  O  O48  1  0.158181  0.661881  0.624380  1
  O  O49  1  0.161881  0.658181  0.124380  1
  O  O50  1  0.163750  0.269558  0.352561  1
  O  O51  1  0.179985  0.139957  0.687693  1
  O  O52  1  0.187982  0.106481  0.067619  1
  O  O53  1  0.228696  0.494453  0.670405  1
  O  O54  1  0.230442  0.336250  0.852561  1
  O  O55  1  0.242125  0.486928  0.073116  1
  O  O56  1  0.257875  0.986928  0.426884  1
  O  O57  1  0.269558  0.836250  0.647439  1
  O  O58  1  0.271304  0.994453  0.829595  1
  O  O59  1  0.312018  0.606481  0.432381  1
  O  O60  1  0.320015  0.639957  0.812307  1
  O  O61  1  0.336250  0.769558  0.147439  1
  O  O62  1  0.338119  0.158181  0.375620  1
  O  O63  1  0.341819  0.161881  0.875620  1
  O  O64  1  0.360043  0.320015  0.187693  1
  O  O65  1  0.393519  0.312018  0.567619  1
  O  O66  1  0.416965  0.943377  0.614434  1
  O  O67  1  0.434999  0.560462  0.149161  1
  O  O68  1  0.439538  0.434999  0.850839  1
  O  O69  1  0.443377  0.916965  0.114434  1
  O  O70  1  0.486928  0.757875  0.926884  1
  O  O71  1  0.494453  0.771304  0.329595  1
  O  O72  1  0.505547  0.228696  0.329595  1
  O  O73  1  0.513072  0.242125  0.926884  1
  O  O74  1  0.556623  0.083035  0.114434  1
  O  O75  1  0.560462  0.565001  0.850839  1
  O  O76  1  0.565001  0.439538  0.149161  1
  O  O77  1  0.583035  0.056623  0.614434  1
  O  O78  1  0.606481  0.687982  0.567619  1
  O  O79  1  0.639957  0.679985  0.187693  1
  O  O80  1  0.658181  0.838119  0.875620  1
  O  O81  1  0.661881  0.841819  0.375620  1
  O  O82  1  0.663750  0.230442  0.147439  1
  O  O83  1  0.679985  0.360043  0.812307  1
  O  O84  1  0.687982  0.393519  0.432381  1
  O  O85  1  0.728696  0.005547  0.829595  1
  O  O86  1  0.730442  0.163750  0.647439  1
  O  O87  1  0.742125  0.013072  0.426884  1
  O  O88  1  0.757875  0.513072  0.073116  1
  O  O89  1  0.769558  0.663750  0.852561  1
  O  O90  1  0.771304  0.505547  0.670405  1
  O  O91  1  0.812018  0.893519  0.067619  1
  O  O92  1  0.820015  0.860043  0.687693  1
  O  O93  1  0.836250  0.730442  0.352561  1
  O  O94  1  0.838119  0.341819  0.124380  1
  O  O95  1  0.841819  0.338119  0.624380  1
  O  O96  1  0.860043  0.179985  0.312307  1
  O  O97  1  0.893519  0.187982  0.932381  1
  O  O98  1  0.916965  0.556623  0.885566  1
  O  O99  1  0.934999  0.939538  0.350839  1
  O  O100  1  0.939538  0.065001  0.649161  1
  O  O101  1  0.943377  0.583035  0.385566  1
  O  O102  1  0.986928  0.742125  0.573116  1
  O  O103  1  0.994453  0.728696  0.170405  1
