# generated using pymatgen
data_K3Al4P2O8F9
_symmetry_space_group_name_H-M   'P 1'
_cell_length_a   6.82581437
_cell_length_b   14.02641095
_cell_length_c   7.38640104
_cell_angle_alpha   90.00000000
_cell_angle_beta   106.10889825
_cell_angle_gamma   90.00000000
_symmetry_Int_Tables_number   1
_chemical_formula_structural   K3Al4P2O8F9
_chemical_formula_sum   'K6 Al8 P4 O16 F18'
_cell_volume   679.41951116
_cell_formula_units_Z   2
loop_
 _symmetry_equiv_pos_site_id
 _symmetry_equiv_pos_as_xyz
  1  'x, y, z'
loop_
 _atom_site_type_symbol
 _atom_site_label
 _atom_site_symmetry_multiplicity
 _atom_site_fract_x
 _atom_site_fract_y
 _atom_site_fract_z
 _atom_site_occupancy
  K  K0  1  0.811861  0.509722  0.209246  1
  K  K1  1  0.188139  0.490278  0.790754  1
  K  K2  1  0.080288  0.750000  0.541067  1
  K  K3  1  0.188139  0.009722  0.790754  1
  K  K4  1  0.811861  0.990278  0.209246  1
  K  K5  1  0.919712  0.250000  0.458933  1
  Al  Al6  1  0.327948  0.377910  0.319047  1
  Al  Al7  1  0.973088  0.250000  0.947863  1
  Al  Al8  1  0.484140  0.250000  0.961444  1
  Al  Al9  1  0.672052  0.877910  0.680953  1
  Al  Al10  1  0.672052  0.622090  0.680953  1
  Al  Al11  1  0.327948  0.122090  0.319047  1
  Al  Al12  1  0.026912  0.750000  0.052137  1
  Al  Al13  1  0.515860  0.750000  0.038556  1
  P  P14  1  0.652763  0.102256  0.715284  1
  P  P15  1  0.347237  0.897744  0.284716  1
  P  P16  1  0.652763  0.397744  0.715284  1
  P  P17  1  0.347237  0.602256  0.284716  1
  O  O18  1  0.137604  0.845976  0.223470  1
  O  O19  1  0.576864  0.105231  0.498176  1
  O  O20  1  0.500850  0.650322  0.195048  1
  O  O21  1  0.423136  0.894769  0.501824  1
  O  O22  1  0.316688  0.001505  0.211374  1
  O  O23  1  0.423136  0.605231  0.501824  1
  O  O24  1  0.862396  0.345976  0.776530  1
  O  O25  1  0.499150  0.150322  0.804952  1
  O  O26  1  0.137604  0.654024  0.223470  1
  O  O27  1  0.862396  0.154024  0.776530  1
  O  O28  1  0.499150  0.349678  0.804952  1
  O  O29  1  0.576864  0.394769  0.498176  1
  O  O30  1  0.316688  0.498495  0.211374  1
  O  O31  1  0.500850  0.849678  0.195048  1
  O  O32  1  0.683312  0.998495  0.788626  1
  O  O33  1  0.683312  0.501505  0.788626  1
  F  F34  1  0.204540  0.250000  0.867911  1
  F  F35  1  0.154826  0.091931  0.453808  1
  F  F36  1  0.795460  0.750000  0.132089  1
  F  F37  1  0.091187  0.156098  0.121108  1
  F  F38  1  0.322657  0.250000  0.390057  1
  F  F39  1  0.091187  0.343902  0.121108  1
  F  F40  1  0.765538  0.250000  0.064819  1
  F  F41  1  0.526840  0.661013  0.852836  1
  F  F42  1  0.234462  0.750000  0.935181  1
  F  F43  1  0.677343  0.750000  0.609943  1
  F  F44  1  0.473160  0.161013  0.147164  1
  F  F45  1  0.154826  0.408069  0.453808  1
  F  F46  1  0.845174  0.908069  0.546192  1
  F  F47  1  0.526840  0.838987  0.852836  1
  F  F48  1  0.473160  0.338987  0.147164  1
  F  F49  1  0.845174  0.591931  0.546192  1
  F  F50  1  0.908813  0.843902  0.878892  1
  F  F51  1  0.908813  0.656098  0.878892  1
