# generated using pymatgen
data_NaNb2AsO8
_symmetry_space_group_name_H-M   'P 1'
_cell_length_a   4.98166141
_cell_length_b   8.75968142
_cell_length_c   15.35174173
_cell_angle_alpha   90.00000000
_cell_angle_beta   100.15034045
_cell_angle_gamma   90.00000000
_symmetry_Int_Tables_number   1
_chemical_formula_structural   NaNb2AsO8
_chemical_formula_sum   'Na4 Nb8 As4 O32'
_cell_volume   659.43068919
_cell_formula_units_Z   4
loop_
 _symmetry_equiv_pos_site_id
 _symmetry_equiv_pos_as_xyz
  1  'x, y, z'
loop_
 _atom_site_type_symbol
 _atom_site_label
 _atom_site_symmetry_multiplicity
 _atom_site_fract_x
 _atom_site_fract_y
 _atom_site_fract_z
 _atom_site_occupancy
  Na  Na0  1  0.463029  0.021910  0.380726  1
  Na  Na1  1  0.536971  0.521910  0.119274  1
  Na  Na2  1  0.536971  0.978090  0.619274  1
  Na  Na3  1  0.463029  0.478090  0.880726  1
  Nb  Nb4  1  0.948817  0.793048  0.981035  1
  Nb  Nb5  1  0.051183  0.206952  0.018965  1
  Nb  Nb6  1  0.051183  0.293048  0.518965  1
  Nb  Nb7  1  0.948817  0.706952  0.481035  1
  Nb  Nb8  1  0.545940  0.571242  0.639336  1
  Nb  Nb9  1  0.545940  0.928758  0.139336  1
  Nb  Nb10  1  0.454060  0.071242  0.860664  1
  Nb  Nb11  1  0.454060  0.428758  0.360664  1
  As  As12  1  0.109997  0.738917  0.265592  1
  As  As13  1  0.890003  0.238917  0.234408  1
  As  As14  1  0.109997  0.761083  0.765592  1
  As  As15  1  0.890003  0.261083  0.734408  1
  O  O16  1  0.777033  0.624700  0.004437  1
  O  O17  1  0.229911  0.557634  0.253676  1
  O  O18  1  0.673863  0.379207  0.257564  1
  O  O19  1  0.673863  0.120793  0.757564  1
  O  O20  1  0.185006  0.048230  0.937521  1
  O  O21  1  0.652090  0.892239  0.892646  1
  O  O22  1  0.222967  0.375300  0.995563  1
  O  O23  1  0.303772  0.712866  0.566601  1
  O  O24  1  0.347910  0.107761  0.107354  1
  O  O25  1  0.326137  0.879207  0.242436  1
  O  O26  1  0.205513  0.243987  0.299208  1
  O  O27  1  0.102666  0.783379  0.375407  1
  O  O28  1  0.777033  0.875300  0.504437  1
  O  O29  1  0.652090  0.607761  0.392646  1
  O  O30  1  0.185006  0.451770  0.437521  1
  O  O31  1  0.696228  0.212866  0.933399  1
  O  O32  1  0.696228  0.287134  0.433399  1
  O  O33  1  0.897334  0.216621  0.624593  1
  O  O34  1  0.794487  0.756013  0.700792  1
  O  O35  1  0.229911  0.942366  0.753676  1
  O  O36  1  0.770089  0.057634  0.246324  1
  O  O37  1  0.222967  0.124700  0.495563  1
  O  O38  1  0.770089  0.442366  0.746324  1
  O  O39  1  0.205513  0.256013  0.799208  1
  O  O40  1  0.102666  0.716621  0.875407  1
  O  O41  1  0.326137  0.620793  0.742436  1
  O  O42  1  0.303772  0.787134  0.066601  1
  O  O43  1  0.814994  0.548230  0.562479  1
  O  O44  1  0.814994  0.951770  0.062479  1
  O  O45  1  0.794487  0.743987  0.200792  1
  O  O46  1  0.897334  0.283379  0.124593  1
  O  O47  1  0.347910  0.392239  0.607354  1
