# generated using pymatgen
data_MoCl3
_symmetry_space_group_name_H-M   'P 1'
_cell_length_a   5.91338078
_cell_length_b   5.91338078
_cell_length_c   13.10369068
_cell_angle_alpha   89.83576296
_cell_angle_beta   90.16423704
_cell_angle_gamma   63.97362553
_symmetry_Int_Tables_number   1
_chemical_formula_structural   MoCl3
_chemical_formula_sum   'Mo4 Cl12'
_cell_volume   411.73860625
_cell_formula_units_Z   4
loop_
 _symmetry_equiv_pos_site_id
 _symmetry_equiv_pos_as_xyz
  1  'x, y, z'
loop_
 _atom_site_type_symbol
 _atom_site_label
 _atom_site_symmetry_multiplicity
 _atom_site_fract_x
 _atom_site_fract_y
 _atom_site_fract_z
 _atom_site_occupancy
  Mo  Mo0  1  0.979494  0.979494  0.250000  1
  Mo  Mo1  1  0.020506  0.020506  0.750000  1
  Mo  Mo2  1  0.312999  0.312999  0.750000  1
  Mo  Mo3  1  0.687001  0.687001  0.250000  1
  Cl  Cl4  1  0.334082  0.672613  0.350768  1
  Cl  Cl5  1  0.332414  0.993682  0.149313  1
  Cl  Cl6  1  0.018571  0.314912  0.876075  1
  Cl  Cl7  1  0.314912  0.018571  0.623925  1
  Cl  Cl8  1  0.327387  0.665918  0.850768  1
  Cl  Cl9  1  0.006318  0.667586  0.649313  1
  Cl  Cl10  1  0.672613  0.334082  0.149232  1
  Cl  Cl11  1  0.685088  0.981429  0.376075  1
  Cl  Cl12  1  0.993682  0.332414  0.350687  1
  Cl  Cl13  1  0.667586  0.006318  0.850687  1
  Cl  Cl14  1  0.981429  0.685088  0.123925  1
  Cl  Cl15  1  0.665918  0.327387  0.649232  1
