# generated using pymatgen
data_Ba5B3CNO9
_symmetry_space_group_name_H-M   'P 1'
_cell_length_a   9.18132313
_cell_length_b   9.18132313
_cell_length_c   8.09524242
_cell_angle_alpha   90.00000000
_cell_angle_beta   90.00000000
_cell_angle_gamma   109.60230728
_symmetry_Int_Tables_number   1
_chemical_formula_structural   Ba5B3CNO9
_chemical_formula_sum   'Ba10 B6 C2 N2 O18'
_cell_volume   642.85283728
_cell_formula_units_Z   2
loop_
 _symmetry_equiv_pos_site_id
 _symmetry_equiv_pos_as_xyz
  1  'x, y, z'
loop_
 _atom_site_type_symbol
 _atom_site_label
 _atom_site_symmetry_multiplicity
 _atom_site_fract_x
 _atom_site_fract_y
 _atom_site_fract_z
 _atom_site_occupancy
  Ba  Ba0  1  0.741044  0.741044  0.500000  1
  Ba  Ba1  1  0.258956  0.258956  1.000000  1
  Ba  Ba2  1  0.138430  0.861570  0.750000  1
  Ba  Ba3  1  0.234692  0.493396  0.564926  1
  Ba  Ba4  1  0.854908  0.145092  0.750000  1
  Ba  Ba5  1  0.861570  0.138430  0.250000  1
  Ba  Ba6  1  0.145092  0.854908  0.250000  1
  Ba  Ba7  1  0.506604  0.765308  0.935074  1
  Ba  Ba8  1  0.765308  0.506604  0.064926  1
  Ba  Ba9  1  0.493396  0.234692  0.435074  1
  B  B10  1  0.095347  0.514975  0.968379  1
  B  B11  1  0.127363  0.127363  0.500000  1
  B  B12  1  0.872637  0.872637  1.000000  1
  B  B13  1  0.514975  0.095347  0.031621  1
  B  B14  1  0.485025  0.904653  0.531621  1
  B  B15  1  0.904653  0.485025  0.468379  1
  C  C16  1  0.384232  0.615768  0.250000  1
  C  C17  1  0.615768  0.384232  0.750000  1
  N  N18  1  0.463046  0.536954  0.250000  1
  N  N19  1  0.536954  0.463046  0.750000  1
  O  O20  1  0.992053  0.367872  0.010736  1
  O  O21  1  0.367872  0.992053  0.989264  1
  O  O22  1  0.062077  0.647983  0.007865  1
  O  O23  1  0.769940  0.472837  0.382151  1
  O  O24  1  0.994673  0.994673  0.500000  1
  O  O25  1  0.352017  0.937923  0.492135  1
  O  O26  1  0.230060  0.527163  0.882151  1
  O  O27  1  0.472837  0.769940  0.617849  1
  O  O28  1  0.807718  0.809361  0.150780  1
  O  O29  1  0.192282  0.190639  0.650780  1
  O  O30  1  0.005327  0.005327  1.000000  1
  O  O31  1  0.647983  0.062077  0.992135  1
  O  O32  1  0.007947  0.632128  0.510736  1
  O  O33  1  0.632128  0.007947  0.489264  1
  O  O34  1  0.809361  0.807718  0.849220  1
  O  O35  1  0.937923  0.352017  0.507865  1
  O  O36  1  0.190639  0.192282  0.349220  1
  O  O37  1  0.527163  0.230060  0.117849  1
