# generated using pymatgen
data_Nd2Mo4O15
_symmetry_space_group_name_H-M   'P 1'
_cell_length_a   9.62446392
_cell_length_b   11.22212008
_cell_length_c   11.77715700
_cell_angle_alpha   104.46192031
_cell_angle_beta   109.42847867
_cell_angle_gamma   108.84862725
_symmetry_Int_Tables_number   1
_chemical_formula_structural   Nd2Mo4O15
_chemical_formula_sum   'Nd6 Mo12 O45'
_cell_volume   1040.36512803
_cell_formula_units_Z   3
loop_
 _symmetry_equiv_pos_site_id
 _symmetry_equiv_pos_as_xyz
  1  'x, y, z'
loop_
 _atom_site_type_symbol
 _atom_site_label
 _atom_site_symmetry_multiplicity
 _atom_site_fract_x
 _atom_site_fract_y
 _atom_site_fract_z
 _atom_site_occupancy
  Nd  Nd0  1  0.332493  0.657440  0.797477  1
  Nd  Nd1  1  0.667507  0.342560  0.202523  1
  Nd  Nd2  1  0.232930  0.223442  0.174460  1
  Nd  Nd3  1  0.767070  0.776558  0.825540  1
  Nd  Nd4  1  0.782704  0.943260  0.409225  1
  Nd  Nd5  1  0.217296  0.056740  0.590775  1
  Mo  Mo6  1  0.473882  0.563171  0.131019  1
  Mo  Mo7  1  0.526118  0.436829  0.868981  1
  Mo  Mo8  1  0.267132  0.983130  0.921498  1
  Mo  Mo9  1  0.732868  0.016870  0.078502  1
  Mo  Mo10  1  0.093462  0.535769  0.181314  1
  Mo  Mo11  1  0.906538  0.464231  0.818686  1
  Mo  Mo12  1  0.083152  0.308877  0.448159  1
  Mo  Mo13  1  0.916848  0.691123  0.551841  1
  Mo  Mo14  1  0.932528  0.131854  0.796600  1
  Mo  Mo15  1  0.067472  0.868146  0.203400  1
  Mo  Mo16  1  0.416436  0.777381  0.519491  1
  Mo  Mo17  1  0.583564  0.222619  0.480509  1
  O  O18  1  0.451474  0.425601  0.193681  1
  O  O19  1  0.548526  0.574399  0.806319  1
  O  O20  1  0.324596  0.608556  0.161529  1
  O  O21  1  0.675404  0.391444  0.838471  1
  O  O22  1  0.385043  0.143451  0.068076  1
  O  O23  1  0.614957  0.856549  0.931924  1
  O  O24  1  0.057544  0.920271  0.892793  1
  O  O25  1  0.942456  0.079729  0.107207  1
  O  O26  1  0.334664  0.855734  0.942766  1
  O  O27  1  0.665336  0.144266  0.057234  1
  O  O28  1  0.411213  0.554419  0.957578  1
  O  O29  1  0.588787  0.445581  0.042422  1
  O  O30  1  0.088254  0.504362  0.800915  1
  O  O31  1  0.911746  0.495638  0.199085  1
  O  O32  1  0.188769  0.460151  0.595406  1
  O  O33  1  0.114381  0.383568  0.167485  1
  O  O34  1  0.219187  0.306388  0.375719  1
  O  O35  1  0.885619  0.616432  0.832515  1
  O  O36  1  0.416257  0.162310  0.518309  1
  O  O37  1  0.583743  0.837690  0.481691  1
  O  O38  1  0.339147  0.288154  0.755002  1
  O  O39  1  0.660853  0.711846  0.244998  1
  O  O40  1  0.284412  0.017287  0.784942  1
  O  O41  1  0.715588  0.982713  0.215058  1
  O  O42  1  0.966111  0.843671  0.513798  1
  O  O43  1  0.033889  0.156329  0.486202  1
  O  O44  1  0.032071  0.930512  0.342641  1
  O  O45  1  0.967929  0.069488  0.657359  1
  O  O46  1  0.655063  0.096510  0.447822  1
  O  O47  1  0.344937  0.903490  0.552178  1
  O  O48  1  0.526517  0.268534  0.341084  1
  O  O49  1  0.473483  0.731466  0.658916  1
  O  O50  1  0.751390  0.377102  0.621447  1
  O  O51  1  0.248610  0.622898  0.378553  1
  O  O52  1  0.000000  0.500000  0.000000  1
  O  O53  1  0.217341  0.010613  0.201910  1
  O  O54  1  0.782659  0.989387  0.798090  1
  O  O55  1  0.148081  0.743960  0.220405  1
  O  O56  1  0.851919  0.256040  0.779595  1
  O  O57  1  0.883001  0.791719  0.054065  1
  O  O58  1  0.116999  0.208281  0.945935  1
  O  O59  1  0.103322  0.697927  0.660504  1
  O  O60  1  0.896678  0.302073  0.339496  1
  O  O61  1  0.780813  0.693612  0.624281  1
  O  O62  1  0.811231  0.539849  0.404594  1
