# generated using pymatgen
data_CsK(ClO4)2
_symmetry_space_group_name_H-M   'P 1'
_cell_length_a   8.11370662
_cell_length_b   8.11370662
_cell_length_c   8.11370662
_cell_angle_alpha   42.66300889
_cell_angle_beta   42.66300889
_cell_angle_gamma   42.66300889
_symmetry_Int_Tables_number   1
_chemical_formula_structural   CsK(ClO4)2
_chemical_formula_sum   'Cs1 K1 Cl2 O8'
_cell_volume   222.19612224
_cell_formula_units_Z   1
loop_
 _symmetry_equiv_pos_site_id
 _symmetry_equiv_pos_as_xyz
  1  'x, y, z'
loop_
 _atom_site_type_symbol
 _atom_site_label
 _atom_site_symmetry_multiplicity
 _atom_site_fract_x
 _atom_site_fract_y
 _atom_site_fract_z
 _atom_site_occupancy
  Cs  Cs0  1  0.500000  0.500000  0.500000  1
  K  K1  1  0.000000  0.000000  0.000000  1
  Cl  Cl2  1  0.734041  0.734041  0.734041  1
  Cl  Cl3  1  0.265959  0.265959  0.265959  1
  O  O4  1  0.108479  0.108479  0.513011  1
  O  O5  1  0.331935  0.331935  0.331935  1
  O  O6  1  0.891521  0.891521  0.486989  1
  O  O7  1  0.108479  0.513011  0.108479  1
  O  O8  1  0.891521  0.486989  0.891521  1
  O  O9  1  0.486989  0.891521  0.891521  1
  O  O10  1  0.668065  0.668065  0.668065  1
  O  O11  1  0.513011  0.108479  0.108479  1
