# generated using pymatgen
data_Li2Mg2Si4O11
_symmetry_space_group_name_H-M   'P 1'
_cell_length_a   6.96051865
_cell_length_b   7.50249989
_cell_length_c   8.75202421
_cell_angle_alpha   99.46181846
_cell_angle_beta   101.05506599
_cell_angle_gamma   104.80984429
_symmetry_Int_Tables_number   1
_chemical_formula_structural   Li2Mg2Si4O11
_chemical_formula_sum   'Li4 Mg4 Si8 O22'
_cell_volume   422.54874392
_cell_formula_units_Z   2
loop_
 _symmetry_equiv_pos_site_id
 _symmetry_equiv_pos_as_xyz
  1  'x, y, z'
loop_
 _atom_site_type_symbol
 _atom_site_label
 _atom_site_symmetry_multiplicity
 _atom_site_fract_x
 _atom_site_fract_y
 _atom_site_fract_z
 _atom_site_occupancy
  Li  Li0  1  0.610393  0.794243  0.195539  1
  Li  Li1  1  0.141944  0.753891  0.151798  1
  Li  Li2  1  0.389607  0.205757  0.804461  1
  Li  Li3  1  0.858056  0.246109  0.848202  1
  Mg  Mg4  1  0.117671  0.380291  0.610748  1
  Mg  Mg5  1  0.368869  0.619790  0.398894  1
  Mg  Mg6  1  0.631131  0.380210  0.601106  1
  Mg  Mg7  1  0.882329  0.619709  0.389252  1
  Si  Si8  1  0.759526  0.608304  0.968314  1
  Si  Si9  1  0.959620  0.225658  0.233411  1
  Si  Si10  1  0.521350  0.224260  0.225586  1
  Si  Si11  1  0.232543  0.025230  0.404924  1
  Si  Si12  1  0.240474  0.391696  0.031686  1
  Si  Si13  1  0.767457  0.974770  0.595076  1
  Si  Si14  1  0.478650  0.775740  0.774414  1
  Si  Si15  1  0.040380  0.774342  0.766589  1
  O  O16  1  0.324174  0.594018  0.158691  1
  O  O17  1  0.975336  0.739835  0.933190  1
  O  O18  1  0.399464  0.260015  0.058368  1
  O  O19  1  0.414072  0.590008  0.629726  1
  O  O20  1  0.063278  0.415993  0.373814  1
  O  O21  1  0.675826  0.405982  0.841309  1
  O  O22  1  0.979553  0.952381  0.705550  1
  O  O23  1  0.290379  0.848872  0.818486  1
  O  O24  1  0.020447  0.047619  0.294450  1
  O  O25  1  0.674506  0.805331  0.436032  1
  O  O26  1  0.182539  0.805483  0.416031  1
  O  O27  1  0.024664  0.260165  0.066810  1
  O  O28  1  0.709621  0.151128  0.181514  1
  O  O29  1  0.381435  0.038624  0.274247  1
  O  O30  1  0.600536  0.739985  0.941632  1
  O  O31  1  0.817461  0.194517  0.583969  1
  O  O32  1  0.618565  0.961376  0.725753  1
  O  O33  1  0.936722  0.584007  0.626186  1
  O  O34  1  0.183164  0.382214  0.844123  1
  O  O35  1  0.325494  0.194669  0.563968  1
  O  O36  1  0.816836  0.617786  0.155877  1
  O  O37  1  0.585928  0.409992  0.370274  1
