# generated using pymatgen
data_PbI2
_symmetry_space_group_name_H-M   'P 1'
_cell_length_a   15.38236540
_cell_length_b   15.38236540
_cell_length_c   15.38236540
_cell_angle_alpha   17.48341708
_cell_angle_beta   17.48341708
_cell_angle_gamma   17.48341708
_symmetry_Int_Tables_number   1
_chemical_formula_structural   PbI2
_chemical_formula_sum   'Pb2 I4'
_cell_volume   286.70957570
_cell_formula_units_Z   2
loop_
 _symmetry_equiv_pos_site_id
 _symmetry_equiv_pos_as_xyz
  1  'x, y, z'
loop_
 _atom_site_type_symbol
 _atom_site_label
 _atom_site_symmetry_multiplicity
 _atom_site_fract_x
 _atom_site_fract_y
 _atom_site_fract_z
 _atom_site_occupancy
  Pb  Pb0  1  0.583016  0.583016  0.583016  1
  Pb  Pb1  1  0.416984  0.416984  0.416984  1
  I  I2  1  0.124670  0.124670  0.124670  1
  I  I3  1  0.875330  0.875330  0.875330  1
  I  I4  1  0.290665  0.290665  0.290665  1
  I  I5  1  0.709335  0.709335  0.709335  1
