# generated using pymatgen
data_RbPO3
_symmetry_space_group_name_H-M   'P 1'
_cell_length_a   7.34814705
_cell_length_b   7.34814705
_cell_length_c   4.86253143
_cell_angle_alpha   90.00000000
_cell_angle_beta   90.00000000
_cell_angle_gamma   131.17723082
_symmetry_Int_Tables_number   1
_chemical_formula_structural   RbPO3
_chemical_formula_sum   'Rb2 P2 O6'
_cell_volume   197.61800916
_cell_formula_units_Z   2
loop_
 _symmetry_equiv_pos_site_id
 _symmetry_equiv_pos_as_xyz
  1  'x, y, z'
loop_
 _atom_site_type_symbol
 _atom_site_label
 _atom_site_symmetry_multiplicity
 _atom_site_fract_x
 _atom_site_fract_y
 _atom_site_fract_z
 _atom_site_occupancy
  Rb  Rb0  1  0.343884  0.656116  0.250000  1
  Rb  Rb1  1  0.656116  0.343884  0.750000  1
  P  P2  1  0.077603  0.922397  0.250000  1
  P  P3  1  0.922397  0.077603  0.750000  1
  O  O4  1  0.078884  0.347671  0.750000  1
  O  O5  1  0.652329  0.921116  0.750000  1
  O  O6  1  0.921116  0.652329  0.250000  1
  O  O7  1  0.347671  0.078884  0.250000  1
  O  O8  1  0.000000  0.000000  0.500000  1
  O  O9  1  0.000000  0.000000  0.000000  1
