# generated using pymatgen
data_NaZr2(AsO4)3
_symmetry_space_group_name_H-M   'P 1'
_cell_length_a   9.50381958
_cell_length_b   9.50381958
_cell_length_c   9.50381958
_cell_angle_alpha   58.86155404
_cell_angle_beta   58.86155404
_cell_angle_gamma   58.86155404
_symmetry_Int_Tables_number   1
_chemical_formula_structural   NaZr2(AsO4)3
_chemical_formula_sum   'Na2 Zr4 As6 O24'
_cell_volume   591.21200806
_cell_formula_units_Z   2
loop_
 _symmetry_equiv_pos_site_id
 _symmetry_equiv_pos_as_xyz
  1  'x, y, z'
loop_
 _atom_site_type_symbol
 _atom_site_label
 _atom_site_symmetry_multiplicity
 _atom_site_fract_x
 _atom_site_fract_y
 _atom_site_fract_z
 _atom_site_occupancy
  Na  Na0  1  0.000000  0.000000  0.000000  1
  Na  Na1  1  0.500000  0.500000  0.500000  1
  Zr  Zr2  1  0.143192  0.143192  0.143192  1
  Zr  Zr3  1  0.356808  0.356808  0.356808  1
  Zr  Zr4  1  0.643192  0.643192  0.643192  1
  Zr  Zr5  1  0.856808  0.856808  0.856808  1
  As  As6  1  0.250000  0.540926  0.959074  1
  As  As7  1  0.040926  0.750000  0.459074  1
  As  As8  1  0.959074  0.250000  0.540926  1
  As  As9  1  0.750000  0.459074  0.040926  1
  As  As10  1  0.540926  0.959074  0.250000  1
  As  As11  1  0.459074  0.040926  0.750000  1
  O  O12  1  0.129983  0.295607  0.503119  1
  O  O13  1  0.732281  0.939457  0.076874  1
  O  O14  1  0.204393  0.370017  0.996881  1
  O  O15  1  0.423126  0.560543  0.767719  1
  O  O16  1  0.870017  0.704393  0.496881  1
  O  O17  1  0.076874  0.732281  0.939457  1
  O  O18  1  0.267719  0.060543  0.923126  1
  O  O19  1  0.232281  0.576874  0.439457  1
  O  O20  1  0.576874  0.439457  0.232281  1
  O  O21  1  0.503119  0.129983  0.295607  1
  O  O22  1  0.923126  0.267719  0.060543  1
  O  O23  1  0.795607  0.629983  0.003119  1
  O  O24  1  0.003119  0.795607  0.629983  1
  O  O25  1  0.629983  0.003119  0.795607  1
  O  O26  1  0.060543  0.923126  0.267719  1
  O  O27  1  0.496881  0.870017  0.704393  1
  O  O28  1  0.767719  0.423126  0.560543  1
  O  O29  1  0.370017  0.996881  0.204393  1
  O  O30  1  0.996881  0.204393  0.370017  1
  O  O31  1  0.560543  0.767719  0.423126  1
  O  O32  1  0.439457  0.232281  0.576874  1
  O  O33  1  0.295607  0.503119  0.129983  1
  O  O34  1  0.704393  0.496881  0.870017  1
  O  O35  1  0.939457  0.076874  0.732281  1
