# generated using pymatgen
data_MgTi2(PO5)2
_symmetry_space_group_name_H-M   'P 1'
_cell_length_a   7.43299127
_cell_length_b   7.47015918
_cell_length_c   7.44758322
_cell_angle_alpha   90.00000000
_cell_angle_beta   119.70769002
_cell_angle_gamma   90.00000000
_symmetry_Int_Tables_number   1
_chemical_formula_structural   MgTi2(PO5)2
_chemical_formula_sum   'Mg2 Ti4 P4 O20'
_cell_volume   359.17919515
_cell_formula_units_Z   2
loop_
 _symmetry_equiv_pos_site_id
 _symmetry_equiv_pos_as_xyz
  1  'x, y, z'
loop_
 _atom_site_type_symbol
 _atom_site_label
 _atom_site_symmetry_multiplicity
 _atom_site_fract_x
 _atom_site_fract_y
 _atom_site_fract_z
 _atom_site_occupancy
  Mg  Mg0  1  0.000000  0.000000  0.000000  1
  Mg  Mg1  1  0.000000  0.500000  0.500000  1
  Ti  Ti2  1  0.266640  0.278501  0.294418  1
  Ti  Ti3  1  0.733360  0.721499  0.705582  1
  Ti  Ti4  1  0.266640  0.221499  0.794418  1
  Ti  Ti5  1  0.733360  0.778501  0.205582  1
  P  P6  1  0.755392  0.379776  0.005589  1
  P  P7  1  0.755392  0.120224  0.505589  1
  P  P8  1  0.244608  0.620224  0.994411  1
  P  P9  1  0.244608  0.879776  0.494411  1
  O  O10  1  0.442767  0.767133  0.571777  1
  O  O11  1  0.940874  0.250386  0.585791  1
  O  O12  1  0.940874  0.249614  0.085791  1
  O  O13  1  0.738971  0.493445  0.824697  1
  O  O14  1  0.442767  0.732867  0.071777  1
  O  O15  1  0.786291  0.504223  0.185965  1
  O  O16  1  0.059126  0.750386  0.914209  1
  O  O17  1  0.213709  0.495777  0.814035  1
  O  O18  1  0.231348  0.342157  0.499867  1
  O  O19  1  0.231348  0.157843  0.999867  1
  O  O20  1  0.213709  0.004223  0.314035  1
  O  O21  1  0.738971  0.006555  0.324697  1
  O  O22  1  0.768652  0.657843  0.500133  1
  O  O23  1  0.261029  0.506555  0.175303  1
  O  O24  1  0.557233  0.232867  0.428223  1
  O  O25  1  0.768652  0.842157  0.000133  1
  O  O26  1  0.786291  0.995777  0.685965  1
  O  O27  1  0.557233  0.267133  0.928223  1
  O  O28  1  0.059126  0.749614  0.414209  1
  O  O29  1  0.261029  0.993445  0.675303  1
