# generated using pymatgen
data_TeI4
_symmetry_space_group_name_H-M   'P 1'
_cell_length_a   14.01207991
_cell_length_b   14.01207991
_cell_length_c   14.01207991
_cell_angle_alpha   101.31022076
_cell_angle_beta   101.31022076
_cell_angle_gamma   127.42755777
_symmetry_Int_Tables_number   1
_chemical_formula_structural   TeI4
_chemical_formula_sum   'Te8 I32'
_cell_volume   1958.80220290
_cell_formula_units_Z   8
loop_
 _symmetry_equiv_pos_site_id
 _symmetry_equiv_pos_as_xyz
  1  'x, y, z'
loop_
 _atom_site_type_symbol
 _atom_site_label
 _atom_site_symmetry_multiplicity
 _atom_site_fract_x
 _atom_site_fract_y
 _atom_site_fract_z
 _atom_site_occupancy
  Te  Te0  1  0.003784  0.141401  0.862383  1
  Te  Te1  1  0.858599  0.996216  0.137617  1
  Te  Te2  1  0.391401  0.753784  0.362383  1
  Te  Te3  1  0.279018  0.141401  0.137617  1
  Te  Te4  1  0.858599  0.720982  0.862383  1
  Te  Te5  1  0.246216  0.608599  0.637617  1
  Te  Te6  1  0.970982  0.608599  0.362383  1
  Te  Te7  1  0.391401  0.029018  0.637617  1
  I  I8  1  0.362913  0.736865  0.860107  1
  I  I9  1  0.634056  0.509412  0.875356  1
  I  I10  1  0.373242  0.013135  0.126048  1
  I  I11  1  0.008700  0.384056  0.624644  1
  I  I12  1  0.752806  0.112913  0.126048  1
  I  I13  1  0.263135  0.123242  0.626048  1
  I  I14  1  0.122512  0.244342  0.121830  1
  I  I15  1  0.490588  0.365944  0.124644  1
  I  I16  1  0.615944  0.991300  0.375356  1
  I  I17  1  0.986865  0.112913  0.360107  1
  I  I18  1  0.759412  0.384056  0.375356  1
  I  I19  1  0.497194  0.123242  0.860107  1
  I  I20  1  0.999319  0.877488  0.121830  1
  I  I21  1  0.127488  0.749319  0.621830  1
  I  I22  1  0.876758  0.502806  0.139893  1
  I  I23  1  0.373242  0.247194  0.360107  1
  I  I24  1  0.241300  0.365944  0.875356  1
  I  I25  1  0.887087  0.247194  0.873952  1
  I  I26  1  0.887087  0.013135  0.639893  1
  I  I27  1  0.986865  0.626758  0.873952  1
  I  I28  1  0.497194  0.637087  0.373952  1
  I  I29  1  0.250681  0.872512  0.378170  1
  I  I30  1  0.122512  0.000681  0.878170  1
  I  I31  1  0.263135  0.637087  0.139893  1
  I  I32  1  0.755658  0.877488  0.878170  1
  I  I33  1  0.752806  0.626758  0.639893  1
  I  I34  1  0.494342  0.872512  0.621830  1
  I  I35  1  0.876758  0.736865  0.373952  1
  I  I36  1  0.127488  0.505658  0.378170  1
  I  I37  1  0.634056  0.758700  0.124644  1
  I  I38  1  0.362913  0.502806  0.626048  1
  I  I39  1  0.615944  0.240588  0.624644  1
