# generated using pymatgen
data_K2OsN3Cl3O5
_symmetry_space_group_name_H-M   'P 1'
_cell_length_a   7.09743780
_cell_length_b   7.71143000
_cell_length_c   10.54125135
_cell_angle_alpha   90.34028596
_cell_angle_beta   101.66922420
_cell_angle_gamma   90.53912470
_symmetry_Int_Tables_number   1
_chemical_formula_structural   K2OsN3Cl3O5
_chemical_formula_sum   'K4 Os2 N6 Cl6 O10'
_cell_volume   564.96988407
_cell_formula_units_Z   2
loop_
 _symmetry_equiv_pos_site_id
 _symmetry_equiv_pos_as_xyz
  1  'x, y, z'
loop_
 _atom_site_type_symbol
 _atom_site_label
 _atom_site_symmetry_multiplicity
 _atom_site_fract_x
 _atom_site_fract_y
 _atom_site_fract_z
 _atom_site_occupancy
  K  K0  1  0.389453  0.246081  0.870311  1
  K  K1  1  0.229675  0.751803  0.472375  1
  K  K2  1  0.610547  0.753919  0.129689  1
  K  K3  1  0.770325  0.248197  0.527625  1
  Os  Os4  1  0.877097  0.746947  0.762592  1
  Os  Os5  1  0.122903  0.253053  0.237408  1
  N  N6  1  0.679687  0.933138  0.794205  1
  N  N7  1  0.012563  0.243052  0.072668  1
  N  N8  1  0.696666  0.549232  0.803384  1
  N  N9  1  0.303334  0.450768  0.196616  1
  N  N10  1  0.987437  0.756948  0.927332  1
  N  N11  1  0.320313  0.066862  0.205795  1
  Cl  Cl12  1  0.286281  0.268220  0.454383  1
  Cl  Cl13  1  0.078838  0.973625  0.699194  1
  Cl  Cl14  1  0.713719  0.731780  0.545617  1
  Cl  Cl15  1  0.903071  0.467057  0.292515  1
  Cl  Cl16  1  0.096929  0.532943  0.707485  1
  Cl  Cl17  1  0.921162  0.026375  0.300806  1
  O  O18  1  0.638989  0.945442  0.904735  1
  O  O19  1  0.361011  0.054558  0.095265  1
  O  O20  1  0.950321  0.237405  0.960594  1
  O  O21  1  0.631855  0.434844  0.721378  1
  O  O22  1  0.344982  0.456085  0.086219  1
  O  O23  1  0.049679  0.762595  0.039406  1
  O  O24  1  0.395406  0.965918  0.293238  1
  O  O25  1  0.655018  0.543915  0.913781  1
  O  O26  1  0.604594  0.034082  0.706762  1
  O  O27  1  0.368145  0.565156  0.278622  1
