# generated using pymatgen
data_KLi4AlO4
_symmetry_space_group_name_H-M   'P 1'
_cell_length_a   5.60137217
_cell_length_b   15.59877449
_cell_length_c   11.14799602
_cell_angle_alpha   90.00000000
_cell_angle_beta   109.61803679
_cell_angle_gamma   90.00000000
_symmetry_Int_Tables_number   1
_chemical_formula_structural   KLi4AlO4
_chemical_formula_sum   'K8 Li32 Al8 O32'
_cell_volume   917.50913563
_cell_formula_units_Z   8
loop_
 _symmetry_equiv_pos_site_id
 _symmetry_equiv_pos_as_xyz
  1  'x, y, z'
loop_
 _atom_site_type_symbol
 _atom_site_label
 _atom_site_symmetry_multiplicity
 _atom_site_fract_x
 _atom_site_fract_y
 _atom_site_fract_z
 _atom_site_occupancy
  K  K0  1  0.405990  0.202872  0.771658  1
  K  K1  1  0.594010  0.797128  0.228342  1
  K  K2  1  0.048976  0.571929  0.666270  1
  K  K3  1  0.951024  0.071929  0.833730  1
  K  K4  1  0.951024  0.428071  0.333730  1
  K  K5  1  0.048976  0.928071  0.166270  1
  K  K6  1  0.405990  0.297128  0.271658  1
  K  K7  1  0.594010  0.702872  0.728342  1
  Li  Li8  1  0.060584  0.077521  0.542500  1
  Li  Li9  1  0.088041  0.377233  0.770313  1
  Li  Li10  1  0.330464  0.379608  0.627973  1
  Li  Li11  1  0.669536  0.620392  0.372027  1
  Li  Li12  1  0.215234  0.838458  0.627794  1
  Li  Li13  1  0.470069  0.653320  0.992341  1
  Li  Li14  1  0.939416  0.577521  0.957500  1
  Li  Li15  1  0.310804  0.019872  0.423093  1
  Li  Li16  1  0.470069  0.846680  0.492341  1
  Li  Li17  1  0.669536  0.879608  0.872027  1
  Li  Li18  1  0.360110  0.567091  0.477667  1
  Li  Li19  1  0.891423  0.761441  0.023576  1
  Li  Li20  1  0.060584  0.422479  0.042500  1
  Li  Li21  1  0.689196  0.519872  0.076907  1
  Li  Li22  1  0.529931  0.346680  0.007659  1
  Li  Li23  1  0.639890  0.432909  0.522333  1
  Li  Li24  1  0.784766  0.338458  0.872206  1
  Li  Li25  1  0.529931  0.153320  0.507659  1
  Li  Li26  1  0.215234  0.661542  0.127794  1
  Li  Li27  1  0.360110  0.932909  0.977667  1
  Li  Li28  1  0.784766  0.161542  0.372206  1
  Li  Li29  1  0.911959  0.622767  0.229687  1
  Li  Li30  1  0.911959  0.877233  0.729687  1
  Li  Li31  1  0.891423  0.738559  0.523576  1
  Li  Li32  1  0.310804  0.480128  0.923093  1
  Li  Li33  1  0.108577  0.238559  0.976424  1
  Li  Li34  1  0.689196  0.980128  0.576907  1
  Li  Li35  1  0.330464  0.120392  0.127973  1
  Li  Li36  1  0.108577  0.261441  0.476424  1
  Li  Li37  1  0.088041  0.122767  0.270313  1
  Li  Li38  1  0.939416  0.922479  0.457500  1
  Li  Li39  1  0.639890  0.067091  0.022333  1
  Al  Al40  1  0.811693  0.273511  0.618873  1
  Al  Al41  1  0.616466  0.016270  0.296856  1
  Al  Al42  1  0.383534  0.983730  0.703144  1
  Al  Al43  1  0.383534  0.516270  0.203144  1
  Al  Al44  1  0.188307  0.773511  0.881127  1
  Al  Al45  1  0.188307  0.726489  0.381127  1
  Al  Al46  1  0.616466  0.483730  0.796856  1
  Al  Al47  1  0.811693  0.226489  0.118873  1
  O  O48  1  0.450574  0.390878  0.824959  1
  O  O49  1  0.962865  0.134370  0.077639  1
  O  O50  1  0.526181  0.715078  0.449173  1
  O  O51  1  0.098083  0.682228  0.951030  1
  O  O52  1  0.037135  0.634370  0.422361  1
  O  O53  1  0.934816  0.262990  0.788842  1
  O  O54  1  0.037135  0.865630  0.922361  1
  O  O55  1  0.473819  0.284922  0.550827  1
  O  O56  1  0.500302  0.002960  0.867858  1
  O  O57  1  0.065184  0.737010  0.211158  1
  O  O58  1  0.549426  0.890878  0.675041  1
  O  O59  1  0.934816  0.237010  0.288842  1
  O  O60  1  0.500302  0.497040  0.367858  1
  O  O61  1  0.499698  0.997040  0.132142  1
  O  O62  1  0.440688  0.063730  0.602044  1
  O  O63  1  0.549426  0.609122  0.175041  1
  O  O64  1  0.049579  0.536117  0.139932  1
  O  O65  1  0.473819  0.215078  0.050827  1
  O  O66  1  0.098083  0.817772  0.451030  1
  O  O67  1  0.901917  0.182228  0.548970  1
  O  O68  1  0.559312  0.563730  0.897956  1
  O  O69  1  0.450574  0.109122  0.324959  1
  O  O70  1  0.962865  0.365630  0.577639  1
  O  O71  1  0.499698  0.502960  0.632142  1
  O  O72  1  0.049579  0.963883  0.639932  1
  O  O73  1  0.440688  0.436270  0.102044  1
  O  O74  1  0.559312  0.936270  0.397956  1
  O  O75  1  0.901917  0.317772  0.048970  1
  O  O76  1  0.526181  0.784922  0.949173  1
  O  O77  1  0.065184  0.762990  0.711158  1
  O  O78  1  0.950421  0.463883  0.860068  1
  O  O79  1  0.950421  0.036117  0.360068  1
