# generated using pymatgen
data_SrGaBO4
_symmetry_space_group_name_H-M   'P 1'
_cell_length_a   5.87872880
_cell_length_b   8.99893347
_cell_length_c   15.58092958
_cell_angle_alpha   90.00000000
_cell_angle_beta   90.00000000
_cell_angle_gamma   90.00000000
_symmetry_Int_Tables_number   1
_chemical_formula_structural   SrGaBO4
_chemical_formula_sum   'Sr8 Ga8 B8 O32'
_cell_volume   824.26684513
_cell_formula_units_Z   8
loop_
 _symmetry_equiv_pos_site_id
 _symmetry_equiv_pos_as_xyz
  1  'x, y, z'
loop_
 _atom_site_type_symbol
 _atom_site_label
 _atom_site_symmetry_multiplicity
 _atom_site_fract_x
 _atom_site_fract_y
 _atom_site_fract_z
 _atom_site_occupancy
  Sr  Sr0  1  0.392088  0.384263  0.649988  1
  Sr  Sr1  1  0.607912  0.884263  0.149988  1
  Sr  Sr2  1  0.607912  0.615737  0.350012  1
  Sr  Sr3  1  0.892088  0.384263  0.850012  1
  Sr  Sr4  1  0.107912  0.884263  0.350012  1
  Sr  Sr5  1  0.392088  0.115737  0.850012  1
  Sr  Sr6  1  0.892088  0.115737  0.649988  1
  Sr  Sr7  1  0.107912  0.615737  0.149988  1
  Ga  Ga8  1  0.367537  0.260718  0.050531  1
  Ga  Ga9  1  0.132463  0.739282  0.550531  1
  Ga  Ga10  1  0.867537  0.239282  0.050531  1
  Ga  Ga11  1  0.632463  0.739282  0.949469  1
  Ga  Ga12  1  0.632463  0.760718  0.550531  1
  Ga  Ga13  1  0.867537  0.260718  0.449469  1
  Ga  Ga14  1  0.367537  0.239282  0.449469  1
  Ga  Ga15  1  0.132463  0.760718  0.949469  1
  B  B16  1  0.128283  0.019144  0.143230  1
  B  B17  1  0.371717  0.519144  0.856770  1
  B  B18  1  0.871717  0.980856  0.856770  1
  B  B19  1  0.871717  0.519144  0.643230  1
  B  B20  1  0.628283  0.019144  0.356770  1
  B  B21  1  0.128283  0.480856  0.356770  1
  B  B22  1  0.628283  0.480856  0.143230  1
  B  B23  1  0.371717  0.980856  0.643230  1
  O  O24  1  0.585661  0.571541  0.881885  1
  O  O25  1  0.914339  0.428459  0.381885  1
  O  O26  1  0.327942  0.405087  0.377604  1
  O  O27  1  0.356979  0.110560  0.689283  1
  O  O28  1  0.585661  0.928459  0.618115  1
  O  O29  1  0.672058  0.594913  0.622396  1
  O  O30  1  0.615471  0.274667  0.519768  1
  O  O31  1  0.643021  0.610560  0.189283  1
  O  O32  1  0.172058  0.905087  0.622396  1
  O  O33  1  0.115471  0.225333  0.519768  1
  O  O34  1  0.914339  0.071541  0.118115  1
  O  O35  1  0.884529  0.725333  0.019768  1
  O  O36  1  0.115471  0.274667  0.980232  1
  O  O37  1  0.884529  0.774667  0.480232  1
  O  O38  1  0.856979  0.389440  0.689283  1
  O  O39  1  0.414339  0.071541  0.381885  1
  O  O40  1  0.356979  0.389440  0.810717  1
  O  O41  1  0.143021  0.610560  0.310717  1
  O  O42  1  0.384529  0.725333  0.480232  1
  O  O43  1  0.085661  0.928459  0.881885  1
  O  O44  1  0.172058  0.594913  0.877604  1
  O  O45  1  0.827942  0.405087  0.122396  1
  O  O46  1  0.672058  0.905087  0.877604  1
  O  O47  1  0.856979  0.110560  0.810717  1
  O  O48  1  0.143021  0.889440  0.189283  1
  O  O49  1  0.615471  0.225333  0.980232  1
  O  O50  1  0.085661  0.571541  0.618115  1
  O  O51  1  0.643021  0.889440  0.310717  1
  O  O52  1  0.827942  0.094913  0.377604  1
  O  O53  1  0.327942  0.094913  0.122396  1
  O  O54  1  0.414339  0.428459  0.118115  1
  O  O55  1  0.384529  0.774667  0.019768  1
