# generated using pymatgen
data_RbV(IO4)2
_symmetry_space_group_name_H-M   'P 1'
_cell_length_a   5.35695958
_cell_length_b   8.18956035
_cell_length_c   10.10594388
_cell_angle_alpha   109.23121620
_cell_angle_beta   91.15513318
_cell_angle_gamma   91.30715941
_symmetry_Int_Tables_number   1
_chemical_formula_structural   RbV(IO4)2
_chemical_formula_sum   'Rb2 V2 I4 O16'
_cell_volume   418.32973738
_cell_formula_units_Z   2
loop_
 _symmetry_equiv_pos_site_id
 _symmetry_equiv_pos_as_xyz
  1  'x, y, z'
loop_
 _atom_site_type_symbol
 _atom_site_label
 _atom_site_symmetry_multiplicity
 _atom_site_fract_x
 _atom_site_fract_y
 _atom_site_fract_z
 _atom_site_occupancy
  Rb  Rb0  1  0.258796  0.808827  0.085640  1
  Rb  Rb1  1  0.741204  0.191173  0.914360  1
  V  V2  1  0.766908  0.635869  0.305010  1
  V  V3  1  0.233092  0.364131  0.694990  1
  I  I4  1  0.669201  0.147643  0.441480  1
  I  I5  1  0.740651  0.629061  0.766839  1
  I  I6  1  0.259349  0.370939  0.233161  1
  I  I7  1  0.330799  0.852357  0.558520  1
  O  O8  1  0.335180  0.739066  0.688303  1
  O  O9  1  0.366377  0.032967  0.389466  1
  O  O10  1  0.068238  0.344467  0.547855  1
  O  O11  1  0.218658  0.172971  0.087885  1
  O  O12  1  0.517588  0.468980  0.160919  1
  O  O13  1  0.437788  0.670568  0.399935  1
  O  O14  1  0.004281  0.491410  0.174213  1
  O  O15  1  0.633623  0.967033  0.610534  1
  O  O16  1  0.781342  0.827029  0.912115  1
  O  O17  1  0.562212  0.329432  0.600065  1
  O  O18  1  0.802021  0.819587  0.269434  1
  O  O19  1  0.482412  0.531020  0.839081  1
  O  O20  1  0.995719  0.508590  0.825787  1
  O  O21  1  0.931762  0.655533  0.452145  1
  O  O22  1  0.664820  0.260934  0.311697  1
  O  O23  1  0.197979  0.180413  0.730566  1
