# generated using pymatgen
data_Na2Si4NiO10
_symmetry_space_group_name_H-M   'P 1'
_cell_length_a   7.02664361
_cell_length_b   7.71818006
_cell_length_c   9.86779880
_cell_angle_alpha   101.39913056
_cell_angle_beta   102.74052642
_cell_angle_gamma   115.30118175
_symmetry_Int_Tables_number   1
_chemical_formula_structural   Na2Si4NiO10
_chemical_formula_sum   'Na4 Si8 Ni2 O20'
_cell_volume   445.30731137
_cell_formula_units_Z   2
loop_
 _symmetry_equiv_pos_site_id
 _symmetry_equiv_pos_as_xyz
  1  'x, y, z'
loop_
 _atom_site_type_symbol
 _atom_site_label
 _atom_site_symmetry_multiplicity
 _atom_site_fract_x
 _atom_site_fract_y
 _atom_site_fract_z
 _atom_site_occupancy
  Na  Na0  1  0.342324  0.244043  0.023204  1
  Na  Na1  1  0.657676  0.755957  0.976796  1
  Na  Na2  1  0.741516  0.274032  0.419395  1
  Na  Na3  1  0.258484  0.725968  0.580605  1
  Si  Si4  1  0.760916  0.061265  0.804787  1
  Si  Si5  1  0.239084  0.938735  0.195213  1
  Si  Si6  1  0.916218  0.290569  0.141170  1
  Si  Si7  1  0.083782  0.709431  0.858830  1
  Si  Si8  1  0.603293  0.359265  0.740099  1
  Si  Si9  1  0.396707  0.640735  0.259901  1
  Si  Si10  1  0.186337  0.379720  0.749575  1
  Si  Si11  1  0.813663  0.620280  0.250425  1
  Ni  Ni12  1  0.255548  0.314738  0.422839  1
  Ni  Ni13  1  0.744452  0.685262  0.577161  1
  O  O14  1  0.794414  0.102428  0.982641  1
  O  O15  1  0.205586  0.897572  0.017359  1
  O  O16  1  0.588661  0.138354  0.731191  1
  O  O17  1  0.411339  0.861646  0.268809  1
  O  O18  1  0.345848  0.177507  0.270410  1
  O  O19  1  0.654152  0.822493  0.729590  1
  O  O20  1  0.948327  0.215527  0.278775  1
  O  O21  1  0.051673  0.784473  0.721225  1
  O  O22  1  0.564993  0.389500  0.581022  1
  O  O23  1  0.435007  0.610500  0.418978  1
  O  O24  1  0.117236  0.360286  0.580172  1
  O  O25  1  0.882764  0.639714  0.419828  1
  O  O26  1  0.753892  0.396762  0.140251  1
  O  O27  1  0.246108  0.603238  0.859749  1
  O  O28  1  0.419974  0.371583  0.816327  1
  O  O29  1  0.580026  0.628417  0.183673  1
  O  O30  1  0.156453  0.459144  0.135105  1
  O  O31  1  0.843547  0.540856  0.864895  1
  O  O32  1  0.007704  0.201711  0.795747  1
  O  O33  1  0.992296  0.798289  0.204253  1
