# generated using pymatgen
data_Cu3P4S4I3
_symmetry_space_group_name_H-M   'P 1'
_cell_length_a   19.44566861
_cell_length_b   19.44566861
_cell_length_c   6.89233812
_cell_angle_alpha   90.00000000
_cell_angle_beta   90.00000000
_cell_angle_gamma   120.00000000
_symmetry_Int_Tables_number   1
_chemical_formula_structural   Cu3P4S4I3
_chemical_formula_sum   'Cu18 P24 S24 I18'
_cell_volume   2257.05928785
_cell_formula_units_Z   6
loop_
 _symmetry_equiv_pos_site_id
 _symmetry_equiv_pos_as_xyz
  1  'x, y, z'
loop_
 _atom_site_type_symbol
 _atom_site_label
 _atom_site_symmetry_multiplicity
 _atom_site_fract_x
 _atom_site_fract_y
 _atom_site_fract_z
 _atom_site_occupancy
  Cu  Cu0  1  0.871787  0.871787  0.809611  1
  Cu  Cu1  1  0.871787  0.000000  0.309611  1
  Cu  Cu2  1  0.332555  0.536231  0.987589  1
  Cu  Cu3  1  0.000000  0.128213  0.809611  1
  Cu  Cu4  1  0.463769  0.796324  0.987589  1
  Cu  Cu5  1  0.667445  0.203676  0.987589  1
  Cu  Cu6  1  0.463769  0.667445  0.487589  1
  Cu  Cu7  1  0.536231  0.203676  0.487589  1
  Cu  Cu8  1  0.667445  0.463769  0.487589  1
  Cu  Cu9  1  0.796324  0.332555  0.487589  1
  Cu  Cu10  1  0.332555  0.796324  0.487589  1
  Cu  Cu11  1  0.128213  0.000000  0.809611  1
  Cu  Cu12  1  0.203676  0.536231  0.487589  1
  Cu  Cu13  1  0.796324  0.463769  0.987589  1
  Cu  Cu14  1  0.128213  0.128213  0.309611  1
  Cu  Cu15  1  0.536231  0.332555  0.987589  1
  Cu  Cu16  1  0.000000  0.871787  0.309611  1
  Cu  Cu17  1  0.203676  0.667445  0.987589  1
  P  P18  1  0.427234  0.335516  0.068952  1
  P  P19  1  0.427234  0.091719  0.568952  1
  P  P20  1  0.335516  0.908281  0.568952  1
  P  P21  1  0.399945  0.000000  0.810388  1
  P  P22  1  0.091719  0.664484  0.068952  1
  P  P23  1  0.000000  0.763013  0.218199  1
  P  P24  1  0.335516  0.427234  0.068952  1
  P  P25  1  0.000000  0.236987  0.718199  1
  P  P26  1  0.600055  0.600055  0.810388  1
  P  P27  1  0.763013  0.000000  0.218199  1
  P  P28  1  0.763013  0.763013  0.718199  1
  P  P29  1  0.664484  0.572766  0.568952  1
  P  P30  1  0.908281  0.335516  0.568952  1
  P  P31  1  0.000000  0.399945  0.810388  1
  P  P32  1  0.600055  0.000000  0.310388  1
  P  P33  1  0.091719  0.427234  0.568952  1
  P  P34  1  0.399945  0.399945  0.310388  1
  P  P35  1  0.908281  0.572766  0.068952  1
  P  P36  1  0.000000  0.600055  0.310388  1
  P  P37  1  0.572766  0.908281  0.068952  1
  P  P38  1  0.572766  0.664484  0.568952  1
  P  P39  1  0.664484  0.091719  0.068952  1
  P  P40  1  0.236987  0.236987  0.218199  1
  P  P41  1  0.236987  0.000000  0.718199  1
  S  S42  1  0.307369  0.307369  0.457920  1
  S  S43  1  0.897703  0.676350  0.066718  1
  S  S44  1  0.410409  0.410409  0.869936  1
  S  S45  1  0.410409  0.000000  0.369936  1
  S  S46  1  0.692631  0.000000  0.457920  1
  S  S47  1  0.897703  0.221352  0.566718  1
  S  S48  1  0.000000  0.410409  0.369936  1
  S  S49  1  0.676350  0.778648  0.566718  1
  S  S50  1  0.589591  0.000000  0.869936  1
  S  S51  1  0.000000  0.692631  0.457920  1
  S  S52  1  0.000000  0.589591  0.869936  1
  S  S53  1  0.676350  0.897703  0.066718  1
  S  S54  1  0.102297  0.778648  0.066718  1
  S  S55  1  0.778648  0.676350  0.566718  1
  S  S56  1  0.221352  0.897703  0.566718  1
  S  S57  1  0.102297  0.323650  0.566718  1
  S  S58  1  0.323650  0.221352  0.066718  1
  S  S59  1  0.692631  0.692631  0.957920  1
  S  S60  1  0.307369  0.000000  0.957920  1
  S  S61  1  0.323650  0.102297  0.566718  1
  S  S62  1  0.589591  0.589591  0.369936  1
  S  S63  1  0.000000  0.307369  0.957920  1
  S  S64  1  0.221352  0.323650  0.066718  1
  S  S65  1  0.778648  0.102297  0.066718  1
  I  I66  1  0.334155  0.797132  0.099430  1
  I  I67  1  0.202868  0.665845  0.599430  1
  I  I68  1  0.665845  0.462977  0.099430  1
  I  I69  1  0.870899  0.000000  0.693987  1
  I  I70  1  0.334155  0.537023  0.599430  1
  I  I71  1  0.462977  0.797132  0.599430  1
  I  I72  1  0.537023  0.202868  0.099430  1
  I  I73  1  0.537023  0.334155  0.599430  1
  I  I74  1  0.870899  0.870899  0.193987  1
  I  I75  1  0.797132  0.462977  0.599430  1
  I  I76  1  0.000000  0.870899  0.693987  1
  I  I77  1  0.462977  0.665845  0.099430  1
  I  I78  1  0.665845  0.202868  0.599430  1
  I  I79  1  0.129101  0.129101  0.693987  1
  I  I80  1  0.202868  0.537023  0.099430  1
  I  I81  1  0.000000  0.129101  0.193987  1
  I  I82  1  0.129101  0.000000  0.193987  1
  I  I83  1  0.797132  0.334155  0.099430  1
