# generated using pymatgen
data_Ca5(ReO6)2
_symmetry_space_group_name_H-M   'P 1'
_cell_length_a   19.23257741
_cell_length_b   19.23257741
_cell_length_c   19.23257741
_cell_angle_alpha   29.08231115
_cell_angle_beta   29.08231115
_cell_angle_gamma   29.08231115
_symmetry_Int_Tables_number   1
_chemical_formula_structural   Ca5(ReO6)2
_chemical_formula_sum   'Ca30 Re12 O72'
_cell_volume   1486.78010201
_cell_formula_units_Z   6
loop_
 _symmetry_equiv_pos_site_id
 _symmetry_equiv_pos_as_xyz
  1  'x, y, z'
loop_
 _atom_site_type_symbol
 _atom_site_label
 _atom_site_symmetry_multiplicity
 _atom_site_fract_x
 _atom_site_fract_y
 _atom_site_fract_z
 _atom_site_occupancy
  Ca  Ca0  1  0.535968  0.826053  0.200608  1
  Ca  Ca1  1  0.826053  0.200608  0.535968  1
  Ca  Ca2  1  0.781246  0.079275  0.492004  1
  Ca  Ca3  1  0.104049  0.104049  0.104049  1
  Ca  Ca4  1  0.920725  0.507996  0.218754  1
  Ca  Ca5  1  0.507996  0.218754  0.920725  1
  Ca  Ca6  1  0.964032  0.299392  0.673947  1
  Ca  Ca7  1  0.673947  0.964032  0.299392  1
  Ca  Ca8  1  0.895951  0.895951  0.895951  1
  Ca  Ca9  1  0.579275  0.281246  0.992004  1
  Ca  Ca10  1  0.035968  0.700608  0.326053  1
  Ca  Ca11  1  0.173947  0.799392  0.464032  1
  Ca  Ca12  1  0.200608  0.535968  0.826053  1
  Ca  Ca13  1  0.700608  0.326053  0.035968  1
  Ca  Ca14  1  0.250000  0.250000  0.250000  1
  Ca  Ca15  1  0.718754  0.007996  0.420725  1
  Ca  Ca16  1  0.326053  0.035968  0.700608  1
  Ca  Ca17  1  0.079275  0.492004  0.781246  1
  Ca  Ca18  1  0.218754  0.920725  0.507996  1
  Ca  Ca19  1  0.992004  0.579275  0.281246  1
  Ca  Ca20  1  0.420725  0.718754  0.007996  1
  Ca  Ca21  1  0.799392  0.464032  0.173947  1
  Ca  Ca22  1  0.007996  0.420725  0.718754  1
  Ca  Ca23  1  0.604049  0.604049  0.604049  1
  Ca  Ca24  1  0.395951  0.395951  0.395951  1
  Ca  Ca25  1  0.492004  0.781246  0.079275  1
  Ca  Ca26  1  0.281246  0.992004  0.579275  1
  Ca  Ca27  1  0.299392  0.673947  0.964032  1
  Ca  Ca28  1  0.750000  0.750000  0.750000  1
  Ca  Ca29  1  0.464032  0.173947  0.799392  1
  Re  Re30  1  0.160928  0.160928  0.160928  1
  Re  Re31  1  0.584097  0.915903  0.250000  1
  Re  Re32  1  0.084097  0.750000  0.415903  1
  Re  Re33  1  0.839072  0.839072  0.839072  1
  Re  Re34  1  0.000000  0.000000  0.000000  1
  Re  Re35  1  0.250000  0.584097  0.915903  1
  Re  Re36  1  0.500000  0.500000  0.500000  1
  Re  Re37  1  0.660928  0.660928  0.660928  1
  Re  Re38  1  0.415903  0.084097  0.750000  1
  Re  Re39  1  0.750000  0.415903  0.084097  1
  Re  Re40  1  0.339072  0.339072  0.339072  1
  Re  Re41  1  0.915903  0.250000  0.584097  1
  O  O42  1  0.647771  0.320805  0.473532  1
  O  O43  1  0.057669  0.027052  0.667050  1
  O  O44  1  0.032589  0.226139  0.414045  1
  O  O45  1  0.026468  0.179195  0.852229  1
  O  O46  1  0.231297  0.790924  0.299603  1
  O  O47  1  0.709076  0.268703  0.200397  1
  O  O48  1  0.679195  0.526468  0.352229  1
  O  O49  1  0.069146  0.322197  0.026791  1
  O  O50  1  0.667050  0.057669  0.027052  1
  O  O51  1  0.973532  0.820805  0.147771  1
  O  O52  1  0.990697  0.301950  0.242193  1
  O  O53  1  0.009303  0.698050  0.757807  1
  O  O54  1  0.257807  0.198050  0.509303  1
  O  O55  1  0.085955  0.273861  0.467411  1
  O  O56  1  0.177803  0.430854  0.473209  1
  O  O57  1  0.726139  0.532589  0.914045  1
  O  O58  1  0.773861  0.585955  0.967411  1
  O  O59  1  0.585955  0.967411  0.773861  1
  O  O60  1  0.430854  0.473209  0.177803  1
  O  O61  1  0.352229  0.679195  0.526468  1
  O  O62  1  0.442331  0.832950  0.472948  1
  O  O63  1  0.557669  0.167050  0.527052  1
  O  O64  1  0.301950  0.242193  0.990697  1
  O  O65  1  0.930854  0.677803  0.973209  1
  O  O66  1  0.677803  0.973209  0.930854  1
  O  O67  1  0.942331  0.972948  0.332950  1
  O  O68  1  0.027052  0.667050  0.057669  1
  O  O69  1  0.799603  0.290924  0.731297  1
  O  O70  1  0.967411  0.773861  0.585955  1
  O  O71  1  0.322197  0.026791  0.069146  1
  O  O72  1  0.320805  0.473532  0.647771  1
  O  O73  1  0.273861  0.467411  0.085955  1
  O  O74  1  0.026791  0.069146  0.322197  1
  O  O75  1  0.198050  0.509303  0.257807  1
  O  O76  1  0.852229  0.026468  0.179195  1
  O  O77  1  0.526468  0.352229  0.679195  1
  O  O78  1  0.820805  0.147771  0.973532  1
  O  O79  1  0.147771  0.973532  0.820805  1
  O  O80  1  0.226139  0.414045  0.032589  1
  O  O81  1  0.200397  0.709076  0.268703  1
  O  O82  1  0.569146  0.526791  0.822197  1
  O  O83  1  0.731297  0.799603  0.290924  1
  O  O84  1  0.972948  0.332950  0.942331  1
  O  O85  1  0.801950  0.490697  0.742193  1
  O  O86  1  0.490697  0.742193  0.801950  1
  O  O87  1  0.768703  0.209076  0.700397  1
  O  O88  1  0.472948  0.442331  0.832950  1
  O  O89  1  0.822197  0.569146  0.526791  1
  O  O90  1  0.473532  0.647771  0.320805  1
  O  O91  1  0.698050  0.757807  0.009303  1
  O  O92  1  0.527052  0.557669  0.167050  1
  O  O93  1  0.467411  0.085955  0.273861  1
  O  O94  1  0.509303  0.257807  0.198050  1
  O  O95  1  0.209076  0.700397  0.768703  1
  O  O96  1  0.414045  0.032589  0.226139  1
  O  O97  1  0.268703  0.200397  0.709076  1
  O  O98  1  0.179195  0.852229  0.026468  1
  O  O99  1  0.332950  0.942331  0.972948  1
  O  O100  1  0.742193  0.801950  0.490697  1
  O  O101  1  0.973209  0.930854  0.677803  1
  O  O102  1  0.832950  0.472948  0.442331  1
  O  O103  1  0.790924  0.299603  0.231297  1
  O  O104  1  0.532589  0.914045  0.726139  1
  O  O105  1  0.473209  0.177803  0.430854  1
  O  O106  1  0.914045  0.726139  0.532589  1
  O  O107  1  0.757807  0.009303  0.698050  1
  O  O108  1  0.299603  0.231297  0.790924  1
  O  O109  1  0.700397  0.768703  0.209076  1
  O  O110  1  0.290924  0.731297  0.799603  1
  O  O111  1  0.242193  0.990697  0.301950  1
  O  O112  1  0.167050  0.527052  0.557669  1
  O  O113  1  0.526791  0.822197  0.569146  1
