# generated using pymatgen
data_Ba3Nb2(P2O9)2
_symmetry_space_group_name_H-M   'P 1'
_cell_length_a   4.97169400
_cell_length_b   9.19303955
_cell_length_c   9.68435095
_cell_angle_alpha   88.41670276
_cell_angle_beta   101.19710135
_cell_angle_gamma   101.62484076
_symmetry_Int_Tables_number   1
_chemical_formula_structural   Ba3Nb2(P2O9)2
_chemical_formula_sum   'Ba3 Nb2 P4 O18'
_cell_volume   425.26099644
_cell_formula_units_Z   1
loop_
 _symmetry_equiv_pos_site_id
 _symmetry_equiv_pos_as_xyz
  1  'x, y, z'
loop_
 _atom_site_type_symbol
 _atom_site_label
 _atom_site_symmetry_multiplicity
 _atom_site_fract_x
 _atom_site_fract_y
 _atom_site_fract_z
 _atom_site_occupancy
  Ba  Ba0  1  0.047830  0.282811  0.910542  1
  Ba  Ba1  1  0.500000  0.500000  0.500000  1
  Ba  Ba2  1  0.952170  0.717189  0.089458  1
  Nb  Nb3  1  0.743572  0.891655  0.728533  1
  Nb  Nb4  1  0.256428  0.108345  0.271467  1
  P  P5  1  0.808252  0.366294  0.217457  1
  P  P6  1  0.690599  0.865436  0.359482  1
  P  P7  1  0.309401  0.134564  0.640518  1
  P  P8  1  0.191748  0.633706  0.782543  1
  O  O9  1  0.557637  0.004714  0.362806  1
  O  O10  1  0.011078  0.506273  0.687177  1
  O  O11  1  0.737653  0.937876  0.905166  1
  O  O12  1  0.242293  0.191840  0.489549  1
  O  O13  1  0.961646  0.233439  0.210714  1
  O  O14  1  0.970429  0.922449  0.303147  1
  O  O15  1  0.456356  0.694666  0.715065  1
  O  O16  1  0.277756  0.586376  0.935061  1
  O  O17  1  0.262347  0.062124  0.094834  1
  O  O18  1  0.442363  0.995286  0.637194  1
  O  O19  1  0.490100  0.256835  0.741181  1
  O  O20  1  0.757707  0.808160  0.510451  1
  O  O21  1  0.038354  0.766561  0.789286  1
  O  O22  1  0.029571  0.077551  0.696853  1
  O  O23  1  0.722244  0.413624  0.064939  1
  O  O24  1  0.988922  0.493727  0.312823  1
  O  O25  1  0.509900  0.743165  0.258819  1
  O  O26  1  0.543644  0.305334  0.284935  1
