# generated using pymatgen
data_TmSeO3F
_symmetry_space_group_name_H-M   'P 1'
_cell_length_a   6.58846400
_cell_length_b   6.92551036
_cell_length_c   7.16186427
_cell_angle_alpha   90.00000000
_cell_angle_beta   98.32041740
_cell_angle_gamma   90.00000000
_symmetry_Int_Tables_number   1
_chemical_formula_structural   TmSeO3F
_chemical_formula_sum   'Tm4 Se4 O12 F4'
_cell_volume   323.34530434
_cell_formula_units_Z   4
loop_
 _symmetry_equiv_pos_site_id
 _symmetry_equiv_pos_as_xyz
  1  'x, y, z'
loop_
 _atom_site_type_symbol
 _atom_site_label
 _atom_site_symmetry_multiplicity
 _atom_site_fract_x
 _atom_site_fract_y
 _atom_site_fract_z
 _atom_site_occupancy
  Tm  Tm0  1  0.861905  0.859011  0.175339  1
  Tm  Tm1  1  0.138095  0.140989  0.824661  1
  Tm  Tm2  1  0.861905  0.640989  0.675339  1
  Tm  Tm3  1  0.138095  0.359011  0.324661  1
  Se  Se4  1  0.351513  0.880444  0.289760  1
  Se  Se5  1  0.351513  0.619556  0.789760  1
  Se  Se6  1  0.648487  0.119556  0.710240  1
  Se  Se7  1  0.648487  0.380444  0.210240  1
  O  O8  1  0.172103  0.469515  0.647299  1
  O  O9  1  0.827897  0.530485  0.352701  1
  O  O10  1  0.826016  0.192285  0.220855  1
  O  O11  1  0.826016  0.307715  0.720855  1
  O  O12  1  0.518242  0.813928  0.138916  1
  O  O13  1  0.172103  0.030485  0.147299  1
  O  O14  1  0.173984  0.692285  0.279145  1
  O  O15  1  0.518242  0.686072  0.638916  1
  O  O16  1  0.827897  0.969515  0.852701  1
  O  O17  1  0.481758  0.186072  0.861084  1
  O  O18  1  0.481758  0.313928  0.361084  1
  O  O19  1  0.173984  0.807715  0.779145  1
  F  F20  1  0.834720  0.620436  0.973766  1
  F  F21  1  0.165280  0.379564  0.026234  1
  F  F22  1  0.165280  0.120436  0.526234  1
  F  F23  1  0.834720  0.879564  0.473766  1
