# generated using pymatgen
data_SrB2F8
_symmetry_space_group_name_H-M   'P 1'
_cell_length_a   9.31923107
_cell_length_b   9.76466221
_cell_length_c   13.99792721
_cell_angle_alpha   90.00000000
_cell_angle_beta   90.00000000
_cell_angle_gamma   90.00000000
_symmetry_Int_Tables_number   1
_chemical_formula_structural   SrB2F8
_chemical_formula_sum   'Sr8 B16 F64'
_cell_volume   1273.79938626
_cell_formula_units_Z   8
loop_
 _symmetry_equiv_pos_site_id
 _symmetry_equiv_pos_as_xyz
  1  'x, y, z'
loop_
 _atom_site_type_symbol
 _atom_site_label
 _atom_site_symmetry_multiplicity
 _atom_site_fract_x
 _atom_site_fract_y
 _atom_site_fract_z
 _atom_site_occupancy
  Sr  Sr0  1  0.280259  0.965188  0.396530  1
  Sr  Sr1  1  0.780259  0.034812  0.103470  1
  Sr  Sr2  1  0.219741  0.465188  0.603470  1
  Sr  Sr3  1  0.719741  0.534812  0.896530  1
  Sr  Sr4  1  0.280259  0.465188  0.103470  1
  Sr  Sr5  1  0.780259  0.534812  0.396530  1
  Sr  Sr6  1  0.219741  0.965188  0.896530  1
  Sr  Sr7  1  0.719741  0.034812  0.603470  1
  B  B8  1  0.004964  0.277146  0.939989  1
  B  B9  1  0.495036  0.277146  0.439989  1
  B  B10  1  0.504964  0.222854  0.939989  1
  B  B11  1  0.816978  0.396794  0.656788  1
  B  B12  1  0.504964  0.722854  0.560011  1
  B  B13  1  0.316978  0.103206  0.656788  1
  B  B14  1  0.995036  0.222854  0.439989  1
  B  B15  1  0.316978  0.603206  0.843212  1
  B  B16  1  0.004964  0.777146  0.560011  1
  B  B17  1  0.183022  0.103206  0.156788  1
  B  B18  1  0.183022  0.603206  0.343212  1
  B  B19  1  0.683022  0.396794  0.156788  1
  B  B20  1  0.495036  0.777146  0.060011  1
  B  B21  1  0.995036  0.722854  0.060011  1
  B  B22  1  0.816978  0.896794  0.843212  1
  B  B23  1  0.683022  0.896794  0.343212  1
  F  F24  1  0.103885  0.702810  0.616303  1
  F  F25  1  0.908261  0.682455  0.517126  1
  F  F26  1  0.532365  0.415204  0.163348  1
  F  F27  1  0.591739  0.682455  0.017126  1
  F  F28  1  0.922496  0.149709  0.512794  1
  F  F29  1  0.252624  0.012779  0.220748  1
  F  F30  1  0.603885  0.297190  0.883697  1
  F  F31  1  0.077504  0.850291  0.487206  1
  F  F32  1  0.728367  0.424130  0.061966  1
  F  F33  1  0.103885  0.202810  0.883697  1
  F  F34  1  0.091739  0.817545  0.017126  1
  F  F35  1  0.896115  0.797190  0.116303  1
  F  F36  1  0.922496  0.649709  0.987206  1
  F  F37  1  0.408261  0.317545  0.982874  1
  F  F38  1  0.228367  0.075870  0.061966  1
  F  F39  1  0.422496  0.850291  0.987206  1
  F  F40  1  0.967635  0.915204  0.836652  1
  F  F41  1  0.219507  0.239921  0.180725  1
  F  F42  1  0.719507  0.260079  0.180725  1
  F  F43  1  0.719507  0.760079  0.319275  1
  F  F44  1  0.280493  0.239921  0.680725  1
  F  F45  1  0.747376  0.987221  0.779252  1
  F  F46  1  0.747376  0.487221  0.720748  1
  F  F47  1  0.032365  0.084796  0.163348  1
  F  F48  1  0.780493  0.260079  0.680725  1
  F  F49  1  0.408261  0.817545  0.517126  1
  F  F50  1  0.072677  0.129783  0.382431  1
  F  F51  1  0.219507  0.739921  0.319275  1
  F  F52  1  0.771633  0.924130  0.938034  1
  F  F53  1  0.280493  0.739921  0.819275  1
  F  F54  1  0.077504  0.350291  0.012794  1
  F  F55  1  0.927323  0.870217  0.617569  1
  F  F56  1  0.577504  0.649709  0.487206  1
  F  F57  1  0.422496  0.350291  0.512794  1
  F  F58  1  0.572677  0.870217  0.117569  1
  F  F59  1  0.896115  0.297190  0.383697  1
  F  F60  1  0.780493  0.760079  0.819275  1
  F  F61  1  0.091739  0.317545  0.482874  1
  F  F62  1  0.771633  0.424130  0.561966  1
  F  F63  1  0.427323  0.629783  0.617569  1
  F  F64  1  0.271633  0.575870  0.938034  1
  F  F65  1  0.577504  0.149709  0.012794  1
  F  F66  1  0.252624  0.512779  0.279252  1
  F  F67  1  0.467635  0.084796  0.663348  1
  F  F68  1  0.427323  0.129783  0.882431  1
  F  F69  1  0.396115  0.202810  0.383697  1
  F  F70  1  0.967635  0.415204  0.663348  1
  F  F71  1  0.927323  0.370217  0.882431  1
  F  F72  1  0.228367  0.575870  0.438034  1
  F  F73  1  0.752624  0.487221  0.220748  1
  F  F74  1  0.467635  0.584796  0.836652  1
  F  F75  1  0.396115  0.702810  0.116303  1
  F  F76  1  0.728367  0.924130  0.438034  1
  F  F77  1  0.591739  0.182455  0.482874  1
  F  F78  1  0.532365  0.915204  0.336652  1
  F  F79  1  0.072677  0.629783  0.117569  1
  F  F80  1  0.032365  0.584796  0.336652  1
  F  F81  1  0.572677  0.370217  0.382431  1
  F  F82  1  0.271633  0.075870  0.561966  1
  F  F83  1  0.752624  0.987221  0.279252  1
  F  F84  1  0.247376  0.512779  0.779252  1
  F  F85  1  0.603885  0.797190  0.616303  1
  F  F86  1  0.908261  0.182455  0.982874  1
  F  F87  1  0.247376  0.012779  0.720748  1
