# generated using pymatgen
data_CaTeO3
_symmetry_space_group_name_H-M   'P 1'
_cell_length_a   10.45599309
_cell_length_b   11.46656335
_cell_length_c   14.21803669
_cell_angle_alpha   78.07817349
_cell_angle_beta   85.12928003
_cell_angle_gamma   72.65453017
_symmetry_Int_Tables_number   1
_chemical_formula_structural   CaTeO3
_chemical_formula_sum   'Ca18 Te18 O54'
_cell_volume   1591.54807036
_cell_formula_units_Z   18
loop_
 _symmetry_equiv_pos_site_id
 _symmetry_equiv_pos_as_xyz
  1  'x, y, z'
loop_
 _atom_site_type_symbol
 _atom_site_label
 _atom_site_symmetry_multiplicity
 _atom_site_fract_x
 _atom_site_fract_y
 _atom_site_fract_z
 _atom_site_occupancy
  Ca  Ca0  1  0.906202  0.375623  0.569102  1
  Ca  Ca1  1  0.399188  0.628074  0.080056  1
  Ca  Ca2  1  0.251293  0.416460  0.264634  1
  Ca  Ca3  1  0.725555  0.117065  0.756578  1
  Ca  Ca4  1  0.886506  0.962588  0.319591  1
  Ca  Ca5  1  0.058194  0.143992  0.404806  1
  Ca  Ca6  1  0.458910  0.061709  0.346650  1
  Ca  Ca7  1  0.067200  0.638101  0.425671  1
  Ca  Ca8  1  0.608842  0.363092  0.925370  1
  Ca  Ca9  1  0.433477  0.129544  0.072002  1
  Ca  Ca10  1  0.284672  0.876917  0.238805  1
  Ca  Ca11  1  0.928958  0.868155  0.592121  1
  Ca  Ca12  1  0.818008  0.034547  0.021505  1
  Ca  Ca13  1  0.757704  0.578474  0.745404  1
  Ca  Ca14  1  0.534680  0.935787  0.649330  1
  Ca  Ca15  1  0.190217  0.961044  0.977418  1
  Ca  Ca16  1  0.139137  0.038981  0.672023  1
  Ca  Ca17  1  0.574127  0.865832  0.925167  1
  Te  Te18  1  0.610743  0.828291  0.163723  1
  Te  Te19  1  0.611154  0.253809  0.198408  1
  Te  Te20  1  0.741269  0.158354  0.522566  1
  Te  Te21  1  0.400121  0.163381  0.832819  1
  Te  Te22  1  0.109315  0.562743  0.670882  1
  Te  Te23  1  0.222926  0.475783  0.978678  1
  Te  Te24  1  0.245092  0.849346  0.469676  1
  Te  Te25  1  0.063652  0.179477  0.132847  1
  Te  Te26  1  0.035762  0.735878  0.141877  1
  Te  Te27  1  0.278541  0.260554  0.529860  1
  Te  Te28  1  0.529929  0.459997  0.649887  1
  Te  Te29  1  0.888755  0.444247  0.321041  1
  Te  Te30  1  0.782832  0.518480  0.028646  1
  Te  Te31  1  0.455737  0.537270  0.361924  1
  Te  Te32  1  0.693491  0.755636  0.481689  1
  Te  Te33  1  0.396955  0.729993  0.809203  1
  Te  Te34  1  0.948030  0.825152  0.860370  1
  Te  Te35  1  0.968388  0.261319  0.853947  1
  O  O36  1  0.704309  0.744054  0.614710  1
  O  O37  1  0.681219  0.490779  0.580532  1
  O  O38  1  0.394473  0.497068  0.949399  1
  O  O39  1  0.430165  0.511485  0.238401  1
  O  O40  1  0.215654  0.518763  0.101168  1
  O  O41  1  0.488646  0.949974  0.224332  1
  O  O42  1  0.107765  0.230907  0.533890  1
  O  O43  1  0.527993  0.205308  0.895358  1
  O  O44  1  0.003024  0.103217  0.251922  1
  O  O45  1  0.876140  0.052809  0.455528  1
  O  O46  1  0.116797  0.956469  0.539754  1
  O  O47  1  0.099712  0.123387  0.814197  1
  O  O48  1  0.613822  0.492281  0.059672  1
  O  O49  1  0.716403  0.019074  0.616595  1
  O  O50  1  0.072190  0.627290  0.262285  1
  O  O51  1  0.635262  0.947907  0.055527  1
  O  O52  1  0.920458  0.372273  0.735367  1
  O  O53  1  0.290309  0.515207  0.413223  1
  O  O54  1  0.368163  0.048184  0.942512  1
  O  O55  1  0.578928  0.481505  0.768922  1
  O  O56  1  0.672937  0.098998  0.283478  1
  O  O57  1  0.330861  0.242070  0.401765  1
  O  O58  1  0.050717  0.498257  0.577611  1
  O  O59  1  0.353872  0.098318  0.597162  1
  O  O60  1  0.255280  0.303134  0.004551  1
  O  O61  1  0.062064  0.344336  0.292359  1
  O  O62  1  0.009944  0.894920  0.951383  1
  O  O63  1  0.949427  0.654902  0.724189  1
  O  O64  1  0.790239  0.475231  0.906377  1
  O  O65  1  0.989485  0.916092  0.740571  1
  O  O66  1  0.271862  0.987722  0.375675  1
  O  O67  1  0.566631  0.914452  0.469880  1
  O  O68  1  0.906035  0.877933  0.178185  1
  O  O69  1  0.813503  0.199797  0.873864  1
  O  O70  1  0.999597  0.107636  0.044542  1
  O  O71  1  0.237837  0.068431  0.133308  1
  O  O72  1  0.851872  0.185738  0.610049  1
  O  O73  1  0.330726  0.879244  0.720158  1
  O  O74  1  0.128043  0.827842  0.382024  1
  O  O75  1  0.770601  0.926653  0.868439  1
  O  O76  1  0.843777  0.312387  0.407470  1
  O  O77  1  0.916294  0.521151  0.418301  1
  O  O78  1  0.430495  0.247570  0.203755  1
  O  O79  1  0.744820  0.691915  0.003599  1
  O  O80  1  0.574649  0.743319  0.801674  1
  O  O81  1  0.649981  0.204419  0.076499  1
  O  O82  1  0.355478  0.786000  0.928551  1
  O  O83  1  0.192172  0.794482  0.126465  1
  O  O84  1  0.473400  0.790129  0.109120  1
  O  O85  1  0.856911  0.799289  0.447496  1
  O  O86  1  0.526951  0.036264  0.780759  1
  O  O87  1  0.133795  0.700518  0.579290  1
  O  O88  1  0.428930  0.710086  0.339606  1
  O  O89  1  0.559436  0.286670  0.669626  1
