# generated using pymatgen
data_RbYbI3
_symmetry_space_group_name_H-M   'P 1'
_cell_length_a   4.67126875
_cell_length_b   10.63430038
_cell_length_c   17.50834027
_cell_angle_alpha   90.00000000
_cell_angle_beta   90.00000000
_cell_angle_gamma   90.00000000
_symmetry_Int_Tables_number   1
_chemical_formula_structural   RbYbI3
_chemical_formula_sum   'Rb4 Yb4 I12'
_cell_volume   869.73862180
_cell_formula_units_Z   4
loop_
 _symmetry_equiv_pos_site_id
 _symmetry_equiv_pos_as_xyz
  1  'x, y, z'
loop_
 _atom_site_type_symbol
 _atom_site_label
 _atom_site_symmetry_multiplicity
 _atom_site_fract_x
 _atom_site_fract_y
 _atom_site_fract_z
 _atom_site_occupancy
  Rb  Rb0  1  0.750000  0.073160  0.321060  1
  Rb  Rb1  1  0.250000  0.926840  0.678940  1
  Rb  Rb2  1  0.250000  0.426840  0.821060  1
  Rb  Rb3  1  0.750000  0.573160  0.178940  1
  Yb  Yb4  1  0.750000  0.831830  0.945544  1
  Yb  Yb5  1  0.750000  0.331830  0.554456  1
  Yb  Yb6  1  0.250000  0.668170  0.445544  1
  Yb  Yb7  1  0.250000  0.168170  0.054456  1
  I  I8  1  0.250000  0.518275  0.603320  1
  I  I9  1  0.750000  0.704888  0.788405  1
  I  I10  1  0.750000  0.204888  0.711595  1
  I  I11  1  0.250000  0.166255  0.488967  1
  I  I12  1  0.250000  0.795112  0.288405  1
  I  I13  1  0.750000  0.833745  0.511033  1
  I  I14  1  0.250000  0.018275  0.896680  1
  I  I15  1  0.750000  0.333745  0.988967  1
  I  I16  1  0.750000  0.481725  0.396680  1
  I  I17  1  0.750000  0.981725  0.103320  1
  I  I18  1  0.250000  0.666255  0.011033  1
  I  I19  1  0.250000  0.295112  0.211595  1
