# generated using pymatgen
data_CoPO4
_symmetry_space_group_name_H-M   'P 1'
_cell_length_a   8.56592055
_cell_length_b   5.27213274
_cell_length_c   8.57940184
_cell_angle_alpha   90.00000000
_cell_angle_beta   105.91391652
_cell_angle_gamma   90.00000000
_symmetry_Int_Tables_number   1
_chemical_formula_structural   CoPO4
_chemical_formula_sum   'Co4 P4 O16'
_cell_volume   372.60235576
_cell_formula_units_Z   4
loop_
 _symmetry_equiv_pos_site_id
 _symmetry_equiv_pos_as_xyz
  1  'x, y, z'
loop_
 _atom_site_type_symbol
 _atom_site_label
 _atom_site_symmetry_multiplicity
 _atom_site_fract_x
 _atom_site_fract_y
 _atom_site_fract_z
 _atom_site_occupancy
  Co  Co0  1  0.867654  0.194023  0.370701  1
  Co  Co1  1  0.223382  0.305860  0.871771  1
  Co  Co2  1  0.723382  0.694140  0.871771  1
  Co  Co3  1  0.367654  0.805977  0.370701  1
  P  P4  1  0.993934  0.690535  0.240029  1
  P  P5  1  0.493934  0.309465  0.240029  1
  P  P6  1  0.845883  0.193442  0.742474  1
  P  P7  1  0.345883  0.806558  0.742474  1
  O  O8  1  0.509000  0.582552  0.309778  1
  O  O9  1  0.436747  0.134113  0.359372  1
  O  O10  1  0.514774  0.787423  0.868650  1
  O  O11  1  0.661945  0.228775  0.223324  1
  O  O12  1  0.161945  0.771225  0.223324  1
  O  O13  1  0.724203  0.359064  0.801768  1
  O  O14  1  0.786075  0.914855  0.728544  1
  O  O15  1  0.370331  0.295087  0.072675  1
  O  O16  1  0.009000  0.417448  0.309778  1
  O  O17  1  0.014774  0.212577  0.868650  1
  O  O18  1  0.356581  0.713249  0.575118  1
  O  O19  1  0.856581  0.286751  0.575118  1
  O  O20  1  0.936747  0.865887  0.359372  1
  O  O21  1  0.224203  0.640936  0.801768  1
  O  O22  1  0.870331  0.704913  0.072675  1
  O  O23  1  0.286075  0.085145  0.728544  1
