# generated using pymatgen
data_Ca2GeO4
_symmetry_space_group_name_H-M   'P 1'
_cell_length_a   5.29163104
_cell_length_b   6.84948560
_cell_length_c   11.51964293
_cell_angle_alpha   90.00000000
_cell_angle_beta   90.00000000
_cell_angle_gamma   90.00000000
_symmetry_Int_Tables_number   1
_chemical_formula_structural   Ca2GeO4
_chemical_formula_sum   'Ca8 Ge4 O16'
_cell_volume   417.52888903
_cell_formula_units_Z   4
loop_
 _symmetry_equiv_pos_site_id
 _symmetry_equiv_pos_as_xyz
  1  'x, y, z'
loop_
 _atom_site_type_symbol
 _atom_site_label
 _atom_site_symmetry_multiplicity
 _atom_site_fract_x
 _atom_site_fract_y
 _atom_site_fract_z
 _atom_site_occupancy
  Ca  Ca0  1  0.006775  0.750000  0.720146  1
  Ca  Ca1  1  0.993225  0.250000  0.279854  1
  Ca  Ca2  1  0.506775  0.250000  0.779854  1
  Ca  Ca3  1  0.493225  0.750000  0.220146  1
  Ca  Ca4  1  0.500000  0.500000  0.500000  1
  Ca  Ca5  1  0.000000  0.000000  0.000000  1
  Ca  Ca6  1  0.000000  0.500000  0.000000  1
  Ca  Ca7  1  0.500000  0.000000  0.500000  1
  Ge  Ge8  1  0.430667  0.250000  0.095994  1
  Ge  Ge9  1  0.930667  0.750000  0.404006  1
  Ge  Ge10  1  0.569333  0.750000  0.904006  1
  Ge  Ge11  1  0.069333  0.250000  0.595994  1
  O  O12  1  0.786470  0.750000  0.546322  1
  O  O13  1  0.783707  0.543621  0.336267  1
  O  O14  1  0.716293  0.543621  0.836267  1
  O  O15  1  0.735855  0.250000  0.592724  1
  O  O16  1  0.713530  0.750000  0.046322  1
  O  O17  1  0.283707  0.456379  0.163733  1
  O  O18  1  0.216293  0.456379  0.663733  1
  O  O19  1  0.264145  0.750000  0.407276  1
  O  O20  1  0.783707  0.956379  0.336267  1
  O  O21  1  0.235855  0.750000  0.907276  1
  O  O22  1  0.213530  0.250000  0.453678  1
  O  O23  1  0.716293  0.956379  0.836267  1
  O  O24  1  0.216293  0.043621  0.663733  1
  O  O25  1  0.286470  0.250000  0.953678  1
  O  O26  1  0.283707  0.043621  0.163733  1
  O  O27  1  0.764145  0.250000  0.092724  1
