# generated using pymatgen
data_RbMnPO4
_symmetry_space_group_name_H-M   'P 1'
_cell_length_a   9.11035069
_cell_length_b   5.54663703
_cell_length_c   9.34112154
_cell_angle_alpha   90.00000000
_cell_angle_beta   90.24050680
_cell_angle_gamma   90.00000000
_symmetry_Int_Tables_number   1
_chemical_formula_structural   RbMnPO4
_chemical_formula_sum   'Rb4 Mn4 P4 O16'
_cell_volume   472.01960652
_cell_formula_units_Z   4
loop_
 _symmetry_equiv_pos_site_id
 _symmetry_equiv_pos_as_xyz
  1  'x, y, z'
loop_
 _atom_site_type_symbol
 _atom_site_label
 _atom_site_symmetry_multiplicity
 _atom_site_fract_x
 _atom_site_fract_y
 _atom_site_fract_z
 _atom_site_occupancy
  Rb  Rb0  1  0.008244  0.880138  0.198490  1
  Rb  Rb1  1  0.490764  0.413080  0.689862  1
  Rb  Rb2  1  0.991756  0.380138  0.801510  1
  Rb  Rb3  1  0.509236  0.913080  0.310138  1
  Mn  Mn4  1  0.672154  0.907704  0.906587  1
  Mn  Mn5  1  0.327846  0.407704  0.093413  1
  Mn  Mn6  1  0.162005  0.863101  0.569887  1
  Mn  Mn7  1  0.837995  0.363101  0.430113  1
  P  P8  1  0.205594  0.401370  0.427892  1
  P  P9  1  0.794406  0.901370  0.572108  1
  P  P10  1  0.701800  0.408253  0.099104  1
  P  P11  1  0.298200  0.908253  0.900896  1
  O  O12  1  0.260372  0.177632  0.932413  1
  O  O13  1  0.188602  0.807416  0.787907  1
  O  O14  1  0.735315  0.686171  0.483205  1
  O  O15  1  0.304669  0.626492  0.453746  1
  O  O16  1  0.542871  0.387592  0.158129  1
  O  O17  1  0.803176  0.830766  0.732762  1
  O  O18  1  0.282693  0.762004  0.042637  1
  O  O19  1  0.457129  0.887592  0.841871  1
  O  O20  1  0.811398  0.307416  0.212093  1
  O  O21  1  0.739628  0.677632  0.067587  1
  O  O22  1  0.949497  0.983981  0.518033  1
  O  O23  1  0.695331  0.126492  0.546254  1
  O  O24  1  0.196824  0.330766  0.267238  1
  O  O25  1  0.264685  0.186171  0.516795  1
  O  O26  1  0.717307  0.262004  0.957363  1
  O  O27  1  0.050503  0.483981  0.481967  1
