# generated using pymatgen
data_Sb3O2F5
_symmetry_space_group_name_H-M   'P 1'
_cell_length_a   9.35513466
_cell_length_b   6.08715915
_cell_length_c   13.46085028
_cell_angle_alpha   90.00000000
_cell_angle_beta   108.91552965
_cell_angle_gamma   90.00000000
_symmetry_Int_Tables_number   1
_chemical_formula_structural   Sb3O2F5
_chemical_formula_sum   'Sb12 O8 F20'
_cell_volume   725.14890499
_cell_formula_units_Z   4
loop_
 _symmetry_equiv_pos_site_id
 _symmetry_equiv_pos_as_xyz
  1  'x, y, z'
loop_
 _atom_site_type_symbol
 _atom_site_label
 _atom_site_symmetry_multiplicity
 _atom_site_fract_x
 _atom_site_fract_y
 _atom_site_fract_z
 _atom_site_occupancy
  Sb  Sb0  1  0.250000  0.944097  0.000000  1
  Sb  Sb1  1  0.750000  0.055903  0.000000  1
  Sb  Sb2  1  0.384711  0.566632  0.791232  1
  Sb  Sb3  1  0.115289  0.566632  0.208768  1
  Sb  Sb4  1  0.615289  0.433368  0.208768  1
  Sb  Sb5  1  0.884711  0.433368  0.791232  1
  Sb  Sb6  1  0.250000  0.624230  0.500000  1
  Sb  Sb7  1  0.750000  0.375770  0.500000  1
  Sb  Sb8  1  0.088374  0.956754  0.637521  1
  Sb  Sb9  1  0.411626  0.956754  0.362479  1
  Sb  Sb10  1  0.911626  0.043246  0.362479  1
  Sb  Sb11  1  0.588374  0.043246  0.637521  1
  O  O12  1  0.280989  0.739550  0.660998  1
  O  O13  1  0.219011  0.739550  0.339002  1
  O  O14  1  0.719011  0.260450  0.339002  1
  O  O15  1  0.780989  0.260450  0.660998  1
  O  O16  1  0.421250  0.839005  0.507954  1
  O  O17  1  0.078750  0.839005  0.492046  1
  O  O18  1  0.578750  0.160995  0.492046  1
  O  O19  1  0.921250  0.160995  0.507954  1
  F  F20  1  0.233115  0.197222  0.640009  1
  F  F21  1  0.266885  0.197222  0.359991  1
  F  F22  1  0.766885  0.802778  0.359991  1
  F  F23  1  0.733115  0.802778  0.640009  1
  F  F24  1  0.414814  0.727269  0.042818  1
  F  F25  1  0.085186  0.727269  0.957182  1
  F  F26  1  0.585186  0.272731  0.957182  1
  F  F27  1  0.914814  0.272731  0.042818  1
  F  F28  1  0.008894  0.549198  0.704244  1
  F  F29  1  0.491106  0.549198  0.295756  1
  F  F30  1  0.991106  0.450802  0.295756  1
  F  F31  1  0.508894  0.450802  0.704244  1
  F  F32  1  0.268922  0.862290  0.850281  1
  F  F33  1  0.231078  0.862290  0.149719  1
  F  F34  1  0.731078  0.137710  0.149719  1
  F  F35  1  0.768922  0.137710  0.850281  1
  F  F36  1  0.445214  0.225531  0.156169  1
  F  F37  1  0.054786  0.225531  0.843831  1
  F  F38  1  0.554786  0.774469  0.843831  1
  F  F39  1  0.945214  0.774469  0.156169  1
