# generated using pymatgen
data_BaVAsO6
_symmetry_space_group_name_H-M   'P 1'
_cell_length_a   5.90133794
_cell_length_b   10.35476618
_cell_length_c   9.03247714
_cell_angle_alpha   90.00000000
_cell_angle_beta   90.38432069
_cell_angle_gamma   90.00000000
_symmetry_Int_Tables_number   1
_chemical_formula_structural   BaVAsO6
_chemical_formula_sum   'Ba4 V4 As4 O24'
_cell_volume   551.93493406
_cell_formula_units_Z   4
loop_
 _symmetry_equiv_pos_site_id
 _symmetry_equiv_pos_as_xyz
  1  'x, y, z'
loop_
 _atom_site_type_symbol
 _atom_site_label
 _atom_site_symmetry_multiplicity
 _atom_site_fract_x
 _atom_site_fract_y
 _atom_site_fract_z
 _atom_site_occupancy
  Ba  Ba0  1  0.361813  0.694139  0.413758  1
  Ba  Ba1  1  0.638187  0.194139  0.086242  1
  Ba  Ba2  1  0.638187  0.305861  0.586242  1
  Ba  Ba3  1  0.361813  0.805861  0.913758  1
  V  V4  1  0.146037  0.090933  0.414107  1
  V  V5  1  0.853963  0.590933  0.085893  1
  V  V6  1  0.853963  0.909067  0.585893  1
  V  V7  1  0.146037  0.409067  0.914107  1
  As  As8  1  0.154413  0.114185  0.781461  1
  As  As9  1  0.845587  0.614185  0.718539  1
  As  As10  1  0.845587  0.885815  0.218539  1
  As  As11  1  0.154413  0.385815  0.281461  1
  O  O12  1  0.388840  0.077274  0.881034  1
  O  O13  1  0.611160  0.577274  0.618966  1
  O  O14  1  0.611160  0.922726  0.118966  1
  O  O15  1  0.388840  0.422726  0.381034  1
  O  O16  1  0.975637  0.272429  0.359792  1
  O  O17  1  0.024363  0.772429  0.140208  1
  O  O18  1  0.024363  0.727571  0.640208  1
  O  O19  1  0.975637  0.227571  0.859792  1
  O  O20  1  0.984736  0.034373  0.233078  1
  O  O21  1  0.015264  0.534373  0.266922  1
  O  O22  1  0.015264  0.965627  0.766922  1
  O  O23  1  0.984736  0.465627  0.733078  1
  O  O24  1  0.388662  0.361854  0.837621  1
  O  O25  1  0.611338  0.861854  0.662379  1
  O  O26  1  0.611338  0.638146  0.162379  1
  O  O27  1  0.388662  0.138146  0.337621  1
  O  O28  1  0.180984  0.566118  0.975081  1
  O  O29  1  0.819016  0.066118  0.524919  1
  O  O30  1  0.819016  0.433882  0.024919  1
  O  O31  1  0.180984  0.933882  0.475081  1
  O  O32  1  0.223206  0.326576  0.106295  1
  O  O33  1  0.776794  0.826576  0.393705  1
  O  O34  1  0.776794  0.673424  0.893705  1
  O  O35  1  0.223206  0.173424  0.606295  1
