# generated using pymatgen
data_CaSiO3
_symmetry_space_group_name_H-M   'P 1'
_cell_length_a   7.15140685
_cell_length_b   7.39290103
_cell_length_c   15.60862816
_cell_angle_alpha   90.00000000
_cell_angle_beta   95.71311729
_cell_angle_gamma   90.00000000
_symmetry_Int_Tables_number   1
_chemical_formula_structural   CaSiO3
_chemical_formula_sum   'Ca12 Si12 O36'
_cell_volume   821.12355874
_cell_formula_units_Z   12
loop_
 _symmetry_equiv_pos_site_id
 _symmetry_equiv_pos_as_xyz
  1  'x, y, z'
loop_
 _atom_site_type_symbol
 _atom_site_label
 _atom_site_symmetry_multiplicity
 _atom_site_fract_x
 _atom_site_fract_y
 _atom_site_fract_z
 _atom_site_occupancy
  Ca  Ca0  1  0.970136  0.124207  0.247892  1
  Ca  Ca1  1  0.029864  0.624207  0.252108  1
  Ca  Ca2  1  0.029864  0.875793  0.752108  1
  Ca  Ca3  1  0.970136  0.375793  0.747892  1
  Ca  Ca4  1  0.736784  0.378310  0.397636  1
  Ca  Ca5  1  0.263216  0.878310  0.102364  1
  Ca  Ca6  1  0.263216  0.621690  0.602364  1
  Ca  Ca7  1  0.736784  0.121690  0.897636  1
  Ca  Ca8  1  0.740452  0.874211  0.401187  1
  Ca  Ca9  1  0.259548  0.374211  0.098813  1
  Ca  Ca10  1  0.259548  0.125789  0.598813  1
  Ca  Ca11  1  0.740452  0.625789  0.901187  1
  Si  Si12  1  0.441876  0.123430  0.302620  1
  Si  Si13  1  0.558124  0.623430  0.197380  1
  Si  Si14  1  0.558124  0.876570  0.697380  1
  Si  Si15  1  0.441876  0.376570  0.802620  1
  Si  Si16  1  0.230045  0.407656  0.407949  1
  Si  Si17  1  0.769955  0.907656  0.092051  1
  Si  Si18  1  0.769955  0.592344  0.592051  1
  Si  Si19  1  0.230045  0.092344  0.907949  1
  Si  Si20  1  0.229159  0.841031  0.407678  1
  Si  Si21  1  0.770841  0.341031  0.092322  1
  Si  Si22  1  0.770841  0.158969  0.592322  1
  Si  Si23  1  0.229159  0.658969  0.907678  1
  O  O24  1  0.406869  0.944074  0.365398  1
  O  O25  1  0.593131  0.444074  0.134602  1
  O  O26  1  0.593131  0.055926  0.634602  1
  O  O27  1  0.406869  0.555926  0.865398  1
  O  O28  1  0.405956  0.303500  0.365191  1
  O  O29  1  0.594044  0.803500  0.134809  1
  O  O30  1  0.594044  0.696500  0.634809  1
  O  O31  1  0.405956  0.196500  0.865191  1
  O  O32  1  0.271151  0.624028  0.389322  1
  O  O33  1  0.728849  0.124028  0.110678  1
  O  O34  1  0.728849  0.375972  0.610678  1
  O  O35  1  0.271151  0.875972  0.889322  1
  O  O36  1  0.668579  0.124740  0.300350  1
  O  O37  1  0.331421  0.624740  0.199650  1
  O  O38  1  0.298194  0.123091  0.215558  1
  O  O39  1  0.331421  0.875260  0.699650  1
  O  O40  1  0.238051  0.373161  0.510186  1
  O  O41  1  0.761949  0.873161  0.989814  1
  O  O42  1  0.761949  0.626839  0.489814  1
  O  O43  1  0.238051  0.126839  0.010186  1
  O  O44  1  0.231701  0.876251  0.509123  1
  O  O45  1  0.768299  0.376251  0.990877  1
  O  O46  1  0.768299  0.123749  0.490877  1
  O  O47  1  0.231701  0.623749  0.009123  1
  O  O48  1  0.034397  0.612843  0.847855  1
  O  O49  1  0.965603  0.112843  0.652145  1
  O  O50  1  0.965603  0.387157  0.152145  1
  O  O51  1  0.034397  0.887157  0.347855  1
  O  O52  1  0.033981  0.139677  0.849768  1
  O  O53  1  0.966019  0.639677  0.650232  1
  O  O54  1  0.966019  0.860323  0.150232  1
  O  O55  1  0.033981  0.360323  0.349768  1
  O  O56  1  0.298194  0.376909  0.715558  1
  O  O57  1  0.701806  0.876909  0.784442  1
  O  O58  1  0.701806  0.623091  0.284442  1
  O  O59  1  0.668579  0.375260  0.800350  1
