# generated using pymatgen
data_CdPS3
_symmetry_space_group_name_H-M   'P 1'
_cell_length_a   6.29947475
_cell_length_b   6.29947475
_cell_length_c   7.59302155
_cell_angle_alpha   82.28313358
_cell_angle_beta   97.71686642
_cell_angle_gamma   59.99060946
_symmetry_Int_Tables_number   1
_chemical_formula_structural   CdPS3
_chemical_formula_sum   'Cd2 P2 S6'
_cell_volume   251.33526892
_cell_formula_units_Z   2
loop_
 _symmetry_equiv_pos_site_id
 _symmetry_equiv_pos_as_xyz
  1  'x, y, z'
loop_
 _atom_site_type_symbol
 _atom_site_label
 _atom_site_symmetry_multiplicity
 _atom_site_fract_x
 _atom_site_fract_y
 _atom_site_fract_z
 _atom_site_occupancy
  Cd  Cd0  1  0.333156  0.333156  0.000000  1
  Cd  Cd1  1  0.666844  0.666844  0.000000  1
  P  P2  1  0.950045  0.049955  0.845687  1
  P  P3  1  0.049955  0.950045  0.154313  1
  S  S4  1  0.924510  0.386343  0.766619  1
  S  S5  1  0.386343  0.924510  0.233381  1
  S  S6  1  0.764302  0.235698  0.232933  1
  S  S7  1  0.235698  0.764302  0.767067  1
  S  S8  1  0.075490  0.613657  0.233381  1
  S  S9  1  0.613657  0.075490  0.766619  1
