# generated using pymatgen
data_Tb3Ga5O12
_symmetry_space_group_name_H-M   'P 1'
_cell_length_a   10.77623349
_cell_length_b   10.77623349
_cell_length_c   10.77623349
_cell_angle_alpha   109.47122063
_cell_angle_beta   109.47122063
_cell_angle_gamma   109.47122063
_symmetry_Int_Tables_number   1
_chemical_formula_structural   Tb3Ga5O12
_chemical_formula_sum   'Tb12 Ga20 O48'
_cell_volume   963.33887662
_cell_formula_units_Z   4
loop_
 _symmetry_equiv_pos_site_id
 _symmetry_equiv_pos_as_xyz
  1  'x, y, z'
loop_
 _atom_site_type_symbol
 _atom_site_label
 _atom_site_symmetry_multiplicity
 _atom_site_fract_x
 _atom_site_fract_y
 _atom_site_fract_z
 _atom_site_occupancy
  Tb  Tb0  1  0.250000  0.875000  0.625000  1
  Tb  Tb1  1  0.875000  0.625000  0.250000  1
  Tb  Tb2  1  0.625000  0.875000  0.750000  1
  Tb  Tb3  1  0.875000  0.750000  0.625000  1
  Tb  Tb4  1  0.625000  0.250000  0.875000  1
  Tb  Tb5  1  0.750000  0.625000  0.875000  1
  Tb  Tb6  1  0.750000  0.125000  0.375000  1
  Tb  Tb7  1  0.125000  0.375000  0.750000  1
  Tb  Tb8  1  0.375000  0.125000  0.250000  1
  Tb  Tb9  1  0.125000  0.250000  0.375000  1
  Tb  Tb10  1  0.375000  0.750000  0.125000  1
  Tb  Tb11  1  0.250000  0.375000  0.125000  1
  Ga  Ga12  1  0.250000  0.125000  0.875000  1
  Ga  Ga13  1  0.750000  0.875000  0.125000  1
  Ga  Ga14  1  0.375000  0.250000  0.625000  1
  Ga  Ga15  1  0.625000  0.375000  0.250000  1
  Ga  Ga16  1  0.125000  0.750000  0.875000  1
  Ga  Ga17  1  0.875000  0.125000  0.750000  1
  Ga  Ga18  1  0.750000  0.375000  0.625000  1
  Ga  Ga19  1  0.375000  0.625000  0.750000  1
  Ga  Ga20  1  0.125000  0.875000  0.250000  1
  Ga  Ga21  1  0.875000  0.250000  0.125000  1
  Ga  Ga22  1  0.625000  0.750000  0.375000  1
  Ga  Ga23  1  0.250000  0.625000  0.375000  1
  Ga  Ga24  1  0.500000  0.500000  0.500000  1
  Ga  Ga25  1  0.500000  0.500000  0.000000  1
  Ga  Ga26  1  0.500000  1.000000  0.500000  1
  Ga  Ga27  1  0.000000  0.500000  0.500000  1
  Ga  Ga28  1  0.500000  0.000000  1.000000  1
  Ga  Ga29  1  0.000000  0.000000  0.500000  1
  Ga  Ga30  1  0.000000  0.500000  0.000000  1
  Ga  Ga31  1  0.000000  0.000000  0.000000  1
  O  O32  1  0.294438  0.471960  0.377053  1
  O  O33  1  0.028040  0.322478  0.905093  1
  O  O34  1  0.122947  0.594907  0.917385  1
  O  O35  1  0.205562  0.582615  0.177522  1
  O  O36  1  0.205562  0.122947  0.028040  1
  O  O37  1  0.582615  0.177522  0.205562  1
  O  O38  1  0.594907  0.177522  0.471960  1
  O  O39  1  0.177522  0.205562  0.582615  1
  O  O40  1  0.905093  0.377053  0.582615  1
  O  O41  1  0.322478  0.917385  0.294438  1
  O  O42  1  0.917385  0.294438  0.322478  1
  O  O43  1  0.028040  0.205562  0.122947  1
  O  O44  1  0.177522  0.471960  0.594907  1
  O  O45  1  0.582615  0.905093  0.377053  1
  O  O46  1  0.122947  0.028040  0.205562  1
  O  O47  1  0.471960  0.594907  0.177522  1
  O  O48  1  0.377053  0.582615  0.905093  1
  O  O49  1  0.905093  0.028040  0.322478  1
  O  O50  1  0.594907  0.917385  0.122947  1
  O  O51  1  0.094907  0.622947  0.417385  1
  O  O52  1  0.917385  0.122947  0.594907  1
  O  O53  1  0.377053  0.294438  0.471960  1
  O  O54  1  0.322478  0.905093  0.028040  1
  O  O55  1  0.294438  0.322478  0.917385  1
  O  O56  1  0.705562  0.528040  0.622947  1
  O  O57  1  0.971960  0.677522  0.094907  1
  O  O58  1  0.877053  0.405093  0.082615  1
  O  O59  1  0.794438  0.417385  0.822478  1
  O  O60  1  0.794438  0.877053  0.971960  1
  O  O61  1  0.417385  0.822478  0.794438  1
  O  O62  1  0.405093  0.822478  0.528040  1
  O  O63  1  0.822478  0.794438  0.417385  1
  O  O64  1  0.705562  0.677522  0.082615  1
  O  O65  1  0.677522  0.094907  0.971960  1
  O  O66  1  0.622947  0.705562  0.528040  1
  O  O67  1  0.528040  0.622947  0.705562  1
  O  O68  1  0.082615  0.877053  0.405093  1
  O  O69  1  0.405093  0.082615  0.877053  1
  O  O70  1  0.094907  0.971960  0.677522  1
  O  O71  1  0.622947  0.417385  0.094907  1
  O  O72  1  0.528040  0.405093  0.822478  1
  O  O73  1  0.877053  0.971960  0.794438  1
  O  O74  1  0.417385  0.094907  0.622947  1
  O  O75  1  0.822478  0.528040  0.405093  1
  O  O76  1  0.971960  0.794438  0.877053  1
  O  O77  1  0.082615  0.705562  0.677522  1
  O  O78  1  0.677522  0.082615  0.705562  1
  O  O79  1  0.471960  0.377053  0.294438  1
