# generated using pymatgen
data_KSb(PO4)2
_symmetry_space_group_name_H-M   'P 1'
_cell_length_a   9.05986564
_cell_length_b   9.05986564
_cell_length_c   9.05986564
_cell_angle_alpha   31.07678249
_cell_angle_beta   31.07678249
_cell_angle_gamma   31.07678249
_symmetry_Int_Tables_number   1
_chemical_formula_structural   KSb(PO4)2
_chemical_formula_sum   'K1 Sb1 P2 O8'
_cell_volume   175.79637891
_cell_formula_units_Z   1
loop_
 _symmetry_equiv_pos_site_id
 _symmetry_equiv_pos_as_xyz
  1  'x, y, z'
loop_
 _atom_site_type_symbol
 _atom_site_label
 _atom_site_symmetry_multiplicity
 _atom_site_fract_x
 _atom_site_fract_y
 _atom_site_fract_z
 _atom_site_occupancy
  K  K0  1  0.500000  0.500000  0.500000  1
  Sb  Sb1  1  0.000000  0.000000  0.000000  1
  P  P2  1  0.264834  0.264834  0.264834  1
  P  P3  1  0.735166  0.735166  0.735166  1
  O  O4  1  0.207172  0.207172  0.207172  1
  O  O5  1  0.603493  0.256922  0.001483  1
  O  O6  1  0.792828  0.792828  0.792828  1
  O  O7  1  0.001483  0.603493  0.256922  1
  O  O8  1  0.998517  0.396507  0.743078  1
  O  O9  1  0.256922  0.001483  0.603493  1
  O  O10  1  0.743078  0.998517  0.396507  1
  O  O11  1  0.396507  0.743078  0.998517  1
