# generated using pymatgen
data_MnAsO4
_symmetry_space_group_name_H-M   'P 1'
_cell_length_a   4.91252897
_cell_length_b   9.09682530
_cell_length_c   8.13622390
_cell_angle_alpha   90.00000000
_cell_angle_beta   122.55836706
_cell_angle_gamma   90.00000000
_symmetry_Int_Tables_number   1
_chemical_formula_structural   MnAsO4
_chemical_formula_sum   'Mn4 As4 O16'
_cell_volume   306.45371922
_cell_formula_units_Z   4
loop_
 _symmetry_equiv_pos_site_id
 _symmetry_equiv_pos_as_xyz
  1  'x, y, z'
loop_
 _atom_site_type_symbol
 _atom_site_label
 _atom_site_symmetry_multiplicity
 _atom_site_fract_x
 _atom_site_fract_y
 _atom_site_fract_z
 _atom_site_occupancy
  Mn  Mn0  1  0.000000  0.500000  0.500000  1
  Mn  Mn1  1  0.000000  0.000000  0.000000  1
  Mn  Mn2  1  0.500000  0.000000  0.500000  1
  Mn  Mn3  1  0.500000  0.500000  0.000000  1
  As  As4  1  0.820570  0.679180  0.783212  1
  As  As5  1  0.820570  0.820820  0.283212  1
  As  As6  1  0.179430  0.320820  0.216788  1
  As  As7  1  0.179430  0.179180  0.716788  1
  O  O8  1  0.755881  0.877562  0.064219  1
  O  O9  1  0.825386  0.124210  0.512232  1
  O  O10  1  0.244119  0.377562  0.435781  1
  O  O11  1  0.509486  0.379693  0.212226  1
  O  O12  1  0.490514  0.879693  0.287774  1
  O  O13  1  0.145862  0.370076  0.727588  1
  O  O14  1  0.145862  0.129924  0.227588  1
  O  O15  1  0.854138  0.870076  0.772412  1
  O  O16  1  0.244119  0.122438  0.935781  1
  O  O17  1  0.825386  0.375790  0.012232  1
  O  O18  1  0.755881  0.622438  0.564219  1
  O  O19  1  0.509486  0.120307  0.712226  1
  O  O20  1  0.174614  0.624210  0.987768  1
  O  O21  1  0.490514  0.620307  0.787774  1
  O  O22  1  0.854138  0.629924  0.272412  1
  O  O23  1  0.174614  0.875790  0.487768  1
