# generated using pymatgen
data_Sn2P2O7
_symmetry_space_group_name_H-M   'P 1'
_cell_length_a   5.47199109
_cell_length_b   9.74364193
_cell_length_c   7.69827218
_cell_angle_alpha   90.00000000
_cell_angle_beta   116.36613659
_cell_angle_gamma   90.00000000
_symmetry_Int_Tables_number   1
_chemical_formula_structural   Sn2P2O7
_chemical_formula_sum   'Sn4 P4 O14'
_cell_volume   367.75243636
_cell_formula_units_Z   2
loop_
 _symmetry_equiv_pos_site_id
 _symmetry_equiv_pos_as_xyz
  1  'x, y, z'
loop_
 _atom_site_type_symbol
 _atom_site_label
 _atom_site_symmetry_multiplicity
 _atom_site_fract_x
 _atom_site_fract_y
 _atom_site_fract_z
 _atom_site_occupancy
  Sn  Sn0  1  0.355567  0.380789  0.151559  1
  Sn  Sn1  1  0.644433  0.880789  0.348441  1
  Sn  Sn2  1  0.644433  0.619211  0.848441  1
  Sn  Sn3  1  0.355567  0.119211  0.651559  1
  P  P4  1  0.898919  0.392440  0.611088  1
  P  P5  1  0.101081  0.607560  0.388912  1
  P  P6  1  0.101081  0.892440  0.888912  1
  P  P7  1  0.898919  0.107560  0.111088  1
  O  O8  1  0.381900  0.840959  0.034584  1
  O  O9  1  0.381900  0.659041  0.534584  1
  O  O10  1  0.107433  0.531183  0.216202  1
  O  O11  1  0.884680  0.720333  0.309455  1
  O  O12  1  0.618100  0.159041  0.965416  1
  O  O13  1  0.115320  0.279667  0.690545  1
  O  O14  1  0.115320  0.220333  0.190545  1
  O  O15  1  0.892567  0.468817  0.783798  1
  O  O16  1  0.000000  0.000000  0.000000  1
  O  O17  1  0.618100  0.340959  0.465416  1
  O  O18  1  0.892567  0.031183  0.283798  1
  O  O19  1  0.000000  0.500000  0.500000  1
  O  O20  1  0.884680  0.779667  0.809455  1
  O  O21  1  0.107433  0.968817  0.716202  1
