# generated using pymatgen
data_Li2MoF6
_symmetry_space_group_name_H-M   'P 1'
_cell_length_a   4.79603233
_cell_length_b   4.79603233
_cell_length_c   9.33733892
_cell_angle_alpha   90.00000000
_cell_angle_beta   90.00000000
_cell_angle_gamma   90.00000000
_symmetry_Int_Tables_number   1
_chemical_formula_structural   Li2MoF6
_chemical_formula_sum   'Li4 Mo2 F12'
_cell_volume   214.77677991
_cell_formula_units_Z   2
loop_
 _symmetry_equiv_pos_site_id
 _symmetry_equiv_pos_as_xyz
  1  'x, y, z'
loop_
 _atom_site_type_symbol
 _atom_site_label
 _atom_site_symmetry_multiplicity
 _atom_site_fract_x
 _atom_site_fract_y
 _atom_site_fract_z
 _atom_site_occupancy
  Li  Li0  1  0.000000  0.000000  0.334879  1
  Li  Li1  1  0.000000  0.000000  0.665121  1
  Li  Li2  1  0.500000  0.500000  0.165121  1
  Li  Li3  1  0.500000  0.500000  0.834879  1
  Mo  Mo4  1  0.500000  0.500000  0.500000  1
  Mo  Mo5  1  0.000000  0.000000  0.000000  1
  F  F6  1  0.706564  0.706564  0.000000  1
  F  F7  1  0.793436  0.206564  0.500000  1
  F  F8  1  0.300776  0.300776  0.340100  1
  F  F9  1  0.199224  0.800776  0.840100  1
  F  F10  1  0.800776  0.199224  0.840100  1
  F  F11  1  0.800776  0.199224  0.159900  1
  F  F12  1  0.199224  0.800776  0.159900  1
  F  F13  1  0.699224  0.699224  0.340100  1
  F  F14  1  0.300776  0.300776  0.659900  1
  F  F15  1  0.699224  0.699224  0.659900  1
  F  F16  1  0.293436  0.293436  0.000000  1
  F  F17  1  0.206564  0.793436  0.500000  1
