# generated using pymatgen
data_Rb2Ag4S3
_symmetry_space_group_name_H-M   'P 1'
_cell_length_a   9.38040770
_cell_length_b   9.38040770
_cell_length_c   12.00146506
_cell_angle_alpha   72.01523281
_cell_angle_beta   107.98476719
_cell_angle_gamma   153.18931884
_symmetry_Int_Tables_number   1
_chemical_formula_structural   Rb2Ag4S3
_chemical_formula_sum   'Rb4 Ag8 S6'
_cell_volume   451.68599889
_cell_formula_units_Z   2
loop_
 _symmetry_equiv_pos_site_id
 _symmetry_equiv_pos_as_xyz
  1  'x, y, z'
loop_
 _atom_site_type_symbol
 _atom_site_label
 _atom_site_symmetry_multiplicity
 _atom_site_fract_x
 _atom_site_fract_y
 _atom_site_fract_z
 _atom_site_occupancy
  Rb  Rb0  1  0.810884  0.189116  0.156751  1
  Rb  Rb1  1  0.189116  0.810884  0.843249  1
  Rb  Rb2  1  0.667914  0.332086  0.340768  1
  Rb  Rb3  1  0.332086  0.667914  0.659232  1
  Ag  Ag4  1  0.589236  0.410764  0.008532  1
  Ag  Ag5  1  0.410764  0.589236  0.991468  1
  Ag  Ag6  1  0.989160  0.010840  0.624857  1
  Ag  Ag7  1  0.010840  0.989160  0.375143  1
  Ag  Ag8  1  0.982007  0.017993  0.867726  1
  Ag  Ag9  1  0.017993  0.982007  0.132274  1
  Ag  Ag10  1  0.588339  0.411661  0.587556  1
  Ag  Ag11  1  0.411661  0.588339  0.412444  1
  S  S12  1  0.533854  0.466146  0.774761  1
  S  S13  1  0.466146  0.533854  0.225239  1
  S  S14  1  0.861863  0.138137  0.459912  1
  S  S15  1  0.138137  0.861863  0.540088  1
  S  S16  1  0.848259  0.151741  0.892947  1
  S  S17  1  0.151741  0.848259  0.107053  1
