# generated using pymatgen
data_Ba3Ga2(Ge2O7)2
_symmetry_space_group_name_H-M   'P 1'
_cell_length_a   8.70978779
_cell_length_b   8.70978779
_cell_length_c   5.09435508
_cell_angle_alpha   90.00000000
_cell_angle_beta   90.00000000
_cell_angle_gamma   120.00000000
_symmetry_Int_Tables_number   1
_chemical_formula_structural   Ba3Ga2(Ge2O7)2
_chemical_formula_sum   'Ba3 Ga2 Ge4 O14'
_cell_volume   334.68403125
_cell_formula_units_Z   1
loop_
 _symmetry_equiv_pos_site_id
 _symmetry_equiv_pos_as_xyz
  1  'x, y, z'
loop_
 _atom_site_type_symbol
 _atom_site_label
 _atom_site_symmetry_multiplicity
 _atom_site_fract_x
 _atom_site_fract_y
 _atom_site_fract_z
 _atom_site_occupancy
  Ba  Ba0  1  0.573003  0.000000  0.000000  1
  Ba  Ba1  1  0.426997  0.426997  0.000000  1
  Ba  Ba2  1  0.000000  0.573003  0.000000  1
  Ga  Ga3  1  0.666667  0.333333  0.500131  1
  Ga  Ga4  1  0.333333  0.666667  0.499869  1
  Ge  Ge5  1  0.000000  0.244633  0.500000  1
  Ge  Ge6  1  0.244633  0.000000  0.500000  1
  Ge  Ge7  1  0.755367  0.755367  0.500000  1
  Ge  Ge8  1  0.000000  0.000000  0.000000  1
  O  O9  1  0.284478  0.836838  0.651054  1
  O  O10  1  0.836838  0.284478  0.348946  1
  O  O11  1  0.333333  0.666667  0.151226  1
  O  O12  1  0.097212  0.891945  0.230881  1
  O  O13  1  0.794733  0.902788  0.230881  1
  O  O14  1  0.205267  0.108055  0.769119  1
  O  O15  1  0.552360  0.715522  0.651054  1
  O  O16  1  0.163162  0.447640  0.651054  1
  O  O17  1  0.666667  0.333333  0.848774  1
  O  O18  1  0.715522  0.552360  0.348946  1
  O  O19  1  0.891945  0.097212  0.769119  1
  O  O20  1  0.447640  0.163162  0.348946  1
  O  O21  1  0.902788  0.794733  0.769119  1
  O  O22  1  0.108055  0.205267  0.230881  1
