# generated using pymatgen
data_Ca4Si2O7F2
_symmetry_space_group_name_H-M   'P 1'
_cell_length_a   7.59567541
_cell_length_b   10.62534334
_cell_length_c   11.04787664
_cell_angle_alpha   90.00000000
_cell_angle_beta   109.46474480
_cell_angle_gamma   90.00000000
_symmetry_Int_Tables_number   1
_chemical_formula_structural   Ca4Si2O7F2
_chemical_formula_sum   'Ca16 Si8 O28 F8'
_cell_volume   840.67721392
_cell_formula_units_Z   4
loop_
 _symmetry_equiv_pos_site_id
 _symmetry_equiv_pos_as_xyz
  1  'x, y, z'
loop_
 _atom_site_type_symbol
 _atom_site_label
 _atom_site_symmetry_multiplicity
 _atom_site_fract_x
 _atom_site_fract_y
 _atom_site_fract_z
 _atom_site_occupancy
  Ca  Ca0  1  0.163241  0.866348  0.583586  1
  Ca  Ca1  1  0.163241  0.633652  0.083586  1
  Ca  Ca2  1  0.468911  0.902670  0.198931  1
  Ca  Ca3  1  0.331491  0.362889  0.927560  1
  Ca  Ca4  1  0.668509  0.637111  0.072440  1
  Ca  Ca5  1  0.531089  0.402670  0.301069  1
  Ca  Ca6  1  0.970925  0.912853  0.184765  1
  Ca  Ca7  1  0.468911  0.597330  0.698931  1
  Ca  Ca8  1  0.531089  0.097330  0.801069  1
  Ca  Ca9  1  0.836759  0.133652  0.416414  1
  Ca  Ca10  1  0.029075  0.087147  0.815235  1
  Ca  Ca11  1  0.029075  0.412853  0.315235  1
  Ca  Ca12  1  0.668509  0.862889  0.572440  1
  Ca  Ca13  1  0.970925  0.587147  0.684765  1
  Ca  Ca14  1  0.836759  0.366348  0.916414  1
  Ca  Ca15  1  0.331491  0.137111  0.427560  1
  Si  Si16  1  0.226256  0.190652  0.132244  1
  Si  Si17  1  0.773744  0.690652  0.367756  1
  Si  Si18  1  0.652457  0.188810  0.123245  1
  Si  Si19  1  0.347543  0.811190  0.876755  1
  Si  Si20  1  0.347543  0.688810  0.376755  1
  Si  Si21  1  0.773744  0.809348  0.867756  1
  Si  Si22  1  0.226256  0.309348  0.632244  1
  Si  Si23  1  0.652457  0.311190  0.623245  1
  O  O24  1  0.697124  0.041309  0.161077  1
  O  O25  1  0.214512  0.042398  0.164202  1
  O  O26  1  0.785488  0.542398  0.335798  1
  O  O27  1  0.771117  0.723752  0.743650  1
  O  O28  1  0.778208  0.276938  0.241859  1
  O  O29  1  0.564152  0.773502  0.879116  1
  O  O30  1  0.302876  0.541309  0.338923  1
  O  O31  1  0.564152  0.726498  0.379116  1
  O  O32  1  0.221792  0.723062  0.758141  1
  O  O33  1  0.910452  0.736133  0.508797  1
  O  O34  1  0.910452  0.763867  0.008797  1
  O  O35  1  0.228883  0.223752  0.756350  1
  O  O36  1  0.221792  0.776938  0.258141  1
  O  O37  1  0.640188  0.268240  0.478307  1
  O  O38  1  0.228883  0.276248  0.256350  1
  O  O39  1  0.640188  0.231760  0.978307  1
  O  O40  1  0.778208  0.223062  0.741859  1
  O  O41  1  0.089548  0.236133  0.991203  1
  O  O42  1  0.359812  0.731760  0.521693  1
  O  O43  1  0.302876  0.958691  0.838923  1
  O  O44  1  0.771117  0.776248  0.243650  1
  O  O45  1  0.359812  0.768240  0.021693  1
  O  O46  1  0.435848  0.273502  0.620884  1
  O  O47  1  0.435848  0.226498  0.120884  1
  O  O48  1  0.214512  0.457602  0.664202  1
  O  O49  1  0.785488  0.957602  0.835798  1
  O  O50  1  0.697124  0.458691  0.661077  1
  O  O51  1  0.089548  0.263867  0.491203  1
  F  F52  1  0.924372  0.499913  0.103636  1
  F  F53  1  0.570112  0.005180  0.397629  1
  F  F54  1  0.429888  0.994820  0.602371  1
  F  F55  1  0.924372  0.000087  0.603636  1
  F  F56  1  0.429888  0.505180  0.102371  1
  F  F57  1  0.570112  0.494820  0.897629  1
  F  F58  1  0.075628  0.500087  0.896364  1
  F  F59  1  0.075628  0.999913  0.396364  1
