# generated using pymatgen
data_CsTmP4(H2O3)6
_symmetry_space_group_name_H-M   'P 1'
_cell_length_a   7.60735825
_cell_length_b   7.60735825
_cell_length_c   15.15911644
_cell_angle_alpha   89.25926472
_cell_angle_beta   90.74073528
_cell_angle_gamma   70.07584119
_symmetry_Int_Tables_number   1
_chemical_formula_structural   CsTmP4(H2O3)6
_chemical_formula_sum   'Cs2 Tm2 P8 H24 O36'
_cell_volume   824.56731081
_cell_formula_units_Z   2
loop_
 _symmetry_equiv_pos_site_id
 _symmetry_equiv_pos_as_xyz
  1  'x, y, z'
loop_
 _atom_site_type_symbol
 _atom_site_label
 _atom_site_symmetry_multiplicity
 _atom_site_fract_x
 _atom_site_fract_y
 _atom_site_fract_z
 _atom_site_occupancy
  Cs  Cs0  1  0.536658  0.536658  0.250000  1
  Cs  Cs1  1  0.463342  0.463342  0.750000  1
  Tm  Tm2  1  0.894156  0.894156  0.250000  1
  Tm  Tm3  1  0.105844  0.105844  0.750000  1
  P  P4  1  0.962629  0.210154  0.413695  1
  P  P5  1  0.210154  0.962629  0.086305  1
  P  P6  1  0.037371  0.789846  0.586305  1
  P  P7  1  0.789846  0.037371  0.913695  1
  P  P8  1  0.832608  0.243693  0.073865  1
  P  P9  1  0.243693  0.832608  0.426135  1
  P  P10  1  0.167392  0.756307  0.926135  1
  P  P11  1  0.756307  0.167392  0.573865  1
  H  H12  1  0.879506  0.611756  0.388567  1
  H  H13  1  0.611756  0.879506  0.111433  1
  H  H14  1  0.120494  0.388244  0.611433  1
  H  H15  1  0.388244  0.120494  0.888567  1
  H  H16  1  0.776226  0.679769  0.107155  1
  H  H17  1  0.679769  0.776226  0.392845  1
  H  H18  1  0.223774  0.320231  0.892845  1
  H  H19  1  0.320231  0.223774  0.607155  1
  H  H20  1  0.272129  0.458052  0.053929  1
  H  H21  1  0.458052  0.272129  0.446071  1
  H  H22  1  0.727871  0.541948  0.946071  1
  H  H23  1  0.541948  0.727871  0.553929  1
  H  H24  1  0.270584  0.329798  0.390282  1
  H  H25  1  0.329798  0.270584  0.109718  1
  H  H26  1  0.729416  0.670202  0.609718  1
  H  H27  1  0.670202  0.729416  0.890282  1
  H  H28  1  0.125171  0.505971  0.182396  1
  H  H29  1  0.505971  0.125171  0.317604  1
  H  H30  1  0.874829  0.494029  0.817604  1
  H  H31  1  0.494029  0.874829  0.682396  1
  H  H32  1  0.035613  0.477923  0.275493  1
  H  H33  1  0.477923  0.035613  0.224507  1
  H  H34  1  0.964387  0.522077  0.724507  1
  H  H35  1  0.522077  0.964387  0.775493  1
  O  O36  1  0.050697  0.149005  0.047262  1
  O  O37  1  0.149005  0.050697  0.452738  1
  O  O38  1  0.949303  0.850995  0.952738  1
  O  O39  1  0.850995  0.949303  0.547262  1
  O  O40  1  0.839194  0.274696  0.500245  1
  O  O41  1  0.274696  0.839194  0.999755  1
  O  O42  1  0.160806  0.725304  0.499755  1
  O  O43  1  0.725304  0.160806  0.000245  1
  O  O44  1  0.862383  0.130036  0.348100  1
  O  O45  1  0.130036  0.862383  0.151900  1
  O  O46  1  0.137617  0.869964  0.651900  1
  O  O47  1  0.869964  0.137617  0.848100  1
  O  O48  1  0.017839  0.374165  0.385062  1
  O  O49  1  0.374165  0.017839  0.114938  1
  O  O50  1  0.982161  0.625835  0.614938  1
  O  O51  1  0.625835  0.982161  0.885062  1
  O  O52  1  0.169269  0.802635  0.337442  1
  O  O53  1  0.802635  0.169269  0.162558  1
  O  O54  1  0.830731  0.197365  0.662558  1
  O  O55  1  0.197365  0.830731  0.837442  1
  O  O56  1  0.775932  0.450262  0.058807  1
  O  O57  1  0.450262  0.775932  0.441193  1
  O  O58  1  0.224068  0.549738  0.941193  1
  O  O59  1  0.549738  0.224068  0.558807  1
  O  O60  1  0.805116  0.739333  0.366958  1
  O  O61  1  0.739333  0.805116  0.133042  1
  O  O62  1  0.194884  0.260667  0.633042  1
  O  O63  1  0.260667  0.194884  0.866958  1
  O  O64  1  0.299549  0.406759  0.114885  1
  O  O65  1  0.406759  0.299549  0.385115  1
  O  O66  1  0.700451  0.593241  0.885115  1
  O  O67  1  0.593241  0.700451  0.614885  1
  O  O68  1  0.026170  0.567369  0.226757  1
  O  O69  1  0.567369  0.026170  0.273243  1
  O  O70  1  0.973830  0.432631  0.773243  1
  O  O71  1  0.432631  0.973830  0.726757  1
