# generated using pymatgen
data_Ba17Ho16Zn8Pt4O57
_symmetry_space_group_name_H-M   'P 1'
_cell_length_a   16.57439278
_cell_length_b   16.57439278
_cell_length_c   16.57439278
_cell_angle_alpha   91.72740569
_cell_angle_beta   91.72740569
_cell_angle_gamma   160.00312950
_symmetry_Int_Tables_number   1
_chemical_formula_structural   Ba17Ho16Zn8Pt4O57
_chemical_formula_sum   'Ba17 Ho16 Zn8 Pt4 O57'
_cell_volume   1533.39108857
_cell_formula_units_Z   1
loop_
 _symmetry_equiv_pos_site_id
 _symmetry_equiv_pos_as_xyz
  1  'x, y, z'
loop_
 _atom_site_type_symbol
 _atom_site_label
 _atom_site_symmetry_multiplicity
 _atom_site_fract_x
 _atom_site_fract_y
 _atom_site_fract_z
 _atom_site_occupancy
  Ba  Ba0  1  0.723604  0.888106  0.611710  1
  Ba  Ba1  1  0.558222  0.932286  0.490508  1
  Ba  Ba2  1  0.649466  0.342128  0.991594  1
  Ba  Ba3  1  0.189083  0.267757  0.456840  1
  Ba  Ba4  1  0.267757  0.810917  0.078673  1
  Ba  Ba5  1  0.067714  0.558222  0.625936  1
  Ba  Ba6  1  0.111894  0.723604  0.835497  1
  Ba  Ba7  1  0.657872  0.649466  0.307338  1
  Ba  Ba8  1  0.888106  0.276396  0.164503  1
  Ba  Ba9  1  0.342128  0.350534  0.692662  1
  Ba  Ba10  1  0.732243  0.189083  0.921327  1
  Ba  Ba11  1  0.441778  0.067714  0.509492  1
  Ba  Ba12  1  0.810917  0.732243  0.543160  1
  Ba  Ba13  1  0.350534  0.657872  0.008406  1
  Ba  Ba14  1  0.932286  0.441778  0.374064  1
  Ba  Ba15  1  0.000000  0.000000  0.000000  1
  Ba  Ba16  1  0.276396  0.111894  0.388290  1
  Ho  Ho17  1  0.506245  0.250721  0.756966  1
  Ho  Ho18  1  0.052228  0.171847  0.224075  1
  Ho  Ho19  1  0.950393  0.674095  0.624488  1
  Ho  Ho20  1  0.947772  0.828153  0.775925  1
  Ho  Ho21  1  0.488546  0.599540  0.088086  1
  Ho  Ho22  1  0.674095  0.049607  0.723702  1
  Ho  Ho23  1  0.400460  0.488546  0.889006  1
  Ho  Ho24  1  0.250721  0.493755  0.744476  1
  Ho  Ho25  1  0.049607  0.325905  0.375512  1
  Ho  Ho26  1  0.171847  0.947772  0.119619  1
  Ho  Ho27  1  0.599540  0.511454  0.110994  1
  Ho  Ho28  1  0.511454  0.400460  0.911914  1
  Ho  Ho29  1  0.493755  0.749279  0.243034  1
  Ho  Ho30  1  0.749279  0.506245  0.255524  1
  Ho  Ho31  1  0.325905  0.950393  0.276298  1
  Ho  Ho32  1  0.828153  0.052228  0.880381  1
  Zn  Zn33  1  0.379418  0.212249  0.591667  1
  Zn  Zn34  1  0.787751  0.379418  0.167170  1
  Zn  Zn35  1  0.075610  0.866677  0.942287  1
  Zn  Zn36  1  0.866677  0.924390  0.791066  1
  Zn  Zn37  1  0.620582  0.787751  0.408333  1
  Zn  Zn38  1  0.133323  0.075610  0.208934  1
  Zn  Zn39  1  0.924390  0.133323  0.057713  1
  Zn  Zn40  1  0.212249  0.620582  0.832830  1
  Pt  Pt41  1  0.417261  0.855677  0.272938  1
  Pt  Pt42  1  0.582739  0.144323  0.727062  1
  Pt  Pt43  1  0.144323  0.417261  0.561583  1
  Pt  Pt44  1  0.855677  0.582739  0.438417  1
  O  O45  1  0.760589  0.298993  0.059582  1
  O  O46  1  0.607620  0.231378  0.838998  1
  O  O47  1  0.763553  0.409223  0.689385  1
  O  O48  1  0.280162  0.925832  0.689385  1
  O  O49  1  0.073821  0.222044  0.797057  1
  O  O50  1  0.054789  0.435212  0.490001  1
  O  O51  1  0.231378  0.392380  0.623758  1
  O  O52  1  0.888083  0.366910  0.767355  1
  O  O53  1  0.392380  0.768622  0.161002  1
  O  O54  1  0.000610  0.319356  0.823948  1
  O  O55  1  0.159274  0.157534  0.316808  1
  O  O56  1  0.768622  0.607620  0.376242  1
  O  O57  1  0.719838  0.074168  0.310615  1
  O  O58  1  0.161340  0.316219  0.975470  1
  O  O59  1  0.926179  0.777956  0.202943  1
  O  O60  1  0.814130  0.838660  0.154879  1
  O  O61  1  0.298993  0.239411  0.538404  1
  O  O62  1  0.222044  0.424987  0.148223  1
  O  O63  1  0.683781  0.659251  0.845121  1
  O  O64  1  0.701007  0.760589  0.461596  1
  O  O65  1  0.840726  0.842466  0.683192  1
  O  O66  1  0.838660  0.683781  0.024530  1
  O  O67  1  0.564788  0.054789  0.619578  1
  O  O68  1  0.157534  0.840726  0.998260  1
  O  O69  1  0.590777  0.280162  0.354330  1
  O  O70  1  0.236447  0.590777  0.310615  1
  O  O71  1  0.495407  0.176661  0.176052  1
  O  O72  1  0.074168  0.763553  0.354330  1
  O  O73  1  0.659251  0.814130  0.975470  1
  O  O74  1  0.319356  0.495407  0.318746  1
  O  O75  1  0.599555  0.120729  0.232645  1
  O  O76  1  0.999390  0.680644  0.176052  1
  O  O77  1  0.316219  0.340749  0.154879  1
  O  O78  1  0.575013  0.723236  0.797057  1
  O  O79  1  0.680644  0.504593  0.681254  1
  O  O80  1  0.435212  0.945211  0.380422  1
  O  O81  1  0.504593  0.823339  0.823948  1
  O  O82  1  0.823339  0.999390  0.318746  1
  O  O83  1  0.777956  0.575013  0.851777  1
  O  O84  1  0.879271  0.111917  0.478826  1
  O  O85  1  0.500000  0.500000  0.000000  1
  O  O86  1  0.400445  0.879271  0.767355  1
  O  O87  1  0.120729  0.888083  0.521174  1
  O  O88  1  0.340749  0.185870  0.024530  1
  O  O89  1  0.111917  0.633090  0.232645  1
  O  O90  1  0.239411  0.701007  0.940418  1
  O  O91  1  0.424987  0.276764  0.202943  1
  O  O92  1  0.633090  0.400445  0.521174  1
  O  O93  1  0.185870  0.161340  0.845121  1
  O  O94  1  0.366910  0.599555  0.478826  1
  O  O95  1  0.176661  0.000610  0.681254  1
  O  O96  1  0.842466  0.159274  0.001740  1
  O  O97  1  0.409223  0.719838  0.645670  1
  O  O98  1  0.723236  0.926179  0.148223  1
  O  O99  1  0.945211  0.564788  0.509999  1
  O  O100  1  0.925832  0.236447  0.645670  1
  O  O101  1  0.276764  0.073821  0.851777  1
