# generated using pymatgen
data_CdGe(BiO3)2
_symmetry_space_group_name_H-M   'P 1'
_cell_length_a   10.36483983
_cell_length_b   5.70321310
_cell_length_c   14.75445250
_cell_angle_alpha   90.00000000
_cell_angle_beta   134.09058412
_cell_angle_gamma   90.00000000
_symmetry_Int_Tables_number   1
_chemical_formula_structural   CdGe(BiO3)2
_chemical_formula_sum   'Cd4 Ge4 Bi8 O24'
_cell_volume   626.43393502
_cell_formula_units_Z   4
loop_
 _symmetry_equiv_pos_site_id
 _symmetry_equiv_pos_as_xyz
  1  'x, y, z'
loop_
 _atom_site_type_symbol
 _atom_site_label
 _atom_site_symmetry_multiplicity
 _atom_site_fract_x
 _atom_site_fract_y
 _atom_site_fract_z
 _atom_site_occupancy
  Cd  Cd0  1  0.887997  0.250391  0.501813  1
  Cd  Cd1  1  0.112003  0.750391  0.998187  1
  Cd  Cd2  1  0.887997  0.249609  0.001813  1
  Cd  Cd3  1  0.112003  0.749609  0.498187  1
  Ge  Ge4  1  0.345576  0.254713  0.998188  1
  Ge  Ge5  1  0.654424  0.754713  0.501812  1
  Ge  Ge6  1  0.345576  0.245287  0.498188  1
  Ge  Ge7  1  0.654424  0.745287  0.001812  1
  Bi  Bi8  1  0.157134  0.714598  0.262317  1
  Bi  Bi9  1  0.157134  0.785402  0.762317  1
  Bi  Bi10  1  0.842866  0.214598  0.237683  1
  Bi  Bi11  1  0.364427  0.286352  0.754700  1
  Bi  Bi12  1  0.635573  0.713648  0.245300  1
  Bi  Bi13  1  0.635573  0.786352  0.745300  1
  Bi  Bi14  1  0.842866  0.285402  0.737683  1
  Bi  Bi15  1  0.364427  0.213648  0.254700  1
  O  O16  1  0.175244  0.511652  0.145145  1
  O  O17  1  0.824756  0.488348  0.854855  1
  O  O18  1  0.321387  0.042967  0.074593  1
  O  O19  1  0.434237  0.873796  0.376907  1
  O  O20  1  0.565763  0.126204  0.623093  1
  O  O21  1  0.118898  0.011497  0.146863  1
  O  O22  1  0.673996  0.874203  0.121200  1
  O  O23  1  0.824756  0.011652  0.354855  1
  O  O24  1  0.326004  0.374203  0.378800  1
  O  O25  1  0.434237  0.626204  0.876907  1
  O  O26  1  0.823524  0.524057  0.080305  1
  O  O27  1  0.673996  0.625797  0.621200  1
  O  O28  1  0.565763  0.373796  0.123093  1
  O  O29  1  0.678613  0.542967  0.425407  1
  O  O30  1  0.881102  0.988503  0.853137  1
  O  O31  1  0.823524  0.975943  0.580305  1
  O  O32  1  0.678613  0.957033  0.925407  1
  O  O33  1  0.326004  0.125797  0.878800  1
  O  O34  1  0.175244  0.988348  0.645145  1
  O  O35  1  0.176476  0.024057  0.419695  1
  O  O36  1  0.321387  0.457033  0.574593  1
  O  O37  1  0.176476  0.475943  0.919695  1
  O  O38  1  0.118898  0.488503  0.646863  1
  O  O39  1  0.881102  0.511497  0.353137  1
