# generated using pymatgen
data_AgBi(PSe3)2
_symmetry_space_group_name_H-M   'P 1'
_cell_length_a   14.86163519
_cell_length_b   14.86163519
_cell_length_c   14.86163519
_cell_angle_alpha   26.27224957
_cell_angle_beta   26.27224957
_cell_angle_gamma   26.27224957
_symmetry_Int_Tables_number   1
_chemical_formula_structural   AgBi(PSe3)2
_chemical_formula_sum   'Ag2 Bi2 P4 Se12'
_cell_volume   566.71270251
_cell_formula_units_Z   2
loop_
 _symmetry_equiv_pos_site_id
 _symmetry_equiv_pos_as_xyz
  1  'x, y, z'
loop_
 _atom_site_type_symbol
 _atom_site_label
 _atom_site_symmetry_multiplicity
 _atom_site_fract_x
 _atom_site_fract_y
 _atom_site_fract_z
 _atom_site_occupancy
  Ag  Ag0  1  0.405866  0.405866  0.405866  1
  Ag  Ag1  1  0.594134  0.594134  0.594134  1
  Bi  Bi2  1  0.912633  0.912633  0.912633  1
  Bi  Bi3  1  0.087367  0.087367  0.087367  1
  P  P4  1  0.275816  0.275816  0.275816  1
  P  P5  1  0.222624  0.222624  0.222624  1
  P  P6  1  0.777376  0.777376  0.777376  1
  P  P7  1  0.724184  0.724184  0.724184  1
  Se  Se8  1  0.501421  0.875977  0.248417  1
  Se  Se9  1  0.992224  0.614566  0.269911  1
  Se  Se10  1  0.385434  0.730089  0.007776  1
  Se  Se11  1  0.269911  0.992224  0.614566  1
  Se  Se12  1  0.248417  0.501421  0.875977  1
  Se  Se13  1  0.614566  0.269911  0.992224  1
  Se  Se14  1  0.730089  0.007776  0.385434  1
  Se  Se15  1  0.875977  0.248417  0.501421  1
  Se  Se16  1  0.007776  0.385434  0.730089  1
  Se  Se17  1  0.124023  0.751583  0.498579  1
  Se  Se18  1  0.751583  0.498579  0.124023  1
  Se  Se19  1  0.498579  0.124023  0.751583  1
