# generated using pymatgen
data_Na2CuP2O7
_symmetry_space_group_name_H-M   'P 1'
_cell_length_a   5.14189371
_cell_length_b   13.72007589
_cell_length_c   10.11813492
_cell_angle_alpha   90.00000000
_cell_angle_beta   117.52416536
_cell_angle_gamma   90.00000000
_symmetry_Int_Tables_number   1
_chemical_formula_structural   Na2CuP2O7
_chemical_formula_sum   'Na8 Cu4 P8 O28'
_cell_volume   633.01441151
_cell_formula_units_Z   4
loop_
 _symmetry_equiv_pos_site_id
 _symmetry_equiv_pos_as_xyz
  1  'x, y, z'
loop_
 _atom_site_type_symbol
 _atom_site_label
 _atom_site_symmetry_multiplicity
 _atom_site_fract_x
 _atom_site_fract_y
 _atom_site_fract_z
 _atom_site_occupancy
  Na  Na0  1  0.082024  0.610797  0.366984  1
  Na  Na1  1  0.417761  0.708282  0.152870  1
  Na  Na2  1  0.417761  0.791718  0.652870  1
  Na  Na3  1  0.917976  0.389203  0.633016  1
  Na  Na4  1  0.082024  0.889203  0.866984  1
  Na  Na5  1  0.582239  0.208282  0.347130  1
  Na  Na6  1  0.582239  0.291718  0.847130  1
  Na  Na7  1  0.917976  0.110797  0.133016  1
  Cu  Cu8  1  0.056247  0.844091  0.260944  1
  Cu  Cu9  1  0.056247  0.655909  0.760944  1
  Cu  Cu10  1  0.943753  0.344091  0.239056  1
  Cu  Cu11  1  0.943753  0.155909  0.739056  1
  P  P12  1  0.273595  0.320616  0.044643  1
  P  P13  1  0.273595  0.179384  0.544643  1
  P  P14  1  0.521419  0.962915  0.228740  1
  P  P15  1  0.726405  0.679384  0.955357  1
  P  P16  1  0.478581  0.037085  0.771260  1
  P  P17  1  0.726405  0.820616  0.455357  1
  P  P18  1  0.478581  0.462915  0.271260  1
  P  P19  1  0.521419  0.537085  0.728740  1
  O  O20  1  0.147351  0.274336  0.142606  1
  O  O21  1  0.419917  0.723026  0.914478  1
  O  O22  1  0.930999  0.684762  0.120733  1
  O  O23  1  0.418472  0.066474  0.215257  1
  O  O24  1  0.238059  0.448591  0.321323  1
  O  O25  1  0.147351  0.225664  0.642606  1
  O  O26  1  0.761941  0.551409  0.678677  1
  O  O27  1  0.419917  0.776974  0.414478  1
  O  O28  1  0.238059  0.051409  0.821323  1
  O  O29  1  0.852649  0.725664  0.857394  1
  O  O30  1  0.271923  0.886285  0.150257  1
  O  O31  1  0.271923  0.613715  0.650257  1
  O  O32  1  0.728077  0.386285  0.349743  1
  O  O33  1  0.069001  0.315238  0.879267  1
  O  O34  1  0.580083  0.223026  0.585522  1
  O  O35  1  0.327366  0.434955  0.092576  1
  O  O36  1  0.327366  0.065045  0.592576  1
  O  O37  1  0.930999  0.815238  0.620733  1
  O  O38  1  0.728077  0.113715  0.849743  1
  O  O39  1  0.852649  0.774336  0.357394  1
  O  O40  1  0.672634  0.934955  0.407424  1
  O  O41  1  0.761941  0.948591  0.178677  1
  O  O42  1  0.069001  0.184762  0.379267  1
  O  O43  1  0.581528  0.933526  0.784743  1
  O  O44  1  0.580083  0.276974  0.085522  1
  O  O45  1  0.672634  0.565045  0.907424  1
  O  O46  1  0.581528  0.566474  0.284743  1
  O  O47  1  0.418472  0.433526  0.715257  1
