# generated using pymatgen
data_NaHfCuSe3
_symmetry_space_group_name_H-M   'P 1'
_cell_length_a   3.83903312
_cell_length_b   10.30813983
_cell_length_c   13.72320518
_cell_angle_alpha   90.00000000
_cell_angle_beta   90.00000000
_cell_angle_gamma   90.00000000
_symmetry_Int_Tables_number   1
_chemical_formula_structural   NaHfCuSe3
_chemical_formula_sum   'Na4 Hf4 Cu4 Se12'
_cell_volume   543.07238124
_cell_formula_units_Z   4
loop_
 _symmetry_equiv_pos_site_id
 _symmetry_equiv_pos_as_xyz
  1  'x, y, z'
loop_
 _atom_site_type_symbol
 _atom_site_label
 _atom_site_symmetry_multiplicity
 _atom_site_fract_x
 _atom_site_fract_y
 _atom_site_fract_z
 _atom_site_occupancy
  Na  Na0  1  0.250000  0.040839  0.229530  1
  Na  Na1  1  0.750000  0.959161  0.770470  1
  Na  Na2  1  0.750000  0.540839  0.270470  1
  Na  Na3  1  0.250000  0.459161  0.729530  1
  Hf  Hf4  1  0.250000  0.322109  0.011049  1
  Hf  Hf5  1  0.750000  0.677891  0.988951  1
  Hf  Hf6  1  0.750000  0.822109  0.488951  1
  Hf  Hf7  1  0.250000  0.177891  0.511049  1
  Cu  Cu8  1  0.250000  0.590645  0.491074  1
  Cu  Cu9  1  0.750000  0.409355  0.508926  1
  Cu  Cu10  1  0.750000  0.090645  0.008926  1
  Cu  Cu11  1  0.250000  0.909355  0.991074  1
  Se  Se12  1  0.250000  0.564383  0.101291  1
  Se  Se13  1  0.750000  0.435617  0.898709  1
  Se  Se14  1  0.750000  0.064383  0.398709  1
  Se  Se15  1  0.250000  0.935617  0.601291  1
  Se  Se16  1  0.250000  0.378939  0.395627  1
  Se  Se17  1  0.750000  0.621061  0.604373  1
  Se  Se18  1  0.750000  0.878939  0.104373  1
  Se  Se19  1  0.250000  0.121061  0.895627  1
  Se  Se20  1  0.250000  0.754493  0.362499  1
  Se  Se21  1  0.750000  0.245507  0.637501  1
  Se  Se22  1  0.750000  0.254493  0.137501  1
  Se  Se23  1  0.250000  0.745507  0.862499  1
