# generated using pymatgen
data_Si2Ge3P6O25
_symmetry_space_group_name_H-M   'P 1'
_cell_length_a   8.08318277
_cell_length_b   8.08318277
_cell_length_c   16.65663816
_cell_angle_alpha   90.00000000
_cell_angle_beta   90.00000000
_cell_angle_gamma   120.00000000
_symmetry_Int_Tables_number   1
_chemical_formula_structural   Si2Ge3P6O25
_chemical_formula_sum   'Si4 Ge6 P12 O50'
_cell_volume   942.50308486
_cell_formula_units_Z   2
loop_
 _symmetry_equiv_pos_site_id
 _symmetry_equiv_pos_as_xyz
  1  'x, y, z'
loop_
 _atom_site_type_symbol
 _atom_site_label
 _atom_site_symmetry_multiplicity
 _atom_site_fract_x
 _atom_site_fract_y
 _atom_site_fract_z
 _atom_site_occupancy
  Si  Si0  1  0.000000  0.000000  0.846738  1
  Si  Si1  1  0.000000  0.000000  0.346738  1
  Si  Si2  1  0.000000  0.000000  0.153262  1
  Si  Si3  1  0.000000  0.000000  0.653262  1
  Ge  Ge4  1  0.333333  0.666667  0.475904  1
  Ge  Ge5  1  0.666667  0.333333  0.975904  1
  Ge  Ge6  1  0.666667  0.333333  0.524096  1
  Ge  Ge7  1  0.333333  0.666667  0.024096  1
  Ge  Ge8  1  0.666667  0.333333  0.250000  1
  Ge  Ge9  1  0.333333  0.666667  0.750000  1
  P  P10  1  0.952489  0.614719  0.391890  1
  P  P11  1  0.385281  0.047511  0.108110  1
  P  P12  1  0.047511  0.385281  0.608110  1
  P  P13  1  0.662229  0.614719  0.108110  1
  P  P14  1  0.047511  0.662229  0.891890  1
  P  P15  1  0.614719  0.662229  0.608110  1
  P  P16  1  0.614719  0.952489  0.891890  1
  P  P17  1  0.952489  0.337771  0.108110  1
  P  P18  1  0.337771  0.952489  0.608110  1
  P  P19  1  0.337771  0.385281  0.891890  1
  P  P20  1  0.385281  0.337771  0.391890  1
  P  P21  1  0.662229  0.047511  0.391890  1
  O  O22  1  0.838372  0.794394  0.617486  1
  O  O23  1  0.460944  0.577079  0.090298  1
  O  O24  1  0.422921  0.539056  0.409702  1
  O  O25  1  0.471193  0.335024  0.310721  1
  O  O26  1  0.539056  0.422921  0.909702  1
  O  O27  1  0.664976  0.136168  0.310721  1
  O  O28  1  0.161628  0.205606  0.382514  1
  O  O29  1  0.161628  0.956022  0.117486  1
  O  O30  1  0.539056  0.116135  0.590298  1
  O  O31  1  0.883865  0.422921  0.590298  1
  O  O32  1  0.197323  0.443896  0.540910  1
  O  O33  1  0.116135  0.539056  0.090298  1
  O  O34  1  0.664976  0.528807  0.189279  1
  O  O35  1  0.471193  0.136168  0.189279  1
  O  O36  1  0.443896  0.246573  0.459090  1
  O  O37  1  0.556104  0.753427  0.540910  1
  O  O38  1  0.753427  0.197323  0.459090  1
  O  O39  1  0.335024  0.863832  0.689279  1
  O  O40  1  0.802677  0.556104  0.459090  1
  O  O41  1  0.422921  0.883865  0.090298  1
  O  O42  1  0.116135  0.577079  0.409702  1
  O  O43  1  0.335024  0.471193  0.810721  1
  O  O44  1  0.043978  0.838372  0.382514  1
  O  O45  1  0.863832  0.335024  0.189279  1
  O  O46  1  0.205606  0.043978  0.617486  1
  O  O47  1  0.443896  0.197323  0.040910  1
  O  O48  1  0.136168  0.664976  0.810721  1
  O  O49  1  0.528807  0.664976  0.689279  1
  O  O50  1  0.802677  0.246573  0.040910  1
  O  O51  1  0.577079  0.116135  0.909702  1
  O  O52  1  0.000000  0.000000  0.250000  1
  O  O53  1  0.197323  0.753427  0.959090  1
  O  O54  1  0.883865  0.460944  0.909702  1
  O  O55  1  0.246573  0.802677  0.540910  1
  O  O56  1  0.956022  0.161628  0.617486  1
  O  O57  1  0.136168  0.471193  0.689279  1
  O  O58  1  0.205606  0.161628  0.882514  1
  O  O59  1  0.753427  0.556104  0.040910  1
  O  O60  1  0.460944  0.883865  0.409702  1
  O  O61  1  0.838372  0.043978  0.882514  1
  O  O62  1  0.794394  0.956022  0.382514  1
  O  O63  1  0.528807  0.863832  0.810721  1
  O  O64  1  0.043978  0.205606  0.117486  1
  O  O65  1  0.794394  0.838372  0.117486  1
  O  O66  1  0.246573  0.443896  0.959090  1
  O  O67  1  0.863832  0.528807  0.310721  1
  O  O68  1  0.577079  0.460944  0.590298  1
  O  O69  1  0.956022  0.794394  0.882514  1
  O  O70  1  0.000000  0.000000  0.750000  1
  O  O71  1  0.556104  0.802677  0.959090  1
