# generated using pymatgen
data_ScTaO4
_symmetry_space_group_name_H-M   'P 1'
_cell_length_a   4.84802095
_cell_length_b   5.74907691
_cell_length_c   5.15524564
_cell_angle_alpha   90.00000000
_cell_angle_beta   91.48556305
_cell_angle_gamma   90.00000000
_symmetry_Int_Tables_number   1
_chemical_formula_structural   ScTaO4
_chemical_formula_sum   'Sc2 Ta2 O8'
_cell_volume   143.63688376
_cell_formula_units_Z   2
loop_
 _symmetry_equiv_pos_site_id
 _symmetry_equiv_pos_as_xyz
  1  'x, y, z'
loop_
 _atom_site_type_symbol
 _atom_site_label
 _atom_site_symmetry_multiplicity
 _atom_site_fract_x
 _atom_site_fract_y
 _atom_site_fract_z
 _atom_site_occupancy
  Sc  Sc0  1  0.000000  0.322905  0.750000  1
  Sc  Sc1  1  0.000000  0.677095  0.250000  1
  Ta  Ta2  1  0.500000  0.822753  0.750000  1
  Ta  Ta3  1  0.500000  0.177247  0.250000  1
  O  O4  1  0.282547  0.107336  0.564760  1
  O  O5  1  0.235135  0.616489  0.594963  1
  O  O6  1  0.717453  0.107336  0.935240  1
  O  O7  1  0.764865  0.383511  0.405037  1
  O  O8  1  0.764865  0.616489  0.905037  1
  O  O9  1  0.282547  0.892664  0.064760  1
  O  O10  1  0.235135  0.383511  0.094963  1
  O  O11  1  0.717453  0.892664  0.435240  1
