# generated using pymatgen
data_Rb4Zr3Se14
_symmetry_space_group_name_H-M   'P 1'
_cell_length_a   12.32666139
_cell_length_b   12.32666139
_cell_length_c   14.57089913
_cell_angle_alpha   69.77397600
_cell_angle_beta   110.22602400
_cell_angle_gamma   138.12485331
_symmetry_Int_Tables_number   1
_chemical_formula_structural   Rb4Zr3Se14
_chemical_formula_sum   'Rb8 Zr6 Se28'
_cell_volume   1372.88572944
_cell_formula_units_Z   2
loop_
 _symmetry_equiv_pos_site_id
 _symmetry_equiv_pos_as_xyz
  1  'x, y, z'
loop_
 _atom_site_type_symbol
 _atom_site_label
 _atom_site_symmetry_multiplicity
 _atom_site_fract_x
 _atom_site_fract_y
 _atom_site_fract_z
 _atom_site_occupancy
  Rb  Rb0  1  0.021057  0.624615  0.107793  1
  Rb  Rb1  1  0.624615  0.021057  0.392207  1
  Rb  Rb2  1  0.978943  0.375385  0.892207  1
  Rb  Rb3  1  0.375385  0.978943  0.607793  1
  Rb  Rb4  1  0.181805  0.318059  0.350594  1
  Rb  Rb5  1  0.318059  0.181805  0.149406  1
  Rb  Rb6  1  0.818195  0.681941  0.649406  1
  Rb  Rb7  1  0.681941  0.818195  0.850594  1
  Zr  Zr8  1  0.924721  0.589344  0.414065  1
  Zr  Zr9  1  0.589344  0.924721  0.085935  1
  Zr  Zr10  1  0.075279  0.410656  0.585935  1
  Zr  Zr11  1  0.410656  0.075279  0.914065  1
  Zr  Zr12  1  0.761393  0.761393  0.250000  1
  Zr  Zr13  1  0.238607  0.238607  0.750000  1
  Se  Se14  1  0.873074  0.800546  0.096945  1
  Se  Se15  1  0.800546  0.873074  0.403055  1
  Se  Se16  1  0.126926  0.199454  0.903055  1
  Se  Se17  1  0.199454  0.126926  0.596945  1
  Se  Se18  1  0.660924  0.531253  0.421492  1
  Se  Se19  1  0.531253  0.660924  0.078508  1
  Se  Se20  1  0.339076  0.468747  0.578508  1
  Se  Se21  1  0.468747  0.339076  0.921492  1
  Se  Se22  1  0.072331  0.908889  0.367087  1
  Se  Se23  1  0.908889  0.072331  0.132913  1
  Se  Se24  1  0.927669  0.091111  0.632913  1
  Se  Se25  1  0.091111  0.927669  0.867087  1
  Se  Se26  1  0.743114  0.544129  0.216117  1
  Se  Se27  1  0.544129  0.743114  0.283883  1
  Se  Se28  1  0.256886  0.455871  0.783883  1
  Se  Se29  1  0.455871  0.256886  0.716117  1
  Se  Se30  1  0.993255  0.431965  0.395748  1
  Se  Se31  1  0.431965  0.993255  0.104252  1
  Se  Se32  1  0.006745  0.568035  0.604252  1
  Se  Se33  1  0.568035  0.006745  0.895748  1
  Se  Se34  1  0.848304  0.198089  0.169643  1
  Se  Se35  1  0.198089  0.848304  0.330357  1
  Se  Se36  1  0.151696  0.801911  0.830357  1
  Se  Se37  1  0.801911  0.151696  0.669643  1
  Se  Se38  1  0.304153  0.596105  0.109384  1
  Se  Se39  1  0.596105  0.304153  0.390616  1
  Se  Se40  1  0.695847  0.403895  0.890616  1
  Se  Se41  1  0.403895  0.695847  0.609384  1
