# generated using pymatgen
data_InPH2O5
_symmetry_space_group_name_H-M   'P 1'
_cell_length_a   5.51573396
_cell_length_b   5.56834996
_cell_length_c   6.65093866
_cell_angle_alpha   97.17663586
_cell_angle_beta   94.36122726
_cell_angle_gamma   107.21620313
_symmetry_Int_Tables_number   1
_chemical_formula_structural   InPH2O5
_chemical_formula_sum   'In2 P2 H4 O10'
_cell_volume   192.21109444
_cell_formula_units_Z   2
loop_
 _symmetry_equiv_pos_site_id
 _symmetry_equiv_pos_as_xyz
  1  'x, y, z'
loop_
 _atom_site_type_symbol
 _atom_site_label
 _atom_site_symmetry_multiplicity
 _atom_site_fract_x
 _atom_site_fract_y
 _atom_site_fract_z
 _atom_site_occupancy
  In  In0  1  0.139055  0.733168  0.221386  1
  In  In1  1  0.860945  0.266832  0.778614  1
  P  P2  1  0.765466  0.123837  0.256227  1
  P  P3  1  0.234534  0.876163  0.743773  1
  H  H4  1  0.580378  0.629022  0.214617  1
  H  H5  1  0.419622  0.370978  0.785383  1
  H  H6  1  0.406359  0.353892  0.260178  1
  H  H7  1  0.593641  0.646108  0.739822  1
  O  O8  1  0.139813  0.662223  0.882340  1
  O  O9  1  0.860187  0.337777  0.117660  1
  O  O10  1  0.821960  0.878534  0.161594  1
  O  O11  1  0.178040  0.121466  0.838406  1
  O  O12  1  0.472140  0.069187  0.253437  1
  O  O13  1  0.527860  0.930813  0.746563  1
  O  O14  1  0.084071  0.770679  0.532736  1
  O  O15  1  0.915929  0.229321  0.467264  1
  O  O16  1  0.420682  0.537899  0.268441  1
  O  O17  1  0.579318  0.462101  0.731559  1
