# generated using pymatgen
data_K2MoSeO6
_symmetry_space_group_name_H-M   'P 1'
_cell_length_a   6.29360705
_cell_length_b   15.55646478
_cell_length_c   7.77543268
_cell_angle_alpha   90.00000000
_cell_angle_beta   112.68490529
_cell_angle_gamma   90.00000000
_symmetry_Int_Tables_number   1
_chemical_formula_structural   K2MoSeO6
_chemical_formula_sum   'K8 Mo4 Se4 O24'
_cell_volume   702.37209521
_cell_formula_units_Z   4
loop_
 _symmetry_equiv_pos_site_id
 _symmetry_equiv_pos_as_xyz
  1  'x, y, z'
loop_
 _atom_site_type_symbol
 _atom_site_label
 _atom_site_symmetry_multiplicity
 _atom_site_fract_x
 _atom_site_fract_y
 _atom_site_fract_z
 _atom_site_occupancy
  K  K0  1  0.894239  0.054324  0.186643  1
  K  K1  1  0.358214  0.198281  0.110813  1
  K  K2  1  0.105761  0.945676  0.813357  1
  K  K3  1  0.894239  0.445676  0.686643  1
  K  K4  1  0.641786  0.801719  0.889187  1
  K  K5  1  0.641786  0.698281  0.389187  1
  K  K6  1  0.105761  0.554324  0.313357  1
  K  K7  1  0.358214  0.301719  0.610813  1
  Mo  Mo8  1  0.460608  0.936940  0.316817  1
  Mo  Mo9  1  0.539392  0.436940  0.183183  1
  Mo  Mo10  1  0.539392  0.063060  0.683183  1
  Mo  Mo11  1  0.460608  0.563060  0.816817  1
  Se  Se12  1  0.101575  0.826158  0.378158  1
  Se  Se13  1  0.101575  0.673842  0.878158  1
  Se  Se14  1  0.898425  0.173842  0.621842  1
  Se  Se15  1  0.898425  0.326158  0.121842  1
  O  O16  1  0.950921  0.228631  0.222988  1
  O  O17  1  0.370973  0.022220  0.152038  1
  O  O18  1  0.414836  0.136771  0.790728  1
  O  O19  1  0.595870  0.335393  0.008584  1
  O  O20  1  0.595870  0.164607  0.508584  1
  O  O21  1  0.708652  0.519628  0.008069  1
  O  O22  1  0.950921  0.271369  0.722988  1
  O  O23  1  0.291348  0.019628  0.491931  1
  O  O24  1  0.629027  0.522220  0.347962  1
  O  O25  1  0.105432  0.604188  0.698323  1
  O  O26  1  0.894568  0.395812  0.301677  1
  O  O27  1  0.708652  0.980372  0.508069  1
  O  O28  1  0.291348  0.480372  0.991931  1
  O  O29  1  0.370973  0.477780  0.652038  1
  O  O30  1  0.049079  0.771369  0.777012  1
  O  O31  1  0.105432  0.895812  0.198323  1
  O  O32  1  0.585164  0.636771  0.709272  1
  O  O33  1  0.414836  0.363229  0.290728  1
  O  O34  1  0.629027  0.977780  0.847962  1
  O  O35  1  0.049079  0.728631  0.277012  1
  O  O36  1  0.585164  0.863229  0.209272  1
  O  O37  1  0.404130  0.835393  0.491416  1
  O  O38  1  0.894568  0.104188  0.801677  1
  O  O39  1  0.404130  0.664607  0.991416  1
