# generated using pymatgen
data_Cu3SbS3
_symmetry_space_group_name_H-M   'P 1'
_cell_length_a   7.84357133
_cell_length_b   10.26946967
_cell_length_c   13.40463275
_cell_angle_alpha   90.00000000
_cell_angle_beta   90.26614236
_cell_angle_gamma   90.00000000
_symmetry_Int_Tables_number   1
_chemical_formula_structural   Cu3SbS3
_chemical_formula_sum   'Cu24 Sb8 S24'
_cell_volume   1079.72237575
_cell_formula_units_Z   8
loop_
 _symmetry_equiv_pos_site_id
 _symmetry_equiv_pos_as_xyz
  1  'x, y, z'
loop_
 _atom_site_type_symbol
 _atom_site_label
 _atom_site_symmetry_multiplicity
 _atom_site_fract_x
 _atom_site_fract_y
 _atom_site_fract_z
 _atom_site_occupancy
  Cu  Cu0  1  0.805019  0.402359  0.919405  1
  Cu  Cu1  1  0.307104  0.104187  0.829904  1
  Cu  Cu2  1  0.061360  0.960539  0.135420  1
  Cu  Cu3  1  0.157472  0.097898  0.298193  1
  Cu  Cu4  1  0.061360  0.539461  0.635420  1
  Cu  Cu5  1  0.938640  0.039461  0.864580  1
  Cu  Cu6  1  0.805019  0.097641  0.419405  1
  Cu  Cu7  1  0.565501  0.529066  0.100839  1
  Cu  Cu8  1  0.692896  0.604187  0.670096  1
  Cu  Cu9  1  0.938640  0.460539  0.364580  1
  Cu  Cu10  1  0.842528  0.902102  0.701807  1
  Cu  Cu11  1  0.651221  0.398909  0.452401  1
  Cu  Cu12  1  0.434499  0.029066  0.399161  1
  Cu  Cu13  1  0.348779  0.601091  0.547599  1
  Cu  Cu14  1  0.842528  0.597898  0.201807  1
  Cu  Cu15  1  0.434499  0.470934  0.899161  1
  Cu  Cu16  1  0.348779  0.898909  0.047599  1
  Cu  Cu17  1  0.194981  0.902359  0.580595  1
  Cu  Cu18  1  0.565501  0.970934  0.600839  1
  Cu  Cu19  1  0.194981  0.597641  0.080595  1
  Cu  Cu20  1  0.307104  0.395813  0.329904  1
  Cu  Cu21  1  0.157472  0.402102  0.798193  1
  Cu  Cu22  1  0.692896  0.895813  0.170096  1
  Cu  Cu23  1  0.651221  0.101091  0.952401  1
  Sb  Sb24  1  0.213438  0.245062  0.555244  1
  Sb  Sb25  1  0.716989  0.252845  0.695533  1
  Sb  Sb26  1  0.786562  0.745062  0.944756  1
  Sb  Sb27  1  0.283011  0.747155  0.304467  1
  Sb  Sb28  1  0.213438  0.254938  0.055244  1
  Sb  Sb29  1  0.283011  0.752845  0.804467  1
  Sb  Sb30  1  0.716989  0.247155  0.195533  1
  Sb  Sb31  1  0.786562  0.754938  0.444756  1
  S  S32  1  0.949218  0.245010  0.326765  1
  S  S33  1  0.817861  0.433936  0.588222  1
  S  S34  1  0.317302  0.069597  0.159328  1
  S  S35  1  0.554426  0.749895  0.073931  1
  S  S36  1  0.554426  0.750105  0.573931  1
  S  S37  1  0.826237  0.430001  0.087427  1
  S  S38  1  0.182139  0.566064  0.411778  1
  S  S39  1  0.817861  0.066064  0.088222  1
  S  S40  1  0.173763  0.569999  0.912573  1
  S  S41  1  0.670544  0.933463  0.335640  1
  S  S42  1  0.173763  0.930001  0.412573  1
  S  S43  1  0.329456  0.433463  0.164360  1
  S  S44  1  0.670544  0.566537  0.835640  1
  S  S45  1  0.682698  0.569597  0.340672  1
  S  S46  1  0.182139  0.933936  0.911778  1
  S  S47  1  0.826237  0.069999  0.587427  1
  S  S48  1  0.050782  0.745010  0.173235  1
  S  S49  1  0.445574  0.250105  0.926069  1
  S  S50  1  0.445574  0.249895  0.426069  1
  S  S51  1  0.050782  0.754990  0.673235  1
  S  S52  1  0.317302  0.430403  0.659328  1
  S  S53  1  0.329456  0.066537  0.664360  1
  S  S54  1  0.949218  0.254990  0.826765  1
  S  S55  1  0.682698  0.930403  0.840672  1
