# generated using pymatgen
data_Ca3Si(ClO2)2
_symmetry_space_group_name_H-M   'P 1'
_cell_length_a   9.92636999
_cell_length_b   6.82247319
_cell_length_c   10.93581749
_cell_angle_alpha   90.00000000
_cell_angle_beta   105.73680639
_cell_angle_gamma   90.00000000
_symmetry_Int_Tables_number   1
_chemical_formula_structural   Ca3Si(ClO2)2
_chemical_formula_sum   'Ca12 Si4 Cl8 O16'
_cell_volume   712.84036146
_cell_formula_units_Z   4
loop_
 _symmetry_equiv_pos_site_id
 _symmetry_equiv_pos_as_xyz
  1  'x, y, z'
loop_
 _atom_site_type_symbol
 _atom_site_label
 _atom_site_symmetry_multiplicity
 _atom_site_fract_x
 _atom_site_fract_y
 _atom_site_fract_z
 _atom_site_occupancy
  Ca  Ca0  1  0.197270  0.258747  0.045830  1
  Ca  Ca1  1  0.802730  0.758747  0.454170  1
  Ca  Ca2  1  0.802730  0.741253  0.954170  1
  Ca  Ca3  1  0.197270  0.241253  0.545830  1
  Ca  Ca4  1  0.078733  0.538804  0.271788  1
  Ca  Ca5  1  0.921267  0.038804  0.228212  1
  Ca  Ca6  1  0.921267  0.461196  0.728212  1
  Ca  Ca7  1  0.078733  0.961196  0.771788  1
  Ca  Ca8  1  0.424904  0.783398  0.111018  1
  Ca  Ca9  1  0.575096  0.283398  0.388982  1
  Ca  Ca10  1  0.575096  0.216602  0.888982  1
  Ca  Ca11  1  0.424904  0.716602  0.611018  1
  Si  Si12  1  0.118700  0.750267  0.029792  1
  Si  Si13  1  0.881300  0.250267  0.470208  1
  Si  Si14  1  0.881300  0.249733  0.970208  1
  Si  Si15  1  0.118700  0.749733  0.529792  1
  Cl  Cl16  1  0.507993  0.201152  0.124680  1
  Cl  Cl17  1  0.492007  0.701152  0.375320  1
  Cl  Cl18  1  0.492007  0.798848  0.875320  1
  Cl  Cl19  1  0.507993  0.298848  0.624680  1
  Cl  Cl20  1  0.286150  0.182172  0.318866  1
  Cl  Cl21  1  0.713850  0.682172  0.181134  1
  Cl  Cl22  1  0.713850  0.817828  0.681134  1
  Cl  Cl23  1  0.286150  0.317828  0.818866  1
  O  O24  1  0.233109  0.583188  0.103597  1
  O  O25  1  0.766891  0.083188  0.396403  1
  O  O26  1  0.766891  0.416812  0.896403  1
  O  O27  1  0.233109  0.916812  0.603597  1
  O  O28  1  0.219431  0.931405  0.005584  1
  O  O29  1  0.780569  0.431405  0.494416  1
  O  O30  1  0.780569  0.068595  0.994416  1
  O  O31  1  0.219431  0.568595  0.505584  1
  O  O32  1  0.015181  0.798086  0.120804  1
  O  O33  1  0.984819  0.298086  0.379196  1
  O  O34  1  0.984819  0.201914  0.879196  1
  O  O35  1  0.015181  0.701914  0.620804  1
  O  O36  1  0.013575  0.807287  0.390035  1
  O  O37  1  0.986425  0.307287  0.109965  1
  O  O38  1  0.986425  0.192713  0.609965  1
  O  O39  1  0.013575  0.692713  0.890035  1
