# generated using pymatgen
data_CsN3
_symmetry_space_group_name_H-M   'P 1'
_cell_length_a   6.25028764
_cell_length_b   6.25028764
_cell_length_c   6.25028764
_cell_angle_alpha   115.30323690
_cell_angle_beta   115.30323690
_cell_angle_gamma   98.34782567
_symmetry_Int_Tables_number   1
_chemical_formula_structural   CsN3
_chemical_formula_sum   'Cs2 N6'
_cell_volume   182.80849487
_cell_formula_units_Z   2
loop_
 _symmetry_equiv_pos_site_id
 _symmetry_equiv_pos_as_xyz
  1  'x, y, z'
loop_
 _atom_site_type_symbol
 _atom_site_label
 _atom_site_symmetry_multiplicity
 _atom_site_fract_x
 _atom_site_fract_y
 _atom_site_fract_z
 _atom_site_occupancy
  Cs  Cs0  1  0.250000  0.250000  0.000000  1
  Cs  Cs1  1  0.750000  0.750000  0.000000  1
  N  N2  1  0.500000  0.000000  0.500000  1
  N  N3  1  0.625822  0.125822  0.751644  1
  N  N4  1  0.125822  0.374178  0.500000  1
  N  N5  1  0.874178  0.625822  0.500000  1
  N  N6  1  0.374178  0.874178  0.248356  1
  N  N7  1  0.000000  0.500000  0.500000  1
