# generated using pymatgen
data_MgV2PbO7
_symmetry_space_group_name_H-M   'P 1'
_cell_length_a   6.96238387
_cell_length_b   15.27935970
_cell_length_c   11.70902064
_cell_angle_alpha   90.00000000
_cell_angle_beta   97.92785841
_cell_angle_gamma   90.00000000
_symmetry_Int_Tables_number   1
_chemical_formula_structural   MgV2PbO7
_chemical_formula_sum   'Mg8 V16 Pb8 O56'
_cell_volume   1233.70966374
_cell_formula_units_Z   8
loop_
 _symmetry_equiv_pos_site_id
 _symmetry_equiv_pos_as_xyz
  1  'x, y, z'
loop_
 _atom_site_type_symbol
 _atom_site_label
 _atom_site_symmetry_multiplicity
 _atom_site_fract_x
 _atom_site_fract_y
 _atom_site_fract_z
 _atom_site_occupancy
  Mg  Mg0  1  0.011426  0.750922  0.760227  1
  Mg  Mg1  1  0.375820  0.676783  0.937200  1
  Mg  Mg2  1  0.624180  0.323217  0.062800  1
  Mg  Mg3  1  0.988574  0.250922  0.739773  1
  Mg  Mg4  1  0.011426  0.749078  0.260227  1
  Mg  Mg5  1  0.624180  0.176783  0.562800  1
  Mg  Mg6  1  0.375820  0.823217  0.437200  1
  Mg  Mg7  1  0.988574  0.249078  0.239773  1
  V  V8  1  0.491081  0.304162  0.769300  1
  V  V9  1  0.629224  0.493369  0.853883  1
  V  V10  1  0.156220  0.863023  0.020204  1
  V  V11  1  0.843780  0.363023  0.479796  1
  V  V12  1  0.370776  0.993369  0.646117  1
  V  V13  1  0.111798  0.357189  0.004656  1
  V  V14  1  0.156220  0.636977  0.520204  1
  V  V15  1  0.508919  0.804162  0.730700  1
  V  V16  1  0.491081  0.195838  0.269300  1
  V  V17  1  0.508919  0.695838  0.230700  1
  V  V18  1  0.629224  0.006631  0.353883  1
  V  V19  1  0.843780  0.136977  0.979796  1
  V  V20  1  0.888202  0.642811  0.995344  1
  V  V21  1  0.111798  0.142811  0.504656  1
  V  V22  1  0.888202  0.857189  0.495344  1
  V  V23  1  0.370776  0.506631  0.146117  1
  Pb  Pb24  1  0.340810  0.125364  0.946224  1
  Pb  Pb25  1  0.109739  0.018689  0.221803  1
  Pb  Pb26  1  0.890261  0.981311  0.778197  1
  Pb  Pb27  1  0.659190  0.874636  0.053776  1
  Pb  Pb28  1  0.109739  0.481311  0.721803  1
  Pb  Pb29  1  0.890261  0.518689  0.278197  1
  Pb  Pb30  1  0.340810  0.374636  0.446224  1
  Pb  Pb31  1  0.659190  0.625364  0.553776  1
  O  O32  1  0.700628  0.764335  0.214787  1
  O  O33  1  0.310222  0.290996  0.032940  1
  O  O34  1  0.674866  0.249566  0.713286  1
  O  O35  1  0.937482  0.333241  0.094266  1
  O  O36  1  0.299372  0.235665  0.785213  1
  O  O37  1  0.062518  0.833241  0.405734  1
  O  O38  1  0.733727  0.509106  0.733556  1
  O  O39  1  0.018312  0.147238  0.361190  1
  O  O40  1  0.062518  0.666759  0.905734  1
  O  O41  1  0.700628  0.735665  0.714787  1
  O  O42  1  0.325134  0.749566  0.786714  1
  O  O43  1  0.244174  0.968000  0.041652  1
  O  O44  1  0.674866  0.250434  0.213286  1
  O  O45  1  0.755826  0.032000  0.958348  1
  O  O46  1  0.420873  0.620449  0.106336  1
  O  O47  1  0.648601  0.290372  0.466242  1
  O  O48  1  0.018312  0.352762  0.861190  1
  O  O49  1  0.985946  0.355279  0.615233  1
  O  O50  1  0.325134  0.750434  0.286714  1
  O  O51  1  0.244174  0.532000  0.541652  1
  O  O52  1  0.266273  0.490894  0.266444  1
  O  O53  1  0.351399  0.709628  0.533758  1
  O  O54  1  0.985946  0.144721  0.115233  1
  O  O55  1  0.689778  0.709004  0.967060  1
  O  O56  1  0.601649  0.616494  0.324557  1
  O  O57  1  0.420873  0.879551  0.606336  1
  O  O58  1  0.014054  0.855279  0.884767  1
  O  O59  1  0.579127  0.120449  0.393664  1
  O  O60  1  0.799235  0.968994  0.471370  1
  O  O61  1  0.988336  0.346882  0.369218  1
  O  O62  1  0.011664  0.653118  0.630782  1
  O  O63  1  0.011664  0.846882  0.130782  1
  O  O64  1  0.014054  0.644721  0.384767  1
  O  O65  1  0.398351  0.116494  0.175443  1
  O  O66  1  0.398351  0.383506  0.675443  1
  O  O67  1  0.981688  0.647238  0.138810  1
  O  O68  1  0.200765  0.031006  0.528630  1
  O  O69  1  0.799235  0.531006  0.971370  1
  O  O70  1  0.266273  0.009106  0.766444  1
  O  O71  1  0.755826  0.468000  0.458348  1
  O  O72  1  0.570445  0.058701  0.648626  1
  O  O73  1  0.601649  0.883506  0.824557  1
  O  O74  1  0.579127  0.379551  0.893664  1
  O  O75  1  0.310222  0.209004  0.532940  1
  O  O76  1  0.937482  0.166759  0.594266  1
  O  O77  1  0.981688  0.852762  0.638810  1
  O  O78  1  0.351399  0.790372  0.033758  1
  O  O79  1  0.988336  0.153118  0.869218  1
  O  O80  1  0.200765  0.468994  0.028630  1
  O  O81  1  0.429555  0.558701  0.851374  1
  O  O82  1  0.733727  0.990894  0.233556  1
  O  O83  1  0.299372  0.264335  0.285213  1
  O  O84  1  0.689778  0.790996  0.467060  1
  O  O85  1  0.429555  0.941299  0.351374  1
  O  O86  1  0.648601  0.209628  0.966242  1
  O  O87  1  0.570445  0.441299  0.148626  1
