# generated using pymatgen
data_CaTaNO2
_symmetry_space_group_name_H-M   'P 1'
_cell_length_a   5.59674424
_cell_length_b   5.71500845
_cell_length_c   7.85787585
_cell_angle_alpha   90.00000000
_cell_angle_beta   90.00000000
_cell_angle_gamma   90.00000000
_symmetry_Int_Tables_number   1
_chemical_formula_structural   CaTaNO2
_chemical_formula_sum   'Ca4 Ta4 N4 O8'
_cell_volume   251.33762143
_cell_formula_units_Z   4
loop_
 _symmetry_equiv_pos_site_id
 _symmetry_equiv_pos_as_xyz
  1  'x, y, z'
loop_
 _atom_site_type_symbol
 _atom_site_label
 _atom_site_symmetry_multiplicity
 _atom_site_fract_x
 _atom_site_fract_y
 _atom_site_fract_z
 _atom_site_occupancy
  Ca  Ca0  1  0.242271  0.450722  0.500000  1
  Ca  Ca1  1  0.757729  0.950722  0.500000  1
  Ca  Ca2  1  0.732118  0.037486  0.000000  1
  Ca  Ca3  1  0.267882  0.537486  0.000000  1
  Ta  Ta4  1  0.765383  0.488043  0.254053  1
  Ta  Ta5  1  0.234617  0.988043  0.254053  1
  Ta  Ta6  1  0.234617  0.988043  0.745947  1
  Ta  Ta7  1  0.765383  0.488043  0.745947  1
  N  N8  1  0.964302  0.216324  0.704033  1
  N  N9  1  0.035698  0.716324  0.295967  1
  N  N10  1  0.964302  0.216324  0.295967  1
  N  N11  1  0.035698  0.716324  0.704033  1
  O  O12  1  0.832045  0.481957  0.000000  1
  O  O13  1  0.537640  0.796118  0.201988  1
  O  O14  1  0.346748  0.029065  0.500000  1
  O  O15  1  0.167955  0.981957  0.000000  1
  O  O16  1  0.653252  0.529065  0.500000  1
  O  O17  1  0.537640  0.796118  0.798012  1
  O  O18  1  0.462360  0.296118  0.201988  1
  O  O19  1  0.462360  0.296118  0.798012  1
