# generated using pymatgen
data_SiO2
_symmetry_space_group_name_H-M   'P 1'
_cell_length_a   12.77384709
_cell_length_b   12.77384709
_cell_length_c   13.35444955
_cell_angle_alpha   90.00000000
_cell_angle_beta   90.00000000
_cell_angle_gamma   90.00000000
_symmetry_Int_Tables_number   1
_chemical_formula_structural   SiO2
_chemical_formula_sum   'Si32 O64'
_cell_volume   2179.06115082
_cell_formula_units_Z   32
loop_
 _symmetry_equiv_pos_site_id
 _symmetry_equiv_pos_as_xyz
  1  'x, y, z'
loop_
 _atom_site_type_symbol
 _atom_site_label
 _atom_site_symmetry_multiplicity
 _atom_site_fract_x
 _atom_site_fract_y
 _atom_site_fract_z
 _atom_site_occupancy
  Si  Si0  1  0.622259  0.124616  0.114608  1
  Si  Si1  1  0.875384  0.377741  0.385392  1
  Si  Si2  1  0.124616  0.377741  0.614608  1
  Si  Si3  1  0.194153  0.805847  0.750000  1
  Si  Si4  1  0.377741  0.875384  0.114608  1
  Si  Si5  1  0.875384  0.622259  0.385392  1
  Si  Si6  1  0.873483  0.000000  0.618139  1
  Si  Si7  1  0.873483  0.000000  0.381861  1
  Si  Si8  1  0.194153  0.805847  0.250000  1
  Si  Si9  1  0.124616  0.622259  0.614608  1
  Si  Si10  1  0.377741  0.124616  0.114608  1
  Si  Si11  1  0.622259  0.875384  0.114608  1
  Si  Si12  1  0.805847  0.194153  0.750000  1
  Si  Si13  1  0.875384  0.377741  0.614608  1
  Si  Si14  1  0.000000  0.126517  0.118139  1
  Si  Si15  1  0.805847  0.805847  0.750000  1
  Si  Si16  1  0.000000  0.873483  0.118139  1
  Si  Si17  1  0.000000  0.126517  0.881861  1
  Si  Si18  1  0.124616  0.377741  0.385392  1
  Si  Si19  1  0.805847  0.194153  0.250000  1
  Si  Si20  1  0.000000  0.873483  0.881861  1
  Si  Si21  1  0.805847  0.805847  0.250000  1
  Si  Si22  1  0.126517  0.000000  0.618139  1
  Si  Si23  1  0.875384  0.622259  0.614608  1
  Si  Si24  1  0.194153  0.194153  0.250000  1
  Si  Si25  1  0.194153  0.194153  0.750000  1
  Si  Si26  1  0.622259  0.875384  0.885392  1
  Si  Si27  1  0.126517  0.000000  0.381861  1
  Si  Si28  1  0.377741  0.124616  0.885392  1
  Si  Si29  1  0.622259  0.124616  0.885392  1
  Si  Si30  1  0.377741  0.875384  0.885392  1
  Si  Si31  1  0.124616  0.622259  0.385392  1
  O  O32  1  0.160348  0.349804  0.500000  1
  O  O33  1  0.353784  0.000000  0.872965  1
  O  O34  1  0.103091  0.180456  0.833744  1
  O  O35  1  0.188548  0.307139  0.694532  1
  O  O36  1  0.188548  0.692861  0.694532  1
  O  O37  1  0.500000  0.850904  0.138816  1
  O  O38  1  0.819544  0.896909  0.333744  1
  O  O39  1  0.896909  0.180456  0.166256  1
  O  O40  1  0.811452  0.692861  0.694532  1
  O  O41  1  0.180456  0.103091  0.333744  1
  O  O42  1  0.500000  0.149096  0.861184  1
  O  O43  1  0.180456  0.896909  0.666256  1
  O  O44  1  0.103091  0.819544  0.166256  1
  O  O45  1  0.819544  0.896909  0.666256  1
  O  O46  1  0.811452  0.307139  0.305468  1
  O  O47  1  0.819544  0.103091  0.666256  1
  O  O48  1  0.180456  0.103091  0.666256  1
  O  O49  1  0.839652  0.650196  0.500000  1
  O  O50  1  0.819544  0.103091  0.333744  1
  O  O51  1  0.692861  0.188548  0.805468  1
  O  O52  1  0.646216  0.000000  0.872965  1
  O  O53  1  0.152105  0.000000  0.500000  1
  O  O54  1  0.000000  0.353784  0.627035  1
  O  O55  1  0.180456  0.896909  0.333744  1
  O  O56  1  0.307139  0.811452  0.805468  1
  O  O57  1  0.188548  0.692861  0.305468  1
  O  O58  1  0.307139  0.188548  0.805468  1
  O  O59  1  0.353784  0.000000  0.127035  1
  O  O60  1  0.000000  0.353784  0.372965  1
  O  O61  1  0.000000  0.847895  0.000000  1
  O  O62  1  0.692861  0.188548  0.194532  1
  O  O63  1  0.839652  0.349804  0.500000  1
  O  O64  1  0.896909  0.819544  0.833744  1
  O  O65  1  0.850904  0.500000  0.361184  1
  O  O66  1  0.000000  0.646216  0.627035  1
  O  O67  1  0.500000  0.850904  0.861184  1
  O  O68  1  0.307139  0.811452  0.194532  1
  O  O69  1  0.000000  0.152105  0.000000  1
  O  O70  1  0.896909  0.180456  0.833744  1
  O  O71  1  0.000000  0.000000  0.363622  1
  O  O72  1  0.896909  0.819544  0.166256  1
  O  O73  1  0.188548  0.307139  0.305468  1
  O  O74  1  0.149096  0.500000  0.361184  1
  O  O75  1  0.000000  0.000000  0.863622  1
  O  O76  1  0.847895  0.000000  0.500000  1
  O  O77  1  0.103091  0.180456  0.166256  1
  O  O78  1  0.646216  0.000000  0.127035  1
  O  O79  1  0.811452  0.692861  0.305468  1
  O  O80  1  0.000000  0.000000  0.636378  1
  O  O81  1  0.349804  0.160348  0.000000  1
  O  O82  1  0.000000  0.646216  0.372965  1
  O  O83  1  0.149096  0.500000  0.638816  1
  O  O84  1  0.500000  0.149096  0.138816  1
  O  O85  1  0.307139  0.188548  0.194532  1
  O  O86  1  0.811452  0.307139  0.694532  1
  O  O87  1  0.692861  0.811452  0.194532  1
  O  O88  1  0.000000  0.000000  0.136378  1
  O  O89  1  0.160348  0.650196  0.500000  1
  O  O90  1  0.692861  0.811452  0.805468  1
  O  O91  1  0.850904  0.500000  0.638816  1
  O  O92  1  0.650196  0.839652  0.000000  1
  O  O93  1  0.103091  0.819544  0.833744  1
  O  O94  1  0.349804  0.839652  0.000000  1
  O  O95  1  0.650196  0.160348  0.000000  1
