# generated using pymatgen
data_K4MoS3O14
_symmetry_space_group_name_H-M   'P 1'
_cell_length_a   7.85017919
_cell_length_b   10.77358286
_cell_length_c   17.37504715
_cell_angle_alpha   90.00000000
_cell_angle_beta   90.00000000
_cell_angle_gamma   90.00000000
_symmetry_Int_Tables_number   1
_chemical_formula_structural   K4MoS3O14
_chemical_formula_sum   'K16 Mo4 S12 O56'
_cell_volume   1469.48689766
_cell_formula_units_Z   4
loop_
 _symmetry_equiv_pos_site_id
 _symmetry_equiv_pos_as_xyz
  1  'x, y, z'
loop_
 _atom_site_type_symbol
 _atom_site_label
 _atom_site_symmetry_multiplicity
 _atom_site_fract_x
 _atom_site_fract_y
 _atom_site_fract_z
 _atom_site_occupancy
  K  K0  1  0.061407  0.256896  0.090058  1
  K  K1  1  0.239315  0.890162  0.110959  1
  K  K2  1  0.260685  0.390162  0.889041  1
  K  K3  1  0.739315  0.609838  0.110959  1
  K  K4  1  0.438593  0.756896  0.590058  1
  K  K5  1  0.561407  0.243104  0.090058  1
  K  K6  1  0.061407  0.256896  0.409942  1
  K  K7  1  0.938593  0.743104  0.909942  1
  K  K8  1  0.561407  0.243104  0.409942  1
  K  K9  1  0.260685  0.390162  0.610959  1
  K  K10  1  0.739315  0.609838  0.389041  1
  K  K11  1  0.239315  0.890162  0.389041  1
  K  K12  1  0.760685  0.109838  0.889041  1
  K  K13  1  0.938593  0.743104  0.590058  1
  K  K14  1  0.438593  0.756896  0.909942  1
  K  K15  1  0.760685  0.109838  0.610959  1
  Mo  Mo16  1  0.675169  0.933491  0.250000  1
  Mo  Mo17  1  0.824831  0.433491  0.750000  1
  Mo  Mo18  1  0.324831  0.066509  0.750000  1
  Mo  Mo19  1  0.175169  0.566509  0.250000  1
  S  S20  1  0.265001  0.560296  0.065444  1
  S  S21  1  0.734999  0.439704  0.565444  1
  S  S22  1  0.380113  0.097742  0.250000  1
  S  S23  1  0.880113  0.402258  0.250000  1
  S  S24  1  0.265001  0.560296  0.434556  1
  S  S25  1  0.765001  0.939704  0.434556  1
  S  S26  1  0.234999  0.060296  0.565444  1
  S  S27  1  0.734999  0.439704  0.934556  1
  S  S28  1  0.619887  0.902258  0.750000  1
  S  S29  1  0.234999  0.060296  0.934556  1
  S  S30  1  0.765001  0.939704  0.065444  1
  S  S31  1  0.119887  0.597742  0.750000  1
  O  O32  1  0.934011  0.636075  0.750000  1
  O  O33  1  0.666479  0.899188  0.997937  1
  O  O34  1  0.794585  0.363402  0.320796  1
  O  O35  1  0.131964  0.552545  0.366451  1
  O  O36  1  0.294585  0.136598  0.179204  1
  O  O37  1  0.368036  0.052545  0.633549  1
  O  O38  1  0.104372  0.152064  0.586964  1
  O  O39  1  0.565989  0.136075  0.250000  1
  O  O40  1  0.166479  0.600812  0.997937  1
  O  O41  1  0.895628  0.847936  0.086964  1
  O  O42  1  0.895628  0.847936  0.413036  1
  O  O43  1  0.868036  0.447455  0.866451  1
  O  O44  1  0.368036  0.052545  0.866451  1
  O  O45  1  0.705415  0.863402  0.820796  1
  O  O46  1  0.294585  0.136598  0.320796  1
  O  O47  1  0.691922  0.773325  0.250000  1
  O  O48  1  0.631964  0.947455  0.133549  1
  O  O49  1  0.794585  0.363402  0.179204  1
  O  O50  1  0.604372  0.347936  0.913036  1
  O  O51  1  0.705415  0.863402  0.679204  1
  O  O52  1  0.131964  0.552545  0.133549  1
  O  O53  1  0.396046  0.954460  0.250000  1
  O  O54  1  0.833521  0.399188  0.002063  1
  O  O55  1  0.631964  0.947455  0.366451  1
  O  O56  1  0.332858  0.433481  0.055636  1
  O  O57  1  0.604372  0.347936  0.586964  1
  O  O58  1  0.167142  0.933481  0.944364  1
  O  O59  1  0.832858  0.066519  0.055636  1
  O  O60  1  0.380777  0.510503  0.250000  1
  O  O61  1  0.666479  0.899188  0.502063  1
  O  O62  1  0.395628  0.652064  0.086964  1
  O  O63  1  0.166479  0.600812  0.502063  1
  O  O64  1  0.205415  0.636598  0.679204  1
  O  O65  1  0.619223  0.489497  0.750000  1
  O  O66  1  0.333521  0.100812  0.002063  1
  O  O67  1  0.119223  0.010503  0.750000  1
  O  O68  1  0.308078  0.226675  0.750000  1
  O  O69  1  0.808078  0.273325  0.750000  1
  O  O70  1  0.205415  0.636598  0.820796  1
  O  O71  1  0.333521  0.100812  0.497937  1
  O  O72  1  0.896046  0.545540  0.250000  1
  O  O73  1  0.167142  0.933481  0.555636  1
  O  O74  1  0.667142  0.566519  0.944364  1
  O  O75  1  0.191922  0.726675  0.250000  1
  O  O76  1  0.667142  0.566519  0.555636  1
  O  O77  1  0.103954  0.454460  0.750000  1
  O  O78  1  0.065989  0.363925  0.250000  1
  O  O79  1  0.395628  0.652064  0.413036  1
  O  O80  1  0.868036  0.447455  0.633549  1
  O  O81  1  0.104372  0.152064  0.913036  1
  O  O82  1  0.434011  0.863925  0.750000  1
  O  O83  1  0.880777  0.989497  0.250000  1
  O  O84  1  0.603954  0.045540  0.750000  1
  O  O85  1  0.832858  0.066519  0.444364  1
  O  O86  1  0.332858  0.433481  0.444364  1
  O  O87  1  0.833521  0.399188  0.497937  1
