# generated using pymatgen
data_K3LuSi2O7
_symmetry_space_group_name_H-M   'P 1'
_cell_length_a   5.76515532
_cell_length_b   5.76515532
_cell_length_c   14.06422984
_cell_angle_alpha   90.00000000
_cell_angle_beta   90.00000000
_cell_angle_gamma   120.00000000
_symmetry_Int_Tables_number   1
_chemical_formula_structural   K3LuSi2O7
_chemical_formula_sum   'K6 Lu2 Si4 O14'
_cell_volume   404.82619896
_cell_formula_units_Z   2
loop_
 _symmetry_equiv_pos_site_id
 _symmetry_equiv_pos_as_xyz
  1  'x, y, z'
loop_
 _atom_site_type_symbol
 _atom_site_label
 _atom_site_symmetry_multiplicity
 _atom_site_fract_x
 _atom_site_fract_y
 _atom_site_fract_z
 _atom_site_occupancy
  K  K0  1  0.666667  0.333333  0.908378  1
  K  K1  1  0.333333  0.666667  0.091622  1
  K  K2  1  0.666667  0.333333  0.591622  1
  K  K3  1  0.333333  0.666667  0.408378  1
  K  K4  1  0.000000  0.000000  0.750000  1
  K  K5  1  0.000000  0.000000  0.250000  1
  Lu  Lu6  1  0.000000  0.000000  0.000000  1
  Lu  Lu7  1  0.000000  0.000000  0.500000  1
  Si  Si8  1  0.666667  0.333333  0.368747  1
  Si  Si9  1  0.666667  0.333333  0.131253  1
  Si  Si10  1  0.333333  0.666667  0.868747  1
  Si  Si11  1  0.333333  0.666667  0.631253  1
  O  O12  1  0.177459  0.354919  0.594768  1
  O  O13  1  0.822541  0.177459  0.094768  1
  O  O14  1  0.645081  0.822541  0.905232  1
  O  O15  1  0.822541  0.645081  0.094768  1
  O  O16  1  0.177459  0.822541  0.905232  1
  O  O17  1  0.822541  0.645081  0.405232  1
  O  O18  1  0.822541  0.177459  0.405232  1
  O  O19  1  0.177459  0.822541  0.594768  1
  O  O20  1  0.645081  0.822541  0.594768  1
  O  O21  1  0.354919  0.177459  0.094768  1
  O  O22  1  0.666667  0.333333  0.250000  1
  O  O23  1  0.177459  0.354919  0.905232  1
  O  O24  1  0.354919  0.177459  0.405232  1
  O  O25  1  0.333333  0.666667  0.750000  1
