# generated using pymatgen
data_NaMo3P3O16
_symmetry_space_group_name_H-M   'P 1'
_cell_length_a   6.50186094
_cell_length_b   7.78467378
_cell_length_c   13.00519822
_cell_angle_alpha   80.00681216
_cell_angle_beta   79.19740797
_cell_angle_gamma   82.98117593
_symmetry_Int_Tables_number   1
_chemical_formula_structural   NaMo3P3O16
_chemical_formula_sum   'Na2 Mo6 P6 O32'
_cell_volume   634.03978047
_cell_formula_units_Z   2
loop_
 _symmetry_equiv_pos_site_id
 _symmetry_equiv_pos_as_xyz
  1  'x, y, z'
loop_
 _atom_site_type_symbol
 _atom_site_label
 _atom_site_symmetry_multiplicity
 _atom_site_fract_x
 _atom_site_fract_y
 _atom_site_fract_z
 _atom_site_occupancy
  Na  Na0  1  0.599067  0.337721  0.328970  1
  Na  Na1  1  0.400933  0.662279  0.671030  1
  Mo  Mo2  1  0.203059  0.216284  0.539943  1
  Mo  Mo3  1  0.796941  0.783716  0.460057  1
  Mo  Mo4  1  0.403718  0.756981  0.163400  1
  Mo  Mo5  1  0.596282  0.243019  0.836600  1
  Mo  Mo6  1  0.058713  0.206479  0.144238  1
  Mo  Mo7  1  0.941287  0.793521  0.855762  1
  P  P8  1  0.573109  0.164561  0.101783  1
  P  P9  1  0.426891  0.835439  0.898217  1
  P  P10  1  0.307812  0.854908  0.421965  1
  P  P11  1  0.692188  0.145092  0.578035  1
  P  P12  1  0.064334  0.483646  0.316130  1
  P  P13  1  0.935666  0.516354  0.683870  1
  O  O14  1  0.195801  0.049001  0.644260  1
  O  O15  1  0.804199  0.950999  0.355740  1
  O  O16  1  0.897935  0.223279  0.521878  1
  O  O17  1  0.102065  0.776721  0.478122  1
  O  O18  1  0.518604  0.254985  0.520505  1
  O  O19  1  0.481396  0.745015  0.479495  1
  O  O20  1  0.299620  0.051453  0.428159  1
  O  O21  1  0.700380  0.948547  0.571841  1
  O  O22  1  0.135457  0.425026  0.622689  1
  O  O23  1  0.864543  0.574974  0.377311  1
  O  O24  1  0.225190  0.406371  0.388516  1
  O  O25  1  0.774810  0.593629  0.611484  1
  O  O26  1  0.086361  0.310845  0.017070  1
  O  O27  1  0.913639  0.689155  0.982930  1
  O  O28  1  0.980726  0.333766  0.271742  1
  O  O29  1  0.019274  0.666234  0.728258  1
  O  O30  1  0.741639  0.200687  0.165046  1
  O  O31  1  0.258361  0.799313  0.834954  1
  O  O32  1  0.131130  0.983018  0.137825  1
  O  O33  1  0.868870  0.016982  0.862175  1
  O  O34  1  0.357860  0.238362  0.161288  1
  O  O35  1  0.642140  0.761638  0.838712  1
  O  O36  1  0.600130  0.595232  0.184282  1
  O  O37  1  0.399870  0.404768  0.815718  1
  O  O38  1  0.377407  0.736379  0.011664  1
  O  O39  1  0.622593  0.263621  0.988336  1
  O  O40  1  0.159445  0.608449  0.217589  1
  O  O41  1  0.840555  0.391551  0.782411  1
  O  O42  1  0.356620  0.841227  0.303724  1
  O  O43  1  0.643380  0.158773  0.696276  1
  O  O44  1  0.575901  0.966725  0.102581  1
  O  O45  1  0.424099  0.033275  0.897419  1
