# generated using pymatgen
data_Ba17Er16Zn8Pt4O57
_symmetry_space_group_name_H-M   'P 1'
_cell_length_a   16.53423767
_cell_length_b   16.53423767
_cell_length_c   16.53423767
_cell_angle_alpha   91.72715701
_cell_angle_beta   91.72715701
_cell_angle_gamma   160.00458329
_symmetry_Int_Tables_number   1
_chemical_formula_structural   Ba17Er16Zn8Pt4O57
_chemical_formula_sum   'Ba17 Er16 Zn8 Pt4 O57'
_cell_volume   1522.17040208
_cell_formula_units_Z   1
loop_
 _symmetry_equiv_pos_site_id
 _symmetry_equiv_pos_as_xyz
  1  'x, y, z'
loop_
 _atom_site_type_symbol
 _atom_site_label
 _atom_site_symmetry_multiplicity
 _atom_site_fract_x
 _atom_site_fract_y
 _atom_site_fract_z
 _atom_site_occupancy
  Ba  Ba0  1  0.189080  0.267896  0.456976  1
  Ba  Ba1  1  0.810920  0.732104  0.543024  1
  Ba  Ba2  1  0.732104  0.189080  0.921185  1
  Ba  Ba3  1  0.441832  0.067605  0.509437  1
  Ba  Ba4  1  0.558168  0.932395  0.490563  1
  Ba  Ba5  1  0.724107  0.888331  0.612438  1
  Ba  Ba6  1  0.649649  0.342771  0.992419  1
  Ba  Ba7  1  0.657229  0.649649  0.306878  1
  Ba  Ba8  1  0.888331  0.275893  0.164224  1
  Ba  Ba9  1  0.067605  0.558168  0.625773  1
  Ba  Ba10  1  0.111669  0.724107  0.835776  1
  Ba  Ba11  1  0.342771  0.350351  0.693122  1
  Ba  Ba12  1  0.932395  0.441832  0.374227  1
  Ba  Ba13  1  0.350351  0.657229  0.007581  1
  Ba  Ba14  1  0.000000  0.000000  0.000000  1
  Ba  Ba15  1  0.267896  0.810920  0.078815  1
  Ba  Ba16  1  0.275893  0.111669  0.387562  1
  Er  Er17  1  0.506311  0.251027  0.757338  1
  Er  Er18  1  0.488366  0.599369  0.087735  1
  Er  Er19  1  0.251027  0.493689  0.744717  1
  Er  Er20  1  0.049644  0.325608  0.375252  1
  Er  Er21  1  0.325608  0.950356  0.275964  1
  Er  Er22  1  0.599369  0.511634  0.111003  1
  Er  Er23  1  0.748973  0.506311  0.255283  1
  Er  Er24  1  0.828128  0.051983  0.880111  1
  Er  Er25  1  0.674392  0.049644  0.724036  1
  Er  Er26  1  0.493689  0.748973  0.242662  1
  Er  Er27  1  0.171872  0.948017  0.119889  1
  Er  Er28  1  0.950356  0.674392  0.624748  1
  Er  Er29  1  0.948017  0.828128  0.776145  1
  Er  Er30  1  0.511634  0.400631  0.912265  1
  Er  Er31  1  0.400631  0.488366  0.888997  1
  Er  Er32  1  0.051983  0.171872  0.223856  1
  Zn  Zn33  1  0.620350  0.787934  0.408284  1
  Zn  Zn34  1  0.132862  0.075515  0.208377  1
  Zn  Zn35  1  0.075515  0.867138  0.942653  1
  Zn  Zn36  1  0.867138  0.924485  0.791623  1
  Zn  Zn37  1  0.379650  0.212066  0.591716  1
  Zn  Zn38  1  0.924485  0.132862  0.057347  1
  Zn  Zn39  1  0.212066  0.620350  0.832416  1
  Zn  Zn40  1  0.787934  0.379650  0.167584  1
  Pt  Pt41  1  0.417410  0.855618  0.273028  1
  Pt  Pt42  1  0.855618  0.582590  0.438208  1
  Pt  Pt43  1  0.144382  0.417410  0.561792  1
  Pt  Pt44  1  0.582590  0.144382  0.726972  1
  O  O45  1  0.813327  0.838352  0.154500  1
  O  O46  1  0.366181  0.598975  0.478556  1
  O  O47  1  0.505116  0.823372  0.823782  1
  O  O48  1  0.607410  0.231653  0.839063  1
  O  O49  1  0.318666  0.494884  0.318256  1
  O  O50  1  0.763324  0.409801  0.689595  1
  O  O51  1  0.341172  0.186673  0.025024  1
  O  O52  1  0.494884  0.176628  0.176218  1
  O  O53  1  0.157738  0.841550  0.999287  1
  O  O54  1  0.120420  0.887625  0.521444  1
  O  O55  1  0.277358  0.074524  0.851986  1
  O  O56  1  0.658828  0.813327  0.974976  1
  O  O57  1  0.231653  0.392590  0.624243  1
  O  O58  1  0.000410  0.318666  0.823782  1
  O  O59  1  0.999590  0.681334  0.176218  1
  O  O60  1  0.823372  0.999590  0.318256  1
  O  O61  1  0.720206  0.073729  0.310405  1
  O  O62  1  0.683852  0.658828  0.845500  1
  O  O63  1  0.722642  0.925476  0.148014  1
  O  O64  1  0.681334  0.505116  0.681744  1
  O  O65  1  0.409801  0.720206  0.646477  1
  O  O66  1  0.879580  0.112375  0.478556  1
  O  O67  1  0.316148  0.341172  0.154500  1
  O  O68  1  0.838352  0.683852  0.025024  1
  O  O69  1  0.598975  0.120420  0.232794  1
  O  O70  1  0.700921  0.760585  0.461506  1
  O  O71  1  0.112375  0.633819  0.232794  1
  O  O72  1  0.435232  0.945330  0.380562  1
  O  O73  1  0.158450  0.157738  0.316188  1
  O  O74  1  0.945330  0.564768  0.510098  1
  O  O75  1  0.574628  0.722642  0.797166  1
  O  O76  1  0.500000  0.500000  0.000000  1
  O  O77  1  0.186673  0.161648  0.845500  1
  O  O78  1  0.401025  0.879580  0.767206  1
  O  O79  1  0.841550  0.842262  0.683812  1
  O  O80  1  0.887625  0.366181  0.767206  1
  O  O81  1  0.777462  0.574628  0.851986  1
  O  O82  1  0.299079  0.239415  0.538494  1
  O  O83  1  0.768347  0.607410  0.375757  1
  O  O84  1  0.279794  0.926271  0.689595  1
  O  O85  1  0.073729  0.763324  0.353523  1
  O  O86  1  0.842262  0.158450  0.000713  1
  O  O87  1  0.161648  0.316148  0.974976  1
  O  O88  1  0.633819  0.401025  0.521444  1
  O  O89  1  0.926271  0.236676  0.646477  1
  O  O90  1  0.564768  0.054670  0.619438  1
  O  O91  1  0.590199  0.279794  0.353523  1
  O  O92  1  0.074524  0.222538  0.797166  1
  O  O93  1  0.925476  0.777462  0.202834  1
  O  O94  1  0.236676  0.590199  0.310405  1
  O  O95  1  0.392590  0.768347  0.160937  1
  O  O96  1  0.222538  0.425372  0.148014  1
  O  O97  1  0.054670  0.435232  0.489902  1
  O  O98  1  0.760585  0.299079  0.059664  1
  O  O99  1  0.176628  0.000410  0.681744  1
  O  O100  1  0.425372  0.277358  0.202834  1
  O  O101  1  0.239415  0.700921  0.940336  1
