# generated using pymatgen
data_NaZnMoHO5
_symmetry_space_group_name_H-M   'P 1'
_cell_length_a   6.25979103
_cell_length_b   7.95020924
_cell_length_c   9.39838835
_cell_angle_alpha   90.00000000
_cell_angle_beta   90.00000000
_cell_angle_gamma   90.00000000
_symmetry_Int_Tables_number   1
_chemical_formula_structural   NaZnMoHO5
_chemical_formula_sum   'Na4 Zn4 Mo4 H4 O20'
_cell_volume   467.72628936
_cell_formula_units_Z   4
loop_
 _symmetry_equiv_pos_site_id
 _symmetry_equiv_pos_as_xyz
  1  'x, y, z'
loop_
 _atom_site_type_symbol
 _atom_site_label
 _atom_site_symmetry_multiplicity
 _atom_site_fract_x
 _atom_site_fract_y
 _atom_site_fract_z
 _atom_site_occupancy
  Na  Na0  1  0.750000  0.351984  0.193734  1
  Na  Na1  1  0.250000  0.648016  0.806266  1
  Na  Na2  1  0.750000  0.851984  0.306266  1
  Na  Na3  1  0.250000  0.148016  0.693734  1
  Zn  Zn4  1  0.500000  0.500000  0.500000  1
  Zn  Zn5  1  0.000000  0.500000  0.500000  1
  Zn  Zn6  1  0.000000  0.000000  0.000000  1
  Zn  Zn7  1  0.500000  0.000000  0.000000  1
  Mo  Mo8  1  0.250000  0.117288  0.335644  1
  Mo  Mo9  1  0.750000  0.882712  0.664356  1
  Mo  Mo10  1  0.250000  0.617288  0.164356  1
  Mo  Mo11  1  0.750000  0.382712  0.835644  1
  H  H12  1  0.750000  0.755062  0.018362  1
  H  H13  1  0.250000  0.244938  0.981638  1
  H  H14  1  0.750000  0.255062  0.481638  1
  H  H15  1  0.250000  0.744938  0.518362  1
  O  O16  1  0.015418  0.105734  0.225437  1
  O  O17  1  0.515418  0.894266  0.774563  1
  O  O18  1  0.484582  0.605734  0.274563  1
  O  O19  1  0.984582  0.394266  0.725437  1
  O  O20  1  0.984582  0.894266  0.774563  1
  O  O21  1  0.484582  0.105734  0.225437  1
  O  O22  1  0.515418  0.394266  0.725437  1
  O  O23  1  0.015418  0.605734  0.274563  1
  O  O24  1  0.250000  0.447228  0.041554  1
  O  O25  1  0.750000  0.552772  0.958446  1
  O  O26  1  0.250000  0.947228  0.458446  1
  O  O27  1  0.750000  0.052772  0.541554  1
  O  O28  1  0.750000  0.869286  0.060829  1
  O  O29  1  0.250000  0.130714  0.939171  1
  O  O30  1  0.750000  0.369286  0.439171  1
  O  O31  1  0.250000  0.630714  0.560829  1
  O  O32  1  0.250000  0.309261  0.443376  1
  O  O33  1  0.750000  0.690739  0.556624  1
  O  O34  1  0.250000  0.809261  0.056624  1
  O  O35  1  0.750000  0.190739  0.943376  1
