# generated using pymatgen
data_Ho3CuSnS7
_symmetry_space_group_name_H-M   'P 1'
_cell_length_a   9.70997015
_cell_length_b   9.70997015
_cell_length_c   6.24845773
_cell_angle_alpha   90.00000000
_cell_angle_beta   90.00000000
_cell_angle_gamma   120.00000000
_symmetry_Int_Tables_number   1
_chemical_formula_structural   Ho3CuSnS7
_chemical_formula_sum   'Ho6 Cu2 Sn2 S14'
_cell_volume   510.19859413
_cell_formula_units_Z   2
loop_
 _symmetry_equiv_pos_site_id
 _symmetry_equiv_pos_as_xyz
  1  'x, y, z'
loop_
 _atom_site_type_symbol
 _atom_site_label
 _atom_site_symmetry_multiplicity
 _atom_site_fract_x
 _atom_site_fract_y
 _atom_site_fract_z
 _atom_site_occupancy
  Ho  Ho0  1  0.792799  0.640536  0.275445  1
  Ho  Ho1  1  0.152262  0.792799  0.775445  1
  Ho  Ho2  1  0.847738  0.207201  0.275445  1
  Ho  Ho3  1  0.207201  0.359464  0.775445  1
  Ho  Ho4  1  0.640536  0.847738  0.775445  1
  Ho  Ho5  1  0.359464  0.152262  0.275445  1
  Cu  Cu6  1  0.000000  0.000000  0.151641  1
  Cu  Cu7  1  0.000000  0.000000  0.651641  1
  Sn  Sn8  1  0.666667  0.333333  0.838219  1
  Sn  Sn9  1  0.333333  0.666667  0.338219  1
  S  S10  1  0.520824  0.439695  0.022293  1
  S  S11  1  0.116817  0.853926  0.193597  1
  S  S12  1  0.560305  0.081128  0.022293  1
  S  S13  1  0.918872  0.479176  0.022293  1
  S  S14  1  0.081128  0.520824  0.522293  1
  S  S15  1  0.737109  0.883183  0.193597  1
  S  S16  1  0.853926  0.737109  0.693597  1
  S  S17  1  0.146074  0.262891  0.193597  1
  S  S18  1  0.479176  0.560305  0.522293  1
  S  S19  1  0.439695  0.918872  0.522293  1
  S  S20  1  0.262891  0.116817  0.693597  1
  S  S21  1  0.883183  0.146074  0.693597  1
  S  S22  1  0.666667  0.333333  0.453134  1
  S  S23  1  0.333333  0.666667  0.953134  1
