# generated using pymatgen
data_Sr17(Ta5S21)2
_symmetry_space_group_name_H-M   'P 1'
_cell_length_a   12.33476244
_cell_length_b   12.34249348
_cell_length_c   12.37961764
_cell_angle_alpha   96.66362017
_cell_angle_beta   96.32255654
_cell_angle_gamma   96.77326675
_symmetry_Int_Tables_number   1
_chemical_formula_structural   Sr17(Ta5S21)2
_chemical_formula_sum   'Sr17 Ta10 S42'
_cell_volume   1844.19313234
_cell_formula_units_Z   1
loop_
 _symmetry_equiv_pos_site_id
 _symmetry_equiv_pos_as_xyz
  1  'x, y, z'
loop_
 _atom_site_type_symbol
 _atom_site_label
 _atom_site_symmetry_multiplicity
 _atom_site_fract_x
 _atom_site_fract_y
 _atom_site_fract_z
 _atom_site_occupancy
  Sr  Sr0  1  0.942548  0.702588  0.078120  1
  Sr  Sr1  1  0.276384  0.911490  0.042249  1
  Sr  Sr2  1  0.373804  0.605907  0.231572  1
  Sr  Sr3  1  0.914969  0.048869  0.271912  1
  Sr  Sr4  1  0.052456  0.417990  0.287132  1
  Sr  Sr5  1  0.739647  0.604305  0.373388  1
  Sr  Sr6  1  0.611119  0.238182  0.368343  1
  Sr  Sr7  1  0.284236  0.055157  0.420178  1
  Sr  Sr8  1  0.716285  0.953714  0.585085  1
  Sr  Sr9  1  0.372335  0.737765  0.602542  1
  Sr  Sr10  1  0.952573  0.584182  0.717200  1
  Sr  Sr11  1  0.240316  0.373482  0.612118  1
  Sr  Sr12  1  0.079108  0.944520  0.705430  1
  Sr  Sr13  1  0.602690  0.372472  0.744486  1
  Sr  Sr14  1  0.582032  0.711399  0.953689  1
  Sr  Sr15  1  0.041287  0.274853  0.908504  1
  Sr  Sr16  1  0.702286  0.081149  0.946054  1
  Ta  Ta17  1  0.717519  0.384216  0.050002  1
  Ta  Ta18  1  0.549890  0.884505  0.221696  1
  Ta  Ta19  1  0.177067  0.171403  0.159101  1
  Ta  Ta20  1  0.355021  0.353699  0.352922  1
  Ta  Ta21  1  0.048146  0.722698  0.384026  1
  Ta  Ta22  1  0.885493  0.221533  0.548269  1
  Ta  Ta23  1  0.668110  0.667485  0.668253  1
  Ta  Ta24  1  0.854749  0.856562  0.856998  1
  Ta  Ta25  1  0.386591  0.047430  0.720909  1
  Ta  Ta26  1  0.219312  0.549546  0.883807  1
  S  S27  1  0.816467  0.894769  0.039297  1
  S  S28  1  0.526342  0.940718  0.052321  1
  S  S29  1  0.339456  0.675474  0.005246  1
  S  S30  1  0.991845  0.211955  0.126093  1
  S  S31  1  0.840348  0.506904  0.173194  1
  S  S32  1  0.661820  0.236160  0.133488  1
  S  S33  1  0.606334  0.714017  0.200593  1
  S  S34  1  0.130073  0.990560  0.208038  1
  S  S35  1  0.245750  0.374939  0.170530  1
  S  S36  1  0.900393  0.800202  0.315514  1
  S  S37  1  0.380317  0.860824  0.278491  1
  S  S38  1  0.129833  0.656778  0.237173  1
  S  S39  1  0.375254  0.170708  0.244748  1
  S  S40  1  0.520717  0.444367  0.309608  1
  S  S41  1  0.861956  0.280524  0.380634  1
  S  S42  1  0.675602  0.005832  0.340328  1
  S  S43  1  0.979683  0.577012  0.465074  1
  S  S44  1  0.165538  0.245935  0.383640  1
  S  S45  1  0.291967  0.517802  0.436363  1
  S  S46  1  0.589928  0.727098  0.507349  1
  S  S47  1  0.172068  0.842257  0.505994  1
  S  S48  1  0.464479  0.978101  0.572411  1
  S  S49  1  0.943409  0.051859  0.523579  1
  S  S50  1  0.726968  0.505633  0.589941  1
  S  S51  1  0.437195  0.290502  0.516177  1
  S  S52  1  0.858050  0.783241  0.649423  1
  S  S53  1  0.714643  0.200265  0.603809  1
  S  S54  1  0.238864  0.130380  0.658635  1
  S  S55  1  0.504966  0.587885  0.725939  1
  S  S56  1  0.649283  0.856332  0.784015  1
  S  S57  1  0.198341  0.605715  0.713079  1
  S  S58  1  0.005736  0.341208  0.673659  1
  S  S59  1  0.316329  0.898069  0.797639  1
  S  S60  1  0.782186  0.649492  0.857004  1
  S  S61  1  0.892907  0.038893  0.815192  1
  S  S62  1  0.508786  0.168952  0.837472  1
  S  S63  1  0.795635  0.316202  0.900126  1
  S  S64  1  0.276605  0.383077  0.862357  1
  S  S65  1  0.037577  0.815342  0.893284  1
  S  S66  1  0.573302  0.464872  0.983285  1
  S  S67  1  0.049383  0.524366  0.943194  1
  S  S68  1  0.202992  0.122678  0.980782  1
