# generated using pymatgen
data_K6Nb4S25
_symmetry_space_group_name_H-M   'P 1'
_cell_length_a   16.10554143
_cell_length_b   13.41419593
_cell_length_c   21.32292541
_cell_angle_alpha   90.00000000
_cell_angle_beta   122.20297079
_cell_angle_gamma   90.00000000
_symmetry_Int_Tables_number   1
_chemical_formula_structural   K6Nb4S25
_chemical_formula_sum   'K24 Nb16 S100'
_cell_volume   3898.00233451
_cell_formula_units_Z   4
loop_
 _symmetry_equiv_pos_site_id
 _symmetry_equiv_pos_as_xyz
  1  'x, y, z'
loop_
 _atom_site_type_symbol
 _atom_site_label
 _atom_site_symmetry_multiplicity
 _atom_site_fract_x
 _atom_site_fract_y
 _atom_site_fract_z
 _atom_site_occupancy
  K  K0  1  0.882848  0.982367  0.266537  1
  K  K1  1  0.603049  0.491889  0.207926  1
  K  K2  1  0.478688  0.804964  0.935627  1
  K  K3  1  0.725630  0.364615  0.910745  1
  K  K4  1  0.960934  0.808972  0.921524  1
  K  K5  1  0.812605  0.878357  0.587328  1
  K  K6  1  0.039066  0.191028  0.078476  1
  K  K7  1  0.187395  0.121643  0.412672  1
  K  K8  1  0.396951  0.991889  0.292074  1
  K  K9  1  0.274370  0.635385  0.089255  1
  K  K10  1  0.960934  0.691028  0.421524  1
  K  K11  1  0.725630  0.135385  0.410745  1
  K  K12  1  0.039066  0.308972  0.578476  1
  K  K13  1  0.521312  0.195036  0.064373  1
  K  K14  1  0.521312  0.304964  0.564373  1
  K  K15  1  0.187395  0.378357  0.912672  1
  K  K16  1  0.478688  0.695036  0.435627  1
  K  K17  1  0.117152  0.482367  0.233463  1
  K  K18  1  0.882848  0.517633  0.766537  1
  K  K19  1  0.117152  0.017633  0.733463  1
  K  K20  1  0.274370  0.864615  0.589255  1
  K  K21  1  0.812605  0.621643  0.087328  1
  K  K22  1  0.396951  0.508111  0.792074  1
  K  K23  1  0.603049  0.008111  0.707926  1
  Nb  Nb24  1  0.611423  0.795738  0.166242  1
  Nb  Nb25  1  0.388577  0.295738  0.333758  1
  Nb  Nb26  1  0.102511  0.778676  0.175600  1
  Nb  Nb27  1  0.337640  0.171350  0.645736  1
  Nb  Nb28  1  0.897489  0.278676  0.324400  1
  Nb  Nb29  1  0.662360  0.671350  0.854264  1
  Nb  Nb30  1  0.102511  0.721324  0.675600  1
  Nb  Nb31  1  0.662360  0.828650  0.354264  1
  Nb  Nb32  1  0.388577  0.204262  0.833758  1
  Nb  Nb33  1  0.832363  0.184692  0.634370  1
  Nb  Nb34  1  0.897489  0.221324  0.824400  1
  Nb  Nb35  1  0.167637  0.815308  0.365630  1
  Nb  Nb36  1  0.167637  0.684692  0.865630  1
  Nb  Nb37  1  0.611423  0.704262  0.666242  1
  Nb  Nb38  1  0.337640  0.328650  0.145736  1
  Nb  Nb39  1  0.832363  0.315308  0.134370  1
  S  S40  1  0.392767  0.412305  0.083532  1
  S  S41  1  0.015655  0.755466  0.243136  1
  S  S42  1  0.477653  0.178756  0.417913  1
  S  S43  1  0.281454  0.406725  0.530037  1
  S  S44  1  0.509506  0.801011  0.228347  1
  S  S45  1  0.363920  0.070983  0.901529  1
  S  S46  1  0.239267  0.801864  0.787091  1
  S  S47  1  0.636080  0.570983  0.598471  1
  S  S48  1  0.841844  0.135626  0.115677  1
  S  S49  1  0.158156  0.635626  0.384323  1
  S  S50  1  0.841844  0.364374  0.615677  1
  S  S51  1  0.720797  0.223514  0.777525  1
  S  S52  1  0.786335  0.752111  0.222513  1
  S  S53  1  0.300460  0.984273  0.105153  1
  S  S54  1  0.696482  0.954966  0.287904  1
  S  S55  1  0.521934  0.547110  0.615564  1
  S  S56  1  0.962619  0.345090  0.906781  1
  S  S57  1  0.213665  0.247889  0.777487  1
  S  S58  1  0.167062  0.947487  0.285160  1
  S  S59  1  0.521934  0.952890  0.115564  1
  S  S60  1  0.721333  0.694020  0.276908  1
  S  S61  1  0.786135  0.783056  0.958397  1
  S  S62  1  0.213865  0.216944  0.041603  1
  S  S63  1  0.303518  0.045034  0.712096  1
  S  S64  1  0.015655  0.744534  0.743136  1
  S  S65  1  0.182642  0.612128  0.558729  1
  S  S66  1  0.181093  0.411252  0.109851  1
  S  S67  1  0.239267  0.698136  0.287091  1
  S  S68  1  0.278667  0.194020  0.223092  1
  S  S69  1  0.818907  0.588748  0.890149  1
  S  S70  1  0.551305  0.817474  0.802677  1
  S  S71  1  0.607233  0.587695  0.916468  1
  S  S72  1  0.699540  0.015727  0.894847  1
  S  S73  1  0.786335  0.747889  0.722513  1
  S  S74  1  0.721333  0.805980  0.776908  1
  S  S75  1  0.299550  0.570406  0.886953  1
  S  S76  1  0.700450  0.070406  0.613047  1
  S  S77  1  0.167062  0.552513  0.785160  1
  S  S78  1  0.913456  0.077925  0.907539  1
  S  S79  1  0.957262  0.633103  0.663117  1
  S  S80  1  0.832938  0.447487  0.214840  1
  S  S81  1  0.711836  0.203488  0.035855  1
  S  S82  1  0.817358  0.112128  0.941271  1
  S  S83  1  0.042738  0.366897  0.336883  1
  S  S84  1  0.760733  0.301864  0.712909  1
  S  S85  1  0.281454  0.093275  0.030037  1
  S  S86  1  0.636080  0.929017  0.098471  1
  S  S87  1  0.913456  0.422075  0.407539  1
  S  S88  1  0.909555  0.389450  0.084165  1
  S  S89  1  0.984345  0.244534  0.756864  1
  S  S90  1  0.213865  0.283056  0.541603  1
  S  S91  1  0.037381  0.845090  0.593219  1
  S  S92  1  0.786135  0.716944  0.458397  1
  S  S93  1  0.817358  0.387872  0.441271  1
  S  S94  1  0.090445  0.889450  0.415835  1
  S  S95  1  0.962619  0.154910  0.406781  1
  S  S96  1  0.957262  0.866897  0.163117  1
  S  S97  1  0.090445  0.610550  0.915835  1
  S  S98  1  0.182642  0.887872  0.058729  1
  S  S99  1  0.477653  0.321244  0.917913  1
  S  S100  1  0.984345  0.255466  0.256864  1
  S  S101  1  0.478066  0.047110  0.884436  1
  S  S102  1  0.300460  0.515727  0.605153  1
  S  S103  1  0.711836  0.296512  0.535855  1
  S  S104  1  0.181093  0.088748  0.609851  1
  S  S105  1  0.718546  0.593275  0.469963  1
  S  S106  1  0.279203  0.776486  0.222475  1
  S  S107  1  0.303518  0.454966  0.212096  1
  S  S108  1  0.288164  0.796512  0.964145  1
  S  S109  1  0.363920  0.429017  0.401529  1
  S  S110  1  0.448695  0.317474  0.697323  1
  S  S111  1  0.448695  0.182526  0.197323  1
  S  S112  1  0.037381  0.654910  0.093219  1
  S  S113  1  0.042738  0.133103  0.836883  1
  S  S114  1  0.760733  0.198136  0.212909  1
  S  S115  1  0.700450  0.429594  0.113047  1
  S  S116  1  0.699540  0.484273  0.394847  1
  S  S117  1  0.818907  0.911252  0.390149  1
  S  S118  1  0.522347  0.821244  0.582087  1
  S  S119  1  0.551305  0.682526  0.302677  1
  S  S120  1  0.832938  0.052513  0.714840  1
  S  S121  1  0.086544  0.577925  0.592461  1
  S  S122  1  0.086544  0.922075  0.092461  1
  S  S123  1  0.278667  0.305980  0.723092  1
  S  S124  1  0.279203  0.723514  0.722475  1
  S  S125  1  0.607233  0.912305  0.416468  1
  S  S126  1  0.909555  0.110550  0.584165  1
  S  S127  1  0.490494  0.301011  0.271653  1
  S  S128  1  0.509506  0.698989  0.728347  1
  S  S129  1  0.392767  0.087695  0.583532  1
  S  S130  1  0.288164  0.703488  0.464145  1
  S  S131  1  0.522347  0.678756  0.082087  1
  S  S132  1  0.720797  0.276486  0.277525  1
  S  S133  1  0.718546  0.906725  0.969963  1
  S  S134  1  0.696482  0.545034  0.787904  1
  S  S135  1  0.478066  0.452890  0.384436  1
  S  S136  1  0.158156  0.864374  0.884323  1
  S  S137  1  0.213665  0.252111  0.277487  1
  S  S138  1  0.490494  0.198989  0.771653  1
  S  S139  1  0.299550  0.929594  0.386953  1
