# generated using pymatgen
data_K2OsCBr5O
_symmetry_space_group_name_H-M   'P 1'
_cell_length_a   7.51728730
_cell_length_b   10.87060313
_cell_length_c   14.83268385
_cell_angle_alpha   90.00000000
_cell_angle_beta   90.00000000
_cell_angle_gamma   90.00000000
_symmetry_Int_Tables_number   1
_chemical_formula_structural   K2OsCBr5O
_chemical_formula_sum   'K8 Os4 C4 Br20 O4'
_cell_volume   1212.08905419
_cell_formula_units_Z   4
loop_
 _symmetry_equiv_pos_site_id
 _symmetry_equiv_pos_as_xyz
  1  'x, y, z'
loop_
 _atom_site_type_symbol
 _atom_site_label
 _atom_site_symmetry_multiplicity
 _atom_site_fract_x
 _atom_site_fract_y
 _atom_site_fract_z
 _atom_site_occupancy
  K  K0  1  0.671387  0.499853  0.852914  1
  K  K1  1  0.328613  0.500147  0.147086  1
  K  K2  1  0.171387  0.500147  0.647086  1
  K  K3  1  0.171387  0.999853  0.647086  1
  K  K4  1  0.828613  0.000147  0.352914  1
  K  K5  1  0.671387  0.000147  0.852914  1
  K  K6  1  0.328613  0.999853  0.147086  1
  K  K7  1  0.828613  0.499853  0.352914  1
  Os  Os8  1  0.809769  0.250000  0.113626  1
  Os  Os9  1  0.190231  0.750000  0.886374  1
  Os  Os10  1  0.309769  0.750000  0.386374  1
  Os  Os11  1  0.690231  0.250000  0.613626  1
  C  C12  1  0.974314  0.250000  0.022767  1
  C  C13  1  0.525686  0.250000  0.522767  1
  C  C14  1  0.025686  0.750000  0.977233  1
  C  C15  1  0.474314  0.750000  0.477233  1
  Br  Br16  1  0.585896  0.250000  0.250420  1
  Br  Br17  1  0.296878  0.518408  0.383330  1
  Br  Br18  1  0.953972  0.250000  0.506315  1
  Br  Br19  1  0.453972  0.750000  0.993685  1
  Br  Br20  1  0.703122  0.018408  0.616670  1
  Br  Br21  1  0.939919  0.750000  0.771999  1
  Br  Br22  1  0.203122  0.981592  0.883330  1
  Br  Br23  1  0.085896  0.750000  0.249580  1
  Br  Br24  1  0.796878  0.481592  0.116670  1
  Br  Br25  1  0.703122  0.481592  0.616670  1
  Br  Br26  1  0.203122  0.518408  0.883330  1
  Br  Br27  1  0.439919  0.250000  0.728001  1
  Br  Br28  1  0.796878  0.018408  0.116670  1
  Br  Br29  1  0.414104  0.750000  0.749580  1
  Br  Br30  1  0.046028  0.750000  0.493685  1
  Br  Br31  1  0.914104  0.250000  0.750420  1
  Br  Br32  1  0.296878  0.981592  0.383330  1
  Br  Br33  1  0.060081  0.250000  0.228001  1
  Br  Br34  1  0.546028  0.250000  0.006315  1
  Br  Br35  1  0.560081  0.750000  0.271999  1
  O  O36  1  0.914502  0.750000  0.032680  1
  O  O37  1  0.414502  0.250000  0.467320  1
  O  O38  1  0.585498  0.750000  0.532680  1
  O  O39  1  0.085498  0.250000  0.967320  1
