# generated using pymatgen
data_Ho2O3
_symmetry_space_group_name_H-M   'P 1'
_cell_length_a   7.21624528
_cell_length_b   7.21624528
_cell_length_c   8.61434897
_cell_angle_alpha   79.93394059
_cell_angle_beta   100.06605941
_cell_angle_gamma   152.06172302
_symmetry_Int_Tables_number   1
_chemical_formula_structural   Ho2O3
_chemical_formula_sum   'Ho6 O9'
_cell_volume   206.73419138
_cell_formula_units_Z   3
loop_
 _symmetry_equiv_pos_site_id
 _symmetry_equiv_pos_as_xyz
  1  'x, y, z'
loop_
 _atom_site_type_symbol
 _atom_site_label
 _atom_site_symmetry_multiplicity
 _atom_site_fract_x
 _atom_site_fract_y
 _atom_site_fract_z
 _atom_site_occupancy
  Ho  Ho0  1  0.967875  0.032125  0.186142  1
  Ho  Ho1  1  0.308542  0.691458  0.862765  1
  Ho  Ho2  1  0.635004  0.364996  0.487969  1
  Ho  Ho3  1  0.691458  0.308542  0.137235  1
  Ho  Ho4  1  0.364996  0.635004  0.512031  1
  Ho  Ho5  1  0.032125  0.967875  0.813858  1
  O  O6  1  0.825372  0.174628  0.030526  1
  O  O7  1  0.500000  0.500000  0.000000  1
  O  O8  1  0.174628  0.825372  0.969474  1
  O  O9  1  0.127816  0.872184  0.281739  1
  O  O10  1  0.793642  0.206358  0.377083  1
  O  O11  1  0.206358  0.793642  0.622917  1
  O  O12  1  0.872184  0.127816  0.718261  1
  O  O13  1  0.470792  0.529208  0.343015  1
  O  O14  1  0.529208  0.470792  0.656985  1
