# generated using pymatgen
data_Fe(BO2)2
_symmetry_space_group_name_H-M   'P 1'
_cell_length_a   7.23774332
_cell_length_b   7.53471212
_cell_length_c   8.72070216
_cell_angle_alpha   90.00000000
_cell_angle_beta   94.65765208
_cell_angle_gamma   90.00000000
_symmetry_Int_Tables_number   1
_chemical_formula_structural   Fe(BO2)2
_chemical_formula_sum   'Fe8 B16 O32'
_cell_volume   474.00698451
_cell_formula_units_Z   8
loop_
 _symmetry_equiv_pos_site_id
 _symmetry_equiv_pos_as_xyz
  1  'x, y, z'
loop_
 _atom_site_type_symbol
 _atom_site_label
 _atom_site_symmetry_multiplicity
 _atom_site_fract_x
 _atom_site_fract_y
 _atom_site_fract_z
 _atom_site_occupancy
  Fe  Fe0  1  0.522842  0.765683  0.361502  1
  Fe  Fe1  1  0.031334  0.270822  0.607725  1
  Fe  Fe2  1  0.477158  0.265683  0.138498  1
  Fe  Fe3  1  0.522842  0.734317  0.861502  1
  Fe  Fe4  1  0.968666  0.770822  0.892275  1
  Fe  Fe5  1  0.477158  0.234317  0.638498  1
  Fe  Fe6  1  0.031334  0.229178  0.107725  1
  Fe  Fe7  1  0.968666  0.729178  0.392275  1
  B  B8  1  0.299470  0.897691  0.114952  1
  B  B9  1  0.819041  0.428160  0.858610  1
  B  B10  1  0.198459  0.435592  0.859191  1
  B  B11  1  0.320597  0.403352  0.378026  1
  B  B12  1  0.198459  0.064408  0.359191  1
  B  B13  1  0.679403  0.903352  0.121974  1
  B  B14  1  0.180959  0.571840  0.141390  1
  B  B15  1  0.299470  0.602309  0.614952  1
  B  B16  1  0.819041  0.071840  0.358610  1
  B  B17  1  0.700530  0.397691  0.385048  1
  B  B18  1  0.679403  0.596648  0.621974  1
  B  B19  1  0.801541  0.564408  0.140809  1
  B  B20  1  0.801541  0.935592  0.640809  1
  B  B21  1  0.180959  0.928160  0.641390  1
  B  B22  1  0.320597  0.096648  0.878026  1
  B  B23  1  0.700530  0.102309  0.885048  1
  O  O24  1  0.236158  0.442767  0.524985  1
  O  O25  1  0.682188  0.441976  0.723920  1
  O  O26  1  0.996837  0.519537  0.193374  1
  O  O27  1  0.830811  0.250277  0.928387  1
  O  O28  1  0.514492  0.160347  0.922631  1
  O  O29  1  0.763842  0.942767  0.975015  1
  O  O30  1  0.996837  0.980463  0.693374  1
  O  O31  1  0.232313  0.247951  0.296975  1
  O  O32  1  0.682188  0.058024  0.223920  1
  O  O33  1  0.169189  0.750277  0.571613  1
  O  O34  1  0.232313  0.252049  0.796975  1
  O  O35  1  0.763723  0.567192  0.973016  1
  O  O36  1  0.314006  0.564620  0.782568  1
  O  O37  1  0.236277  0.067192  0.526984  1
  O  O38  1  0.767687  0.747951  0.203025  1
  O  O39  1  0.236158  0.057233  0.024985  1
  O  O40  1  0.169189  0.749723  0.071613  1
  O  O41  1  0.003163  0.019537  0.306626  1
  O  O42  1  0.685994  0.064620  0.717432  1
  O  O43  1  0.314006  0.935380  0.282568  1
  O  O44  1  0.763842  0.557233  0.475015  1
  O  O45  1  0.485508  0.839653  0.077369  1
  O  O46  1  0.317812  0.558024  0.276080  1
  O  O47  1  0.830811  0.249723  0.428387  1
  O  O48  1  0.763723  0.932808  0.473016  1
  O  O49  1  0.485508  0.660347  0.577369  1
  O  O50  1  0.685994  0.435380  0.217432  1
  O  O51  1  0.236277  0.432808  0.026984  1
  O  O52  1  0.317812  0.941976  0.776080  1
  O  O53  1  0.767687  0.752049  0.703025  1
  O  O54  1  0.514492  0.339653  0.422631  1
  O  O55  1  0.003163  0.480463  0.806626  1
