# generated using pymatgen
data_Ba2ZnS3
_symmetry_space_group_name_H-M   'P 1'
_cell_length_a   4.25876491
_cell_length_b   12.17068149
_cell_length_c   12.75156397
_cell_angle_alpha   90.00000000
_cell_angle_beta   90.00000000
_cell_angle_gamma   90.00000000
_symmetry_Int_Tables_number   1
_chemical_formula_structural   Ba2ZnS3
_chemical_formula_sum   'Ba8 Zn4 S12'
_cell_volume   660.93997237
_cell_formula_units_Z   4
loop_
 _symmetry_equiv_pos_site_id
 _symmetry_equiv_pos_as_xyz
  1  'x, y, z'
loop_
 _atom_site_type_symbol
 _atom_site_label
 _atom_site_symmetry_multiplicity
 _atom_site_fract_x
 _atom_site_fract_y
 _atom_site_fract_z
 _atom_site_occupancy
  Ba  Ba0  1  0.250000  0.490100  0.675191  1
  Ba  Ba1  1  0.750000  0.509900  0.324809  1
  Ba  Ba2  1  0.250000  0.990100  0.824809  1
  Ba  Ba3  1  0.750000  0.009900  0.175191  1
  Ba  Ba4  1  0.250000  0.826297  0.483057  1
  Ba  Ba5  1  0.750000  0.173703  0.516943  1
  Ba  Ba6  1  0.250000  0.326297  0.016943  1
  Ba  Ba7  1  0.750000  0.673703  0.983057  1
  Zn  Zn8  1  0.250000  0.744639  0.197050  1
  Zn  Zn9  1  0.250000  0.244639  0.302950  1
  Zn  Zn10  1  0.750000  0.255361  0.802950  1
  Zn  Zn11  1  0.750000  0.755361  0.697050  1
  S  S12  1  0.750000  0.939627  0.639911  1
  S  S13  1  0.750000  0.439627  0.860089  1
  S  S14  1  0.250000  0.060373  0.360089  1
  S  S15  1  0.250000  0.560373  0.139911  1
  S  S16  1  0.250000  0.225113  0.707475  1
  S  S17  1  0.750000  0.774887  0.292525  1
  S  S18  1  0.250000  0.725113  0.792525  1
  S  S19  1  0.750000  0.274887  0.207475  1
  S  S20  1  0.750000  0.635290  0.554320  1
  S  S21  1  0.250000  0.364710  0.445680  1
  S  S22  1  0.750000  0.135290  0.945680  1
  S  S23  1  0.250000  0.864710  0.054320  1
