# generated using pymatgen
data_Rb4Te8O23
_symmetry_space_group_name_H-M   'P 1'
_cell_length_a   7.42633947
_cell_length_b   14.93949001
_cell_length_c   20.32617960
_cell_angle_alpha   90.00000000
_cell_angle_beta   90.00000000
_cell_angle_gamma   90.00000000
_symmetry_Int_Tables_number   1
_chemical_formula_structural   Rb4Te8O23
_chemical_formula_sum   'Rb16 Te32 O92'
_cell_volume   2255.10271844
_cell_formula_units_Z   4
loop_
 _symmetry_equiv_pos_site_id
 _symmetry_equiv_pos_as_xyz
  1  'x, y, z'
loop_
 _atom_site_type_symbol
 _atom_site_label
 _atom_site_symmetry_multiplicity
 _atom_site_fract_x
 _atom_site_fract_y
 _atom_site_fract_z
 _atom_site_occupancy
  Rb  Rb0  1  0.750000  0.250917  0.071617  1
  Rb  Rb1  1  0.250000  0.505757  0.313542  1
  Rb  Rb2  1  0.250000  0.750917  0.428383  1
  Rb  Rb3  1  0.750000  0.502673  0.174393  1
  Rb  Rb4  1  0.750000  0.494243  0.686458  1
  Rb  Rb5  1  0.750000  0.997327  0.674393  1
  Rb  Rb6  1  0.750000  0.757221  0.062822  1
  Rb  Rb7  1  0.250000  0.242779  0.937178  1
  Rb  Rb8  1  0.250000  0.002673  0.325607  1
  Rb  Rb9  1  0.750000  0.005757  0.186458  1
  Rb  Rb10  1  0.750000  0.742779  0.562822  1
  Rb  Rb11  1  0.250000  0.749083  0.928383  1
  Rb  Rb12  1  0.250000  0.497327  0.825607  1
  Rb  Rb13  1  0.750000  0.249083  0.571617  1
  Rb  Rb14  1  0.250000  0.257221  0.437178  1
  Rb  Rb15  1  0.250000  0.994243  0.813542  1
  Te  Te16  1  0.500000  0.000000  0.500000  1
  Te  Te17  1  0.250000  0.381978  0.128641  1
  Te  Te18  1  0.250000  0.123328  0.135088  1
  Te  Te19  1  0.250000  0.628284  0.122388  1
  Te  Te20  1  0.750000  0.128284  0.377612  1
  Te  Te21  1  0.250000  0.376672  0.635088  1
  Te  Te22  1  0.750000  0.623328  0.364912  1
  Te  Te23  1  0.250000  0.872436  0.107874  1
  Te  Te24  1  0.500000  0.000000  0.000000  1
  Te  Te25  1  0.750000  0.372436  0.392126  1
  Te  Te26  1  0.000000  0.500000  0.000000  1
  Te  Te27  1  0.998923  0.761245  0.243861  1
  Te  Te28  1  0.750000  0.618022  0.871359  1
  Te  Te29  1  0.000000  0.500000  0.500000  1
  Te  Te30  1  0.500000  0.500000  0.500000  1
  Te  Te31  1  0.498923  0.238755  0.756139  1
  Te  Te32  1  0.750000  0.127564  0.892126  1
  Te  Te33  1  0.750000  0.371716  0.877612  1
  Te  Te34  1  0.001077  0.261245  0.256139  1
  Te  Te35  1  0.750000  0.876672  0.864912  1
  Te  Te36  1  0.001077  0.238755  0.756139  1
  Te  Te37  1  0.000000  0.000000  0.000000  1
  Te  Te38  1  0.750000  0.881978  0.371359  1
  Te  Te39  1  0.498923  0.261245  0.256139  1
  Te  Te40  1  0.501077  0.761245  0.243861  1
  Te  Te41  1  0.501077  0.738755  0.743861  1
  Te  Te42  1  0.250000  0.627564  0.607874  1
  Te  Te43  1  0.500000  0.500000  0.000000  1
  Te  Te44  1  0.000000  0.000000  0.500000  1
  Te  Te45  1  0.250000  0.871716  0.622388  1
  Te  Te46  1  0.250000  0.118022  0.628641  1
  Te  Te47  1  0.998923  0.738755  0.743861  1
  O  O48  1  0.750000  0.729847  0.217211  1
  O  O49  1  0.560309  0.155025  0.313244  1
  O  O50  1  0.250000  0.747399  0.080829  1
  O  O51  1  0.990179  0.679241  0.315761  1
  O  O52  1  0.439691  0.844975  0.686756  1
  O  O53  1  0.434286  0.135720  0.701351  1
  O  O54  1  0.750000  0.770153  0.717211  1
  O  O55  1  0.934286  0.864280  0.298649  1
  O  O56  1  0.048744  0.048782  0.086792  1
  O  O57  1  0.990179  0.820759  0.815761  1
  O  O58  1  0.750000  0.252601  0.919171  1
  O  O59  1  0.548744  0.548782  0.413208  1
  O  O60  1  0.565714  0.635720  0.798649  1
  O  O61  1  0.938573  0.396170  0.941263  1
  O  O62  1  0.250000  0.508475  0.161262  1
  O  O63  1  0.939691  0.155025  0.313244  1
  O  O64  1  0.515854  0.422595  0.073546  1
  O  O65  1  0.750000  0.491525  0.838738  1
  O  O66  1  0.981929  0.160530  0.830369  1
  O  O67  1  0.750000  0.525851  0.531540  1
  O  O68  1  0.438573  0.896170  0.558737  1
  O  O69  1  0.438573  0.603830  0.058737  1
  O  O70  1  0.451256  0.451218  0.586792  1
  O  O71  1  0.250000  0.229847  0.282789  1
  O  O72  1  0.750000  0.777076  0.919740  1
  O  O73  1  0.984146  0.422595  0.073546  1
  O  O74  1  0.560309  0.344975  0.813244  1
  O  O75  1  0.250000  0.752601  0.580829  1
  O  O76  1  0.250000  0.277076  0.580260  1
  O  O77  1  0.951256  0.548782  0.413208  1
  O  O78  1  0.009821  0.179241  0.184239  1
  O  O79  1  0.936558  0.380620  0.467607  1
  O  O80  1  0.436558  0.880620  0.032393  1
  O  O81  1  0.065714  0.135720  0.701351  1
  O  O82  1  0.018071  0.839470  0.169631  1
  O  O83  1  0.439691  0.655025  0.186756  1
  O  O84  1  0.518071  0.160530  0.830369  1
  O  O85  1  0.060309  0.655025  0.186756  1
  O  O86  1  0.250000  0.709865  0.769488  1
  O  O87  1  0.939691  0.344975  0.813244  1
  O  O88  1  0.936558  0.119380  0.967607  1
  O  O89  1  0.518071  0.339470  0.330369  1
  O  O90  1  0.548744  0.951218  0.913208  1
  O  O91  1  0.561427  0.103830  0.441263  1
  O  O92  1  0.451256  0.048782  0.086792  1
  O  O93  1  0.250000  0.991525  0.661262  1
  O  O94  1  0.250000  0.474149  0.468460  1
  O  O95  1  0.061427  0.603830  0.058737  1
  O  O96  1  0.048744  0.451218  0.586792  1
  O  O97  1  0.009821  0.320759  0.684239  1
  O  O98  1  0.250000  0.270153  0.782789  1
  O  O99  1  0.750000  0.957199  0.511610  1
  O  O100  1  0.250000  0.025851  0.968460  1
  O  O101  1  0.481929  0.660530  0.669631  1
  O  O102  1  0.436558  0.619380  0.532393  1
  O  O103  1  0.250000  0.457199  0.988390  1
  O  O104  1  0.018071  0.660530  0.669631  1
  O  O105  1  0.750000  0.542801  0.011610  1
  O  O106  1  0.063442  0.880620  0.032393  1
  O  O107  1  0.434286  0.364280  0.201351  1
  O  O108  1  0.484146  0.577405  0.926454  1
  O  O109  1  0.509821  0.820759  0.815761  1
  O  O110  1  0.563442  0.119380  0.967607  1
  O  O111  1  0.750000  0.008475  0.338738  1
  O  O112  1  0.984146  0.077405  0.573546  1
  O  O113  1  0.563442  0.380620  0.467607  1
  O  O114  1  0.515854  0.077405  0.573546  1
  O  O115  1  0.061427  0.896170  0.558737  1
  O  O116  1  0.490179  0.179241  0.184239  1
  O  O117  1  0.938573  0.103830  0.441263  1
  O  O118  1  0.015854  0.922595  0.426454  1
  O  O119  1  0.065714  0.364280  0.201351  1
  O  O120  1  0.981929  0.339470  0.330369  1
  O  O121  1  0.750000  0.247399  0.419171  1
  O  O122  1  0.490179  0.320759  0.684239  1
  O  O123  1  0.250000  0.042801  0.488390  1
  O  O124  1  0.481929  0.839470  0.169631  1
  O  O125  1  0.250000  0.790135  0.269488  1
  O  O126  1  0.750000  0.290135  0.230512  1
  O  O127  1  0.250000  0.222924  0.080260  1
  O  O128  1  0.484146  0.922595  0.426454  1
  O  O129  1  0.750000  0.209865  0.730512  1
  O  O130  1  0.015854  0.577405  0.926454  1
  O  O131  1  0.561427  0.396170  0.941263  1
  O  O132  1  0.750000  0.722924  0.419740  1
  O  O133  1  0.951256  0.951218  0.913208  1
  O  O134  1  0.063442  0.619380  0.532393  1
  O  O135  1  0.750000  0.974149  0.031540  1
  O  O136  1  0.934286  0.635720  0.798649  1
  O  O137  1  0.509821  0.679241  0.315761  1
  O  O138  1  0.565714  0.864280  0.298649  1
  O  O139  1  0.060309  0.844975  0.686756  1
