# generated using pymatgen
data_Nd2O3
_symmetry_space_group_name_H-M   'P 1'
_cell_length_a   7.50546312
_cell_length_b   7.50546312
_cell_length_c   9.05741748
_cell_angle_alpha   80.15714820
_cell_angle_beta   99.84285180
_cell_angle_gamma   151.40383509
_symmetry_Int_Tables_number   1
_chemical_formula_structural   Nd2O3
_chemical_formula_sum   'Nd6 O9'
_cell_volume   240.37921214
_cell_formula_units_Z   3
loop_
 _symmetry_equiv_pos_site_id
 _symmetry_equiv_pos_as_xyz
  1  'x, y, z'
loop_
 _atom_site_type_symbol
 _atom_site_label
 _atom_site_symmetry_multiplicity
 _atom_site_fract_x
 _atom_site_fract_y
 _atom_site_fract_z
 _atom_site_occupancy
  Nd  Nd0  1  0.365534  0.634466  0.510191  1
  Nd  Nd1  1  0.634466  0.365534  0.489809  1
  Nd  Nd2  1  0.690733  0.309267  0.137857  1
  Nd  Nd3  1  0.033198  0.966802  0.811749  1
  Nd  Nd4  1  0.309267  0.690733  0.862143  1
  Nd  Nd5  1  0.966802  0.033198  0.188251  1
  O  O6  1  0.526232  0.473768  0.655991  1
  O  O7  1  0.473768  0.526232  0.344009  1
  O  O8  1  0.798119  0.201881  0.373107  1
  O  O9  1  0.870819  0.129181  0.714352  1
  O  O10  1  0.500000  0.500000  0.000000  1
  O  O11  1  0.129181  0.870819  0.285648  1
  O  O12  1  0.175335  0.824665  0.973372  1
  O  O13  1  0.824665  0.175335  0.026628  1
  O  O14  1  0.201881  0.798119  0.626893  1
