# generated using pymatgen
data_RuO4
_symmetry_space_group_name_H-M   'P 1'
_cell_length_a   9.08862824
_cell_length_b   9.08862824
_cell_length_c   9.08862824
_cell_angle_alpha   90.00000000
_cell_angle_beta   90.00000000
_cell_angle_gamma   90.00000000
_symmetry_Int_Tables_number   1
_chemical_formula_structural   RuO4
_chemical_formula_sum   'Ru8 O32'
_cell_volume   750.74944254
_cell_formula_units_Z   8
loop_
 _symmetry_equiv_pos_site_id
 _symmetry_equiv_pos_as_xyz
  1  'x, y, z'
loop_
 _atom_site_type_symbol
 _atom_site_label
 _atom_site_symmetry_multiplicity
 _atom_site_fract_x
 _atom_site_fract_y
 _atom_site_fract_z
 _atom_site_occupancy
  Ru  Ru0  1  0.750000  0.500000  0.000000  1
  Ru  Ru1  1  0.500000  0.500000  0.500000  1
  Ru  Ru2  1  0.500000  0.000000  0.250000  1
  Ru  Ru3  1  0.000000  0.250000  0.500000  1
  Ru  Ru4  1  0.000000  0.000000  0.000000  1
  Ru  Ru5  1  0.250000  0.500000  0.000000  1
  Ru  Ru6  1  0.500000  0.000000  0.750000  1
  Ru  Ru7  1  0.000000  0.750000  0.500000  1
  O  O8  1  0.610515  0.892646  0.641247  1
  O  O9  1  0.107354  0.358753  0.610515  1
  O  O10  1  0.392646  0.889485  0.858753  1
  O  O11  1  0.608899  0.391101  0.608899  1
  O  O12  1  0.891101  0.108899  0.108899  1
  O  O13  1  0.610515  0.107354  0.358753  1
  O  O14  1  0.607354  0.110515  0.858753  1
  O  O15  1  0.110515  0.858753  0.607354  1
  O  O16  1  0.108899  0.108899  0.891101  1
  O  O17  1  0.141247  0.607354  0.889485  1
  O  O18  1  0.892646  0.358753  0.389485  1
  O  O19  1  0.141247  0.392646  0.110515  1
  O  O20  1  0.108899  0.891101  0.108899  1
  O  O21  1  0.358753  0.610515  0.107354  1
  O  O22  1  0.389485  0.892646  0.358753  1
  O  O23  1  0.107354  0.641247  0.389485  1
  O  O24  1  0.391101  0.608899  0.608899  1
  O  O25  1  0.889485  0.858753  0.392646  1
  O  O26  1  0.641247  0.610515  0.892646  1
  O  O27  1  0.358753  0.389485  0.892646  1
  O  O28  1  0.858753  0.392646  0.889485  1
  O  O29  1  0.607354  0.889485  0.141247  1
  O  O30  1  0.391101  0.391101  0.391101  1
  O  O31  1  0.608899  0.608899  0.391101  1
  O  O32  1  0.641247  0.389485  0.107354  1
  O  O33  1  0.889485  0.141247  0.607354  1
  O  O34  1  0.110515  0.141247  0.392646  1
  O  O35  1  0.389485  0.107354  0.641247  1
  O  O36  1  0.858753  0.607354  0.110515  1
  O  O37  1  0.892646  0.641247  0.610515  1
  O  O38  1  0.392646  0.110515  0.141247  1
  O  O39  1  0.891101  0.891101  0.891101  1
