# generated using pymatgen
data_Hg7Cl2O3
_symmetry_space_group_name_H-M   'P 1'
_cell_length_a   6.63681093
_cell_length_b   11.97066231
_cell_length_c   14.86016625
_cell_angle_alpha   90.00000000
_cell_angle_beta   90.00000000
_cell_angle_gamma   90.00000000
_symmetry_Int_Tables_number   1
_chemical_formula_structural   Hg7Cl2O3
_chemical_formula_sum   'Hg28 Cl8 O12'
_cell_volume   1180.59596180
_cell_formula_units_Z   4
loop_
 _symmetry_equiv_pos_site_id
 _symmetry_equiv_pos_as_xyz
  1  'x, y, z'
loop_
 _atom_site_type_symbol
 _atom_site_label
 _atom_site_symmetry_multiplicity
 _atom_site_fract_x
 _atom_site_fract_y
 _atom_site_fract_z
 _atom_site_occupancy
  Hg  Hg0  1  0.467773  0.116372  0.579283  1
  Hg  Hg1  1  0.467773  0.383628  0.420717  1
  Hg  Hg2  1  0.532227  0.616372  0.920717  1
  Hg  Hg3  1  0.532227  0.883628  0.079283  1
  Hg  Hg4  1  0.532227  0.883628  0.420717  1
  Hg  Hg5  1  0.532227  0.616372  0.579283  1
  Hg  Hg6  1  0.467773  0.383628  0.079283  1
  Hg  Hg7  1  0.467773  0.116372  0.920717  1
  Hg  Hg8  1  0.680939  0.290122  0.629797  1
  Hg  Hg9  1  0.680939  0.209878  0.370203  1
  Hg  Hg10  1  0.319061  0.790122  0.870203  1
  Hg  Hg11  1  0.319061  0.709878  0.129797  1
  Hg  Hg12  1  0.319061  0.709878  0.370203  1
  Hg  Hg13  1  0.319061  0.790122  0.629797  1
  Hg  Hg14  1  0.680939  0.209878  0.129797  1
  Hg  Hg15  1  0.680939  0.290122  0.870203  1
  Hg  Hg16  1  0.133994  0.036200  0.750000  1
  Hg  Hg17  1  0.133994  0.463800  0.250000  1
  Hg  Hg18  1  0.866006  0.536200  0.750000  1
  Hg  Hg19  1  0.866006  0.963800  0.250000  1
  Hg  Hg20  1  0.161896  0.245370  0.250000  1
  Hg  Hg21  1  0.161896  0.254630  0.750000  1
  Hg  Hg22  1  0.838104  0.745370  0.250000  1
  Hg  Hg23  1  0.838104  0.754630  0.750000  1
  Hg  Hg24  1  0.000000  0.000000  0.500000  1
  Hg  Hg25  1  0.000000  0.500000  0.500000  1
  Hg  Hg26  1  0.000000  0.500000  0.000000  1
  Hg  Hg27  1  0.000000  0.000000  0.000000  1
  Cl  Cl28  1  0.075157  0.250000  0.500000  1
  Cl  Cl29  1  0.924843  0.750000  0.000000  1
  Cl  Cl30  1  0.924843  0.750000  0.500000  1
  Cl  Cl31  1  0.075157  0.250000  0.000000  1
  Cl  Cl32  1  0.333234  0.442848  0.750000  1
  Cl  Cl33  1  0.333234  0.057152  0.250000  1
  Cl  Cl34  1  0.666766  0.942848  0.750000  1
  Cl  Cl35  1  0.666766  0.557152  0.250000  1
  O  O36  1  0.855655  0.358430  0.750000  1
  O  O37  1  0.855655  0.141570  0.250000  1
  O  O38  1  0.144345  0.858430  0.750000  1
  O  O39  1  0.144345  0.641570  0.250000  1
  O  O40  1  0.283732  0.969605  0.552702  1
  O  O41  1  0.283732  0.530395  0.447298  1
  O  O42  1  0.716268  0.469605  0.947298  1
  O  O43  1  0.716268  0.030395  0.052702  1
  O  O44  1  0.716268  0.030395  0.447298  1
  O  O45  1  0.716268  0.469605  0.552702  1
  O  O46  1  0.283732  0.530395  0.052702  1
  O  O47  1  0.283732  0.969605  0.947298  1
