# generated using pymatgen
data_K2ZnSiO4
_symmetry_space_group_name_H-M   'P 1'
_cell_length_a   5.50046051
_cell_length_b   11.06865004
_cell_length_c   15.79671622
_cell_angle_alpha   90.00000000
_cell_angle_beta   90.00000000
_cell_angle_gamma   90.00000000
_symmetry_Int_Tables_number   1
_chemical_formula_structural   K2ZnSiO4
_chemical_formula_sum   'K16 Zn8 Si8 O32'
_cell_volume   961.74629931
_cell_formula_units_Z   8
loop_
 _symmetry_equiv_pos_site_id
 _symmetry_equiv_pos_as_xyz
  1  'x, y, z'
loop_
 _atom_site_type_symbol
 _atom_site_label
 _atom_site_symmetry_multiplicity
 _atom_site_fract_x
 _atom_site_fract_y
 _atom_site_fract_z
 _atom_site_occupancy
  K  K0  1  0.498359  0.985634  0.938026  1
  K  K1  1  0.501641  0.014366  0.438026  1
  K  K2  1  0.501641  0.485634  0.938026  1
  K  K3  1  0.498359  0.514366  0.438026  1
  K  K4  1  0.452488  0.738235  0.816235  1
  K  K5  1  0.547512  0.261765  0.316235  1
  K  K6  1  0.547512  0.238235  0.816235  1
  K  K7  1  0.452488  0.761765  0.316235  1
  K  K8  1  0.004733  0.013789  0.061248  1
  K  K9  1  0.995267  0.986211  0.561248  1
  K  K10  1  0.995267  0.513789  0.061248  1
  K  K11  1  0.004733  0.486211  0.561248  1
  K  K12  1  0.049862  0.264504  0.185374  1
  K  K13  1  0.950138  0.735496  0.685374  1
  K  K14  1  0.950138  0.764504  0.185374  1
  K  K15  1  0.049862  0.235496  0.685374  1
  Zn  Zn16  1  0.992403  0.992077  0.811257  1
  Zn  Zn17  1  0.007597  0.007923  0.311257  1
  Zn  Zn18  1  0.007597  0.492077  0.811257  1
  Zn  Zn19  1  0.992403  0.507923  0.311257  1
  Zn  Zn20  1  0.534509  0.259137  0.063762  1
  Zn  Zn21  1  0.465491  0.740863  0.563762  1
  Zn  Zn22  1  0.465491  0.759137  0.063762  1
  Zn  Zn23  1  0.534509  0.240863  0.563762  1
  Si  Si24  1  0.509729  0.007518  0.189089  1
  Si  Si25  1  0.490271  0.992482  0.689089  1
  Si  Si26  1  0.490271  0.507518  0.189089  1
  Si  Si27  1  0.509729  0.492482  0.689089  1
  Si  Si28  1  0.967966  0.735890  0.935639  1
  Si  Si29  1  0.032034  0.264110  0.435639  1
  Si  Si30  1  0.032034  0.235890  0.935639  1
  Si  Si31  1  0.967966  0.764110  0.435639  1
  O  O32  1  0.699133  0.703474  0.977080  1
  O  O33  1  0.300867  0.296526  0.477080  1
  O  O34  1  0.300867  0.203474  0.977080  1
  O  O35  1  0.699133  0.796526  0.477080  1
  O  O36  1  0.093288  0.607874  0.902643  1
  O  O37  1  0.906712  0.392126  0.402643  1
  O  O38  1  0.906712  0.107874  0.902643  1
  O  O39  1  0.093288  0.892126  0.402643  1
  O  O40  1  0.931662  0.826311  0.853420  1
  O  O41  1  0.068338  0.173689  0.353420  1
  O  O42  1  0.068338  0.326311  0.853420  1
  O  O43  1  0.931662  0.673689  0.353420  1
  O  O44  1  0.332997  0.022038  0.776224  1
  O  O45  1  0.667003  0.977962  0.276224  1
  O  O46  1  0.667003  0.522038  0.776224  1
  O  O47  1  0.332997  0.477962  0.276224  1
  O  O48  1  0.851568  0.295746  0.008390  1
  O  O49  1  0.148432  0.704254  0.508390  1
  O  O50  1  0.148432  0.795746  0.008390  1
  O  O51  1  0.851568  0.204254  0.508390  1
  O  O52  1  0.413192  0.416017  0.110434  1
  O  O53  1  0.586808  0.583983  0.610434  1
  O  O54  1  0.586808  0.916017  0.110434  1
  O  O55  1  0.413192  0.083983  0.610434  1
  O  O56  1  0.570793  0.148731  0.160849  1
  O  O57  1  0.429207  0.851269  0.660849  1
  O  O58  1  0.429207  0.648731  0.160849  1
  O  O59  1  0.570793  0.351269  0.660849  1
  O  O60  1  0.217954  0.986830  0.210331  1
  O  O61  1  0.782046  0.013170  0.710331  1
  O  O62  1  0.782046  0.486830  0.210331  1
  O  O63  1  0.217954  0.513170  0.710331  1
