# generated using pymatgen
data_Na5NbO5
_symmetry_space_group_name_H-M   'P 1'
_cell_length_a   6.08048959
_cell_length_b   6.08048959
_cell_length_c   10.14117151
_cell_angle_alpha   81.44455635
_cell_angle_beta   98.55544365
_cell_angle_gamma   63.12074554
_symmetry_Int_Tables_number   1
_chemical_formula_structural   Na5NbO5
_chemical_formula_sum   'Na10 Nb2 O10'
_cell_volume   320.64098911
_cell_formula_units_Z   2
loop_
 _symmetry_equiv_pos_site_id
 _symmetry_equiv_pos_as_xyz
  1  'x, y, z'
loop_
 _atom_site_type_symbol
 _atom_site_label
 _atom_site_symmetry_multiplicity
 _atom_site_fract_x
 _atom_site_fract_y
 _atom_site_fract_z
 _atom_site_occupancy
  Na  Na0  1  0.678814  0.003853  0.922939  1
  Na  Na1  1  0.003853  0.678814  0.577061  1
  Na  Na2  1  0.784408  0.443598  0.050776  1
  Na  Na3  1  0.443598  0.784408  0.449224  1
  Na  Na4  1  0.215592  0.556402  0.949224  1
  Na  Na5  1  0.556402  0.215592  0.550776  1
  Na  Na6  1  0.667472  0.667472  0.750000  1
  Na  Na7  1  0.332528  0.332528  0.250000  1
  Na  Na8  1  0.996147  0.321186  0.422939  1
  Na  Na9  1  0.321186  0.996147  0.077061  1
  Nb  Nb10  1  0.092398  0.092398  0.750000  1
  Nb  Nb11  1  0.907602  0.907602  0.250000  1
  O  O12  1  0.093034  0.093034  0.250000  1
  O  O13  1  0.906966  0.906966  0.750000  1
  O  O14  1  0.695565  0.961599  0.381203  1
  O  O15  1  0.961599  0.695565  0.118797  1
  O  O16  1  0.404265  0.810566  0.896011  1
  O  O17  1  0.810566  0.404265  0.603989  1
  O  O18  1  0.595735  0.189434  0.103989  1
  O  O19  1  0.189434  0.595735  0.396011  1
  O  O20  1  0.304435  0.038401  0.618797  1
  O  O21  1  0.038401  0.304435  0.881203  1
