# generated using pymatgen
data_B2PdO4
_symmetry_space_group_name_H-M   'P 1'
_cell_length_a   8.82644058
_cell_length_b   8.82644058
_cell_length_c   8.82644058
_cell_angle_alpha   96.12956939
_cell_angle_beta   96.12956939
_cell_angle_gamma   141.85457357
_symmetry_Int_Tables_number   1
_chemical_formula_structural   B2PdO4
_chemical_formula_sum   'B12 Pd6 O24'
_cell_volume   401.40787971
_cell_formula_units_Z   6
loop_
 _symmetry_equiv_pos_site_id
 _symmetry_equiv_pos_as_xyz
  1  'x, y, z'
loop_
 _atom_site_type_symbol
 _atom_site_label
 _atom_site_symmetry_multiplicity
 _atom_site_fract_x
 _atom_site_fract_y
 _atom_site_fract_z
 _atom_site_occupancy
  B  B0  1  0.798219  0.631319  0.536249  1
  B  B1  1  0.738030  0.201781  0.833099  1
  B  B2  1  0.368681  0.904930  0.166901  1
  B  B3  1  0.095070  0.261970  0.463751  1
  B  B4  1  0.154930  0.118681  0.666901  1
  B  B5  1  0.451781  0.488030  0.333099  1
  B  B6  1  0.511970  0.845070  0.963751  1
  B  B7  1  0.881319  0.548219  0.036249  1
  B  B8  1  0.625000  0.374174  0.249174  1
  B  B9  1  0.624174  0.375000  0.749174  1
  B  B10  1  0.625826  0.875000  0.250826  1
  B  B11  1  0.125000  0.375826  0.750826  1
  Pd  Pd12  1  0.750000  0.250000  0.500000  1
  Pd  Pd13  1  0.500000  0.500000  0.000000  1
  Pd  Pd14  1  0.125000  0.955236  0.330236  1
  Pd  Pd15  1  0.205236  0.875000  0.830236  1
  Pd  Pd16  1  0.044764  0.375000  0.169764  1
  Pd  Pd17  1  0.625000  0.794764  0.669764  1
  O  O18  1  0.678230  0.411201  0.593113  1
  O  O19  1  0.914883  0.321770  0.732971  1
  O  O20  1  0.588799  0.181912  0.267029  1
  O  O21  1  0.818088  0.085117  0.406887  1
  O  O22  1  0.431912  0.338799  0.767029  1
  O  O23  1  0.571770  0.664883  0.232971  1
  O  O24  1  0.335117  0.568088  0.906887  1
  O  O25  1  0.661201  0.428230  0.093113  1
  O  O26  1  0.625000  0.623446  0.498446  1
  O  O27  1  0.873446  0.375000  0.998446  1
  O  O28  1  0.376554  0.875000  0.001554  1
  O  O29  1  0.125000  0.126554  0.501554  1
  O  O30  1  0.035091  0.875000  0.660091  1
  O  O31  1  0.625000  0.964909  0.839909  1
  O  O32  1  0.125000  0.785091  0.160091  1
  O  O33  1  0.214909  0.375000  0.339909  1
  O  O34  1  0.853583  0.613902  0.386652  1
  O  O35  1  0.533069  0.146417  0.760319  1
  O  O36  1  0.386098  0.772751  0.239681  1
  O  O37  1  0.227249  0.466931  0.613348  1
  O  O38  1  0.022751  0.136098  0.739681  1
  O  O39  1  0.396417  0.283069  0.260319  1
  O  O40  1  0.716931  0.977249  0.113348  1
  O  O41  1  0.863902  0.603583  0.886652  1
