# generated using pymatgen
data_V2Ni(TeO5)2
_symmetry_space_group_name_H-M   'P 1'
_cell_length_a   4.88224033
_cell_length_b   6.42493569
_cell_length_c   6.62844585
_cell_angle_alpha   84.62442257
_cell_angle_beta   110.77059577
_cell_angle_gamma   106.96154347
_symmetry_Int_Tables_number   1
_chemical_formula_structural   V2Ni(TeO5)2
_chemical_formula_sum   'V2 Ni1 Te2 O10'
_cell_volume   185.94062560
_cell_formula_units_Z   1
loop_
 _symmetry_equiv_pos_site_id
 _symmetry_equiv_pos_as_xyz
  1  'x, y, z'
loop_
 _atom_site_type_symbol
 _atom_site_label
 _atom_site_symmetry_multiplicity
 _atom_site_fract_x
 _atom_site_fract_y
 _atom_site_fract_z
 _atom_site_occupancy
  V  V0  1  0.644118  0.389468  0.370708  1
  V  V1  1  0.355882  0.610532  0.629292  1
  Ni  Ni2  1  0.000000  0.500000  0.000000  1
  Te  Te3  1  0.281761  0.093050  0.780229  1
  Te  Te4  1  0.718239  0.906950  0.219771  1
  O  O5  1  0.043471  0.470062  0.707681  1
  O  O6  1  0.656185  0.652940  0.863119  1
  O  O7  1  0.294781  0.833377  0.037742  1
  O  O8  1  0.596121  0.675698  0.425810  1
  O  O9  1  0.718517  0.115912  0.410449  1
  O  O10  1  0.281483  0.884088  0.589551  1
  O  O11  1  0.403879  0.324302  0.574190  1
  O  O12  1  0.705219  0.166623  0.962258  1
  O  O13  1  0.343815  0.347060  0.136881  1
  O  O14  1  0.956529  0.529938  0.292319  1
