# generated using pymatgen
data_Na7Y2P7O24
_symmetry_space_group_name_H-M   'P 1'
_cell_length_a   12.43975230
_cell_length_b   5.45982160
_cell_length_c   16.43066023
_cell_angle_alpha   90.00000000
_cell_angle_beta   97.85087186
_cell_angle_gamma   90.00000000
_symmetry_Int_Tables_number   1
_chemical_formula_structural   Na7Y2P7O24
_chemical_formula_sum   'Na14 Y4 P14 O48'
_cell_volume   1105.49132552
_cell_formula_units_Z   2
loop_
 _symmetry_equiv_pos_site_id
 _symmetry_equiv_pos_as_xyz
  1  'x, y, z'
loop_
 _atom_site_type_symbol
 _atom_site_label
 _atom_site_symmetry_multiplicity
 _atom_site_fract_x
 _atom_site_fract_y
 _atom_site_fract_z
 _atom_site_occupancy
  Na  Na0  1  0.962374  0.146338  0.594159  1
  Na  Na1  1  0.537626  0.146338  0.405841  1
  Na  Na2  1  0.110320  0.163489  0.863018  1
  Na  Na3  1  0.389680  0.163489  0.136982  1
  Na  Na4  1  0.516774  0.700672  0.064042  1
  Na  Na5  1  0.889680  0.836511  0.136982  1
  Na  Na6  1  0.483226  0.299328  0.935958  1
  Na  Na7  1  0.983226  0.700672  0.935958  1
  Na  Na8  1  0.750000  0.717025  0.500000  1
  Na  Na9  1  0.037626  0.853662  0.405841  1
  Na  Na10  1  0.462374  0.853662  0.594159  1
  Na  Na11  1  0.610320  0.836511  0.863018  1
  Na  Na12  1  0.016774  0.299328  0.064042  1
  Na  Na13  1  0.250000  0.282975  0.500000  1
  Y  Y14  1  0.687132  0.651356  0.274734  1
  Y  Y15  1  0.312868  0.348644  0.725266  1
  Y  Y16  1  0.812868  0.651356  0.725266  1
  Y  Y17  1  0.187132  0.348644  0.274734  1
  P  P18  1  0.656992  0.136672  0.130357  1
  P  P19  1  0.804888  0.157145  0.390185  1
  P  P20  1  0.250000  0.583283  0.000000  1
  P  P21  1  0.750000  0.416717  0.000000  1
  P  P22  1  0.695112  0.157145  0.609815  1
  P  P23  1  0.343008  0.863328  0.869643  1
  P  P24  1  0.843008  0.136672  0.869643  1
  P  P25  1  0.054154  0.627599  0.721427  1
  P  P26  1  0.195112  0.842855  0.609815  1
  P  P27  1  0.304888  0.842855  0.390185  1
  P  P28  1  0.156992  0.863328  0.130357  1
  P  P29  1  0.554154  0.372401  0.721427  1
  P  P30  1  0.945846  0.372401  0.278573  1
  P  P31  1  0.445846  0.627599  0.278573  1
  O  O32  1  0.376825  0.940663  0.465133  1
  O  O33  1  0.119301  0.853342  0.684916  1
  O  O34  1  0.289298  0.022468  0.637570  1
  O  O35  1  0.855770  0.554240  0.015945  1
  O  O36  1  0.380699  0.853342  0.315084  1
  O  O37  1  0.347124  0.677970  0.801009  1
  O  O38  1  0.949547  0.121467  0.926392  1
  O  O39  1  0.847124  0.322030  0.801009  1
  O  O40  1  0.765192  0.422398  0.393557  1
  O  O41  1  0.538183  0.546694  0.345698  1
  O  O42  1  0.050453  0.878533  0.073608  1
  O  O43  1  0.038183  0.453306  0.345698  1
  O  O44  1  0.623175  0.059337  0.534867  1
  O  O45  1  0.704689  0.889598  0.162234  1
  O  O46  1  0.365405  0.421653  0.251983  1
  O  O47  1  0.252241  0.770828  0.076429  1
  O  O48  1  0.355770  0.445760  0.015945  1
  O  O49  1  0.123175  0.940663  0.534867  1
  O  O50  1  0.634595  0.578347  0.748017  1
  O  O51  1  0.880699  0.146658  0.315084  1
  O  O52  1  0.644230  0.554240  0.984055  1
  O  O53  1  0.998270  0.252022  0.209314  1
  O  O54  1  0.876825  0.059337  0.465133  1
  O  O55  1  0.752241  0.229172  0.076429  1
  O  O56  1  0.961817  0.546694  0.654302  1
  O  O57  1  0.619301  0.146658  0.684916  1
  O  O58  1  0.550453  0.121467  0.073608  1
  O  O59  1  0.461817  0.453306  0.654302  1
  O  O60  1  0.498270  0.747978  0.209314  1
  O  O61  1  0.747759  0.229172  0.923571  1
  O  O62  1  0.210702  0.022468  0.362430  1
  O  O63  1  0.449547  0.878533  0.926392  1
  O  O64  1  0.501730  0.252022  0.790686  1
  O  O65  1  0.247759  0.770828  0.923571  1
  O  O66  1  0.204689  0.110402  0.162234  1
  O  O67  1  0.265192  0.577602  0.393557  1
  O  O68  1  0.152876  0.677970  0.198991  1
  O  O69  1  0.134595  0.421653  0.748017  1
  O  O70  1  0.652876  0.322030  0.198991  1
  O  O71  1  0.144230  0.445760  0.984055  1
  O  O72  1  0.234808  0.577602  0.606443  1
  O  O73  1  0.001730  0.747978  0.790686  1
  O  O74  1  0.295311  0.110402  0.837766  1
  O  O75  1  0.710702  0.977532  0.362430  1
  O  O76  1  0.795311  0.889598  0.837766  1
  O  O77  1  0.865405  0.578347  0.251983  1
  O  O78  1  0.789298  0.977532  0.637570  1
  O  O79  1  0.734808  0.422398  0.606443  1
