# generated using pymatgen
data_TiSO5
_symmetry_space_group_name_H-M   'P 1'
_cell_length_a   5.31646026
_cell_length_b   11.10796948
_cell_length_c   26.41427510
_cell_angle_alpha   90.00000000
_cell_angle_beta   90.00000000
_cell_angle_gamma   90.00000000
_symmetry_Int_Tables_number   1
_chemical_formula_structural   TiSO5
_chemical_formula_sum   'Ti16 S16 O80'
_cell_volume   1559.89708452
_cell_formula_units_Z   16
loop_
 _symmetry_equiv_pos_site_id
 _symmetry_equiv_pos_as_xyz
  1  'x, y, z'
loop_
 _atom_site_type_symbol
 _atom_site_label
 _atom_site_symmetry_multiplicity
 _atom_site_fract_x
 _atom_site_fract_y
 _atom_site_fract_z
 _atom_site_occupancy
  Ti  Ti0  1  0.000000  0.055900  0.153071  1
  Ti  Ti1  1  0.500000  0.170296  0.979821  1
  Ti  Ti2  1  0.000000  0.563636  0.100474  1
  Ti  Ti3  1  0.500000  0.173235  0.727537  1
  Ti  Ti4  1  0.500000  0.686994  0.772460  1
  Ti  Ti5  1  0.500000  0.186994  0.227540  1
  Ti  Ti6  1  0.000000  0.555900  0.846929  1
  Ti  Ti7  1  0.500000  0.188004  0.470801  1
  Ti  Ti8  1  0.000000  0.076588  0.644107  1
  Ti  Ti9  1  0.500000  0.673235  0.272463  1
  Ti  Ti10  1  0.000000  0.065119  0.394831  1
  Ti  Ti11  1  0.000000  0.576588  0.355893  1
  Ti  Ti12  1  0.000000  0.063636  0.899526  1
  Ti  Ti13  1  0.500000  0.688004  0.529199  1
  Ti  Ti14  1  0.500000  0.670296  0.020179  1
  Ti  Ti15  1  0.000000  0.565119  0.605169  1
  S  S16  1  0.000000  0.769934  0.941273  1
  S  S17  1  0.000000  0.789685  0.696716  1
  S  S18  1  0.000000  0.269934  0.058727  1
  S  S19  1  0.000000  0.786579  0.447588  1
  S  S20  1  0.000000  0.766073  0.191853  1
  S  S21  1  0.500000  0.453778  0.926117  1
  S  S22  1  0.500000  0.962716  0.319507  1
  S  S23  1  0.500000  0.984483  0.563235  1
  S  S24  1  0.000000  0.286579  0.552412  1
  S  S25  1  0.500000  0.484483  0.436765  1
  S  S26  1  0.500000  0.968928  0.818783  1
  S  S27  1  0.500000  0.953778  0.073883  1
  S  S28  1  0.000000  0.266073  0.808147  1
  S  S29  1  0.000000  0.289685  0.303284  1
  S  S30  1  0.500000  0.462716  0.680493  1
  S  S31  1  0.500000  0.468928  0.181217  1
  O  O32  1  0.000000  0.686386  0.660650  1
  O  O33  1  0.500000  0.834819  0.815531  1
  O  O34  1  0.750523  0.609628  0.058400  1
  O  O35  1  0.770427  0.753139  0.475097  1
  O  O36  1  0.750523  0.109628  0.941600  1
  O  O37  1  0.270465  0.507214  0.155060  1
  O  O38  1  0.000000  0.419681  0.560249  1
  O  O39  1  0.500000  0.017145  0.765930  1
  O  O40  1  0.500000  0.351296  0.441758  1
  O  O41  1  0.729784  0.020799  0.589668  1
  O  O42  1  0.249933  0.117772  0.191565  1
  O  O43  1  0.729545  0.974103  0.103454  1
  O  O44  1  0.770069  0.250898  0.029292  1
  O  O45  1  0.000000  0.895493  0.922298  1
  O  O46  1  0.500000  0.563761  0.717684  1
  O  O47  1  0.500000  0.826861  0.056090  1
  O  O48  1  0.729784  0.520799  0.410332  1
  O  O49  1  0.750067  0.617772  0.808435  1
  O  O50  1  0.000000  0.720661  0.138596  1
  O  O51  1  0.000000  0.229968  0.603768  1
  O  O52  1  0.770624  0.226557  0.782387  1
  O  O53  1  0.750067  0.117772  0.191565  1
  O  O54  1  0.729955  0.967855  0.350253  1
  O  O55  1  0.229376  0.226557  0.782387  1
  O  O56  1  0.000000  0.903348  0.666673  1
  O  O57  1  0.500000  0.347752  0.709395  1
  O  O58  1  0.500000  0.334819  0.184469  1
  O  O59  1  0.500000  0.517145  0.234070  1
  O  O60  1  0.770624  0.726557  0.217613  1
  O  O61  1  0.500000  0.032067  0.028091  1
  O  O62  1  0.500000  0.063761  0.282316  1
  O  O63  1  0.729535  0.507214  0.155060  1
  O  O64  1  0.270216  0.520799  0.410332  1
  O  O65  1  0.229573  0.753139  0.475097  1
  O  O66  1  0.229931  0.250898  0.029292  1
  O  O67  1  0.770191  0.785412  0.727583  1
  O  O68  1  0.000000  0.400198  0.810287  1
  O  O69  1  0.250148  0.126493  0.685417  1
  O  O70  1  0.729545  0.474103  0.896546  1
  O  O71  1  0.270216  0.020799  0.589668  1
  O  O72  1  0.500000  0.035288  0.510949  1
  O  O73  1  0.729535  0.007214  0.844940  1
  O  O74  1  0.000000  0.395493  0.077702  1
  O  O75  1  0.770427  0.253139  0.524903  1
  O  O76  1  0.000000  0.690566  0.895904  1
  O  O77  1  0.000000  0.403348  0.333327  1
  O  O78  1  0.000000  0.900198  0.189713  1
  O  O79  1  0.249933  0.617772  0.808435  1
  O  O80  1  0.749852  0.626493  0.314583  1
  O  O81  1  0.500000  0.847752  0.290605  1
  O  O82  1  0.500000  0.851296  0.558242  1
  O  O83  1  0.229809  0.785412  0.727583  1
  O  O84  1  0.500000  0.326861  0.943910  1
  O  O85  1  0.229376  0.726557  0.217613  1
  O  O86  1  0.770069  0.750898  0.970708  1
  O  O87  1  0.229931  0.750898  0.970708  1
  O  O88  1  0.249477  0.609628  0.058400  1
  O  O89  1  0.000000  0.729968  0.396232  1
  O  O90  1  0.250223  0.136462  0.429894  1
  O  O91  1  0.000000  0.186386  0.339350  1
  O  O92  1  0.249477  0.109628  0.941600  1
  O  O93  1  0.000000  0.190566  0.104096  1
  O  O94  1  0.000000  0.220661  0.861404  1
  O  O95  1  0.229809  0.285412  0.272417  1
  O  O96  1  0.270455  0.474103  0.896546  1
  O  O97  1  0.729955  0.467855  0.649747  1
  O  O98  1  0.749777  0.636462  0.570106  1
  O  O99  1  0.749852  0.126493  0.685417  1
  O  O100  1  0.000000  0.919681  0.439751  1
  O  O101  1  0.270465  0.007214  0.844940  1
  O  O102  1  0.229573  0.253139  0.524903  1
  O  O103  1  0.749777  0.136462  0.429894  1
  O  O104  1  0.270455  0.974103  0.103454  1
  O  O105  1  0.250223  0.636462  0.570106  1
  O  O106  1  0.770191  0.285412  0.272417  1
  O  O107  1  0.270045  0.467855  0.649747  1
  O  O108  1  0.270045  0.967855  0.350253  1
  O  O109  1  0.250148  0.626493  0.314583  1
  O  O110  1  0.500000  0.532067  0.971909  1
  O  O111  1  0.500000  0.535288  0.489051  1
