# generated using pymatgen
data_Ag6Mo2ClO7F3
_symmetry_space_group_name_H-M   'P 1'
_cell_length_a   7.59653763
_cell_length_b   7.59653763
_cell_length_c   6.01988522
_cell_angle_alpha   90.00000000
_cell_angle_beta   90.00000000
_cell_angle_gamma   120.00000000
_symmetry_Int_Tables_number   1
_chemical_formula_structural   Ag6Mo2ClO7F3
_chemical_formula_sum   'Ag6 Mo2 Cl1 O7 F3'
_cell_volume   300.85014781
_cell_formula_units_Z   1
loop_
 _symmetry_equiv_pos_site_id
 _symmetry_equiv_pos_as_xyz
  1  'x, y, z'
loop_
 _atom_site_type_symbol
 _atom_site_label
 _atom_site_symmetry_multiplicity
 _atom_site_fract_x
 _atom_site_fract_y
 _atom_site_fract_z
 _atom_site_occupancy
  Ag  Ag0  1  0.157162  0.842838  0.189034  1
  Ag  Ag1  1  0.828398  0.171602  0.729923  1
  Ag  Ag2  1  0.828398  0.656796  0.729923  1
  Ag  Ag3  1  0.157162  0.314323  0.189034  1
  Ag  Ag4  1  0.685677  0.842838  0.189034  1
  Ag  Ag5  1  0.343204  0.171602  0.729923  1
  Mo  Mo6  1  0.666667  0.333333  0.238392  1
  Mo  Mo7  1  0.333333  0.666667  0.685252  1
  Cl  Cl8  1  0.000000  0.000000  0.492365  1
  O  O9  1  0.210143  0.789857  0.817641  1
  O  O10  1  0.793745  0.206255  0.124078  1
  O  O11  1  0.579714  0.789857  0.817641  1
  O  O12  1  0.666667  0.333333  0.543366  1
  O  O13  1  0.412510  0.206255  0.124078  1
  O  O14  1  0.210143  0.420286  0.817641  1
  O  O15  1  0.793745  0.587490  0.124078  1
  F  F16  1  0.102493  0.551246  0.439716  1
  F  F17  1  0.448754  0.551246  0.439716  1
  F  F18  1  0.448754  0.897507  0.439716  1
