# generated using pymatgen
data_Re2SCl12
_symmetry_space_group_name_H-M   'P 1'
_cell_length_a   8.72758466
_cell_length_b   11.39862983
_cell_length_c   9.15314683
_cell_angle_alpha   90.00000000
_cell_angle_beta   94.99520995
_cell_angle_gamma   90.00000000
_symmetry_Int_Tables_number   1
_chemical_formula_structural   Re2SCl12
_chemical_formula_sum   'Re4 S2 Cl24'
_cell_volume   907.11959937
_cell_formula_units_Z   2
loop_
 _symmetry_equiv_pos_site_id
 _symmetry_equiv_pos_as_xyz
  1  'x, y, z'
loop_
 _atom_site_type_symbol
 _atom_site_label
 _atom_site_symmetry_multiplicity
 _atom_site_fract_x
 _atom_site_fract_y
 _atom_site_fract_z
 _atom_site_occupancy
  Re  Re0  1  0.140384  0.250000  0.374129  1
  Re  Re1  1  0.639001  0.750000  0.392210  1
  Re  Re2  1  0.859616  0.750000  0.625871  1
  Re  Re3  1  0.360999  0.250000  0.607790  1
  S  S4  1  0.830393  0.250000  0.066607  1
  S  S5  1  0.169607  0.750000  0.933393  1
  Cl  Cl6  1  0.614573  0.895257  0.217037  1
  Cl  Cl7  1  0.171904  0.611760  0.074140  1
  Cl  Cl8  1  0.620072  0.250000  0.579579  1
  Cl  Cl9  1  0.385427  0.104743  0.782963  1
  Cl  Cl10  1  0.953474  0.105414  0.323018  1
  Cl  Cl11  1  0.379928  0.750000  0.420421  1
  Cl  Cl12  1  0.329285  0.402538  0.419165  1
  Cl  Cl13  1  0.828096  0.111760  0.925860  1
  Cl  Cl14  1  0.828096  0.388240  0.925860  1
  Cl  Cl15  1  0.611718  0.250000  0.122033  1
  Cl  Cl16  1  0.190080  0.250000  0.126812  1
  Cl  Cl17  1  0.670715  0.902538  0.580835  1
  Cl  Cl18  1  0.385427  0.395257  0.782963  1
  Cl  Cl19  1  0.388282  0.750000  0.877967  1
  Cl  Cl20  1  0.953474  0.394586  0.323018  1
  Cl  Cl21  1  0.329285  0.097462  0.419165  1
  Cl  Cl22  1  0.809920  0.750000  0.873188  1
  Cl  Cl23  1  0.082723  0.250000  0.626800  1
  Cl  Cl24  1  0.046526  0.605414  0.676982  1
  Cl  Cl25  1  0.171904  0.888240  0.074140  1
  Cl  Cl26  1  0.917277  0.750000  0.373200  1
  Cl  Cl27  1  0.670715  0.597462  0.580835  1
  Cl  Cl28  1  0.614573  0.604743  0.217037  1
  Cl  Cl29  1  0.046526  0.894586  0.676982  1
