# generated using pymatgen
data_V2Zn3TeO10
_symmetry_space_group_name_H-M   'P 1'
_cell_length_a   5.34145460
_cell_length_b   30.85591065
_cell_length_c   5.64010998
_cell_angle_alpha   90.00000000
_cell_angle_beta   98.54976672
_cell_angle_gamma   90.00000000
_symmetry_Int_Tables_number   1
_chemical_formula_structural   V2Zn3TeO10
_chemical_formula_sum   'V8 Zn12 Te4 O40'
_cell_volume   919.24694543
_cell_formula_units_Z   4
loop_
 _symmetry_equiv_pos_site_id
 _symmetry_equiv_pos_as_xyz
  1  'x, y, z'
loop_
 _atom_site_type_symbol
 _atom_site_label
 _atom_site_symmetry_multiplicity
 _atom_site_fract_x
 _atom_site_fract_y
 _atom_site_fract_z
 _atom_site_occupancy
  V  V0  1  0.752443  0.444471  0.781911  1
  V  V1  1  0.929543  0.205290  0.272371  1
  V  V2  1  0.752443  0.055529  0.281911  1
  V  V3  1  0.070457  0.794710  0.727629  1
  V  V4  1  0.929543  0.294710  0.772371  1
  V  V5  1  0.070457  0.705290  0.227629  1
  V  V6  1  0.247557  0.555529  0.218089  1
  V  V7  1  0.247557  0.944471  0.718089  1
  Zn  Zn8  1  0.220237  0.870312  0.268110  1
  Zn  Zn9  1  0.305585  0.057924  0.642835  1
  Zn  Zn10  1  0.779763  0.129688  0.731890  1
  Zn  Zn11  1  0.578908  0.726836  0.720519  1
  Zn  Zn12  1  0.220237  0.629688  0.768110  1
  Zn  Zn13  1  0.694415  0.942076  0.357165  1
  Zn  Zn14  1  0.305585  0.442076  0.142835  1
  Zn  Zn15  1  0.694415  0.557924  0.857165  1
  Zn  Zn16  1  0.421092  0.273164  0.279481  1
  Zn  Zn17  1  0.421092  0.226836  0.779481  1
  Zn  Zn18  1  0.578908  0.773164  0.220519  1
  Zn  Zn19  1  0.779763  0.370312  0.231890  1
  Te  Te20  1  0.329661  0.130942  0.068742  1
  Te  Te21  1  0.670339  0.869058  0.931258  1
  Te  Te22  1  0.329661  0.369058  0.568742  1
  Te  Te23  1  0.670339  0.630942  0.431258  1
  O  O24  1  0.883041  0.900538  0.173128  1
  O  O25  1  0.682782  0.001890  0.262364  1
  O  O26  1  0.883041  0.599462  0.673128  1
  O  O27  1  0.928654  0.564940  0.168032  1
  O  O28  1  0.312295  0.760400  0.855026  1
  O  O29  1  0.201333  0.268962  0.932224  1
  O  O30  1  0.682782  0.498110  0.762364  1
  O  O31  1  0.513087  0.664240  0.658862  1
  O  O32  1  0.182720  0.831810  0.548942  1
  O  O33  1  0.967549  0.824769  0.972350  1
  O  O34  1  0.317218  0.998110  0.737636  1
  O  O35  1  0.486913  0.164240  0.841138  1
  O  O36  1  0.386244  0.920491  0.483136  1
  O  O37  1  0.201333  0.231038  0.432224  1
  O  O38  1  0.182720  0.668190  0.048942  1
  O  O39  1  0.608169  0.085066  0.015649  1
  O  O40  1  0.608169  0.414934  0.515649  1
  O  O41  1  0.687705  0.239600  0.144974  1
  O  O42  1  0.817280  0.331810  0.951058  1
  O  O43  1  0.391831  0.914934  0.984351  1
  O  O44  1  0.032451  0.324769  0.527650  1
  O  O45  1  0.613756  0.420491  0.016864  1
  O  O46  1  0.798667  0.731038  0.067776  1
  O  O47  1  0.613756  0.079509  0.516864  1
  O  O48  1  0.032451  0.175231  0.027650  1
  O  O49  1  0.687705  0.260400  0.644974  1
  O  O50  1  0.798667  0.768962  0.567776  1
  O  O51  1  0.071346  0.064940  0.331968  1
  O  O52  1  0.967549  0.675231  0.472350  1
  O  O53  1  0.513087  0.835760  0.158862  1
  O  O54  1  0.391831  0.585066  0.484351  1
  O  O55  1  0.312295  0.739600  0.355026  1
  O  O56  1  0.386244  0.579509  0.983136  1
  O  O57  1  0.817280  0.168190  0.451058  1
  O  O58  1  0.071346  0.435060  0.831968  1
  O  O59  1  0.486913  0.335760  0.341138  1
  O  O60  1  0.928654  0.935060  0.668032  1
  O  O61  1  0.317218  0.501890  0.237636  1
  O  O62  1  0.116959  0.099462  0.826872  1
  O  O63  1  0.116959  0.400538  0.326872  1
