# generated using pymatgen
data_CdI2
_symmetry_space_group_name_H-M   'P 1'
_cell_length_a   4.33283083
_cell_length_b   4.33283083
_cell_length_c   59.28796711
_cell_angle_alpha   90.00000000
_cell_angle_beta   90.00000000
_cell_angle_gamma   120.00000000
_symmetry_Int_Tables_number   1
_chemical_formula_structural   CdI2
_chemical_formula_sum   'Cd8 I16'
_cell_volume   963.91925579
_cell_formula_units_Z   8
loop_
 _symmetry_equiv_pos_site_id
 _symmetry_equiv_pos_as_xyz
  1  'x, y, z'
loop_
 _atom_site_type_symbol
 _atom_site_label
 _atom_site_symmetry_multiplicity
 _atom_site_fract_x
 _atom_site_fract_y
 _atom_site_fract_z
 _atom_site_occupancy
  Cd  Cd0  1  0.000000  0.000000  0.500000  1
  Cd  Cd1  1  0.000000  0.000000  0.749999  1
  Cd  Cd2  1  0.333333  0.666667  0.375005  1
  Cd  Cd3  1  0.000000  0.000000  0.000000  1
  Cd  Cd4  1  0.666667  0.333333  0.624995  1
  Cd  Cd5  1  0.333333  0.666667  0.125008  1
  Cd  Cd6  1  0.666667  0.333333  0.874992  1
  Cd  Cd7  1  0.000000  0.000000  0.250001  1
  I  I8  1  0.000000  0.000000  0.595853  1
  I  I9  1  0.666667  0.333333  0.970880  1
  I  I10  1  0.666667  0.333333  0.345887  1
  I  I11  1  0.000000  0.000000  0.154150  1
  I  I12  1  0.333333  0.666667  0.779115  1
  I  I13  1  0.333333  0.666667  0.529114  1
  I  I14  1  0.333333  0.666667  0.904111  1
  I  I15  1  0.666667  0.333333  0.220885  1
  I  I16  1  0.666667  0.333333  0.095889  1
  I  I17  1  0.333333  0.666667  0.654113  1
  I  I18  1  0.333333  0.666667  0.029120  1
  I  I19  1  0.666667  0.333333  0.720884  1
  I  I20  1  0.000000  0.000000  0.404147  1
  I  I21  1  0.000000  0.000000  0.845850  1
  I  I22  1  0.333333  0.666667  0.279116  1
  I  I23  1  0.666667  0.333333  0.470886  1
