# generated using pymatgen
data_Na2VS2O9
_symmetry_space_group_name_H-M   'P 1'
_cell_length_a   6.39860044
_cell_length_b   6.91609752
_cell_length_c   16.90180309
_cell_angle_alpha   90.00000000
_cell_angle_beta   90.00000000
_cell_angle_gamma   90.00000000
_symmetry_Int_Tables_number   1
_chemical_formula_structural   Na2VS2O9
_chemical_formula_sum   'Na8 V4 S8 O36'
_cell_volume   747.96131709
_cell_formula_units_Z   4
loop_
 _symmetry_equiv_pos_site_id
 _symmetry_equiv_pos_as_xyz
  1  'x, y, z'
loop_
 _atom_site_type_symbol
 _atom_site_label
 _atom_site_symmetry_multiplicity
 _atom_site_fract_x
 _atom_site_fract_y
 _atom_site_fract_z
 _atom_site_occupancy
  Na  Na0  1  0.312640  0.650255  0.914936  1
  Na  Na1  1  0.687360  0.150255  0.585064  1
  Na  Na2  1  0.129091  0.893484  0.738093  1
  Na  Na3  1  0.187360  0.349745  0.414936  1
  Na  Na4  1  0.870909  0.393484  0.761907  1
  Na  Na5  1  0.629091  0.606516  0.261907  1
  Na  Na6  1  0.370909  0.106516  0.238093  1
  Na  Na7  1  0.812640  0.849745  0.085064  1
  V  V8  1  0.034376  0.351205  0.090109  1
  V  V9  1  0.465624  0.648795  0.590109  1
  V  V10  1  0.534376  0.148795  0.909891  1
  V  V11  1  0.965624  0.851205  0.409891  1
  S  S12  1  0.856494  0.102496  0.248637  1
  S  S13  1  0.143506  0.602496  0.251363  1
  S  S14  1  0.964396  0.586937  0.568046  1
  S  S15  1  0.035604  0.086937  0.931954  1
  S  S16  1  0.464396  0.913063  0.431954  1
  S  S17  1  0.643506  0.897504  0.748637  1
  S  S18  1  0.356494  0.397504  0.751363  1
  S  S19  1  0.535604  0.413063  0.068046  1
  O  O20  1  0.780672  0.700837  0.595308  1
  O  O21  1  0.012747  0.550679  0.179196  1
  O  O22  1  0.017856  0.144064  0.185534  1
  O  O23  1  0.225131  0.230647  0.733187  1
  O  O24  1  0.022252  0.097945  0.020960  1
  O  O25  1  0.477748  0.902055  0.520960  1
  O  O26  1  0.452642  0.114909  0.407829  1
  O  O27  1  0.982144  0.644064  0.314466  1
  O  O28  1  0.512747  0.949321  0.820804  1
  O  O29  1  0.517856  0.355936  0.814466  1
  O  O30  1  0.351083  0.311163  0.104448  1
  O  O31  1  0.719328  0.299163  0.095308  1
  O  O32  1  0.977748  0.597945  0.479040  1
  O  O33  1  0.772451  0.063003  0.721821  1
  O  O34  1  0.148917  0.688837  0.604448  1
  O  O35  1  0.274869  0.769353  0.233187  1
  O  O36  1  0.851083  0.188837  0.895552  1
  O  O37  1  0.725131  0.269353  0.266813  1
  O  O38  1  0.457508  0.487124  0.518984  1
  O  O39  1  0.727549  0.936997  0.221821  1
  O  O40  1  0.774869  0.730647  0.766813  1
  O  O41  1  0.487253  0.449321  0.679196  1
  O  O42  1  0.047358  0.885091  0.907829  1
  O  O43  1  0.227549  0.563003  0.778179  1
  O  O44  1  0.272451  0.436997  0.278179  1
  O  O45  1  0.987253  0.050679  0.320804  1
  O  O46  1  0.280672  0.799163  0.404692  1
  O  O47  1  0.522252  0.402055  0.979040  1
  O  O48  1  0.648917  0.811163  0.395552  1
  O  O49  1  0.042492  0.512876  0.018984  1
  O  O50  1  0.952642  0.385091  0.592171  1
  O  O51  1  0.482144  0.855936  0.685534  1
  O  O52  1  0.542492  0.987124  0.981016  1
  O  O53  1  0.219328  0.200837  0.904692  1
  O  O54  1  0.957508  0.012876  0.481016  1
  O  O55  1  0.547358  0.614909  0.092171  1
