# generated using pymatgen
data_Rb2NaH5(CO4)2
_symmetry_space_group_name_H-M   'P 1'
_cell_length_a   8.23053703
_cell_length_b   9.50468537
_cell_length_c   12.19345434
_cell_angle_alpha   90.00000000
_cell_angle_beta   90.00000000
_cell_angle_gamma   90.00000000
_symmetry_Int_Tables_number   1
_chemical_formula_structural   Rb2NaH5(CO4)2
_chemical_formula_sum   'Rb8 Na4 H20 C8 O32'
_cell_volume   953.87765349
_cell_formula_units_Z   4
loop_
 _symmetry_equiv_pos_site_id
 _symmetry_equiv_pos_as_xyz
  1  'x, y, z'
loop_
 _atom_site_type_symbol
 _atom_site_label
 _atom_site_symmetry_multiplicity
 _atom_site_fract_x
 _atom_site_fract_y
 _atom_site_fract_z
 _atom_site_occupancy
  Rb  Rb0  1  0.489206  0.778490  0.108019  1
  Rb  Rb1  1  0.989206  0.221510  0.891981  1
  Rb  Rb2  1  0.010794  0.278490  0.391981  1
  Rb  Rb3  1  0.510794  0.721510  0.608019  1
  Rb  Rb4  1  0.510794  0.221510  0.891981  1
  Rb  Rb5  1  0.010794  0.778490  0.108019  1
  Rb  Rb6  1  0.989206  0.721510  0.608019  1
  Rb  Rb7  1  0.489206  0.278490  0.391981  1
  Na  Na8  1  0.750000  0.939266  0.316184  1
  Na  Na9  1  0.250000  0.060734  0.683816  1
  Na  Na10  1  0.750000  0.439266  0.183816  1
  Na  Na11  1  0.250000  0.560734  0.816184  1
  H  H12  1  0.750000  0.496051  0.471284  1
  H  H13  1  0.250000  0.503949  0.528716  1
  H  H14  1  0.750000  0.996051  0.028716  1
  H  H15  1  0.250000  0.003949  0.971284  1
  H  H16  1  0.889910  0.617105  0.866368  1
  H  H17  1  0.389910  0.382895  0.133632  1
  H  H18  1  0.610090  0.117105  0.633632  1
  H  H19  1  0.110090  0.882895  0.366368  1
  H  H20  1  0.110090  0.382895  0.133632  1
  H  H21  1  0.610090  0.617105  0.866368  1
  H  H22  1  0.389910  0.882895  0.366368  1
  H  H23  1  0.889910  0.117105  0.633632  1
  H  H24  1  0.882965  0.483233  0.790879  1
  H  H25  1  0.382965  0.516767  0.209121  1
  H  H26  1  0.617035  0.983233  0.709121  1
  H  H27  1  0.117035  0.016767  0.290879  1
  H  H28  1  0.117035  0.516767  0.209121  1
  H  H29  1  0.617035  0.483233  0.790879  1
  H  H30  1  0.382965  0.016767  0.290879  1
  H  H31  1  0.882965  0.983233  0.709121  1
  C  C32  1  0.750000  0.650131  0.356133  1
  C  C33  1  0.250000  0.349869  0.643867  1
  C  C34  1  0.750000  0.150131  0.143867  1
  C  C35  1  0.250000  0.849869  0.856133  1
  C  C36  1  0.750000  0.359696  0.631648  1
  C  C37  1  0.250000  0.640304  0.368352  1
  C  C38  1  0.750000  0.859696  0.868352  1
  C  C39  1  0.250000  0.140304  0.131648  1
  O  O40  1  0.750000  0.740299  0.433234  1
  O  O41  1  0.250000  0.259701  0.566766  1
  O  O42  1  0.750000  0.240299  0.066766  1
  O  O43  1  0.250000  0.759701  0.933234  1
  O  O44  1  0.750000  0.679297  0.253814  1
  O  O45  1  0.250000  0.320703  0.746186  1
  O  O46  1  0.750000  0.179297  0.246186  1
  O  O47  1  0.250000  0.820703  0.753814  1
  O  O48  1  0.750000  0.510434  0.382205  1
  O  O49  1  0.250000  0.489566  0.617795  1
  O  O50  1  0.750000  0.010434  0.117795  1
  O  O51  1  0.250000  0.989566  0.882205  1
  O  O52  1  0.750000  0.483410  0.584355  1
  O  O53  1  0.250000  0.516590  0.415645  1
  O  O54  1  0.750000  0.983410  0.915645  1
  O  O55  1  0.250000  0.016590  0.084355  1
  O  O56  1  0.750000  0.245554  0.572981  1
  O  O57  1  0.250000  0.754446  0.427019  1
  O  O58  1  0.750000  0.745554  0.927019  1
  O  O59  1  0.250000  0.254446  0.072981  1
  O  O60  1  0.750000  0.354678  0.738316  1
  O  O61  1  0.250000  0.645322  0.261684  1
  O  O62  1  0.750000  0.854678  0.761684  1
  O  O63  1  0.250000  0.145322  0.238316  1
  O  O64  1  0.960531  0.545626  0.830754  1
  O  O65  1  0.460531  0.454374  0.169246  1
  O  O66  1  0.539469  0.045626  0.669246  1
  O  O67  1  0.039469  0.954374  0.330754  1
  O  O68  1  0.039469  0.454374  0.169246  1
  O  O69  1  0.539469  0.545626  0.830754  1
  O  O70  1  0.460531  0.954374  0.330754  1
  O  O71  1  0.960531  0.045626  0.669246  1
