# generated using pymatgen
data_LiGaAs2O7
_symmetry_space_group_name_H-M   'P 1'
_cell_length_a   5.36613926
_cell_length_b   5.36613926
_cell_length_c   4.77544045
_cell_angle_alpha   81.21420825
_cell_angle_beta   98.78579175
_cell_angle_gamma   77.94260016
_symmetry_Int_Tables_number   1
_chemical_formula_structural   LiGaAs2O7
_chemical_formula_sum   'Li1 Ga1 As2 O7'
_cell_volume   130.45131245
_cell_formula_units_Z   1
loop_
 _symmetry_equiv_pos_site_id
 _symmetry_equiv_pos_as_xyz
  1  'x, y, z'
loop_
 _atom_site_type_symbol
 _atom_site_label
 _atom_site_symmetry_multiplicity
 _atom_site_fract_x
 _atom_site_fract_y
 _atom_site_fract_z
 _atom_site_occupancy
  Li  Li0  1  0.249310  0.249310  0.000000  1
  Ga  Ga1  1  0.624694  0.624694  0.000000  1
  As  As2  1  0.747052  0.179621  0.593895  1
  As  As3  1  0.179621  0.747052  0.406105  1
  O  O4  1  0.857885  0.358657  0.832442  1
  O  O5  1  0.358657  0.857885  0.167558  1
  O  O6  1  0.945970  0.611370  0.261403  1
  O  O7  1  0.611370  0.945970  0.738597  1
  O  O8  1  0.337792  0.548444  0.728103  1
  O  O9  1  0.548444  0.337792  0.271897  1
  O  O10  1  0.049884  0.049884  0.500000  1
