# generated using pymatgen
data_Tl3AsS3
_symmetry_space_group_name_H-M   'P 1'
_cell_length_a   5.81846630
_cell_length_b   12.70492003
_cell_length_c   22.37138700
_cell_angle_alpha   90.00000000
_cell_angle_beta   90.00000000
_cell_angle_gamma   90.00000000
_symmetry_Int_Tables_number   1
_chemical_formula_structural   Tl3AsS3
_chemical_formula_sum   'Tl24 As8 S24'
_cell_volume   1653.76337540
_cell_formula_units_Z   8
loop_
 _symmetry_equiv_pos_site_id
 _symmetry_equiv_pos_as_xyz
  1  'x, y, z'
loop_
 _atom_site_type_symbol
 _atom_site_label
 _atom_site_symmetry_multiplicity
 _atom_site_fract_x
 _atom_site_fract_y
 _atom_site_fract_z
 _atom_site_occupancy
  Tl  Tl0  1  0.417407  0.779863  0.182535  1
  Tl  Tl1  1  0.917407  0.720137  0.817465  1
  Tl  Tl2  1  0.578553  0.838345  0.976289  1
  Tl  Tl3  1  0.078553  0.661655  0.023711  1
  Tl  Tl4  1  0.421447  0.338345  0.523711  1
  Tl  Tl5  1  0.082593  0.279863  0.182535  1
  Tl  Tl6  1  0.578553  0.661655  0.476289  1
  Tl  Tl7  1  0.082593  0.220137  0.682535  1
  Tl  Tl8  1  0.921447  0.338345  0.976289  1
  Tl  Tl9  1  0.917407  0.779863  0.317465  1
  Tl  Tl10  1  0.078553  0.838345  0.523711  1
  Tl  Tl11  1  0.417407  0.720137  0.682535  1
  Tl  Tl12  1  0.582593  0.220137  0.817465  1
  Tl  Tl13  1  0.453998  0.932642  0.809419  1
  Tl  Tl14  1  0.953998  0.932642  0.690581  1
  Tl  Tl15  1  0.582593  0.279863  0.317465  1
  Tl  Tl16  1  0.546002  0.432642  0.690581  1
  Tl  Tl17  1  0.546002  0.067358  0.190581  1
  Tl  Tl18  1  0.453998  0.567358  0.309419  1
  Tl  Tl19  1  0.421447  0.161655  0.023711  1
  Tl  Tl20  1  0.921447  0.161655  0.476289  1
  Tl  Tl21  1  0.046002  0.067358  0.309419  1
  Tl  Tl22  1  0.046002  0.432642  0.809419  1
  Tl  Tl23  1  0.953998  0.567358  0.190581  1
  As  As24  1  0.953871  0.549546  0.587066  1
  As  As25  1  0.546129  0.049546  0.587066  1
  As  As26  1  0.046129  0.049546  0.912934  1
  As  As27  1  0.546129  0.450454  0.087066  1
  As  As28  1  0.046129  0.450454  0.412934  1
  As  As29  1  0.453871  0.950454  0.412934  1
  As  As30  1  0.453871  0.549546  0.912934  1
  As  As31  1  0.953871  0.950454  0.087066  1
  S  S32  1  0.114966  0.395057  0.317693  1
  S  S33  1  0.114966  0.104943  0.817693  1
  S  S34  1  0.614966  0.395057  0.182307  1
  S  S35  1  0.847538  0.553956  0.914822  1
  S  S36  1  0.385034  0.895057  0.317693  1
  S  S37  1  0.619507  0.625888  0.091369  1
  S  S38  1  0.380493  0.125888  0.408631  1
  S  S39  1  0.614966  0.104943  0.682307  1
  S  S40  1  0.119507  0.874112  0.908631  1
  S  S41  1  0.880493  0.125888  0.091369  1
  S  S42  1  0.152462  0.053956  0.585178  1
  S  S43  1  0.119507  0.625888  0.408631  1
  S  S44  1  0.652462  0.446044  0.414822  1
  S  S45  1  0.652462  0.053956  0.914822  1
  S  S46  1  0.152462  0.446044  0.085178  1
  S  S47  1  0.380493  0.374112  0.908631  1
  S  S48  1  0.880493  0.374112  0.591369  1
  S  S49  1  0.885034  0.604943  0.682307  1
  S  S50  1  0.347538  0.553956  0.585178  1
  S  S51  1  0.885034  0.895057  0.182307  1
  S  S52  1  0.619507  0.874112  0.591369  1
  S  S53  1  0.847538  0.946044  0.414822  1
  S  S54  1  0.347538  0.946044  0.085178  1
  S  S55  1  0.385034  0.604943  0.817693  1
