# generated using pymatgen
data_KAu(SO4)2
_symmetry_space_group_name_H-M   'P 1'
_cell_length_a   6.83856391
_cell_length_b   6.83856391
_cell_length_c   9.65347899
_cell_angle_alpha   66.74067252
_cell_angle_beta   113.25932748
_cell_angle_gamma   112.82910835
_symmetry_Int_Tables_number   1
_chemical_formula_structural   KAu(SO4)2
_chemical_formula_sum   'K2 Au2 S4 O16'
_cell_volume   366.37166252
_cell_formula_units_Z   2
loop_
 _symmetry_equiv_pos_site_id
 _symmetry_equiv_pos_as_xyz
  1  'x, y, z'
loop_
 _atom_site_type_symbol
 _atom_site_label
 _atom_site_symmetry_multiplicity
 _atom_site_fract_x
 _atom_site_fract_y
 _atom_site_fract_z
 _atom_site_occupancy
  K  K0  1  0.981127  0.981127  0.750000  1
  K  K1  1  0.018873  0.018873  0.250000  1
  Au  Au2  1  0.500000  0.500000  0.500000  1
  Au  Au3  1  0.500000  0.500000  0.000000  1
  S  S4  1  0.678929  0.284846  0.859112  1
  S  S5  1  0.284846  0.678929  0.640888  1
  S  S6  1  0.715154  0.321071  0.359112  1
  S  S7  1  0.321071  0.715154  0.140888  1
  O  O8  1  0.155901  0.451121  0.680668  1
  O  O9  1  0.493092  0.722648  0.783027  1
  O  O10  1  0.849490  0.173133  0.914658  1
  O  O11  1  0.389676  0.732663  0.508600  1
  O  O12  1  0.150510  0.826867  0.085342  1
  O  O13  1  0.173133  0.849490  0.585342  1
  O  O14  1  0.506908  0.277352  0.216973  1
  O  O15  1  0.267337  0.610324  0.008600  1
  O  O16  1  0.277352  0.506908  0.283027  1
  O  O17  1  0.732663  0.389676  0.991400  1
  O  O18  1  0.722648  0.493092  0.716973  1
  O  O19  1  0.844099  0.548879  0.319332  1
  O  O20  1  0.548879  0.844099  0.180668  1
  O  O21  1  0.451121  0.155901  0.819332  1
  O  O22  1  0.826867  0.150510  0.414658  1
  O  O23  1  0.610324  0.267337  0.491400  1
