# generated using pymatgen
data_Rb2Te(WO4)3
_symmetry_space_group_name_H-M   'P 1'
_cell_length_a   7.42208648
_cell_length_b   7.42208648
_cell_length_c   12.49736916
_cell_angle_alpha   90.00000000
_cell_angle_beta   90.00000000
_cell_angle_gamma   120.00000000
_symmetry_Int_Tables_number   1
_chemical_formula_structural   Rb2Te(WO4)3
_chemical_formula_sum   'Rb4 Te2 W6 O24'
_cell_volume   596.21273867
_cell_formula_units_Z   2
loop_
 _symmetry_equiv_pos_site_id
 _symmetry_equiv_pos_as_xyz
  1  'x, y, z'
loop_
 _atom_site_type_symbol
 _atom_site_label
 _atom_site_symmetry_multiplicity
 _atom_site_fract_x
 _atom_site_fract_y
 _atom_site_fract_z
 _atom_site_occupancy
  Rb  Rb0  1  0.333333  0.666667  0.878299  1
  Rb  Rb1  1  0.666667  0.333333  0.378299  1
  Rb  Rb2  1  0.666667  0.333333  0.996702  1
  Rb  Rb3  1  0.333333  0.666667  0.496702  1
  Te  Te4  1  0.000000  0.000000  0.431158  1
  Te  Te5  1  0.000000  0.000000  0.931158  1
  W  W6  1  0.662295  0.831147  0.170284  1
  W  W7  1  0.337705  0.168853  0.670284  1
  W  W8  1  0.168853  0.831147  0.170284  1
  W  W9  1  0.168853  0.337705  0.170284  1
  W  W10  1  0.831147  0.168853  0.670284  1
  W  W11  1  0.831147  0.662295  0.670284  1
  O  O12  1  0.193975  0.806025  0.311021  1
  O  O13  1  0.131304  0.868696  0.003870  1
  O  O14  1  0.911557  0.455779  0.632768  1
  O  O15  1  0.248029  0.124014  0.180427  1
  O  O16  1  0.131304  0.262608  0.003870  1
  O  O17  1  0.124014  0.248029  0.680427  1
  O  O18  1  0.806025  0.193975  0.811021  1
  O  O19  1  0.806025  0.612051  0.811021  1
  O  O20  1  0.875986  0.124014  0.180427  1
  O  O21  1  0.124014  0.875986  0.680427  1
  O  O22  1  0.387949  0.193975  0.811021  1
  O  O23  1  0.455779  0.544221  0.132768  1
  O  O24  1  0.193975  0.387949  0.311021  1
  O  O25  1  0.088443  0.544221  0.132768  1
  O  O26  1  0.544221  0.088443  0.632768  1
  O  O27  1  0.544221  0.455779  0.632768  1
  O  O28  1  0.612051  0.806025  0.311021  1
  O  O29  1  0.868696  0.131304  0.503870  1
  O  O30  1  0.868696  0.737392  0.503870  1
  O  O31  1  0.262608  0.131304  0.503870  1
  O  O32  1  0.737392  0.868696  0.003870  1
  O  O33  1  0.875986  0.751971  0.180427  1
  O  O34  1  0.751971  0.875986  0.680427  1
  O  O35  1  0.455779  0.911557  0.132768  1
