# generated using pymatgen
data_Ca9B2(CCl2)4
_symmetry_space_group_name_H-M   'P 1'
_cell_length_a   8.94075038
_cell_length_b   8.94075038
_cell_length_c   12.16499445
_cell_angle_alpha   90.00000000
_cell_angle_beta   90.00000000
_cell_angle_gamma   98.39302773
_symmetry_Int_Tables_number   1
_chemical_formula_structural   Ca9B2(CCl2)4
_chemical_formula_sum   'Ca18 B4 C8 Cl16'
_cell_volume   962.01871015
_cell_formula_units_Z   2
loop_
 _symmetry_equiv_pos_site_id
 _symmetry_equiv_pos_as_xyz
  1  'x, y, z'
loop_
 _atom_site_type_symbol
 _atom_site_label
 _atom_site_symmetry_multiplicity
 _atom_site_fract_x
 _atom_site_fract_y
 _atom_site_fract_z
 _atom_site_occupancy
  Ca  Ca0  1  0.120691  0.879309  0.250000  1
  Ca  Ca1  1  0.432776  0.192772  0.250000  1
  Ca  Ca2  1  0.970892  0.667085  0.550462  1
  Ca  Ca3  1  0.192772  0.432776  0.750000  1
  Ca  Ca4  1  0.659476  0.340524  0.591965  1
  Ca  Ca5  1  0.029108  0.332915  0.449538  1
  Ca  Ca6  1  0.332915  0.029108  0.949538  1
  Ca  Ca7  1  0.659476  0.340524  0.908035  1
  Ca  Ca8  1  0.567224  0.807228  0.750000  1
  Ca  Ca9  1  0.340524  0.659476  0.091965  1
  Ca  Ca10  1  0.340524  0.659476  0.408035  1
  Ca  Ca11  1  0.879309  0.120691  0.750000  1
  Ca  Ca12  1  0.029108  0.332915  0.050462  1
  Ca  Ca13  1  0.667085  0.970892  0.050462  1
  Ca  Ca14  1  0.332915  0.029108  0.550462  1
  Ca  Ca15  1  0.667085  0.970892  0.449538  1
  Ca  Ca16  1  0.807228  0.567224  0.250000  1
  Ca  Ca17  1  0.970892  0.667085  0.949538  1
  B  B18  1  0.417628  0.915056  0.250000  1
  B  B19  1  0.582372  0.084944  0.750000  1
  B  B20  1  0.915056  0.417628  0.750000  1
  B  B21  1  0.084944  0.582372  0.250000  1
  C  C22  1  0.597279  0.063157  0.632045  1
  C  C23  1  0.402721  0.936843  0.367955  1
  C  C24  1  0.597279  0.063157  0.867955  1
  C  C25  1  0.063157  0.597279  0.367955  1
  C  C26  1  0.936843  0.402721  0.867955  1
  C  C27  1  0.402721  0.936843  0.132045  1
  C  C28  1  0.936843  0.402721  0.632045  1
  C  C29  1  0.063157  0.597279  0.132045  1
  Cl  Cl30  1  0.801731  0.876174  0.250000  1
  Cl  Cl31  1  0.512492  0.487508  0.750000  1
  Cl  Cl32  1  0.876174  0.801731  0.750000  1
  Cl  Cl33  1  0.723880  0.276120  0.120812  1
  Cl  Cl34  1  0.276120  0.723880  0.620812  1
  Cl  Cl35  1  0.123826  0.198269  0.250000  1
  Cl  Cl36  1  0.339589  0.339589  0.500000  1
  Cl  Cl37  1  0.660411  0.660411  1.000000  1
  Cl  Cl38  1  0.339589  0.339589  0.000000  1
  Cl  Cl39  1  0.723880  0.276120  0.379188  1
  Cl  Cl40  1  0.000000  0.000000  0.500000  1
  Cl  Cl41  1  0.660411  0.660411  0.500000  1
  Cl  Cl42  1  0.276120  0.723880  0.879188  1
  Cl  Cl43  1  0.198269  0.123826  0.750000  1
  Cl  Cl44  1  0.487508  0.512492  0.250000  1
  Cl  Cl45  1  0.000000  0.000000  0.000000  1
