# generated using pymatgen
data_K2BeH4(SO5)2
_symmetry_space_group_name_H-M   'P 1'
_cell_length_a   7.38522853
_cell_length_b   11.72968987
_cell_length_c   11.21632863
_cell_angle_alpha   90.00000000
_cell_angle_beta   95.39899320
_cell_angle_gamma   90.00000000
_symmetry_Int_Tables_number   1
_chemical_formula_structural   K2BeH4(SO5)2
_chemical_formula_sum   'K8 Be4 H16 S8 O40'
_cell_volume   967.32009763
_cell_formula_units_Z   4
loop_
 _symmetry_equiv_pos_site_id
 _symmetry_equiv_pos_as_xyz
  1  'x, y, z'
loop_
 _atom_site_type_symbol
 _atom_site_label
 _atom_site_symmetry_multiplicity
 _atom_site_fract_x
 _atom_site_fract_y
 _atom_site_fract_z
 _atom_site_occupancy
  K  K0  1  0.980450  0.760135  0.090894  1
  K  K1  1  0.519550  0.260135  0.909106  1
  K  K2  1  0.019550  0.239865  0.909106  1
  K  K3  1  0.480450  0.739865  0.090894  1
  K  K4  1  0.316909  0.903997  0.392155  1
  K  K5  1  0.183091  0.403997  0.607845  1
  K  K6  1  0.683091  0.096003  0.607845  1
  K  K7  1  0.816909  0.596003  0.392155  1
  Be  Be8  1  0.088640  0.917633  0.763270  1
  Be  Be9  1  0.411360  0.417633  0.236730  1
  Be  Be10  1  0.911360  0.082367  0.236730  1
  Be  Be11  1  0.588640  0.582367  0.763270  1
  H  H12  1  0.799727  0.520205  0.908637  1
  H  H13  1  0.700273  0.020205  0.091363  1
  H  H14  1  0.200273  0.479795  0.091363  1
  H  H15  1  0.299727  0.979795  0.908637  1
  H  H16  1  0.903874  0.588722  0.809978  1
  H  H17  1  0.596126  0.088722  0.190022  1
  H  H18  1  0.096126  0.411278  0.190022  1
  H  H19  1  0.403874  0.911278  0.809978  1
  H  H20  1  0.607791  0.768463  0.701494  1
  H  H21  1  0.892209  0.268463  0.298506  1
  H  H22  1  0.026216  0.814018  0.588790  1
  H  H23  1  0.107791  0.731537  0.701494  1
  H  H24  1  0.526216  0.685982  0.588790  1
  H  H25  1  0.973784  0.185982  0.411210  1
  H  H26  1  0.473784  0.314018  0.411210  1
  H  H27  1  0.392209  0.231537  0.298506  1
  S  S28  1  0.749793  0.946525  0.872272  1
  S  S29  1  0.750207  0.446525  0.127728  1
  S  S30  1  0.250207  0.053475  0.127728  1
  S  S31  1  0.249793  0.553475  0.872272  1
  S  S32  1  0.823367  0.884873  0.365012  1
  S  S33  1  0.676633  0.384873  0.634988  1
  S  S34  1  0.176633  0.115127  0.634988  1
  S  S35  1  0.323367  0.615127  0.365012  1
  O  O36  1  0.878852  0.399415  0.227249  1
  O  O37  1  0.747648  0.571793  0.135069  1
  O  O38  1  0.247648  0.928207  0.135069  1
  O  O39  1  0.252352  0.428207  0.864931  1
  O  O40  1  0.696473  0.907773  0.990319  1
  O  O41  1  0.803527  0.407773  0.009681  1
  O  O42  1  0.303527  0.092227  0.009681  1
  O  O43  1  0.196473  0.592227  0.990319  1
  O  O44  1  0.621148  0.899415  0.772751  1
  O  O45  1  0.752352  0.071793  0.864931  1
  O  O46  1  0.378852  0.100585  0.227249  1
  O  O47  1  0.121148  0.600585  0.772751  1
  O  O48  1  0.937342  0.897559  0.860336  1
  O  O49  1  0.562658  0.397559  0.139664  1
  O  O50  1  0.062658  0.102441  0.139664  1
  O  O51  1  0.437342  0.602441  0.860336  1
  O  O52  1  0.685882  0.950816  0.421680  1
  O  O53  1  0.814118  0.450816  0.578320  1
  O  O54  1  0.314118  0.049184  0.578320  1
  O  O55  1  0.185882  0.549184  0.421680  1
  O  O56  1  0.741565  0.811968  0.266603  1
  O  O57  1  0.758435  0.311968  0.733397  1
  O  O58  1  0.258435  0.188032  0.733397  1
  O  O59  1  0.241565  0.688032  0.266603  1
  O  O60  1  0.938059  0.813536  0.452172  1
  O  O61  1  0.561941  0.313536  0.547828  1
  O  O62  1  0.061941  0.186464  0.547828  1
  O  O63  1  0.438059  0.686464  0.452172  1
  O  O64  1  0.956483  0.967584  0.312221  1
  O  O65  1  0.543517  0.467584  0.687779  1
  O  O66  1  0.043517  0.032416  0.687779  1
  O  O67  1  0.456483  0.532416  0.312221  1
  O  O68  1  0.095941  0.810937  0.670501  1
  O  O69  1  0.404059  0.310937  0.329499  1
  O  O70  1  0.904059  0.189063  0.329499  1
  O  O71  1  0.595941  0.689063  0.670501  1
  O  O72  1  0.285585  0.918183  0.846655  1
  O  O73  1  0.785585  0.581817  0.846655  1
  O  O74  1  0.714415  0.081817  0.153345  1
  O  O75  1  0.214415  0.418183  0.153345  1
