# generated using pymatgen
data_LiTiPO5
_symmetry_space_group_name_H-M   'P 1'
_cell_length_a   6.98535604
_cell_length_b   7.27440780
_cell_length_c   7.97479338
_cell_angle_alpha   90.44415777
_cell_angle_beta   91.40374856
_cell_angle_gamma   117.12688471
_symmetry_Int_Tables_number   1
_chemical_formula_structural   LiTiPO5
_chemical_formula_sum   'Li4 Ti4 P4 O20'
_cell_volume   360.46784881
_cell_formula_units_Z   4
loop_
 _symmetry_equiv_pos_site_id
 _symmetry_equiv_pos_as_xyz
  1  'x, y, z'
loop_
 _atom_site_type_symbol
 _atom_site_label
 _atom_site_symmetry_multiplicity
 _atom_site_fract_x
 _atom_site_fract_y
 _atom_site_fract_z
 _atom_site_occupancy
  Li  Li0  1  0.692939  0.184809  0.566907  1
  Li  Li1  1  0.307061  0.815191  0.433093  1
  Li  Li2  1  0.790714  0.706464  0.932557  1
  Li  Li3  1  0.209286  0.293536  0.067443  1
  Ti  Ti4  1  0.751955  0.978957  0.235991  1
  Ti  Ti5  1  0.754246  0.481491  0.262657  1
  Ti  Ti6  1  0.248045  0.021043  0.764009  1
  Ti  Ti7  1  0.245754  0.518509  0.737343  1
  P  P8  1  0.266487  0.240518  0.407312  1
  P  P9  1  0.767595  0.248855  0.906877  1
  P  P10  1  0.733513  0.759482  0.592688  1
  P  P11  1  0.232405  0.751145  0.093123  1
  O  O12  1  0.553818  0.093086  0.818985  1
  O  O13  1  0.267393  0.256897  0.832840  1
  O  O14  1  0.764522  0.258812  0.330417  1
  O  O15  1  0.235478  0.741188  0.669583  1
  O  O16  1  0.651821  0.885632  0.479305  1
  O  O17  1  0.348179  0.114368  0.520695  1
  O  O18  1  0.767791  0.599468  0.486156  1
  O  O19  1  0.732607  0.743103  0.167160  1
  O  O20  1  0.142871  0.866817  0.977365  1
  O  O21  1  0.425629  0.350563  0.266486  1
  O  O22  1  0.259962  0.583759  0.988881  1
  O  O23  1  0.574371  0.649437  0.733514  1
  O  O24  1  0.920241  0.348130  0.760271  1
  O  O25  1  0.857129  0.133183  0.022635  1
  O  O26  1  0.944579  0.907759  0.686065  1
  O  O27  1  0.055421  0.092241  0.313935  1
  O  O28  1  0.232209  0.400532  0.513844  1
  O  O29  1  0.079759  0.651870  0.239729  1
  O  O30  1  0.740038  0.416241  0.011119  1
  O  O31  1  0.446182  0.906914  0.181015  1
