# generated using pymatgen
data_MnNi(BiO3)2
_symmetry_space_group_name_H-M   'P 1'
_cell_length_a   5.44195671
_cell_length_b   5.66096430
_cell_length_c   9.46359485
_cell_angle_alpha   90.00000000
_cell_angle_beta   124.87196633
_cell_angle_gamma   90.00000000
_symmetry_Int_Tables_number   1
_chemical_formula_structural   MnNi(BiO3)2
_chemical_formula_sum   'Mn2 Ni2 Bi4 O12'
_cell_volume   239.19058435
_cell_formula_units_Z   2
loop_
 _symmetry_equiv_pos_site_id
 _symmetry_equiv_pos_as_xyz
  1  'x, y, z'
loop_
 _atom_site_type_symbol
 _atom_site_label
 _atom_site_symmetry_multiplicity
 _atom_site_fract_x
 _atom_site_fract_y
 _atom_site_fract_z
 _atom_site_occupancy
  Mn  Mn0  1  0.000000  0.000000  0.500000  1
  Mn  Mn1  1  0.000000  0.500000  0.000000  1
  Ni  Ni2  1  0.500000  0.500000  0.500000  1
  Ni  Ni3  1  0.500000  0.000000  0.000000  1
  Bi  Bi4  1  0.259804  0.943457  0.249828  1
  Bi  Bi5  1  0.740196  0.443457  0.250172  1
  Bi  Bi6  1  0.259804  0.556543  0.749828  1
  Bi  Bi7  1  0.740196  0.056543  0.750172  1
  O  O8  1  0.765881  0.788737  0.955077  1
  O  O9  1  0.334789  0.806321  0.543760  1
  O  O10  1  0.151651  0.526323  0.242523  1
  O  O11  1  0.234119  0.211263  0.044923  1
  O  O12  1  0.151651  0.973677  0.742523  1
  O  O13  1  0.234119  0.288737  0.544923  1
  O  O14  1  0.665211  0.306321  0.956240  1
  O  O15  1  0.665211  0.193679  0.456240  1
  O  O16  1  0.848349  0.026323  0.257477  1
  O  O17  1  0.765881  0.711263  0.455077  1
  O  O18  1  0.334789  0.693679  0.043760  1
  O  O19  1  0.848349  0.473677  0.757477  1
