# generated using pymatgen
data_Ba3Zn5In2O11
_symmetry_space_group_name_H-M   'P 1'
_cell_length_a   9.59234705
_cell_length_b   9.59234705
_cell_length_c   9.59234705
_cell_angle_alpha   60.00000000
_cell_angle_beta   60.00000000
_cell_angle_gamma   60.00000000
_symmetry_Int_Tables_number   1
_chemical_formula_structural   Ba3Zn5In2O11
_chemical_formula_sum   'Ba6 Zn10 In4 O22'
_cell_volume   624.10785926
_cell_formula_units_Z   2
loop_
 _symmetry_equiv_pos_site_id
 _symmetry_equiv_pos_as_xyz
  1  'x, y, z'
loop_
 _atom_site_type_symbol
 _atom_site_label
 _atom_site_symmetry_multiplicity
 _atom_site_fract_x
 _atom_site_fract_y
 _atom_site_fract_z
 _atom_site_occupancy
  Ba  Ba0  1  0.956775  0.543225  0.956775  1
  Ba  Ba1  1  0.543225  0.543225  0.956775  1
  Ba  Ba2  1  0.956775  0.543225  0.543225  1
  Ba  Ba3  1  0.543225  0.956775  0.543225  1
  Ba  Ba4  1  0.543225  0.956775  0.956775  1
  Ba  Ba5  1  0.956775  0.956775  0.543225  1
  Zn  Zn6  1  0.166998  0.499005  0.166998  1
  Zn  Zn7  1  0.499005  0.166998  0.166998  1
  Zn  Zn8  1  0.166998  0.166998  0.166998  1
  Zn  Zn9  1  0.831641  0.168359  0.831641  1
  Zn  Zn10  1  0.168359  0.831641  0.168359  1
  Zn  Zn11  1  0.831641  0.168359  0.168359  1
  Zn  Zn12  1  0.168359  0.168359  0.831641  1
  Zn  Zn13  1  0.166998  0.166998  0.499005  1
  Zn  Zn14  1  0.831641  0.831641  0.168359  1
  Zn  Zn15  1  0.168359  0.831641  0.831641  1
  In  In16  1  0.415326  0.754023  0.415326  1
  In  In17  1  0.415326  0.415326  0.415326  1
  In  In18  1  0.754023  0.415326  0.415326  1
  In  In19  1  0.415326  0.415326  0.754023  1
  O  O20  1  0.275755  0.908082  0.908082  1
  O  O21  1  0.578599  0.252503  0.252503  1
  O  O22  1  0.908082  0.275755  0.908082  1
  O  O23  1  0.252503  0.252503  0.916395  1
  O  O24  1  0.252503  0.578599  0.916395  1
  O  O25  1  0.252503  0.916395  0.578599  1
  O  O26  1  0.581340  0.255981  0.581340  1
  O  O27  1  0.252503  0.916395  0.252503  1
  O  O28  1  0.908082  0.908082  0.275755  1
  O  O29  1  0.916395  0.252503  0.252503  1
  O  O30  1  0.916395  0.578599  0.252503  1
  O  O31  1  0.750000  0.750000  0.750000  1
  O  O32  1  0.916395  0.252503  0.578599  1
  O  O33  1  0.255981  0.581340  0.581340  1
  O  O34  1  0.581340  0.581340  0.581340  1
  O  O35  1  0.908082  0.908082  0.908082  1
  O  O36  1  0.578599  0.916395  0.252503  1
  O  O37  1  0.578599  0.252503  0.916395  1
  O  O38  1  0.250000  0.250000  0.250000  1
  O  O39  1  0.252503  0.578599  0.252503  1
  O  O40  1  0.252503  0.252503  0.578599  1
  O  O41  1  0.581340  0.581340  0.255981  1
