# generated using pymatgen
data_Bi9Rh2I3
_symmetry_space_group_name_H-M   'P 1'
_cell_length_a   8.14972978
_cell_length_b   13.89737371
_cell_length_c   9.24971195
_cell_angle_alpha   90.00000000
_cell_angle_beta   111.00449275
_cell_angle_gamma   90.00000000
_symmetry_Int_Tables_number   1
_chemical_formula_structural   Bi9Rh2I3
_chemical_formula_sum   'Bi18 Rh4 I6'
_cell_volume   978.00892358
_cell_formula_units_Z   2
loop_
 _symmetry_equiv_pos_site_id
 _symmetry_equiv_pos_as_xyz
  1  'x, y, z'
loop_
 _atom_site_type_symbol
 _atom_site_label
 _atom_site_symmetry_multiplicity
 _atom_site_fract_x
 _atom_site_fract_y
 _atom_site_fract_z
 _atom_site_occupancy
  Bi  Bi0  1  0.836689  0.750000  0.156016  1
  Bi  Bi1  1  0.163311  0.250000  0.843984  1
  Bi  Bi2  1  0.904822  0.750000  0.826739  1
  Bi  Bi3  1  0.095178  0.250000  0.173261  1
  Bi  Bi4  1  0.284087  0.750000  0.113727  1
  Bi  Bi5  1  0.715913  0.250000  0.886273  1
  Bi  Bi6  1  0.180510  0.865011  0.373486  1
  Bi  Bi7  1  0.819490  0.365011  0.626514  1
  Bi  Bi8  1  0.819490  0.134989  0.626514  1
  Bi  Bi9  1  0.180510  0.634989  0.373486  1
  Bi  Bi10  1  0.138404  0.962202  0.813985  1
  Bi  Bi11  1  0.861596  0.462202  0.186015  1
  Bi  Bi12  1  0.861596  0.037798  0.186015  1
  Bi  Bi13  1  0.138404  0.537798  0.813985  1
  Bi  Bi14  1  0.304685  0.032710  0.147376  1
  Bi  Bi15  1  0.695315  0.532710  0.852624  1
  Bi  Bi16  1  0.695315  0.967290  0.852624  1
  Bi  Bi17  1  0.304685  0.467290  0.147376  1
  Rh  Rh18  1  0.022818  0.899583  0.054888  1
  Rh  Rh19  1  0.977182  0.399583  0.945112  1
  Rh  Rh20  1  0.977182  0.100417  0.945112  1
  Rh  Rh21  1  0.022818  0.600417  0.054888  1
  I  I22  1  0.413199  0.750000  0.786809  1
  I  I23  1  0.586801  0.250000  0.213191  1
  I  I24  1  0.676107  0.901473  0.426337  1
  I  I25  1  0.323893  0.401473  0.573663  1
  I  I26  1  0.323893  0.098527  0.573663  1
  I  I27  1  0.676107  0.598527  0.426337  1
