# generated using pymatgen
data_BaB2F8
_symmetry_space_group_name_H-M   'P 1'
_cell_length_a   6.87391744
_cell_length_b   6.87391744
_cell_length_c   4.85647037
_cell_angle_alpha   69.62778823
_cell_angle_beta   110.37221177
_cell_angle_gamma   136.35733813
_symmetry_Int_Tables_number   1
_chemical_formula_structural   BaB2F8
_chemical_formula_sum   'Ba1 B2 F8'
_cell_volume   146.81561068
_cell_formula_units_Z   1
loop_
 _symmetry_equiv_pos_site_id
 _symmetry_equiv_pos_as_xyz
  1  'x, y, z'
loop_
 _atom_site_type_symbol
 _atom_site_label
 _atom_site_symmetry_multiplicity
 _atom_site_fract_x
 _atom_site_fract_y
 _atom_site_fract_z
 _atom_site_occupancy
  Ba  Ba0  1  0.000000  0.000000  0.000000  1
  B  B1  1  0.347662  0.652338  0.291356  1
  B  B2  1  0.652338  0.347662  0.708644  1
  F  F3  1  0.612230  0.843464  0.467445  1
  F  F4  1  0.770464  0.229536  0.850898  1
  F  F5  1  0.156536  0.387770  0.467445  1
  F  F6  1  0.399183  0.600817  0.073779  1
  F  F7  1  0.843464  0.612230  0.532555  1
  F  F8  1  0.387770  0.156536  0.532555  1
  F  F9  1  0.229536  0.770464  0.149102  1
  F  F10  1  0.600817  0.399183  0.926221  1
