# generated using pymatgen
data_NaSb3(PO5)2
_symmetry_space_group_name_H-M   'P 1'
_cell_length_a   6.77785000
_cell_length_b   14.24831721
_cell_length_c   21.37760163
_cell_angle_alpha   90.00000000
_cell_angle_beta   90.00000000
_cell_angle_gamma   90.00000000
_symmetry_Int_Tables_number   1
_chemical_formula_structural   NaSb3(PO5)2
_chemical_formula_sum   'Na8 Sb24 P16 O80'
_cell_volume   2064.49819874
_cell_formula_units_Z   8
loop_
 _symmetry_equiv_pos_site_id
 _symmetry_equiv_pos_as_xyz
  1  'x, y, z'
loop_
 _atom_site_type_symbol
 _atom_site_label
 _atom_site_symmetry_multiplicity
 _atom_site_fract_x
 _atom_site_fract_y
 _atom_site_fract_z
 _atom_site_occupancy
  Na  Na0  1  0.183950  0.886573  0.561886  1
  Na  Na1  1  0.698288  0.369755  0.365906  1
  Na  Na2  1  0.301712  0.630245  0.865906  1
  Na  Na3  1  0.698288  0.130245  0.865906  1
  Na  Na4  1  0.816050  0.113427  0.061886  1
  Na  Na5  1  0.301712  0.869755  0.365906  1
  Na  Na6  1  0.183950  0.613427  0.061886  1
  Na  Na7  1  0.816050  0.386573  0.561886  1
  Sb  Sb8  1  0.465022  0.640494  0.208287  1
  Sb  Sb9  1  0.294814  0.267887  0.503013  1
  Sb  Sb10  1  0.989354  0.108025  0.718433  1
  Sb  Sb11  1  0.641093  0.489851  0.084846  1
  Sb  Sb12  1  0.294814  0.232113  0.003013  1
  Sb  Sb13  1  0.705186  0.732113  0.003013  1
  Sb  Sb14  1  0.989354  0.391975  0.218433  1
  Sb  Sb15  1  0.534978  0.359506  0.708287  1
  Sb  Sb16  1  0.465022  0.859506  0.708287  1
  Sb  Sb17  1  0.010646  0.608025  0.718433  1
  Sb  Sb18  1  0.787448  0.989617  0.425823  1
  Sb  Sb19  1  0.212552  0.010383  0.925823  1
  Sb  Sb20  1  0.010646  0.891975  0.218433  1
  Sb  Sb21  1  0.787448  0.510383  0.925823  1
  Sb  Sb22  1  0.358907  0.989851  0.084846  1
  Sb  Sb23  1  0.840346  0.743942  0.344106  1
  Sb  Sb24  1  0.534978  0.140494  0.208287  1
  Sb  Sb25  1  0.212552  0.489617  0.425823  1
  Sb  Sb26  1  0.159654  0.256058  0.844106  1
  Sb  Sb27  1  0.840346  0.756058  0.844106  1
  Sb  Sb28  1  0.705186  0.767887  0.503013  1
  Sb  Sb29  1  0.641093  0.010149  0.584846  1
  Sb  Sb30  1  0.358907  0.510149  0.584846  1
  Sb  Sb31  1  0.159654  0.243942  0.344106  1
  P  P32  1  0.304884  0.036532  0.462370  1
  P  P33  1  0.965446  0.605245  0.191175  1
  P  P34  1  0.515899  0.643760  0.735956  1
  P  P35  1  0.189485  0.780503  0.965928  1
  P  P36  1  0.484101  0.143760  0.735956  1
  P  P37  1  0.810515  0.280503  0.965928  1
  P  P38  1  0.034554  0.105245  0.191175  1
  P  P39  1  0.484101  0.356240  0.235956  1
  P  P40  1  0.695116  0.963468  0.962370  1
  P  P41  1  0.515899  0.856240  0.235956  1
  P  P42  1  0.965446  0.894755  0.691175  1
  P  P43  1  0.304884  0.463468  0.962370  1
  P  P44  1  0.695116  0.536532  0.462370  1
  P  P45  1  0.189485  0.719497  0.465928  1
  P  P46  1  0.034554  0.394755  0.691175  1
  P  P47  1  0.810515  0.219497  0.465928  1
  O  O48  1  0.558915  0.807095  0.299504  1
  O  O49  1  0.077166  0.447866  0.629066  1
  O  O50  1  0.124772  0.726068  0.396332  1
  O  O51  1  0.875228  0.226068  0.396332  1
  O  O52  1  0.467320  0.721055  0.685161  1
  O  O53  1  0.247107  0.174214  0.917212  1
  O  O54  1  0.666120  0.420992  0.243095  1
  O  O55  1  0.027717  0.757281  0.511441  1
  O  O56  1  0.504915  0.100644  0.119875  1
  O  O57  1  0.972283  0.257281  0.511441  1
  O  O58  1  0.875228  0.273932  0.896332  1
  O  O59  1  0.441085  0.307095  0.299504  1
  O  O60  1  0.000704  0.969974  0.744287  1
  O  O61  1  0.845118  0.335366  0.682455  1
  O  O62  1  0.466019  0.997943  0.417162  1
  O  O63  1  0.691177  0.915905  0.212515  1
  O  O64  1  0.008369  0.148602  0.807006  1
  O  O65  1  0.260707  0.068204  0.011864  1
  O  O66  1  0.247107  0.325786  0.417212  1
  O  O67  1  0.991631  0.648602  0.807006  1
  O  O68  1  0.633986  0.527570  0.532298  1
  O  O69  1  0.333880  0.920992  0.243095  1
  O  O70  1  0.154882  0.835366  0.682455  1
  O  O71  1  0.795695  0.828917  0.710617  1
  O  O72  1  0.999296  0.469974  0.744287  1
  O  O73  1  0.624633  0.219277  0.975875  1
  O  O74  1  0.308823  0.415905  0.212515  1
  O  O75  1  0.922834  0.552134  0.129066  1
  O  O76  1  0.268947  0.142396  0.446847  1
  O  O77  1  0.233809  0.614373  0.482718  1
  O  O78  1  0.691177  0.584095  0.712515  1
  O  O79  1  0.795695  0.671083  0.210617  1
  O  O80  1  0.000704  0.530026  0.244287  1
  O  O81  1  0.375367  0.780723  0.475875  1
  O  O82  1  0.495085  0.600644  0.119875  1
  O  O83  1  0.845118  0.164634  0.182455  1
  O  O84  1  0.268947  0.357604  0.946847  1
  O  O85  1  0.204305  0.328917  0.710617  1
  O  O86  1  0.117280  0.522806  0.951640  1
  O  O87  1  0.233809  0.885627  0.982718  1
  O  O88  1  0.624633  0.280723  0.475875  1
  O  O89  1  0.027717  0.742719  0.011441  1
  O  O90  1  0.739293  0.568204  0.011864  1
  O  O91  1  0.375367  0.719277  0.975875  1
  O  O92  1  0.752893  0.825786  0.417212  1
  O  O93  1  0.504915  0.399356  0.619875  1
  O  O94  1  0.495085  0.899356  0.619875  1
  O  O95  1  0.117280  0.977194  0.451640  1
  O  O96  1  0.532680  0.278945  0.185161  1
  O  O97  1  0.260707  0.431796  0.511864  1
  O  O98  1  0.441085  0.192905  0.799504  1
  O  O99  1  0.467320  0.778945  0.185161  1
  O  O100  1  0.008369  0.351398  0.307006  1
  O  O101  1  0.731053  0.642396  0.446847  1
  O  O102  1  0.308823  0.084095  0.712515  1
  O  O103  1  0.991631  0.851398  0.307006  1
  O  O104  1  0.666120  0.079008  0.743095  1
  O  O105  1  0.999296  0.030026  0.244287  1
  O  O106  1  0.366014  0.027570  0.532298  1
  O  O107  1  0.633986  0.972430  0.032298  1
  O  O108  1  0.204305  0.171083  0.210617  1
  O  O109  1  0.882720  0.022806  0.951640  1
  O  O110  1  0.882720  0.477194  0.451640  1
  O  O111  1  0.533981  0.497943  0.417162  1
  O  O112  1  0.466019  0.502057  0.917162  1
  O  O113  1  0.366014  0.472430  0.032298  1
  O  O114  1  0.972283  0.242719  0.011441  1
  O  O115  1  0.533981  0.002057  0.917162  1
  O  O116  1  0.532680  0.221055  0.685161  1
  O  O117  1  0.739293  0.931796  0.511864  1
  O  O118  1  0.558915  0.692905  0.799504  1
  O  O119  1  0.766191  0.385627  0.982718  1
  O  O120  1  0.922834  0.947866  0.629066  1
  O  O121  1  0.333880  0.579008  0.743095  1
  O  O122  1  0.124772  0.773932  0.896332  1
  O  O123  1  0.154882  0.664634  0.182455  1
  O  O124  1  0.766191  0.114373  0.482718  1
  O  O125  1  0.752893  0.674214  0.917212  1
  O  O126  1  0.077166  0.052134  0.129066  1
  O  O127  1  0.731053  0.857604  0.946847  1
