# generated using pymatgen
data_Ta2Cd(P2O7)3
_symmetry_space_group_name_H-M   'P 1'
_cell_length_a   8.50379107
_cell_length_b   13.37119932
_cell_length_c   16.09796714
_cell_angle_alpha   90.00000000
_cell_angle_beta   90.00000000
_cell_angle_gamma   90.00000000
_symmetry_Int_Tables_number   1
_chemical_formula_structural   Ta2Cd(P2O7)3
_chemical_formula_sum   'Ta8 Cd4 P24 O84'
_cell_volume   1830.43360635
_cell_formula_units_Z   4
loop_
 _symmetry_equiv_pos_site_id
 _symmetry_equiv_pos_as_xyz
  1  'x, y, z'
loop_
 _atom_site_type_symbol
 _atom_site_label
 _atom_site_symmetry_multiplicity
 _atom_site_fract_x
 _atom_site_fract_y
 _atom_site_fract_z
 _atom_site_occupancy
  Ta  Ta0  1  0.338263  0.134124  0.914626  1
  Ta  Ta1  1  0.661737  0.865876  0.414626  1
  Ta  Ta2  1  0.661737  0.865876  0.085374  1
  Ta  Ta3  1  0.161737  0.634124  0.585374  1
  Ta  Ta4  1  0.338263  0.134124  0.585374  1
  Ta  Ta5  1  0.838263  0.365876  0.414626  1
  Ta  Ta6  1  0.161737  0.634124  0.914626  1
  Ta  Ta7  1  0.838263  0.365876  0.085374  1
  Cd  Cd8  1  0.676226  0.852331  0.750000  1
  Cd  Cd9  1  0.823774  0.352331  0.750000  1
  Cd  Cd10  1  0.323774  0.147669  0.250000  1
  Cd  Cd11  1  0.176226  0.647669  0.250000  1
  P  P12  1  0.294754  0.971847  0.418173  1
  P  P13  1  0.205246  0.471847  0.081827  1
  P  P14  1  0.941252  0.195609  0.929285  1
  P  P15  1  0.294754  0.971847  0.081827  1
  P  P16  1  0.713327  0.031347  0.250000  1
  P  P17  1  0.941252  0.195609  0.570715  1
  P  P18  1  0.919522  0.212483  0.250000  1
  P  P19  1  0.058748  0.804391  0.070715  1
  P  P20  1  0.419522  0.287517  0.750000  1
  P  P21  1  0.558748  0.695609  0.570715  1
  P  P22  1  0.786673  0.531347  0.250000  1
  P  P23  1  0.705246  0.028153  0.581827  1
  P  P24  1  0.441252  0.304391  0.429285  1
  P  P25  1  0.205246  0.471847  0.418173  1
  P  P26  1  0.794754  0.528153  0.918173  1
  P  P27  1  0.213327  0.468653  0.750000  1
  P  P28  1  0.558748  0.695609  0.929285  1
  P  P29  1  0.794754  0.528153  0.581827  1
  P  P30  1  0.441252  0.304391  0.070715  1
  P  P31  1  0.286673  0.968653  0.750000  1
  P  P32  1  0.580478  0.712483  0.250000  1
  P  P33  1  0.058748  0.804391  0.429285  1
  P  P34  1  0.705246  0.028153  0.918173  1
  P  P35  1  0.080478  0.787517  0.750000  1
  O  O36  1  0.115572  0.162678  0.561114  1
  O  O37  1  0.425294  0.901789  0.750000  1
  O  O38  1  0.772302  0.463363  0.327875  1
  O  O39  1  0.658565  0.759990  0.171915  1
  O  O40  1  0.100849  0.764975  0.346666  1
  O  O41  1  0.092388  0.222886  0.250000  1
  O  O42  1  0.163227  0.530664  0.001457  1
  O  O43  1  0.341435  0.240010  0.671915  1
  O  O44  1  0.227698  0.536637  0.672125  1
  O  O45  1  0.600849  0.735025  0.653334  1
  O  O46  1  0.899151  0.235025  0.653334  1
  O  O47  1  0.344361  0.402924  0.453755  1
  O  O48  1  0.936156  0.597882  0.602531  1
  O  O49  1  0.336773  0.030664  0.001457  1
  O  O50  1  0.384428  0.662678  0.938886  1
  O  O51  1  0.739857  0.465350  0.651866  1
  O  O52  1  0.906444  0.266111  0.496365  1
  O  O53  1  0.663227  0.969336  0.501457  1
  O  O54  1  0.126539  0.904274  0.750000  1
  O  O55  1  0.093556  0.733889  0.503635  1
  O  O56  1  0.906444  0.266111  0.003635  1
  O  O57  1  0.063844  0.402118  0.397469  1
  O  O58  1  0.407612  0.722886  0.250000  1
  O  O59  1  0.260143  0.534650  0.348134  1
  O  O60  1  0.600849  0.735025  0.846666  1
  O  O61  1  0.063844  0.402118  0.102531  1
  O  O62  1  0.592388  0.277114  0.750000  1
  O  O63  1  0.272302  0.036637  0.672125  1
  O  O64  1  0.093556  0.733889  0.996365  1
  O  O65  1  0.272302  0.036637  0.827875  1
  O  O66  1  0.663227  0.969336  0.998543  1
  O  O67  1  0.155639  0.902924  0.453755  1
  O  O68  1  0.739857  0.465350  0.848134  1
  O  O69  1  0.658565  0.759990  0.328085  1
  O  O70  1  0.936156  0.597882  0.897469  1
  O  O71  1  0.899151  0.235025  0.846666  1
  O  O72  1  0.227698  0.536637  0.827875  1
  O  O73  1  0.925294  0.598211  0.250000  1
  O  O74  1  0.772302  0.463363  0.172125  1
  O  O75  1  0.436156  0.902118  0.102531  1
  O  O76  1  0.341435  0.240010  0.828085  1
  O  O77  1  0.373461  0.404274  0.750000  1
  O  O78  1  0.115572  0.162678  0.938886  1
  O  O79  1  0.563844  0.097882  0.602531  1
  O  O80  1  0.158565  0.740010  0.828085  1
  O  O81  1  0.760143  0.965350  0.651866  1
  O  O82  1  0.593556  0.766111  0.496365  1
  O  O83  1  0.399151  0.264975  0.153334  1
  O  O84  1  0.155639  0.902924  0.046245  1
  O  O85  1  0.406444  0.233889  0.996365  1
  O  O86  1  0.655639  0.597076  0.953755  1
  O  O87  1  0.563844  0.097882  0.897469  1
  O  O88  1  0.884428  0.837322  0.438886  1
  O  O89  1  0.615572  0.337322  0.438886  1
  O  O90  1  0.841435  0.259990  0.171915  1
  O  O91  1  0.727698  0.963363  0.172125  1
  O  O92  1  0.399151  0.264975  0.346666  1
  O  O93  1  0.836773  0.469336  0.501457  1
  O  O94  1  0.844361  0.097076  0.953755  1
  O  O95  1  0.074706  0.401789  0.750000  1
  O  O96  1  0.615572  0.337322  0.061114  1
  O  O97  1  0.873461  0.095726  0.250000  1
  O  O98  1  0.239857  0.034650  0.348134  1
  O  O99  1  0.163227  0.530664  0.498543  1
  O  O100  1  0.626539  0.595726  0.250000  1
  O  O101  1  0.727698  0.963363  0.327875  1
  O  O102  1  0.844361  0.097076  0.546245  1
  O  O103  1  0.836773  0.469336  0.998543  1
  O  O104  1  0.574706  0.098211  0.250000  1
  O  O105  1  0.239857  0.034650  0.151866  1
  O  O106  1  0.907612  0.777114  0.750000  1
  O  O107  1  0.593556  0.766111  0.003635  1
  O  O108  1  0.436156  0.902118  0.397469  1
  O  O109  1  0.100849  0.764975  0.153334  1
  O  O110  1  0.655639  0.597076  0.546245  1
  O  O111  1  0.406444  0.233889  0.503635  1
  O  O112  1  0.336773  0.030664  0.498543  1
  O  O113  1  0.841435  0.259990  0.328085  1
  O  O114  1  0.760143  0.965350  0.848134  1
  O  O115  1  0.384428  0.662678  0.561114  1
  O  O116  1  0.158565  0.740010  0.671915  1
  O  O117  1  0.884428  0.837322  0.061114  1
  O  O118  1  0.260143  0.534650  0.151866  1
  O  O119  1  0.344361  0.402924  0.046245  1
