# generated using pymatgen
data_CaMg2TiAl2SiO10
_symmetry_space_group_name_H-M   'P 1'
_cell_length_a   9.02116576
_cell_length_b   9.91280126
_cell_length_c   10.48400340
_cell_angle_alpha   115.44562367
_cell_angle_beta   84.28916743
_cell_angle_gamma   114.25785845
_symmetry_Int_Tables_number   1
_chemical_formula_structural   CaMg2TiAl2SiO10
_chemical_formula_sum   'Ca4 Mg8 Ti4 Al8 Si4 O40'
_cell_volume   768.45228509
_cell_formula_units_Z   4
loop_
 _symmetry_equiv_pos_site_id
 _symmetry_equiv_pos_as_xyz
  1  'x, y, z'
loop_
 _atom_site_type_symbol
 _atom_site_label
 _atom_site_symmetry_multiplicity
 _atom_site_fract_x
 _atom_site_fract_y
 _atom_site_fract_z
 _atom_site_occupancy
  Ca  Ca0  1  0.603586  0.368053  0.578484  1
  Ca  Ca1  1  0.630986  0.392580  0.051650  1
  Ca  Ca2  1  0.374697  0.619562  0.958742  1
  Ca  Ca3  1  0.396047  0.631339  0.419273  1
  Mg  Mg4  1  0.944150  0.055786  0.654761  1
  Mg  Mg5  1  0.945359  0.057854  0.151733  1
  Mg  Mg6  1  0.734022  0.261042  0.254450  1
  Mg  Mg7  1  0.498880  0.998456  0.006554  1
  Mg  Mg8  1  0.177259  0.858199  0.539791  1
  Mg  Mg9  1  0.148716  0.828524  0.057209  1
  Mg  Mg10  1  0.050392  0.942827  0.846403  1
  Mg  Mg11  1  0.063368  0.944890  0.347317  1
  Ti  Ti12  1  0.846370  0.170144  0.955971  1
  Ti  Ti13  1  0.820204  0.144102  0.459164  1
  Ti  Ti14  1  0.259232  0.751012  0.755318  1
  Ti  Ti15  1  0.011390  0.501215  0.491855  1
  Al  Al16  1  0.952875  0.433171  0.796378  1
  Al  Al17  1  0.560223  0.051046  0.698075  1
  Al  Al18  1  0.653953  0.770923  0.744519  1
  Al  Al19  1  0.671716  0.768233  0.239715  1
  Al  Al20  1  0.230709  0.335145  0.554433  1
  Al  Al21  1  0.225695  0.340903  0.067270  1
  Al  Al22  1  0.432057  0.940243  0.304174  1
  Al  Al23  1  0.047410  0.567447  0.194617  1
  Si  Si24  1  0.775498  0.660766  0.930484  1
  Si  Si25  1  0.767243  0.660123  0.443558  1
  Si  Si26  1  0.334504  0.232658  0.763640  1
  Si  Si27  1  0.344856  0.233366  0.256283  1
  O  O28  1  0.955076  0.271804  0.826789  1
  O  O29  1  0.941907  0.281945  0.348835  1
  O  O30  1  0.877675  0.374377  0.615148  1
  O  O31  1  0.723253  0.049932  0.584576  1
  O  O32  1  0.863338  0.376679  0.122283  1
  O  O33  1  0.739012  0.063851  0.074427  1
  O  O34  1  0.937641  0.832317  0.981558  1
  O  O35  1  0.805246  0.497810  0.898481  1
  O  O36  1  0.628081  0.124365  0.881288  1
  O  O37  1  0.933762  0.829060  0.489498  1
  O  O38  1  0.790412  0.496993  0.432926  1
  O  O39  1  0.625888  0.132383  0.382676  1
  O  O40  1  0.834569  0.950738  0.790854  1
  O  O41  1  0.682915  0.625811  0.785107  1
  O  O42  1  0.497414  0.201395  0.701993  1
  O  O43  1  0.841497  0.957170  0.292517  1
  O  O44  1  0.507655  0.216006  0.177197  1
  O  O45  1  0.677662  0.620034  0.292890  1
  O  O46  1  0.626353  0.678323  0.556415  1
  O  O47  1  0.642081  0.662487  0.051320  1
  O  O48  1  0.370875  0.330520  0.938066  1
  O  O49  1  0.381986  0.318458  0.431324  1
  O  O50  1  0.331993  0.366247  0.709360  1
  O  O51  1  0.472454  0.777112  0.821805  1
  O  O52  1  0.167557  0.064914  0.717581  1
  O  O53  1  0.496843  0.793842  0.306000  1
  O  O54  1  0.321977  0.372104  0.221573  1
  O  O55  1  0.172469  0.069026  0.211015  1
  O  O56  1  0.385230  0.859944  0.628308  1
  O  O57  1  0.210210  0.512399  0.564894  1
  O  O58  1  0.044926  0.163173  0.517122  1
  O  O59  1  0.380739  0.873542  0.120361  1
  O  O60  1  0.200218  0.514518  0.096323  1
  O  O61  1  0.049234  0.159554  0.012749  1
  O  O62  1  0.262340  0.931948  0.908159  1
  O  O63  1  0.142130  0.610073  0.853198  1
  O  O64  1  0.278431  0.967133  0.415087  1
  O  O65  1  0.113396  0.608176  0.375561  1
  O  O66  1  0.063279  0.718703  0.659878  1
  O  O67  1  0.020879  0.725522  0.183034  1
