# generated using pymatgen
data_Na2Zn3(SiO4)2
_symmetry_space_group_name_H-M   'P 1'
_cell_length_a   5.18970044
_cell_length_b   8.93809704
_cell_length_c   13.61295873
_cell_angle_alpha   107.92848289
_cell_angle_beta   100.35029137
_cell_angle_gamma   88.94840229
_symmetry_Int_Tables_number   1
_chemical_formula_structural   Na2Zn3(SiO4)2
_chemical_formula_sum   'Na6 Zn9 Si6 O24'
_cell_volume   590.55196301
_cell_formula_units_Z   3
loop_
 _symmetry_equiv_pos_site_id
 _symmetry_equiv_pos_as_xyz
  1  'x, y, z'
loop_
 _atom_site_type_symbol
 _atom_site_label
 _atom_site_symmetry_multiplicity
 _atom_site_fract_x
 _atom_site_fract_y
 _atom_site_fract_z
 _atom_site_occupancy
  Na  Na0  1  0.568355  0.592829  0.233802  1
  Na  Na1  1  0.594106  0.962220  0.309203  1
  Na  Na2  1  0.725472  0.070992  0.555554  1
  Na  Na3  1  0.284838  0.977376  0.639241  1
  Na  Na4  1  0.404420  0.123410  0.903674  1
  Na  Na5  1  0.521476  0.220586  0.155415  1
  Zn  Zn6  1  0.060777  0.441287  0.317585  1
  Zn  Zn7  1  0.732818  0.711214  0.502575  1
  Zn  Zn8  1  0.387813  0.485078  0.960554  1
  Zn  Zn9  1  0.068897  0.749523  0.145811  1
  Zn  Zn10  1  0.724529  0.536649  0.671434  1
  Zn  Zn11  1  0.133993  0.183522  0.461931  1
  Zn  Zn12  1  0.997967  0.000381  0.999117  1
  Zn  Zn13  1  0.310322  0.730801  0.809422  1
  Zn  Zn14  1  0.806524  0.283035  0.821307  1
  Si  Si15  1  0.606215  0.350556  0.415053  1
  Si  Si16  1  0.814929  0.896947  0.749281  1
  Si  Si17  1  0.969678  0.375465  0.063258  1
  Si  Si18  1  0.244910  0.366220  0.717555  1
  Si  Si19  1  0.162288  0.811776  0.396627  1
  Si  Si20  1  0.520754  0.841699  0.050292  1
  O  O21  1  0.112896  0.535154  0.716220  1
  O  O22  1  0.641794  0.990630  0.023762  1
  O  O23  1  0.568363  0.388333  0.731069  1
  O  O24  1  0.239607  0.900455  0.090179  1
  O  O25  1  0.605998  0.753962  0.741783  1
  O  O26  1  0.896601  0.300787  0.381329  1
  O  O27  1  0.426508  0.842563  0.488645  1
  O  O28  1  0.857586  0.403674  0.171665  1
  O  O29  1  0.460451  0.688332  0.942605  1
  O  O30  1  0.711941  0.359474  0.966075  1
  O  O31  1  0.428781  0.394365  0.315103  1
  O  O32  1  0.981976  0.967096  0.420925  1
  O  O33  1  0.140232  0.217153  0.031849  1
  O  O34  1  0.638532  0.507197  0.520620  1
  O  O35  1  0.070117  0.910874  0.847001  1
  O  O36  1  0.700347  0.790205  0.145514  1
  O  O37  1  0.121583  0.221131  0.615257  1
  O  O38  1  0.185032  0.327755  0.825079  1
  O  O39  1  0.921959  0.854371  0.638977  1
  O  O40  1  0.266584  0.773854  0.285139  1
  O  O41  1  0.962885  0.662319  0.391824  1
  O  O42  1  0.169861  0.525118  0.071342  1
  O  O43  1  0.661965  0.063613  0.771207  1
  O  O44  1  0.490219  0.197123  0.437339  1
