# generated using pymatgen
data_Ba3Ta2CdO9
_symmetry_space_group_name_H-M   'P 1'
_cell_length_a   5.95205882
_cell_length_b   5.95205882
_cell_length_c   7.36479078
_cell_angle_alpha   90.00000000
_cell_angle_beta   90.00000000
_cell_angle_gamma   120.00000000
_symmetry_Int_Tables_number   1
_chemical_formula_structural   Ba3Ta2CdO9
_chemical_formula_sum   'Ba3 Ta2 Cd1 O9'
_cell_volume   225.95683071
_cell_formula_units_Z   1
loop_
 _symmetry_equiv_pos_site_id
 _symmetry_equiv_pos_as_xyz
  1  'x, y, z'
loop_
 _atom_site_type_symbol
 _atom_site_label
 _atom_site_symmetry_multiplicity
 _atom_site_fract_x
 _atom_site_fract_y
 _atom_site_fract_z
 _atom_site_occupancy
  Ba  Ba0  1  0.666667  0.333333  0.335027  1
  Ba  Ba1  1  0.000000  0.000000  0.000000  1
  Ba  Ba2  1  0.333333  0.666667  0.664973  1
  Ta  Ta3  1  0.333333  0.666667  0.167672  1
  Ta  Ta4  1  0.666667  0.333333  0.832328  1
  Cd  Cd5  1  0.000000  0.000000  0.500000  1
  O  O6  1  0.353773  0.176887  0.687569  1
  O  O7  1  0.823113  0.646227  0.687569  1
  O  O8  1  0.176887  0.353773  0.312431  1
  O  O9  1  0.000000  0.500000  0.000000  1
  O  O10  1  0.176887  0.823113  0.312431  1
  O  O11  1  0.646227  0.823113  0.312431  1
  O  O12  1  0.823113  0.176887  0.687569  1
  O  O13  1  0.500000  0.000000  0.000000  1
  O  O14  1  0.500000  0.500000  0.000000  1
