# generated using pymatgen
data_Sr8Si2PtO14
_symmetry_space_group_name_H-M   'P 1'
_cell_length_a   9.98604409
_cell_length_b   9.98604409
_cell_length_c   7.27649437
_cell_angle_alpha   70.27804337
_cell_angle_beta   109.72195663
_cell_angle_gamma   146.24281381
_symmetry_Int_Tables_number   1
_chemical_formula_structural   Sr8Si2PtO14
_chemical_formula_sum   'Sr8 Si2 Pt1 O14'
_cell_volume   377.30485936
_cell_formula_units_Z   1
loop_
 _symmetry_equiv_pos_site_id
 _symmetry_equiv_pos_as_xyz
  1  'x, y, z'
loop_
 _atom_site_type_symbol
 _atom_site_label
 _atom_site_symmetry_multiplicity
 _atom_site_fract_x
 _atom_site_fract_y
 _atom_site_fract_z
 _atom_site_occupancy
  Sr  Sr0  1  0.480196  0.524436  0.701107  1
  Sr  Sr1  1  0.075099  0.890280  0.957411  1
  Sr  Sr2  1  0.167377  0.835733  0.494761  1
  Sr  Sr3  1  0.311710  0.683866  0.211251  1
  Sr  Sr4  1  0.524436  0.480196  0.298893  1
  Sr  Sr5  1  0.835733  0.167377  0.505239  1
  Sr  Sr6  1  0.890280  0.075099  0.042589  1
  Sr  Sr7  1  0.683866  0.311710  0.788749  1
  Si  Si8  1  0.652029  0.309169  0.205504  1
  Si  Si9  1  0.309169  0.652029  0.794496  1
  Pt  Pt10  1  0.003362  0.003362  0.500000  1
  O  O11  1  0.403652  0.011808  0.200515  1
  O  O12  1  0.161842  0.322117  0.359730  1
  O  O13  1  0.612714  0.437509  0.040232  1
  O  O14  1  0.045028  0.969611  0.258734  1
  O  O15  1  0.712442  0.365299  0.428729  1
  O  O16  1  0.365299  0.712442  0.571271  1
  O  O17  1  0.322117  0.161842  0.640270  1
  O  O18  1  0.416872  0.880831  0.846140  1
  O  O19  1  0.011808  0.403652  0.799485  1
  O  O20  1  0.843667  0.682686  0.642289  1
  O  O21  1  0.969611  0.045028  0.741266  1
  O  O22  1  0.682686  0.843667  0.357711  1
  O  O23  1  0.880831  0.416872  0.153860  1
  O  O24  1  0.437509  0.612714  0.959768  1
