# generated using pymatgen
data_VZnSe2O7
_symmetry_space_group_name_H-M   'P 1'
_cell_length_a   7.57666241
_cell_length_b   12.79076125
_cell_length_c   7.88841089
_cell_angle_alpha   90.00000000
_cell_angle_beta   121.01991410
_cell_angle_gamma   90.00000000
_symmetry_Int_Tables_number   1
_chemical_formula_structural   VZnSe2O7
_chemical_formula_sum   'V4 Zn4 Se8 O28'
_cell_volume   655.14693781
_cell_formula_units_Z   4
loop_
 _symmetry_equiv_pos_site_id
 _symmetry_equiv_pos_as_xyz
  1  'x, y, z'
loop_
 _atom_site_type_symbol
 _atom_site_label
 _atom_site_symmetry_multiplicity
 _atom_site_fract_x
 _atom_site_fract_y
 _atom_site_fract_z
 _atom_site_occupancy
  V  V0  1  0.537092  0.754448  0.277027  1
  V  V1  1  0.462908  0.254448  0.222973  1
  V  V2  1  0.537092  0.745552  0.777027  1
  V  V3  1  0.462908  0.245552  0.722973  1
  Zn  Zn4  1  0.215905  0.992254  0.012904  1
  Zn  Zn5  1  0.215905  0.507746  0.512904  1
  Zn  Zn6  1  0.784095  0.492254  0.487096  1
  Zn  Zn7  1  0.784095  0.007746  0.987096  1
  Se  Se8  1  0.661708  0.488285  0.839041  1
  Se  Se9  1  0.661708  0.011715  0.339041  1
  Se  Se10  1  0.338292  0.988285  0.660959  1
  Se  Se11  1  0.963524  0.230494  0.891726  1
  Se  Se12  1  0.338292  0.511715  0.160959  1
  Se  Se13  1  0.036476  0.769506  0.108274  1
  Se  Se14  1  0.963524  0.269506  0.391726  1
  Se  Se15  1  0.036476  0.730494  0.608274  1
  O  O16  1  0.558107  0.904599  0.787366  1
  O  O17  1  0.161931  0.228368  0.619376  1
  O  O18  1  0.466459  0.269106  0.014483  1
  O  O19  1  0.838069  0.728368  0.880624  1
  O  O20  1  0.816388  0.463157  0.747918  1
  O  O21  1  0.533541  0.730894  0.985517  1
  O  O22  1  0.816388  0.036843  0.247918  1
  O  O23  1  0.032646  0.593439  0.576891  1
  O  O24  1  0.838069  0.771632  0.380624  1
  O  O25  1  0.764020  0.263341  0.927215  1
  O  O26  1  0.533541  0.769106  0.485517  1
  O  O27  1  0.032646  0.906561  0.076891  1
  O  O28  1  0.235980  0.763341  0.572785  1
  O  O29  1  0.183612  0.963157  0.752082  1
  O  O30  1  0.183612  0.536843  0.252082  1
  O  O31  1  0.764020  0.236659  0.427215  1
  O  O32  1  0.441893  0.404599  0.712634  1
  O  O33  1  0.558107  0.595401  0.287366  1
  O  O34  1  0.161931  0.271632  0.119376  1
  O  O35  1  0.503253  0.907923  0.193433  1
  O  O36  1  0.967354  0.406561  0.423109  1
  O  O37  1  0.235980  0.736659  0.072785  1
  O  O38  1  0.441893  0.095401  0.212634  1
  O  O39  1  0.496747  0.092077  0.806567  1
  O  O40  1  0.466459  0.230894  0.514483  1
  O  O41  1  0.503253  0.592077  0.693433  1
  O  O42  1  0.496747  0.407923  0.306567  1
  O  O43  1  0.967354  0.093439  0.923109  1
