# generated using pymatgen
data_SrBi2B2O7
_symmetry_space_group_name_H-M   'P 1'
_cell_length_a   9.22214504
_cell_length_b   9.22214504
_cell_length_c   13.24999716
_cell_angle_alpha   90.00000000
_cell_angle_beta   90.00000000
_cell_angle_gamma   120.00000000
_symmetry_Int_Tables_number   1
_chemical_formula_structural   SrBi2B2O7
_chemical_formula_sum   'Sr6 Bi12 B12 O42'
_cell_volume   975.91122521
_cell_formula_units_Z   6
loop_
 _symmetry_equiv_pos_site_id
 _symmetry_equiv_pos_as_xyz
  1  'x, y, z'
loop_
 _atom_site_type_symbol
 _atom_site_label
 _atom_site_symmetry_multiplicity
 _atom_site_fract_x
 _atom_site_fract_y
 _atom_site_fract_z
 _atom_site_occupancy
  Sr  Sr0  1  0.361762  0.045892  0.750000  1
  Sr  Sr1  1  0.315870  0.361762  0.250000  1
  Sr  Sr2  1  0.684130  0.638238  0.750000  1
  Sr  Sr3  1  0.954108  0.315870  0.750000  1
  Sr  Sr4  1  0.638238  0.954108  0.250000  1
  Sr  Sr5  1  0.045892  0.684130  0.250000  1
  Bi  Bi6  1  0.031154  0.674120  0.908454  1
  Bi  Bi7  1  0.357034  0.031154  0.091546  1
  Bi  Bi8  1  0.031154  0.674120  0.591546  1
  Bi  Bi9  1  0.325880  0.357034  0.591546  1
  Bi  Bi10  1  0.642966  0.968846  0.908454  1
  Bi  Bi11  1  0.674120  0.642966  0.408454  1
  Bi  Bi12  1  0.674120  0.642966  0.091546  1
  Bi  Bi13  1  0.968846  0.325880  0.408454  1
  Bi  Bi14  1  0.357034  0.031154  0.408454  1
  Bi  Bi15  1  0.325880  0.357034  0.908454  1
  Bi  Bi16  1  0.968846  0.325880  0.091546  1
  Bi  Bi17  1  0.642966  0.968846  0.591546  1
  B  B18  1  0.666667  0.333333  0.365879  1
  B  B19  1  0.666667  0.333333  0.584961  1
  B  B20  1  0.333333  0.666667  0.415039  1
  B  B21  1  0.000000  0.000000  0.883481  1
  B  B22  1  0.333333  0.666667  0.084961  1
  B  B23  1  0.000000  0.000000  0.383481  1
  B  B24  1  0.000000  0.000000  0.616519  1
  B  B25  1  0.666667  0.333333  0.134121  1
  B  B26  1  0.000000  0.000000  0.116519  1
  B  B27  1  0.333333  0.666667  0.865879  1
  B  B28  1  0.333333  0.666667  0.634121  1
  B  B29  1  0.666667  0.333333  0.915039  1
  O  O30  1  0.169202  0.116790  0.382751  1
  O  O31  1  0.947589  0.830798  0.117249  1
  O  O32  1  0.495301  0.804671  0.414489  1
  O  O33  1  0.947589  0.830798  0.382751  1
  O  O34  1  0.194695  0.508548  0.631821  1
  O  O35  1  0.313853  0.805305  0.868179  1
  O  O36  1  0.313853  0.805305  0.631821  1
  O  O37  1  0.116790  0.947589  0.617249  1
  O  O38  1  0.508548  0.313853  0.368179  1
  O  O39  1  0.615871  0.653752  0.250000  1
  O  O40  1  0.962119  0.615871  0.750000  1
  O  O41  1  0.690630  0.495301  0.914489  1
  O  O42  1  0.195329  0.690630  0.414489  1
  O  O43  1  0.883210  0.052411  0.117249  1
  O  O44  1  0.037881  0.384129  0.250000  1
  O  O45  1  0.309370  0.504699  0.085511  1
  O  O46  1  0.830798  0.883210  0.617249  1
  O  O47  1  0.194695  0.508548  0.868179  1
  O  O48  1  0.830798  0.883210  0.882751  1
  O  O49  1  0.508548  0.313853  0.131821  1
  O  O50  1  0.309370  0.504699  0.414489  1
  O  O51  1  0.491452  0.686147  0.631821  1
  O  O52  1  0.504699  0.195329  0.585511  1
  O  O53  1  0.504699  0.195329  0.914489  1
  O  O54  1  0.686147  0.194695  0.368179  1
  O  O55  1  0.116790  0.947589  0.882751  1
  O  O56  1  0.690630  0.495301  0.585511  1
  O  O57  1  0.346248  0.962119  0.250000  1
  O  O58  1  0.384129  0.346248  0.750000  1
  O  O59  1  0.052411  0.169202  0.617249  1
  O  O60  1  0.491452  0.686147  0.868179  1
  O  O61  1  0.686147  0.194695  0.131821  1
  O  O62  1  0.052411  0.169202  0.882751  1
  O  O63  1  0.883210  0.052411  0.382751  1
  O  O64  1  0.804671  0.309370  0.914489  1
  O  O65  1  0.169202  0.116790  0.117249  1
  O  O66  1  0.805305  0.491452  0.131821  1
  O  O67  1  0.653752  0.037881  0.750000  1
  O  O68  1  0.195329  0.690630  0.085511  1
  O  O69  1  0.804671  0.309370  0.585511  1
  O  O70  1  0.805305  0.491452  0.368179  1
  O  O71  1  0.495301  0.804671  0.085511  1
