# generated using pymatgen
data_Br3N(O2F5)2
_symmetry_space_group_name_H-M   'P 1'
_cell_length_a   8.51180861
_cell_length_b   9.10060033
_cell_length_c   15.52359601
_cell_angle_alpha   90.00000000
_cell_angle_beta   90.00000000
_cell_angle_gamma   90.00000000
_symmetry_Int_Tables_number   1
_chemical_formula_structural   Br3N(O2F5)2
_chemical_formula_sum   'Br12 N4 O16 F40'
_cell_volume   1202.49761533
_cell_formula_units_Z   4
loop_
 _symmetry_equiv_pos_site_id
 _symmetry_equiv_pos_as_xyz
  1  'x, y, z'
loop_
 _atom_site_type_symbol
 _atom_site_label
 _atom_site_symmetry_multiplicity
 _atom_site_fract_x
 _atom_site_fract_y
 _atom_site_fract_z
 _atom_site_occupancy
  Br  Br0  1  0.601997  0.278959  0.436717  1
  Br  Br1  1  0.398003  0.778959  0.063283  1
  Br  Br2  1  0.980094  0.500000  0.500000  1
  Br  Br3  1  0.601997  0.721041  0.563283  1
  Br  Br4  1  0.814987  0.772889  0.300759  1
  Br  Br5  1  0.185013  0.272889  0.199241  1
  Br  Br6  1  0.185013  0.727111  0.800759  1
  Br  Br7  1  0.814987  0.227111  0.699241  1
  Br  Br8  1  0.003711  0.500000  0.000000  1
  Br  Br9  1  0.996289  0.000000  0.500000  1
  Br  Br10  1  0.398003  0.221041  0.936717  1
  Br  Br11  1  0.019906  0.000000  0.000000  1
  N  N12  1  0.685254  0.280428  0.171013  1
  N  N13  1  0.314746  0.780428  0.328987  1
  N  N14  1  0.685254  0.719572  0.828987  1
  N  N15  1  0.314746  0.219572  0.671013  1
  O  O16  1  0.468341  0.374671  0.391363  1
  O  O17  1  0.719451  0.839612  0.837476  1
  O  O18  1  0.280549  0.339612  0.662524  1
  O  O19  1  0.649588  0.599891  0.819660  1
  O  O20  1  0.269910  0.576284  0.775898  1
  O  O21  1  0.719451  0.160388  0.162524  1
  O  O22  1  0.649588  0.400109  0.180340  1
  O  O23  1  0.269910  0.423716  0.224102  1
  O  O24  1  0.531659  0.874671  0.108637  1
  O  O25  1  0.531659  0.125329  0.891363  1
  O  O26  1  0.730090  0.076284  0.724102  1
  O  O27  1  0.350412  0.900109  0.319660  1
  O  O28  1  0.468341  0.625329  0.608637  1
  O  O29  1  0.280549  0.660388  0.337476  1
  O  O30  1  0.350412  0.099891  0.680340  1
  O  O31  1  0.730090  0.923716  0.275898  1
  F  F32  1  0.627143  0.340140  0.704008  1
  F  F33  1  0.270144  0.000000  0.000000  1
  F  F34  1  0.018700  0.051654  0.119932  1
  F  F35  1  0.862167  0.687340  0.198313  1
  F  F36  1  0.846326  0.364882  0.028841  1
  F  F37  1  0.833445  0.851145  0.463371  1
  F  F38  1  0.019942  0.148939  0.702917  1
  F  F39  1  0.846326  0.635118  0.971159  1
  F  F40  1  0.456570  0.591830  0.088888  1
  F  F41  1  0.264465  0.231571  0.838512  1
  F  F42  1  0.805168  0.000000  0.000000  1
  F  F43  1  0.372857  0.840140  0.795992  1
  F  F44  1  0.981300  0.551654  0.380068  1
  F  F45  1  0.833445  0.148855  0.536629  1
  F  F46  1  0.495220  0.252874  0.542507  1
  F  F47  1  0.543430  0.091830  0.411112  1
  F  F48  1  0.862167  0.312660  0.801687  1
  F  F49  1  0.504780  0.247126  0.042507  1
  F  F50  1  0.456570  0.408170  0.911112  1
  F  F51  1  0.153674  0.864882  0.471159  1
  F  F52  1  0.980058  0.351061  0.202917  1
  F  F53  1  0.729856  0.500000  0.500000  1
  F  F54  1  0.627143  0.659860  0.295992  1
  F  F55  1  0.019942  0.851061  0.297083  1
  F  F56  1  0.504780  0.752874  0.957493  1
  F  F57  1  0.166555  0.351145  0.036629  1
  F  F58  1  0.018700  0.948346  0.880068  1
  F  F59  1  0.495220  0.747126  0.457493  1
  F  F60  1  0.543430  0.908170  0.588888  1
  F  F61  1  0.372857  0.159860  0.204008  1
  F  F62  1  0.166555  0.648855  0.963371  1
  F  F63  1  0.153674  0.135118  0.528841  1
  F  F64  1  0.137833  0.187340  0.301687  1
  F  F65  1  0.264465  0.768429  0.161488  1
  F  F66  1  0.980058  0.648939  0.797083  1
  F  F67  1  0.194832  0.500000  0.500000  1
  F  F68  1  0.981300  0.448346  0.619932  1
  F  F69  1  0.735535  0.268429  0.338512  1
  F  F70  1  0.137833  0.812660  0.698313  1
  F  F71  1  0.735535  0.731571  0.661488  1
