# generated using pymatgen
data_Ca5P3ClO12
_symmetry_space_group_name_H-M   'P 1'
_cell_length_a   9.83286999
_cell_length_b   6.77329844
_cell_length_c   19.64610952
_cell_angle_alpha   90.00000000
_cell_angle_beta   119.97709379
_cell_angle_gamma   90.00000000
_symmetry_Int_Tables_number   1
_chemical_formula_structural   Ca5P3ClO12
_chemical_formula_sum   'Ca20 P12 Cl4 O48'
_cell_volume   1133.41223851
_cell_formula_units_Z   4
loop_
 _symmetry_equiv_pos_site_id
 _symmetry_equiv_pos_as_xyz
  1  'x, y, z'
loop_
 _atom_site_type_symbol
 _atom_site_label
 _atom_site_symmetry_multiplicity
 _atom_site_fract_x
 _atom_site_fract_y
 _atom_site_fract_z
 _atom_site_occupancy
  Ca  Ca0  1  0.250732  0.248140  0.383135  1
  Ca  Ca1  1  0.983496  0.747467  0.374799  1
  Ca  Ca2  1  0.674348  0.004067  0.419863  1
  Ca  Ca3  1  0.016504  0.247467  0.125201  1
  Ca  Ca4  1  0.733956  0.251370  0.242257  1
  Ca  Ca5  1  0.325652  0.504067  0.080137  1
  Ca  Ca6  1  0.674348  0.495933  0.919863  1
  Ca  Ca7  1  0.749268  0.748140  0.116865  1
  Ca  Ca8  1  0.340388  0.504272  0.586559  1
  Ca  Ca9  1  0.983496  0.752533  0.874799  1
  Ca  Ca10  1  0.340388  0.995728  0.086559  1
  Ca  Ca11  1  0.733956  0.248630  0.742257  1
  Ca  Ca12  1  0.659612  0.004272  0.913441  1
  Ca  Ca13  1  0.016504  0.252533  0.625201  1
  Ca  Ca14  1  0.749268  0.751860  0.616865  1
  Ca  Ca15  1  0.325652  0.995933  0.580137  1
  Ca  Ca16  1  0.266044  0.751370  0.257743  1
  Ca  Ca17  1  0.250732  0.251860  0.883135  1
  Ca  Ca18  1  0.659612  0.495728  0.413441  1
  Ca  Ca19  1  0.266044  0.748630  0.757743  1
  P  P20  1  0.031653  0.247989  0.454290  1
  P  P21  1  0.968347  0.752011  0.545710  1
  P  P22  1  0.968347  0.747989  0.045710  1
  P  P23  1  0.622705  0.753272  0.766135  1
  P  P24  1  0.377295  0.253272  0.733865  1
  P  P25  1  0.031653  0.252011  0.954290  1
  P  P26  1  0.591447  0.245975  0.061495  1
  P  P27  1  0.591447  0.254025  0.561495  1
  P  P28  1  0.622705  0.746728  0.266135  1
  P  P29  1  0.408553  0.754025  0.938505  1
  P  P30  1  0.377295  0.246728  0.233865  1
  P  P31  1  0.408553  0.745975  0.438505  1
  Cl  Cl32  1  0.998710  0.075241  0.250601  1
  Cl  Cl33  1  0.001290  0.924759  0.749399  1
  Cl  Cl34  1  0.001290  0.575241  0.249399  1
  Cl  Cl35  1  0.998710  0.424759  0.750601  1
  O  O36  1  0.265382  0.072001  0.709590  1
  O  O37  1  0.350242  0.757100  0.998487  1
  O  O38  1  0.088043  0.055387  0.432785  1
  O  O39  1  0.502905  0.743283  0.177029  1
  O  O40  1  0.734618  0.927999  0.290410  1
  O  O41  1  0.870171  0.736008  0.453758  1
  O  O42  1  0.146438  0.747712  0.074978  1
  O  O43  1  0.079448  0.076567  0.919637  1
  O  O44  1  0.635472  0.056008  0.112740  1
  O  O45  1  0.920552  0.923433  0.080363  1
  O  O46  1  0.660014  0.423950  0.118792  1
  O  O47  1  0.272055  0.059371  0.205748  1
  O  O48  1  0.462985  0.255647  0.184637  1
  O  O49  1  0.853562  0.252288  0.925022  1
  O  O50  1  0.635472  0.443992  0.612740  1
  O  O51  1  0.853562  0.247712  0.425022  1
  O  O52  1  0.407646  0.260831  0.018567  1
  O  O53  1  0.734618  0.572001  0.790410  1
  O  O54  1  0.592354  0.760831  0.481433  1
  O  O55  1  0.727945  0.940629  0.794252  1
  O  O56  1  0.502905  0.756717  0.677029  1
  O  O57  1  0.727945  0.559371  0.294252  1
  O  O58  1  0.497095  0.256717  0.822971  1
  O  O59  1  0.339986  0.576050  0.881208  1
  O  O60  1  0.920552  0.576567  0.580363  1
  O  O61  1  0.649758  0.242900  0.001513  1
  O  O62  1  0.911957  0.555387  0.067215  1
  O  O63  1  0.649758  0.257100  0.501513  1
  O  O64  1  0.462985  0.244353  0.684637  1
  O  O65  1  0.497095  0.243283  0.322971  1
  O  O66  1  0.079448  0.423433  0.419637  1
  O  O67  1  0.364528  0.556008  0.387260  1
  O  O68  1  0.339986  0.923950  0.381208  1
  O  O69  1  0.870171  0.763992  0.953758  1
  O  O70  1  0.088043  0.444613  0.932785  1
  O  O71  1  0.350242  0.742900  0.498487  1
  O  O72  1  0.364528  0.943992  0.887260  1
  O  O73  1  0.537015  0.744353  0.815363  1
  O  O74  1  0.660014  0.076050  0.618792  1
  O  O75  1  0.129829  0.263992  0.546242  1
  O  O76  1  0.129829  0.236008  0.046242  1
  O  O77  1  0.537015  0.755647  0.315363  1
  O  O78  1  0.911957  0.944613  0.567215  1
  O  O79  1  0.146438  0.752288  0.574978  1
  O  O80  1  0.265382  0.427999  0.209590  1
  O  O81  1  0.592354  0.739169  0.981433  1
  O  O82  1  0.272055  0.440629  0.705748  1
  O  O83  1  0.407646  0.239169  0.518567  1
