# generated using pymatgen
data_Mg2BiAsO6
_symmetry_space_group_name_H-M   'P 1'
_cell_length_a   7.41586416
_cell_length_b   7.41586416
_cell_length_c   5.46790301
_cell_angle_alpha   90.00000000
_cell_angle_beta   90.00000000
_cell_angle_gamma   114.62744877
_symmetry_Int_Tables_number   1
_chemical_formula_structural   Mg2BiAsO6
_chemical_formula_sum   'Mg4 Bi2 As2 O12'
_cell_volume   273.35416280
_cell_formula_units_Z   2
loop_
 _symmetry_equiv_pos_site_id
 _symmetry_equiv_pos_as_xyz
  1  'x, y, z'
loop_
 _atom_site_type_symbol
 _atom_site_label
 _atom_site_symmetry_multiplicity
 _atom_site_fract_x
 _atom_site_fract_y
 _atom_site_fract_z
 _atom_site_occupancy
  Mg  Mg0  1  0.103751  0.288467  0.750000  1
  Mg  Mg1  1  0.288467  0.103751  0.250000  1
  Mg  Mg2  1  0.711533  0.896249  0.750000  1
  Mg  Mg3  1  0.896249  0.711533  0.250000  1
  Bi  Bi4  1  0.592010  0.407990  0.750000  1
  Bi  Bi5  1  0.407990  0.592010  0.250000  1
  As  As6  1  0.197914  0.802086  0.750000  1
  As  As7  1  0.802086  0.197914  0.250000  1
  O  O8  1  0.882796  0.117204  0.992887  1
  O  O9  1  0.095134  0.550575  0.750000  1
  O  O10  1  0.670267  0.670267  0.000000  1
  O  O11  1  0.449425  0.904866  0.750000  1
  O  O12  1  0.117204  0.882796  0.492887  1
  O  O13  1  0.329733  0.329733  0.000000  1
  O  O14  1  0.670267  0.670267  0.500000  1
  O  O15  1  0.550575  0.095134  0.250000  1
  O  O16  1  0.329733  0.329733  0.500000  1
  O  O17  1  0.882796  0.117204  0.507113  1
  O  O18  1  0.117204  0.882796  0.007113  1
  O  O19  1  0.904866  0.449425  0.250000  1
