# generated using pymatgen
data_CsBi3Se5
_symmetry_space_group_name_H-M   'P 1'
_cell_length_a   4.22005614
_cell_length_b   12.58137624
_cell_length_c   23.22580591
_cell_angle_alpha   90.00000000
_cell_angle_beta   90.00000000
_cell_angle_gamma   90.00000000
_symmetry_Int_Tables_number   1
_chemical_formula_structural   CsBi3Se5
_chemical_formula_sum   'Cs4 Bi12 Se20'
_cell_volume   1233.15358792
_cell_formula_units_Z   4
loop_
 _symmetry_equiv_pos_site_id
 _symmetry_equiv_pos_as_xyz
  1  'x, y, z'
loop_
 _atom_site_type_symbol
 _atom_site_label
 _atom_site_symmetry_multiplicity
 _atom_site_fract_x
 _atom_site_fract_y
 _atom_site_fract_z
 _atom_site_occupancy
  Cs  Cs0  1  0.250000  0.989554  0.787519  1
  Cs  Cs1  1  0.750000  0.489554  0.712481  1
  Cs  Cs2  1  0.750000  0.010446  0.212481  1
  Cs  Cs3  1  0.250000  0.510446  0.287519  1
  Bi  Bi4  1  0.750000  0.804072  0.621191  1
  Bi  Bi5  1  0.250000  0.407626  0.072749  1
  Bi  Bi6  1  0.250000  0.195928  0.378809  1
  Bi  Bi7  1  0.750000  0.592374  0.927251  1
  Bi  Bi8  1  0.250000  0.092374  0.572749  1
  Bi  Bi9  1  0.250000  0.636442  0.476081  1
  Bi  Bi10  1  0.250000  0.304072  0.878809  1
  Bi  Bi11  1  0.250000  0.863558  0.976081  1
  Bi  Bi12  1  0.750000  0.907626  0.427251  1
  Bi  Bi13  1  0.750000  0.695928  0.121191  1
  Bi  Bi14  1  0.750000  0.363558  0.523919  1
  Bi  Bi15  1  0.750000  0.136442  0.023919  1
  Se  Se16  1  0.250000  0.750080  0.196050  1
  Se  Se17  1  0.750000  0.139483  0.480850  1
  Se  Se18  1  0.250000  0.305322  0.609166  1
  Se  Se19  1  0.750000  0.585434  0.561307  1
  Se  Se20  1  0.250000  0.085434  0.938693  1
  Se  Se21  1  0.750000  0.914566  0.061307  1
  Se  Se22  1  0.250000  0.414566  0.438693  1
  Se  Se23  1  0.250000  0.860517  0.519150  1
  Se  Se24  1  0.750000  0.360517  0.980850  1
  Se  Se25  1  0.750000  0.250080  0.303950  1
  Se  Se26  1  0.250000  0.526291  0.847888  1
  Se  Se27  1  0.250000  0.973709  0.347888  1
  Se  Se28  1  0.750000  0.805322  0.890834  1
  Se  Se29  1  0.750000  0.473709  0.152112  1
  Se  Se30  1  0.250000  0.194678  0.109166  1
  Se  Se31  1  0.250000  0.749920  0.696050  1
  Se  Se32  1  0.750000  0.026291  0.652112  1
  Se  Se33  1  0.750000  0.249920  0.803950  1
  Se  Se34  1  0.750000  0.694678  0.390834  1
  Se  Se35  1  0.250000  0.639483  0.019150  1
