# generated using pymatgen
data_BaNaNdSi2O7
_symmetry_space_group_name_H-M   'P 1'
_cell_length_a   9.42899700
_cell_length_b   10.64910100
_cell_length_c   14.36834600
_cell_angle_alpha   90.00000000
_cell_angle_beta   90.00000000
_cell_angle_gamma   90.00000000
_symmetry_Int_Tables_number   1
_chemical_formula_structural   BaNaNdSi2O7
_chemical_formula_sum   'Ba8 Na8 Nd8 Si16 O56'
_cell_volume   1442.73052695
_cell_formula_units_Z   8
loop_
 _symmetry_equiv_pos_site_id
 _symmetry_equiv_pos_as_xyz
  1  'x, y, z'
loop_
 _atom_site_type_symbol
 _atom_site_label
 _atom_site_symmetry_multiplicity
 _atom_site_fract_x
 _atom_site_fract_y
 _atom_site_fract_z
 _atom_site_occupancy
  Ba  Ba0  1  0.083309  0.821047  0.395263  1
  Ba  Ba1  1  0.583309  0.678953  0.395263  1
  Ba  Ba2  1  0.916691  0.678953  0.895263  1
  Ba  Ba3  1  0.416691  0.821047  0.895263  1
  Ba  Ba4  1  0.416691  0.321047  0.604737  1
  Ba  Ba5  1  0.916691  0.178953  0.604737  1
  Ba  Ba6  1  0.083309  0.321047  0.104737  1
  Ba  Ba7  1  0.583309  0.178953  0.104737  1
  Na  Na8  1  0.561658  0.586977  0.694752  1
  Na  Na9  1  0.438342  0.413023  0.305248  1
  Na  Na10  1  0.938342  0.586977  0.194752  1
  Na  Na11  1  0.438342  0.913023  0.194752  1
  Na  Na12  1  0.561658  0.086977  0.805248  1
  Na  Na13  1  0.061658  0.913023  0.694752  1
  Na  Na14  1  0.061658  0.413023  0.805248  1
  Na  Na15  1  0.938342  0.086977  0.305248  1
  Nd  Nd16  1  0.899372  0.081924  0.895946  1
  Nd  Nd17  1  0.100628  0.918076  0.104054  1
  Nd  Nd18  1  0.899372  0.581924  0.604054  1
  Nd  Nd19  1  0.600628  0.081924  0.395946  1
  Nd  Nd20  1  0.600628  0.581924  0.104054  1
  Nd  Nd21  1  0.399372  0.918076  0.604054  1
  Nd  Nd22  1  0.399372  0.418076  0.895946  1
  Nd  Nd23  1  0.100628  0.418076  0.395946  1
  Si  Si24  1  0.279419  0.106085  0.983114  1
  Si  Si25  1  0.720581  0.393915  0.483114  1
  Si  Si26  1  0.752894  0.852235  0.222853  1
  Si  Si27  1  0.220581  0.106085  0.483114  1
  Si  Si28  1  0.220581  0.606085  0.016886  1
  Si  Si29  1  0.779419  0.393915  0.983114  1
  Si  Si30  1  0.252894  0.647765  0.222853  1
  Si  Si31  1  0.247106  0.147765  0.777147  1
  Si  Si32  1  0.720581  0.893915  0.016886  1
  Si  Si33  1  0.747106  0.352235  0.777147  1
  Si  Si34  1  0.279419  0.606085  0.516886  1
  Si  Si35  1  0.752894  0.352235  0.277147  1
  Si  Si36  1  0.247106  0.647765  0.722853  1
  Si  Si37  1  0.252894  0.147765  0.277147  1
  Si  Si38  1  0.747106  0.852235  0.722853  1
  Si  Si39  1  0.779419  0.893915  0.516886  1
  O  O40  1  0.105164  0.599778  0.508669  1
  O  O41  1  0.265298  0.300328  0.787485  1
  O  O42  1  0.579968  0.891842  0.729602  1
  O  O43  1  0.158134  0.989235  0.544517  1
  O  O44  1  0.852951  0.400224  0.694354  1
  O  O45  1  0.765298  0.699672  0.712515  1
  O  O46  1  0.677327  0.422554  0.371474  1
  O  O47  1  0.340293  0.745228  0.490085  1
  O  O48  1  0.352951  0.599776  0.805646  1
  O  O49  1  0.920032  0.891842  0.229602  1
  O  O50  1  0.579968  0.391842  0.770398  1
  O  O51  1  0.394836  0.099778  0.491331  1
  O  O52  1  0.341866  0.489235  0.455483  1
  O  O53  1  0.394836  0.599778  0.008669  1
  O  O54  1  0.340293  0.245228  0.009915  1
  O  O55  1  0.677327  0.922554  0.128526  1
  O  O56  1  0.147049  0.599776  0.305646  1
  O  O57  1  0.840293  0.254772  0.009915  1
  O  O58  1  0.158134  0.489235  0.955483  1
  O  O59  1  0.852951  0.900224  0.805646  1
  O  O60  1  0.234702  0.800328  0.212515  1
  O  O61  1  0.265298  0.800328  0.712515  1
  O  O62  1  0.658134  0.510765  0.544517  1
  O  O63  1  0.147049  0.099776  0.194354  1
  O  O64  1  0.841866  0.510765  0.044517  1
  O  O65  1  0.647049  0.900224  0.305646  1
  O  O66  1  0.822673  0.422554  0.871474  1
  O  O67  1  0.734702  0.699672  0.212515  1
  O  O68  1  0.894836  0.900222  0.008669  1
  O  O69  1  0.177327  0.077446  0.371474  1
  O  O70  1  0.105164  0.099778  0.991331  1
  O  O71  1  0.159707  0.245228  0.509915  1
  O  O72  1  0.605164  0.400222  0.991331  1
  O  O73  1  0.322673  0.077446  0.871474  1
  O  O74  1  0.079968  0.608158  0.729602  1
  O  O75  1  0.765298  0.199672  0.787485  1
  O  O76  1  0.734702  0.199672  0.287485  1
  O  O77  1  0.159707  0.745228  0.990085  1
  O  O78  1  0.658134  0.010765  0.955483  1
  O  O79  1  0.322673  0.577446  0.628526  1
  O  O80  1  0.079968  0.108158  0.770398  1
  O  O81  1  0.234702  0.300328  0.287485  1
  O  O82  1  0.647049  0.400224  0.194354  1
  O  O83  1  0.659707  0.754772  0.990085  1
  O  O84  1  0.352951  0.099776  0.694354  1
  O  O85  1  0.659707  0.254772  0.509915  1
  O  O86  1  0.341866  0.989235  0.044517  1
  O  O87  1  0.894836  0.400222  0.491331  1
  O  O88  1  0.920032  0.391842  0.270398  1
  O  O89  1  0.420032  0.608158  0.229602  1
  O  O90  1  0.177327  0.577446  0.128526  1
  O  O91  1  0.605164  0.900222  0.508669  1
  O  O92  1  0.822673  0.922554  0.628526  1
  O  O93  1  0.841866  0.010765  0.455483  1
  O  O94  1  0.420032  0.108158  0.270398  1
  O  O95  1  0.840293  0.754772  0.490085  1
