# generated using pymatgen
data_CsLi(B3O5)2
_symmetry_space_group_name_H-M   'P 1'
_cell_length_a   8.80481607
_cell_length_b   8.80481607
_cell_length_c   8.80481607
_cell_angle_alpha   106.56386123
_cell_angle_beta   106.56386123
_cell_angle_gamma   115.45691696
_symmetry_Int_Tables_number   1
_chemical_formula_structural   CsLi(B3O5)2
_chemical_formula_sum   'Cs2 Li2 B12 O20'
_cell_volume   521.11344361
_cell_formula_units_Z   2
loop_
 _symmetry_equiv_pos_site_id
 _symmetry_equiv_pos_as_xyz
  1  'x, y, z'
loop_
 _atom_site_type_symbol
 _atom_site_label
 _atom_site_symmetry_multiplicity
 _atom_site_fract_x
 _atom_site_fract_y
 _atom_site_fract_z
 _atom_site_occupancy
  Cs  Cs0  1  0.250000  0.750000  0.500000  1
  Cs  Cs1  1  0.000000  0.000000  0.000000  1
  Li  Li2  1  0.750000  0.250000  0.500000  1
  Li  Li3  1  0.500000  0.500000  0.000000  1
  B  B4  1  0.644548  0.875000  0.269548  1
  B  B5  1  0.605452  0.375000  0.730452  1
  B  B6  1  0.625000  0.355452  0.230452  1
  B  B7  1  0.125000  0.394548  0.769548  1
  B  B8  1  0.919416  0.039409  0.578682  1
  B  B9  1  0.789273  0.710591  0.380008  1
  B  B10  1  0.460727  0.340735  0.421318  1
  B  B11  1  0.330584  0.409265  0.619992  1
  B  B12  1  0.659265  0.080584  0.119992  1
  B  B13  1  0.289409  0.669416  0.078682  1
  B  B14  1  0.960591  0.539273  0.880008  1
  B  B15  1  0.590735  0.210727  0.921318  1
  O  O16  1  0.921598  0.875000  0.546598  1
  O  O17  1  0.328402  0.375000  0.453402  1
  O  O18  1  0.625000  0.078402  0.953402  1
  O  O19  1  0.125000  0.671598  0.046598  1
  O  O20  1  0.059006  0.197519  0.738162  1
  O  O21  1  0.790643  0.552481  0.361487  1
  O  O22  1  0.459357  0.320844  0.261838  1
  O  O23  1  0.190994  0.429156  0.638513  1
  O  O24  1  0.679156  0.940994  0.138513  1
  O  O25  1  0.447519  0.809006  0.238162  1
  O  O26  1  0.802481  0.540643  0.861487  1
  O  O27  1  0.570844  0.209357  0.761838  1
  O  O28  1  0.776195  0.032607  0.455739  1
  O  O29  1  0.673132  0.717393  0.243588  1
  O  O30  1  0.576868  0.320456  0.544261  1
  O  O31  1  0.473805  0.429544  0.756412  1
  O  O32  1  0.679544  0.223805  0.256412  1
  O  O33  1  0.282607  0.526195  0.955739  1
  O  O34  1  0.967393  0.423132  0.743588  1
  O  O35  1  0.570456  0.326868  0.044261  1
