# generated using pymatgen
data_Rb2BeH4(SO5)2
_symmetry_space_group_name_H-M   'P 1'
_cell_length_a   7.53370497
_cell_length_b   12.04303205
_cell_length_c   11.50453854
_cell_angle_alpha   90.00000000
_cell_angle_beta   96.42896003
_cell_angle_gamma   90.00000000
_symmetry_Int_Tables_number   1
_chemical_formula_structural   Rb2BeH4(SO5)2
_chemical_formula_sum   'Rb8 Be4 H16 S8 O40'
_cell_volume   1037.22732209
_cell_formula_units_Z   4
loop_
 _symmetry_equiv_pos_site_id
 _symmetry_equiv_pos_as_xyz
  1  'x, y, z'
loop_
 _atom_site_type_symbol
 _atom_site_label
 _atom_site_symmetry_multiplicity
 _atom_site_fract_x
 _atom_site_fract_y
 _atom_site_fract_z
 _atom_site_occupancy
  Rb  Rb0  1  0.988649  0.761681  0.591676  1
  Rb  Rb1  1  0.511351  0.261681  0.408324  1
  Rb  Rb2  1  0.011351  0.238319  0.408324  1
  Rb  Rb3  1  0.488649  0.738319  0.591676  1
  Rb  Rb4  1  0.334312  0.897997  0.894484  1
  Rb  Rb5  1  0.165688  0.397997  0.105516  1
  Rb  Rb6  1  0.665688  0.102003  0.105516  1
  Rb  Rb7  1  0.834312  0.602003  0.894484  1
  Be  Be8  1  0.075464  0.919659  0.267737  1
  Be  Be9  1  0.424536  0.419659  0.732263  1
  Be  Be10  1  0.924536  0.080341  0.732263  1
  Be  Be11  1  0.575464  0.580341  0.267737  1
  H  H12  1  0.027822  0.819467  0.095452  1
  H  H13  1  0.472178  0.319467  0.904548  1
  H  H14  1  0.972178  0.180533  0.904548  1
  H  H15  1  0.527822  0.680533  0.095452  1
  H  H16  1  0.092939  0.736718  0.208394  1
  H  H17  1  0.407061  0.236718  0.791606  1
  H  H18  1  0.907061  0.263282  0.791606  1
  H  H19  1  0.592939  0.763282  0.208394  1
  H  H20  1  0.384692  0.910210  0.318379  1
  H  H21  1  0.115308  0.410210  0.681621  1
  H  H22  1  0.615308  0.089790  0.681621  1
  H  H23  1  0.884692  0.589790  0.318379  1
  H  H24  1  0.285411  0.979900  0.412547  1
  H  H25  1  0.214589  0.479900  0.587453  1
  H  H26  1  0.714589  0.020100  0.587453  1
  H  H27  1  0.785411  0.520100  0.412547  1
  S  S28  1  0.739926  0.945279  0.372682  1
  S  S29  1  0.760074  0.445279  0.627318  1
  S  S30  1  0.260074  0.054721  0.627318  1
  S  S31  1  0.239926  0.554721  0.372682  1
  S  S32  1  0.839459  0.892702  0.865922  1
  S  S33  1  0.660541  0.392702  0.134078  1
  S  S34  1  0.160541  0.107298  0.134078  1
  S  S35  1  0.339459  0.607298  0.865922  1
  O  O36  1  0.737611  0.066787  0.359370  1
  O  O37  1  0.762389  0.566787  0.640630  1
  O  O38  1  0.262389  0.933213  0.640630  1
  O  O39  1  0.237611  0.433213  0.359370  1
  O  O40  1  0.701590  0.913053  0.492499  1
  O  O41  1  0.798410  0.413053  0.507501  1
  O  O42  1  0.298410  0.086947  0.507501  1
  O  O43  1  0.201590  0.586947  0.492499  1
  O  O44  1  0.606585  0.892617  0.283077  1
  O  O45  1  0.893415  0.392617  0.716923  1
  O  O46  1  0.393415  0.107383  0.716923  1
  O  O47  1  0.106585  0.607383  0.283077  1
  O  O48  1  0.924046  0.899365  0.358300  1
  O  O49  1  0.575954  0.399365  0.641700  1
  O  O50  1  0.075954  0.100635  0.641700  1
  O  O51  1  0.424046  0.600635  0.358300  1
  O  O52  1  0.708669  0.960869  0.919262  1
  O  O53  1  0.791331  0.460869  0.080738  1
  O  O54  1  0.291331  0.039131  0.080738  1
  O  O55  1  0.208669  0.539131  0.919262  1
  O  O56  1  0.751692  0.816712  0.776031  1
  O  O57  1  0.748308  0.316712  0.223969  1
  O  O58  1  0.248308  0.183288  0.223969  1
  O  O59  1  0.251692  0.683288  0.776031  1
  O  O60  1  0.956634  0.827958  0.954233  1
  O  O61  1  0.543366  0.327958  0.045767  1
  O  O62  1  0.043366  0.172042  0.045767  1
  O  O63  1  0.456634  0.672042  0.954233  1
  O  O64  1  0.966107  0.968609  0.806290  1
  O  O65  1  0.533893  0.468609  0.193710  1
  O  O66  1  0.033893  0.031391  0.193710  1
  O  O67  1  0.466107  0.531391  0.806290  1
  O  O68  1  0.084976  0.814091  0.178368  1
  O  O69  1  0.415024  0.314091  0.821632  1
  O  O70  1  0.915024  0.185909  0.821632  1
  O  O71  1  0.584976  0.685909  0.178368  1
  O  O72  1  0.269323  0.918895  0.352583  1
  O  O73  1  0.230677  0.418895  0.647417  1
  O  O74  1  0.730677  0.081105  0.647417  1
  O  O75  1  0.769323  0.581105  0.352583  1
