# generated using pymatgen
data_Na4MoO5
_symmetry_space_group_name_H-M   'P 1'
_cell_length_a   5.72892789
_cell_length_b   10.12541570
_cell_length_c   10.15651140
_cell_angle_alpha   113.34433594
_cell_angle_beta   96.54182961
_cell_angle_gamma   96.29815821
_symmetry_Int_Tables_number   1
_chemical_formula_structural   Na4MoO5
_chemical_formula_sum   'Na16 Mo4 O20'
_cell_volume   529.60620414
_cell_formula_units_Z   4
loop_
 _symmetry_equiv_pos_site_id
 _symmetry_equiv_pos_as_xyz
  1  'x, y, z'
loop_
 _atom_site_type_symbol
 _atom_site_label
 _atom_site_symmetry_multiplicity
 _atom_site_fract_x
 _atom_site_fract_y
 _atom_site_fract_z
 _atom_site_occupancy
  Na  Na0  1  0.734116  0.643640  0.841968  1
  Na  Na1  1  0.781927  0.451503  0.066892  1
  Na  Na2  1  0.218073  0.548497  0.933108  1
  Na  Na3  1  0.755822  0.054389  0.462438  1
  Na  Na4  1  0.000000  0.000000  0.000000  1
  Na  Na5  1  0.500000  0.500000  0.500000  1
  Na  Na6  1  0.509556  0.102762  0.910899  1
  Na  Na7  1  0.490444  0.897238  0.089101  1
  Na  Na8  1  0.002071  0.398014  0.598433  1
  Na  Na9  1  0.997929  0.601986  0.401567  1
  Na  Na10  1  0.284674  0.155614  0.360447  1
  Na  Na11  1  0.715326  0.844386  0.639553  1
  Na  Na12  1  0.983334  0.194657  0.804673  1
  Na  Na13  1  0.016666  0.805343  0.195327  1
  Na  Na14  1  0.265884  0.356360  0.158032  1
  Na  Na15  1  0.244178  0.945611  0.537562  1
  Mo  Mo16  1  0.520523  0.701782  0.261969  1
  Mo  Mo17  1  0.479477  0.298218  0.738031  1
  Mo  Mo18  1  0.213016  0.784749  0.753519  1
  Mo  Mo19  1  0.786984  0.215251  0.246481  1
  O  O20  1  0.805546  0.397161  0.811513  1
  O  O21  1  0.936766  0.644023  0.651188  1
  O  O22  1  0.063234  0.355977  0.348812  1
  O  O23  1  0.194454  0.602839  0.188487  1
  O  O24  1  0.886743  0.042384  0.226574  1
  O  O25  1  0.113257  0.957616  0.773426  1
  O  O26  1  0.864560  0.228042  0.069037  1
  O  O27  1  0.135440  0.771958  0.930963  1
  O  O28  1  0.405473  0.464405  0.711110  1
  O  O29  1  0.594527  0.535595  0.288890  1
  O  O30  1  0.197409  0.188263  0.597203  1
  O  O31  1  0.802591  0.811737  0.402797  1
  O  O32  1  0.375268  0.320458  0.908415  1
  O  O33  1  0.624732  0.679542  0.091585  1
  O  O34  1  0.667966  0.270792  0.424066  1
  O  O35  1  0.332034  0.729208  0.575934  1
  O  O36  1  0.600734  0.116587  0.682425  1
  O  O37  1  0.539844  0.848607  0.851218  1
  O  O38  1  0.460156  0.151393  0.148782  1
  O  O39  1  0.399266  0.883413  0.317575  1
