# generated using pymatgen
data_Te4W(OF4)5
_symmetry_space_group_name_H-M   'P 1'
_cell_length_a   9.98144377
_cell_length_b   10.48341289
_cell_length_c   10.88988556
_cell_angle_alpha   75.59751533
_cell_angle_beta   87.10762860
_cell_angle_gamma   83.40802655
_symmetry_Int_Tables_number   1
_chemical_formula_structural   Te4W(OF4)5
_chemical_formula_sum   'Te8 W2 O10 F40'
_cell_volume   1096.12011119
_cell_formula_units_Z   2
loop_
 _symmetry_equiv_pos_site_id
 _symmetry_equiv_pos_as_xyz
  1  'x, y, z'
loop_
 _atom_site_type_symbol
 _atom_site_label
 _atom_site_symmetry_multiplicity
 _atom_site_fract_x
 _atom_site_fract_y
 _atom_site_fract_z
 _atom_site_occupancy
  Te  Te0  1  0.758823  0.626387  0.851609  1
  Te  Te1  1  0.824930  0.686336  0.352152  1
  Te  Te2  1  0.297403  0.813577  0.579422  1
  Te  Te3  1  0.702597  0.186423  0.420578  1
  Te  Te4  1  0.272698  0.871279  0.087289  1
  Te  Te5  1  0.241177  0.373613  0.148391  1
  Te  Te6  1  0.727302  0.128721  0.912711  1
  Te  Te7  1  0.175070  0.313664  0.647848  1
  W  W8  1  0.270526  0.587968  0.369483  1
  W  W9  1  0.729474  0.412032  0.630517  1
  O  O10  1  0.756395  0.549642  0.475223  1
  O  O11  1  0.443039  0.569463  0.356140  1
  O  O12  1  0.764474  0.285525  0.526244  1
  O  O13  1  0.216309  0.466110  0.278439  1
  O  O14  1  0.556961  0.430537  0.643860  1
  O  O15  1  0.235526  0.714475  0.473756  1
  O  O16  1  0.783691  0.533890  0.721561  1
  O  O17  1  0.243605  0.450358  0.524777  1
  O  O18  1  0.777069  0.269428  0.776664  1
  O  O19  1  0.222931  0.730572  0.223336  1
  F  F20  1  0.899378  0.818570  0.228973  1
  F  F21  1  0.355304  0.913719  0.682678  1
  F  F22  1  0.682184  0.990720  0.047755  1
  F  F23  1  0.702180  0.038145  0.557650  1
  F  F24  1  0.644696  0.086281  0.317322  1
  F  F25  1  0.596884  0.087532  0.815333  1
  F  F26  1  0.262492  0.279724  0.022507  1
  F  F27  1  0.164894  0.521963  0.029418  1
  F  F28  1  0.699014  0.332169  0.280435  1
  F  F29  1  0.597054  0.243769  0.971926  1
  F  F30  1  0.100622  0.181430  0.771027  1
  F  F31  1  0.478294  0.762750  0.542364  1
  F  F32  1  0.170661  0.414504  0.767181  1
  F  F33  1  0.737508  0.720276  0.977493  1
  F  F34  1  0.653186  0.767059  0.305421  1
  F  F35  1  0.521706  0.237250  0.457636  1
  F  F36  1  0.680947  0.776936  0.736921  1
  F  F37  1  0.070604  0.315914  0.188489  1
  F  F38  1  0.144196  0.988814  0.144449  1
  F  F39  1  0.402946  0.756231  0.028074  1
  F  F40  1  0.587619  0.569695  0.894355  1
  F  F41  1  0.856427  0.166489  0.012964  1
  F  F42  1  0.929396  0.684086  0.811511  1
  F  F43  1  0.993321  0.388602  0.606634  1
  F  F44  1  0.881137  0.133795  0.380648  1
  F  F45  1  0.346814  0.232941  0.694579  1
  F  F46  1  0.118863  0.866205  0.619352  1
  F  F47  1  0.300986  0.667831  0.719565  1
  F  F48  1  0.164117  0.211857  0.530883  1
  F  F49  1  0.143573  0.833511  0.987036  1
  F  F50  1  0.317816  0.009280  0.952245  1
  F  F51  1  0.297820  0.961855  0.442350  1
  F  F52  1  0.319053  0.223064  0.263079  1
  F  F53  1  0.006679  0.611398  0.393366  1
  F  F54  1  0.835106  0.478037  0.970582  1
  F  F55  1  0.855804  0.011186  0.855551  1
  F  F56  1  0.412381  0.430305  0.105645  1
  F  F57  1  0.829339  0.585496  0.232819  1
  F  F58  1  0.835883  0.788143  0.469117  1
  F  F59  1  0.403116  0.912468  0.184667  1
