# generated using pymatgen
data_PAuClF3
_symmetry_space_group_name_H-M   'P 1'
_cell_length_a   4.94113877
_cell_length_b   5.65697971
_cell_length_c   18.78554041
_cell_angle_alpha   90.00000000
_cell_angle_beta   90.00000000
_cell_angle_gamma   90.00000000
_symmetry_Int_Tables_number   1
_chemical_formula_structural   PAuClF3
_chemical_formula_sum   'P4 Au4 Cl4 F12'
_cell_volume   525.09195588
_cell_formula_units_Z   4
loop_
 _symmetry_equiv_pos_site_id
 _symmetry_equiv_pos_as_xyz
  1  'x, y, z'
loop_
 _atom_site_type_symbol
 _atom_site_label
 _atom_site_symmetry_multiplicity
 _atom_site_fract_x
 _atom_site_fract_y
 _atom_site_fract_z
 _atom_site_occupancy
  P  P0  1  0.525785  0.750000  0.145986  1
  P  P1  1  0.025785  0.250000  0.354014  1
  P  P2  1  0.974215  0.750000  0.645986  1
  P  P3  1  0.474215  0.250000  0.854014  1
  Au  Au4  1  0.157629  0.250000  0.466170  1
  Au  Au5  1  0.657629  0.750000  0.033830  1
  Au  Au6  1  0.842371  0.750000  0.533830  1
  Au  Au7  1  0.342371  0.250000  0.966170  1
  Cl  Cl8  1  0.153791  0.250000  0.077917  1
  Cl  Cl9  1  0.846209  0.750000  0.922083  1
  Cl  Cl10  1  0.346209  0.250000  0.577917  1
  Cl  Cl11  1  0.653791  0.750000  0.422083  1
  F  F12  1  0.128746  0.461184  0.307430  1
  F  F13  1  0.720279  0.250000  0.332360  1
  F  F14  1  0.371254  0.038816  0.807430  1
  F  F15  1  0.371254  0.461184  0.807430  1
  F  F16  1  0.628746  0.538816  0.192570  1
  F  F17  1  0.628746  0.961184  0.192570  1
  F  F18  1  0.779721  0.250000  0.832360  1
  F  F19  1  0.279721  0.750000  0.667640  1
  F  F20  1  0.871254  0.538816  0.692570  1
  F  F21  1  0.871254  0.961184  0.692570  1
  F  F22  1  0.220279  0.750000  0.167640  1
  F  F23  1  0.128746  0.038816  0.307430  1
