# generated using pymatgen
data_NaMnCrF6
_symmetry_space_group_name_H-M   'P 1'
_cell_length_a   9.16243494
_cell_length_b   9.16243494
_cell_length_c   5.09068622
_cell_angle_alpha   90.00000000
_cell_angle_beta   90.00000000
_cell_angle_gamma   120.00000000
_symmetry_Int_Tables_number   1
_chemical_formula_structural   NaMnCrF6
_chemical_formula_sum   'Na3 Mn3 Cr3 F18'
_cell_volume   370.10825188
_cell_formula_units_Z   3
loop_
 _symmetry_equiv_pos_site_id
 _symmetry_equiv_pos_as_xyz
  1  'x, y, z'
loop_
 _atom_site_type_symbol
 _atom_site_label
 _atom_site_symmetry_multiplicity
 _atom_site_fract_x
 _atom_site_fract_y
 _atom_site_fract_z
 _atom_site_occupancy
  Na  Na0  1  0.370180  0.000000  0.000000  1
  Na  Na1  1  0.000000  0.370180  0.000000  1
  Na  Na2  1  0.629820  0.629820  0.000000  1
  Mn  Mn3  1  0.700803  0.000000  0.500000  1
  Mn  Mn4  1  0.299197  0.299197  0.500000  1
  Mn  Mn5  1  0.000000  0.700803  0.500000  1
  Cr  Cr6  1  0.333333  0.666667  0.496178  1
  Cr  Cr7  1  0.666667  0.333333  0.503822  1
  Cr  Cr8  1  0.000000  0.000000  0.000000  1
  F  F9  1  0.774784  0.233700  0.295224  1
  F  F10  1  0.766300  0.541084  0.295224  1
  F  F11  1  0.458916  0.225216  0.295224  1
  F  F12  1  0.541084  0.766300  0.704776  1
  F  F13  1  0.225216  0.458916  0.704776  1
  F  F14  1  0.233700  0.774784  0.704776  1
  F  F15  1  0.408172  0.538247  0.286019  1
  F  F16  1  0.461753  0.869926  0.286019  1
  F  F17  1  0.130074  0.591828  0.286019  1
  F  F18  1  0.900124  0.101103  0.778747  1
  F  F19  1  0.898897  0.799021  0.778747  1
  F  F20  1  0.200979  0.099876  0.778747  1
  F  F21  1  0.799021  0.898897  0.221253  1
  F  F22  1  0.099876  0.200979  0.221253  1
  F  F23  1  0.101103  0.900124  0.221253  1
  F  F24  1  0.538247  0.408172  0.713981  1
  F  F25  1  0.591828  0.130074  0.713981  1
  F  F26  1  0.869926  0.461753  0.713981  1
