# generated using pymatgen
data_V(PO3)4
_symmetry_space_group_name_H-M   'P 1'
_cell_length_a   10.52211724
_cell_length_b   10.52211724
_cell_length_c   5.24330710
_cell_angle_alpha   81.23593112
_cell_angle_beta   98.76406888
_cell_angle_gamma   106.85793890
_symmetry_Int_Tables_number   1
_chemical_formula_structural   V(PO3)4
_chemical_formula_sum   'V2 P8 O24'
_cell_volume   545.47613116
_cell_formula_units_Z   2
loop_
 _symmetry_equiv_pos_site_id
 _symmetry_equiv_pos_as_xyz
  1  'x, y, z'
loop_
 _atom_site_type_symbol
 _atom_site_label
 _atom_site_symmetry_multiplicity
 _atom_site_fract_x
 _atom_site_fract_y
 _atom_site_fract_z
 _atom_site_occupancy
  V  V0  1  0.000000  0.500000  0.500000  1
  V  V1  1  0.500000  1.000000  0.500000  1
  P  P2  1  0.360124  0.204958  0.677426  1
  P  P3  1  0.795042  0.639876  0.677426  1
  P  P4  1  0.693140  0.066291  0.036578  1
  P  P5  1  0.933709  0.306860  0.036578  1
  P  P6  1  0.066291  0.693140  0.963422  1
  P  P7  1  0.639876  0.795042  0.322574  1
  P  P8  1  0.204958  0.360124  0.322574  1
  P  P9  1  0.306860  0.933709  0.963422  1
  O  O10  1  0.425808  0.140424  0.502514  1
  O  O11  1  0.859576  0.574192  0.502514  1
  O  O12  1  0.226777  0.226777  0.500000  1
  O  O13  1  0.773223  0.773223  0.500000  1
  O  O14  1  0.658241  0.084746  0.745932  1
  O  O15  1  0.915254  0.341759  0.745932  1
  O  O16  1  0.442854  0.316258  0.814286  1
  O  O17  1  0.683742  0.557146  0.814286  1
  O  O18  1  0.282945  0.076440  0.871014  1
  O  O19  1  0.923560  0.717055  0.871014  1
  O  O20  1  0.840872  0.159128  0.105262  1
  O  O21  1  0.401606  0.907102  0.801120  1
  O  O22  1  0.092898  0.598394  0.801120  1
  O  O23  1  0.907102  0.401606  0.198880  1
  O  O24  1  0.598394  0.092898  0.198880  1
  O  O25  1  0.159128  0.840872  0.894738  1
  O  O26  1  0.076440  0.282945  0.128986  1
  O  O27  1  0.574192  0.859576  0.497486  1
  O  O28  1  0.316258  0.442854  0.185714  1
  O  O29  1  0.557146  0.683742  0.185714  1
  O  O30  1  0.084746  0.658241  0.254068  1
  O  O31  1  0.341759  0.915254  0.254068  1
  O  O32  1  0.140424  0.425808  0.497486  1
  O  O33  1  0.717055  0.923560  0.128986  1
