# generated using pymatgen
data_K2Sn(AuS2)2
_symmetry_space_group_name_H-M   'P 1'
_cell_length_a   7.50744182
_cell_length_b   8.46754310
_cell_length_c   9.35513351
_cell_angle_alpha   71.62425567
_cell_angle_beta   82.09226142
_cell_angle_gamma   67.75148015
_symmetry_Int_Tables_number   1
_chemical_formula_structural   K2Sn(AuS2)2
_chemical_formula_sum   'K4 Sn2 Au4 S8'
_cell_volume   522.24771768
_cell_formula_units_Z   2
loop_
 _symmetry_equiv_pos_site_id
 _symmetry_equiv_pos_as_xyz
  1  'x, y, z'
loop_
 _atom_site_type_symbol
 _atom_site_label
 _atom_site_symmetry_multiplicity
 _atom_site_fract_x
 _atom_site_fract_y
 _atom_site_fract_z
 _atom_site_occupancy
  K  K0  1  0.782415  0.811684  0.420994  1
  K  K1  1  0.217585  0.188316  0.579006  1
  K  K2  1  0.026959  0.252772  0.076765  1
  K  K3  1  0.973041  0.747228  0.923235  1
  Sn  Sn4  1  0.623002  0.280975  0.804458  1
  Sn  Sn5  1  0.376998  0.719025  0.195542  1
  Au  Au6  1  0.532809  0.712401  0.832028  1
  Au  Au7  1  0.262735  0.668151  0.576754  1
  Au  Au8  1  0.467191  0.287599  0.167972  1
  Au  Au9  1  0.737265  0.331849  0.423246  1
  S  S10  1  0.724495  0.581414  0.222660  1
  S  S11  1  0.760850  0.090966  0.635289  1
  S  S12  1  0.292993  0.914182  0.939019  1
  S  S13  1  0.216112  0.501717  0.254166  1
  S  S14  1  0.275505  0.418586  0.777340  1
  S  S15  1  0.707007  0.085818  0.060981  1
  S  S16  1  0.239150  0.909034  0.364711  1
  S  S17  1  0.783888  0.498283  0.745834  1
