# generated using pymatgen
data_RbNO3
_symmetry_space_group_name_H-M   'P 1'
_cell_length_a   10.74204847
_cell_length_b   10.74204847
_cell_length_c   7.53490842
_cell_angle_alpha   90.00000000
_cell_angle_beta   90.00000000
_cell_angle_gamma   120.00000000
_symmetry_Int_Tables_number   1
_chemical_formula_structural   RbNO3
_chemical_formula_sum   'Rb9 N9 O27'
_cell_volume   752.97893205
_cell_formula_units_Z   9
loop_
 _symmetry_equiv_pos_site_id
 _symmetry_equiv_pos_as_xyz
  1  'x, y, z'
loop_
 _atom_site_type_symbol
 _atom_site_label
 _atom_site_symmetry_multiplicity
 _atom_site_fract_x
 _atom_site_fract_y
 _atom_site_fract_z
 _atom_site_occupancy
  Rb  Rb0  1  0.448332  0.218208  0.288988  1
  Rb  Rb1  1  0.769877  0.551668  0.955655  1
  Rb  Rb2  1  0.781792  0.230123  0.622321  1
  Rb  Rb3  1  0.091120  0.873207  0.667691  1
  Rb  Rb4  1  0.782087  0.908880  0.334357  1
  Rb  Rb5  1  0.126793  0.217913  0.001024  1
  Rb  Rb6  1  0.112454  0.551760  0.302877  1
  Rb  Rb7  1  0.439306  0.887546  0.969544  1
  Rb  Rb8  1  0.448240  0.560694  0.636211  1
  N  N9  1  0.457169  0.236273  0.761509  1
  N  N10  1  0.779103  0.542831  0.428176  1
  N  N11  1  0.763727  0.220897  0.094843  1
  N  N12  1  0.112770  0.904400  0.193764  1
  N  N13  1  0.791630  0.887230  0.860431  1
  N  N14  1  0.095600  0.208370  0.527097  1
  N  N15  1  0.126937  0.537458  0.830945  1
  N  N16  1  0.410522  0.873063  0.497612  1
  N  N17  1  0.462542  0.589478  0.164278  1
  O  O18  1  0.725594  0.144829  0.233599  1
  O  O19  1  0.855171  0.580764  0.566933  1
  O  O20  1  0.419236  0.274406  0.900266  1
  O  O21  1  0.894855  0.297708  0.053132  1
  O  O22  1  0.702292  0.597147  0.386465  1
  O  O23  1  0.402853  0.105145  0.719799  1
  O  O24  1  0.667393  0.220334  0.994434  1
  O  O25  1  0.779666  0.447059  0.327768  1
  O  O26  1  0.552941  0.332607  0.661101  1
  O  O27  1  0.462763  0.689627  0.256577  1
  O  O28  1  0.310373  0.773136  0.589911  1
  O  O29  1  0.226864  0.537237  0.923244  1
  O  O30  1  0.386115  0.460554  0.213893  1
  O  O31  1  0.539446  0.925561  0.547227  1
  O  O32  1  0.074439  0.613885  0.880560  1
  O  O33  1  0.538928  0.622087  0.025580  1
  O  O34  1  0.377913  0.916840  0.358913  1
  O  O35  1  0.083160  0.461072  0.692246  1
  O  O36  1  0.998581  0.113034  0.627317  1
  O  O37  1  0.886966  0.885547  0.960651  1
  O  O38  1  0.114453  0.001419  0.293984  1
  O  O39  1  0.226421  0.258006  0.565382  1
  O  O40  1  0.741994  0.968415  0.898715  1
  O  O41  1  0.031585  0.773579  0.232049  1
  O  O42  1  0.057669  0.250562  0.391310  1
  O  O43  1  0.749438  0.807107  0.724644  1
  O  O44  1  0.192893  0.942331  0.057977  1
