# generated using pymatgen
data_SnHg6(As2Br3)2
_symmetry_space_group_name_H-M   'P 1'
_cell_length_a   12.74700582
_cell_length_b   12.74700582
_cell_length_c   12.74700582
_cell_angle_alpha   90.00000000
_cell_angle_beta   90.00000000
_cell_angle_gamma   90.00000000
_symmetry_Int_Tables_number   1
_chemical_formula_structural   SnHg6(As2Br3)2
_chemical_formula_sum   'Sn4 Hg24 As16 Br24'
_cell_volume   2071.21199373
_cell_formula_units_Z   4
loop_
 _symmetry_equiv_pos_site_id
 _symmetry_equiv_pos_as_xyz
  1  'x, y, z'
loop_
 _atom_site_type_symbol
 _atom_site_label
 _atom_site_symmetry_multiplicity
 _atom_site_fract_x
 _atom_site_fract_y
 _atom_site_fract_z
 _atom_site_occupancy
  Sn  Sn0  1  0.726595  0.273405  0.773405  1
  Sn  Sn1  1  0.273405  0.773405  0.726595  1
  Sn  Sn2  1  0.773405  0.726595  0.273405  1
  Sn  Sn3  1  0.226595  0.226595  0.226595  1
  Hg  Hg4  1  0.528253  0.765511  0.538119  1
  Hg  Hg5  1  0.234489  0.038119  0.971747  1
  Hg  Hg6  1  0.473473  0.517810  0.261932  1
  Hg  Hg7  1  0.961881  0.471747  0.265511  1
  Hg  Hg8  1  0.017810  0.238068  0.526527  1
  Hg  Hg9  1  0.028253  0.734489  0.461881  1
  Hg  Hg10  1  0.026527  0.482190  0.761932  1
  Hg  Hg11  1  0.538119  0.528253  0.765511  1
  Hg  Hg12  1  0.761932  0.026527  0.482190  1
  Hg  Hg13  1  0.517810  0.261932  0.473473  1
  Hg  Hg14  1  0.738068  0.973473  0.982190  1
  Hg  Hg15  1  0.482190  0.761932  0.026527  1
  Hg  Hg16  1  0.261932  0.473473  0.517810  1
  Hg  Hg17  1  0.038119  0.971747  0.234489  1
  Hg  Hg18  1  0.238068  0.526527  0.017810  1
  Hg  Hg19  1  0.526527  0.017810  0.238068  1
  Hg  Hg20  1  0.765511  0.538119  0.528253  1
  Hg  Hg21  1  0.461881  0.028253  0.734489  1
  Hg  Hg22  1  0.973473  0.982190  0.738068  1
  Hg  Hg23  1  0.971747  0.234489  0.038119  1
  Hg  Hg24  1  0.734489  0.461881  0.028253  1
  Hg  Hg25  1  0.471747  0.265511  0.961881  1
  Hg  Hg26  1  0.982190  0.738068  0.973473  1
  Hg  Hg27  1  0.265511  0.961881  0.471747  1
  As  As28  1  0.067307  0.932693  0.432693  1
  As  As29  1  0.931714  0.931714  0.931714  1
  As  As30  1  0.567307  0.567307  0.567307  1
  As  As31  1  0.456653  0.956653  0.543347  1
  As  As32  1  0.455917  0.455917  0.455917  1
  As  As33  1  0.932693  0.432694  0.067307  1
  As  As34  1  0.955917  0.044083  0.544083  1
  As  As35  1  0.043347  0.043347  0.043347  1
  As  As36  1  0.568286  0.068286  0.431714  1
  As  As37  1  0.431714  0.568286  0.068286  1
  As  As38  1  0.068286  0.431714  0.568286  1
  As  As39  1  0.044083  0.544083  0.955917  1
  As  As40  1  0.544083  0.955917  0.044083  1
  As  As41  1  0.956653  0.543347  0.456653  1
  As  As42  1  0.543347  0.456653  0.956653  1
  As  As43  1  0.432693  0.067307  0.932693  1
  Br  Br44  1  0.706860  0.055610  0.741464  1
  Br  Br45  1  0.793140  0.944390  0.241464  1
  Br  Br46  1  0.444390  0.258536  0.206860  1
  Br  Br47  1  0.555610  0.758536  0.293140  1
  Br  Br48  1  0.297106  0.973653  0.232450  1
  Br  Br49  1  0.206860  0.444390  0.258536  1
  Br  Br50  1  0.026347  0.732450  0.202894  1
  Br  Br51  1  0.473653  0.267550  0.702894  1
  Br  Br52  1  0.973653  0.232450  0.297106  1
  Br  Br53  1  0.241464  0.793140  0.944390  1
  Br  Br54  1  0.055610  0.741464  0.706860  1
  Br  Br55  1  0.267550  0.702894  0.473653  1
  Br  Br56  1  0.258536  0.206860  0.444390  1
  Br  Br57  1  0.758536  0.293140  0.555610  1
  Br  Br58  1  0.767550  0.797106  0.526347  1
  Br  Br59  1  0.526347  0.767550  0.797106  1
  Br  Br60  1  0.732450  0.202894  0.026347  1
  Br  Br61  1  0.797106  0.526347  0.767550  1
  Br  Br62  1  0.944390  0.241464  0.793140  1
  Br  Br63  1  0.293140  0.555610  0.758536  1
  Br  Br64  1  0.741464  0.706860  0.055610  1
  Br  Br65  1  0.232450  0.297106  0.973653  1
  Br  Br66  1  0.202894  0.026347  0.732450  1
  Br  Br67  1  0.702894  0.473653  0.267550  1
