# generated using pymatgen
data_Pr3Nb(Cl3O2)2
_symmetry_space_group_name_H-M   'P 1'
_cell_length_a   12.94551604
_cell_length_b   12.94551604
_cell_length_c   3.99644490
_cell_angle_alpha   90.00000000
_cell_angle_beta   90.00000000
_cell_angle_gamma   120.00000000
_symmetry_Int_Tables_number   1
_chemical_formula_structural   Pr3Nb(Cl3O2)2
_chemical_formula_sum   'Pr6 Nb2 Cl12 O8'
_cell_volume   580.02030233
_cell_formula_units_Z   2
loop_
 _symmetry_equiv_pos_site_id
 _symmetry_equiv_pos_as_xyz
  1  'x, y, z'
loop_
 _atom_site_type_symbol
 _atom_site_label
 _atom_site_symmetry_multiplicity
 _atom_site_fract_x
 _atom_site_fract_y
 _atom_site_fract_z
 _atom_site_occupancy
  Pr  Pr0  1  0.395420  0.114433  0.250000  1
  Pr  Pr1  1  0.719012  0.604580  0.250000  1
  Pr  Pr2  1  0.604580  0.885567  0.750000  1
  Pr  Pr3  1  0.280988  0.395420  0.750000  1
  Pr  Pr4  1  0.114433  0.719012  0.750000  1
  Pr  Pr5  1  0.885567  0.280988  0.250000  1
  Nb  Nb6  1  0.666667  0.333333  0.750000  1
  Nb  Nb7  1  0.333333  0.666667  0.250000  1
  Cl  Cl8  1  0.628082  0.069937  0.250000  1
  Cl  Cl9  1  0.751833  0.855858  0.250000  1
  Cl  Cl10  1  0.144142  0.895975  0.250000  1
  Cl  Cl11  1  0.371918  0.930063  0.750000  1
  Cl  Cl12  1  0.930063  0.558145  0.250000  1
  Cl  Cl13  1  0.248167  0.144142  0.750000  1
  Cl  Cl14  1  0.069937  0.441855  0.750000  1
  Cl  Cl15  1  0.104025  0.248167  0.250000  1
  Cl  Cl16  1  0.855858  0.104025  0.750000  1
  Cl  Cl17  1  0.895975  0.751833  0.750000  1
  Cl  Cl18  1  0.558145  0.628082  0.750000  1
  Cl  Cl19  1  0.441855  0.371918  0.250000  1
  O  O20  1  0.800086  0.307470  0.750000  1
  O  O21  1  0.666667  0.333333  0.250000  1
  O  O22  1  0.199914  0.692530  0.250000  1
  O  O23  1  0.507384  0.199914  0.750000  1
  O  O24  1  0.307470  0.507384  0.250000  1
  O  O25  1  0.492616  0.800086  0.250000  1
  O  O26  1  0.692530  0.492616  0.750000  1
  O  O27  1  0.333333  0.666667  0.750000  1
