# generated using pymatgen
data_Sb2SeI2F11
_symmetry_space_group_name_H-M   'P 1'
_cell_length_a   8.23793978
_cell_length_b   9.47810169
_cell_length_c   18.27272906
_cell_angle_alpha   91.90595978
_cell_angle_beta   95.17931656
_cell_angle_gamma   96.09550347
_symmetry_Int_Tables_number   1
_chemical_formula_structural   Sb2SeI2F11
_chemical_formula_sum   'Sb8 Se4 I8 F44'
_cell_volume   1411.55355641
_cell_formula_units_Z   4
loop_
 _symmetry_equiv_pos_site_id
 _symmetry_equiv_pos_as_xyz
  1  'x, y, z'
loop_
 _atom_site_type_symbol
 _atom_site_label
 _atom_site_symmetry_multiplicity
 _atom_site_fract_x
 _atom_site_fract_y
 _atom_site_fract_z
 _atom_site_occupancy
  Sb  Sb0  1  0.312791  0.770975  0.409790  1
  Sb  Sb1  1  0.212971  0.367421  0.929374  1
  Sb  Sb2  1  0.687209  0.229025  0.590210  1
  Sb  Sb3  1  0.787029  0.632579  0.070626  1
  Sb  Sb4  1  0.401363  0.846522  0.112043  1
  Sb  Sb5  1  0.854565  0.555690  0.367090  1
  Sb  Sb6  1  0.598637  0.153478  0.887957  1
  Sb  Sb7  1  0.145435  0.444310  0.632910  1
  Se  Se8  1  0.695577  0.834779  0.723165  1
  Se  Se9  1  0.030250  0.979906  0.760582  1
  Se  Se10  1  0.304423  0.165221  0.276835  1
  Se  Se11  1  0.969750  0.020094  0.239418  1
  I  I12  1  0.884654  0.175135  0.140123  1
  I  I13  1  0.844147  0.086475  0.352403  1
  I  I14  1  0.155853  0.913525  0.647597  1
  I  I15  1  0.697257  0.638038  0.808754  1
  I  I16  1  0.723473  0.734348  0.598020  1
  I  I17  1  0.276527  0.265652  0.401980  1
  I  I18  1  0.115346  0.824865  0.859877  1
  I  I19  1  0.302743  0.361962  0.191246  1
  F  F20  1  0.962700  0.517674  0.077911  1
  F  F21  1  0.456505  0.115760  0.799549  1
  F  F22  1  0.871533  0.749681  0.155054  1
  F  F23  1  0.840095  0.717755  0.309785  1
  F  F24  1  0.780498  0.660031  0.446797  1
  F  F25  1  0.228396  0.934620  0.153006  1
  F  F26  1  0.037293  0.534806  0.706322  1
  F  F27  1  0.644492  0.463180  0.333071  1
  F  F28  1  0.486840  0.108512  0.586202  1
  F  F29  1  0.329604  0.664547  0.145467  1
  F  F30  1  0.339703  0.489213  0.870111  1
  F  F31  1  0.238723  0.869942  0.491206  1
  F  F32  1  0.352308  0.658975  0.326905  1
  F  F33  1  0.159905  0.282245  0.690215  1
  F  F34  1  0.513160  0.891488  0.413798  1
  F  F35  1  0.509896  0.976728  0.921583  1
  F  F36  1  0.202971  0.894519  0.345255  1
  F  F37  1  0.647692  0.341025  0.673095  1
  F  F38  1  0.670396  0.335453  0.854533  1
  F  F39  1  0.114209  0.228355  0.989134  1
  F  F40  1  0.410481  0.241682  0.932929  1
  F  F41  1  0.885791  0.771645  0.010866  1
  F  F42  1  0.604013  0.363251  0.525901  1
  F  F43  1  0.721862  0.199549  0.980300  1
  F  F44  1  0.904354  0.410886  0.432377  1
  F  F45  1  0.128467  0.250319  0.844946  1
  F  F46  1  0.761277  0.130058  0.508794  1
  F  F47  1  0.037300  0.482326  0.922089  1
  F  F48  1  0.089174  0.649784  0.406476  1
  F  F49  1  0.095646  0.589114  0.567623  1
  F  F50  1  0.589519  0.758318  0.067071  1
  F  F51  1  0.278138  0.800451  0.019700  1
  F  F52  1  0.543495  0.884240  0.200451  1
  F  F53  1  0.490104  0.023272  0.078417  1
  F  F54  1  0.219502  0.339969  0.553203  1
  F  F55  1  0.395987  0.636749  0.474099  1
  F  F56  1  0.323939  0.460580  0.016202  1
  F  F57  1  0.771604  0.065380  0.846994  1
  F  F58  1  0.660297  0.510787  0.129889  1
  F  F59  1  0.355508  0.536820  0.666929  1
  F  F60  1  0.676061  0.539420  0.983798  1
  F  F61  1  0.962707  0.465194  0.293678  1
  F  F62  1  0.797029  0.105481  0.654745  1
  F  F63  1  0.910826  0.350216  0.593524  1
