# generated using pymatgen
data_SrLi2Nb2O7
_symmetry_space_group_name_H-M   'P 1'
_cell_length_a   9.59698174
_cell_length_b   9.59698174
_cell_length_c   5.66558279
_cell_angle_alpha   90.00000000
_cell_angle_beta   90.00000000
_cell_angle_gamma   145.59507659
_symmetry_Int_Tables_number   1
_chemical_formula_structural   SrLi2Nb2O7
_chemical_formula_sum   'Sr2 Li4 Nb4 O14'
_cell_volume   294.84346681
_cell_formula_units_Z   2
loop_
 _symmetry_equiv_pos_site_id
 _symmetry_equiv_pos_as_xyz
  1  'x, y, z'
loop_
 _atom_site_type_symbol
 _atom_site_label
 _atom_site_symmetry_multiplicity
 _atom_site_fract_x
 _atom_site_fract_y
 _atom_site_fract_z
 _atom_site_occupancy
  Sr  Sr0  1  0.255062  0.255062  0.250000  1
  Sr  Sr1  1  0.744938  0.744938  0.750000  1
  Li  Li2  1  0.261584  0.738416  0.000000  1
  Li  Li3  1  0.738416  0.261584  1.000000  1
  Li  Li4  1  0.738416  0.261584  0.500000  1
  Li  Li5  1  0.261584  0.738416  0.500000  1
  Nb  Nb6  1  0.361563  0.130788  0.750000  1
  Nb  Nb7  1  0.869212  0.638437  0.250000  1
  Nb  Nb8  1  0.638437  0.869212  0.250000  1
  Nb  Nb9  1  0.130788  0.361563  0.750000  1
  O  O10  1  0.616312  0.383688  1.000000  1
  O  O11  1  0.905198  0.094802  0.500000  1
  O  O12  1  0.383688  0.616312  0.500000  1
  O  O13  1  0.562836  0.999298  0.250000  1
  O  O14  1  0.296984  0.296984  0.750000  1
  O  O15  1  0.905198  0.094802  1.000000  1
  O  O16  1  0.616312  0.383688  0.500000  1
  O  O17  1  0.000702  0.437164  0.750000  1
  O  O18  1  0.703016  0.703016  0.250000  1
  O  O19  1  0.999298  0.562836  0.250000  1
  O  O20  1  0.383688  0.616312  0.000000  1
  O  O21  1  0.437164  0.000702  0.750000  1
  O  O22  1  0.094802  0.905198  0.000000  1
  O  O23  1  0.094802  0.905198  0.500000  1
