# generated using pymatgen
data_S
_symmetry_space_group_name_H-M   'P 1'
_cell_length_a   5.66346879
_cell_length_b   9.63248940
_cell_length_c   15.71045871
_cell_angle_alpha   90.00000000
_cell_angle_beta   90.00000000
_cell_angle_gamma   90.00000000
_symmetry_Int_Tables_number   1
_chemical_formula_structural   S
_chemical_formula_sum   S24
_cell_volume   857.05741564
_cell_formula_units_Z   24
loop_
 _symmetry_equiv_pos_site_id
 _symmetry_equiv_pos_as_xyz
  1  'x, y, z'
loop_
 _atom_site_type_symbol
 _atom_site_label
 _atom_site_symmetry_multiplicity
 _atom_site_fract_x
 _atom_site_fract_y
 _atom_site_fract_z
 _atom_site_occupancy
  S  S0  1  0.009455  0.303651  0.892776  1
  S  S1  1  0.500000  0.500000  0.286127  1
  S  S2  1  0.190262  0.736624  0.000000  1
  S  S3  1  0.990545  0.696349  0.107224  1
  S  S4  1  0.799591  0.872707  0.863435  1
  S  S5  1  0.490545  0.803651  0.607224  1
  S  S6  1  0.299591  0.627293  0.636565  1
  S  S7  1  0.500000  0.500000  0.713873  1
  S  S8  1  0.509455  0.196349  0.392776  1
  S  S9  1  0.490545  0.803651  0.392776  1
  S  S10  1  0.299591  0.627293  0.363435  1
  S  S11  1  0.700409  0.372707  0.363435  1
  S  S12  1  0.309738  0.236624  0.500000  1
  S  S13  1  0.000000  0.000000  0.213873  1
  S  S14  1  0.000000  0.000000  0.786127  1
  S  S15  1  0.200409  0.127293  0.136565  1
  S  S16  1  0.509455  0.196349  0.607224  1
  S  S17  1  0.990545  0.696349  0.892776  1
  S  S18  1  0.200409  0.127293  0.863435  1
  S  S19  1  0.700409  0.372707  0.636565  1
  S  S20  1  0.690262  0.763376  0.500000  1
  S  S21  1  0.799591  0.872707  0.136565  1
  S  S22  1  0.009455  0.303651  0.107224  1
  S  S23  1  0.809738  0.263376  0.000000  1
