# generated using pymatgen
data_K2Cr4O13
_symmetry_space_group_name_H-M   'P 1'
_cell_length_a   8.94250241
_cell_length_b   7.70193874
_cell_length_c   9.55354680
_cell_angle_alpha   90.00000000
_cell_angle_beta   92.50490577
_cell_angle_gamma   90.00000000
_symmetry_Int_Tables_number   1
_chemical_formula_structural   K2Cr4O13
_chemical_formula_sum   'K4 Cr8 O26'
_cell_volume   657.36804251
_cell_formula_units_Z   2
loop_
 _symmetry_equiv_pos_site_id
 _symmetry_equiv_pos_as_xyz
  1  'x, y, z'
loop_
 _atom_site_type_symbol
 _atom_site_label
 _atom_site_symmetry_multiplicity
 _atom_site_fract_x
 _atom_site_fract_y
 _atom_site_fract_z
 _atom_site_occupancy
  K  K0  1  0.803343  0.593606  0.242530  1
  K  K1  1  0.803343  0.406394  0.742530  1
  K  K2  1  0.544139  0.103825  0.103881  1
  K  K3  1  0.544139  0.896175  0.603881  1
  Cr  Cr4  1  0.515343  0.571550  0.967742  1
  Cr  Cr5  1  0.515343  0.428450  0.467742  1
  Cr  Cr6  1  0.171792  0.566106  0.012900  1
  Cr  Cr7  1  0.171792  0.433894  0.512900  1
  Cr  Cr8  1  0.180660  0.892521  0.244091  1
  Cr  Cr9  1  0.180660  0.107479  0.744091  1
  Cr  Cr10  1  0.857663  0.070383  0.368202  1
  Cr  Cr11  1  0.857663  0.929617  0.868202  1
  O  O12  1  0.532017  0.741445  0.068313  1
  O  O13  1  0.532017  0.258555  0.568313  1
  O  O14  1  0.341967  0.456623  0.007629  1
  O  O15  1  0.341967  0.543377  0.507629  1
  O  O16  1  0.655166  0.438729  0.000216  1
  O  O17  1  0.655166  0.561271  0.500216  1
  O  O18  1  0.510895  0.626962  0.803772  1
  O  O19  1  0.510895  0.373038  0.303772  1
  O  O20  1  0.035697  0.430702  0.995894  1
  O  O21  1  0.035697  0.569298  0.495894  1
  O  O22  1  0.163223  0.701351  0.886414  1
  O  O23  1  0.163223  0.298649  0.386414  1
  O  O24  1  0.159681  0.677527  0.174505  1
  O  O25  1  0.159681  0.322473  0.674505  1
  O  O26  1  0.328810  0.897218  0.345165  1
  O  O27  1  0.328810  0.102782  0.845165  1
  O  O28  1  0.202287  0.027687  0.120096  1
  O  O29  1  0.202287  0.972313  0.620096  1
  O  O30  1  0.870829  0.150553  0.525704  1
  O  O31  1  0.870829  0.849447  0.025704  1
  O  O32  1  0.836271  0.225446  0.254016  1
  O  O33  1  0.836271  0.774554  0.754016  1
  O  O34  1  0.023445  0.938209  0.335445  1
  O  O35  1  0.023445  0.061791  0.835445  1
  O  O36  1  0.713220  0.940111  0.353145  1
  O  O37  1  0.713220  0.059889  0.853145  1
