# generated using pymatgen
data_SbH18C3(NCl2)3
_symmetry_space_group_name_H-M   'P 1'
_cell_length_a   13.09243258
_cell_length_b   8.15506263
_cell_length_c   18.99985533
_cell_angle_alpha   90.00000000
_cell_angle_beta   126.36385604
_cell_angle_gamma   90.00000000
_symmetry_Int_Tables_number   1
_chemical_formula_structural   SbH18C3(NCl2)3
_chemical_formula_sum   'Sb4 H72 C12 N12 Cl24'
_cell_volume   1633.57234882
_cell_formula_units_Z   4
loop_
 _symmetry_equiv_pos_site_id
 _symmetry_equiv_pos_as_xyz
  1  'x, y, z'
loop_
 _atom_site_type_symbol
 _atom_site_label
 _atom_site_symmetry_multiplicity
 _atom_site_fract_x
 _atom_site_fract_y
 _atom_site_fract_z
 _atom_site_occupancy
  Sb  Sb0  1  0.125393  0.834455  0.722433  1
  Sb  Sb1  1  0.874607  0.165545  0.277567  1
  Sb  Sb2  1  0.125393  0.665545  0.222433  1
  Sb  Sb3  1  0.874607  0.334455  0.777567  1
  H  H4  1  0.294556  0.310171  0.354270  1
  H  H5  1  0.686323  0.635072  0.363655  1
  H  H6  1  0.563066  0.060610  0.171341  1
  H  H7  1  0.344649  0.522869  0.934315  1
  H  H8  1  0.766681  0.327344  0.965568  1
  H  H9  1  0.587036  0.722480  0.868942  1
  H  H10  1  0.294556  0.189829  0.854270  1
  H  H11  1  0.104740  0.893002  0.436579  1
  H  H12  1  0.470444  0.580815  0.671066  1
  H  H13  1  0.721019  0.852164  0.546127  1
  H  H14  1  0.995558  0.866028  0.911467  1
  H  H15  1  0.412964  0.277520  0.131058  1
  H  H16  1  0.766681  0.172656  0.465568  1
  H  H17  1  0.655351  0.477131  0.065685  1
  H  H18  1  0.141948  0.606633  0.424634  1
  H  H19  1  0.533072  0.072848  0.246872  1
  H  H20  1  0.563066  0.439390  0.671341  1
  H  H21  1  0.211253  0.135663  0.304280  1
  H  H22  1  0.412964  0.222480  0.631058  1
  H  H23  1  0.313677  0.364928  0.636345  1
  H  H24  1  0.439968  0.156734  0.488431  1
  H  H25  1  0.867114  0.436843  0.486435  1
  H  H26  1  0.278981  0.352164  0.953873  1
  H  H27  1  0.104740  0.606998  0.936579  1
  H  H28  1  0.092143  0.648608  0.017315  1
  H  H29  1  0.995558  0.633972  0.411467  1
  H  H30  1  0.636417  0.844730  0.661226  1
  H  H31  1  0.211253  0.364337  0.804280  1
  H  H32  1  0.436934  0.939390  0.828659  1
  H  H33  1  0.529556  0.080815  0.828934  1
  H  H34  1  0.141948  0.893367  0.924634  1
  H  H35  1  0.788747  0.635663  0.195720  1
  H  H36  1  0.895260  0.106998  0.563421  1
  H  H37  1  0.705444  0.689829  0.645730  1
  H  H38  1  0.278981  0.147836  0.453873  1
  H  H39  1  0.655351  0.022869  0.565685  1
  H  H40  1  0.466928  0.572848  0.253128  1
  H  H41  1  0.436934  0.560610  0.328659  1
  H  H42  1  0.004442  0.366028  0.588533  1
  H  H43  1  0.132886  0.563157  0.513565  1
  H  H44  1  0.363583  0.344730  0.838774  1
  H  H45  1  0.907857  0.148608  0.482685  1
  H  H46  1  0.470444  0.919185  0.171066  1
  H  H47  1  0.560032  0.843266  0.511569  1
  H  H48  1  0.587036  0.777520  0.368942  1
  H  H49  1  0.721019  0.647836  0.046127  1
  H  H50  1  0.907857  0.351392  0.982685  1
  H  H51  1  0.132886  0.936843  0.013565  1
  H  H52  1  0.858052  0.393367  0.575366  1
  H  H53  1  0.344649  0.977131  0.434315  1
  H  H54  1  0.092143  0.851392  0.517315  1
  H  H55  1  0.686323  0.864928  0.863655  1
  H  H56  1  0.660406  0.611571  0.445769  1
  H  H57  1  0.439968  0.343266  0.988431  1
  H  H58  1  0.233319  0.827344  0.534432  1
  H  H59  1  0.533072  0.427152  0.746872  1
  H  H60  1  0.788747  0.864337  0.695720  1
  H  H61  1  0.560032  0.656734  0.011569  1
  H  H62  1  0.529556  0.419185  0.328934  1
  H  H63  1  0.363583  0.155270  0.338774  1
  H  H64  1  0.339594  0.388429  0.554231  1
  H  H65  1  0.636417  0.655270  0.161226  1
  H  H66  1  0.339594  0.111571  0.054231  1
  H  H67  1  0.705444  0.810171  0.145730  1
  H  H68  1  0.004442  0.133972  0.088533  1
  H  H69  1  0.867114  0.063157  0.986435  1
  H  H70  1  0.466928  0.927152  0.753128  1
  H  H71  1  0.858052  0.106633  0.075366  1
  H  H72  1  0.313677  0.135072  0.136345  1
  H  H73  1  0.660406  0.888429  0.945769  1
  H  H74  1  0.233319  0.672656  0.034432  1
  H  H75  1  0.895260  0.393002  0.063421  1
  C  C76  1  0.655652  0.610855  0.061252  1
  C  C77  1  0.901076  0.357939  0.542781  1
  C  C78  1  0.617714  0.649344  0.378384  1
  C  C79  1  0.901076  0.142061  0.042781  1
  C  C80  1  0.344348  0.110855  0.438748  1
  C  C81  1  0.655652  0.889145  0.561252  1
  C  C82  1  0.098924  0.642061  0.457219  1
  C  C83  1  0.617714  0.850656  0.878384  1
  C  C84  1  0.382286  0.350656  0.621616  1
  C  C85  1  0.098924  0.857939  0.957219  1
  C  C86  1  0.344348  0.389145  0.938748  1
  C  C87  1  0.382286  0.149344  0.121616  1
  N  N88  1  0.134777  0.814570  0.488274  1
  N  N89  1  0.865223  0.185430  0.511726  1
  N  N90  1  0.865223  0.314570  0.011726  1
  N  N91  1  0.700384  0.817550  0.647171  1
  N  N92  1  0.700384  0.682450  0.147171  1
  N  N93  1  0.299616  0.182450  0.352829  1
  N  N94  1  0.299616  0.317550  0.852829  1
  N  N95  1  0.494335  0.456016  0.681884  1
  N  N96  1  0.494335  0.043984  0.181884  1
  N  N97  1  0.134777  0.685430  0.988274  1
  N  N98  1  0.505665  0.543984  0.318116  1
  N  N99  1  0.505665  0.956016  0.818116  1
  Cl  Cl100  1  0.733052  0.133378  0.782520  1
  Cl  Cl101  1  0.952228  0.060562  0.716658  1
  Cl  Cl102  1  0.805166  0.567703  0.826643  1
  Cl  Cl103  1  0.948161  0.783930  0.557863  1
  Cl  Cl104  1  0.439786  0.839686  0.632421  1
  Cl  Cl105  1  0.328291  0.924596  0.888115  1
  Cl  Cl106  1  0.948161  0.716070  0.057863  1
  Cl  Cl107  1  0.051839  0.283930  0.942137  1
  Cl  Cl108  1  0.671709  0.075404  0.111885  1
  Cl  Cl109  1  0.266948  0.633378  0.717480  1
  Cl  Cl110  1  0.560214  0.160314  0.367579  1
  Cl  Cl111  1  0.194834  0.432297  0.173357  1
  Cl  Cl112  1  0.047772  0.560562  0.783342  1
  Cl  Cl113  1  0.805166  0.932297  0.326643  1
  Cl  Cl114  1  0.266948  0.866622  0.217480  1
  Cl  Cl115  1  0.439786  0.660314  0.132421  1
  Cl  Cl116  1  0.047772  0.939438  0.283342  1
  Cl  Cl117  1  0.952228  0.439438  0.216658  1
  Cl  Cl118  1  0.194834  0.067703  0.673357  1
  Cl  Cl119  1  0.733052  0.366622  0.282520  1
  Cl  Cl120  1  0.560214  0.339686  0.867579  1
  Cl  Cl121  1  0.671709  0.424596  0.611885  1
  Cl  Cl122  1  0.328291  0.575404  0.388115  1
  Cl  Cl123  1  0.051839  0.216070  0.442137  1
