# generated using pymatgen
data_Bi6As9Se4S10(O4F13)5
_symmetry_space_group_name_H-M   'P 1'
_cell_length_a   10.56819814
_cell_length_b   13.82006481
_cell_length_c   15.34688914
_cell_angle_alpha   69.83926297
_cell_angle_beta   72.37141971
_cell_angle_gamma   69.84237267
_symmetry_Int_Tables_number   1
_chemical_formula_structural   Bi6As9Se4S10(O4F13)5
_chemical_formula_sum   'Bi6 As9 Se4 S10 O20 F65'
_cell_volume   1931.67119405
_cell_formula_units_Z   1
loop_
 _symmetry_equiv_pos_site_id
 _symmetry_equiv_pos_as_xyz
  1  'x, y, z'
loop_
 _atom_site_type_symbol
 _atom_site_label
 _atom_site_symmetry_multiplicity
 _atom_site_fract_x
 _atom_site_fract_y
 _atom_site_fract_z
 _atom_site_occupancy
  Bi  Bi0  1  0.540062  0.329785  0.574367  1
  Bi  Bi1  1  0.811469  0.443398  0.316276  1
  Bi  Bi2  1  0.188531  0.556602  0.683724  1
  Bi  Bi3  1  0.459938  0.670215  0.425633  1
  Bi  Bi4  1  0.395827  0.449856  0.313929  1
  Bi  Bi5  1  0.604173  0.550144  0.686071  1
  As  As6  1  0.714153  0.147590  0.370688  1
  As  As7  1  0.205298  0.206023  0.336920  1
  As  As8  1  0.078870  0.652317  0.159712  1
  As  As9  1  0.580655  0.700533  0.117290  1
  As  As10  1  0.000000  0.500000  0.500000  1
  As  As11  1  0.419345  0.299467  0.882710  1
  As  As12  1  0.285847  0.852410  0.629312  1
  As  As13  1  0.794702  0.793977  0.663080  1
  As  As14  1  0.921130  0.347683  0.840288  1
  Se  Se15  1  0.089091  0.997367  0.892514  1
  Se  Se16  1  0.139727  0.994637  0.030128  1
  Se  Se17  1  0.860273  0.005363  0.969872  1
  Se  Se18  1  0.910909  0.002633  0.107486  1
  S  S19  1  0.706263  0.837550  0.396160  1
  S  S20  1  0.109806  0.898987  0.334295  1
  S  S21  1  0.036787  0.324338  0.088612  1
  S  S22  1  0.963213  0.675662  0.911388  1
  S  S23  1  0.890194  0.101013  0.665705  1
  S  S24  1  0.569613  0.338780  0.077558  1
  S  S25  1  0.509997  0.996814  0.831416  1
  S  S26  1  0.430387  0.661220  0.922442  1
  S  S27  1  0.490003  0.003186  0.168584  1
  S  S28  1  0.293737  0.162450  0.603840  1
  O  O29  1  0.067538  0.605190  0.856575  1
  O  O30  1  0.365852  0.000460  0.875253  1
  O  O31  1  0.096451  0.951094  0.236573  1
  O  O32  1  0.395156  0.179929  0.639943  1
  O  O33  1  0.501080  0.594596  0.856533  1
  O  O34  1  0.602796  0.975668  0.892008  1
  O  O35  1  0.752262  0.163188  0.650974  1
  O  O36  1  0.604844  0.820071  0.360057  1
  O  O37  1  0.975009  0.782855  0.889680  1
  O  O38  1  0.498920  0.405404  0.143467  1
  O  O39  1  0.182118  0.126359  0.674954  1
  O  O40  1  0.393052  0.775438  0.882786  1
  O  O41  1  0.817882  0.873641  0.325046  1
  O  O42  1  0.634148  0.999540  0.124747  1
  O  O43  1  0.932462  0.394810  0.143425  1
  O  O44  1  0.606948  0.224562  0.117214  1
  O  O45  1  0.024991  0.217145  0.110320  1
  O  O46  1  0.903549  0.048906  0.763427  1
  O  O47  1  0.247738  0.836812  0.349026  1
  O  O48  1  0.397204  0.024332  0.107992  1
  F  F49  1  0.917474  0.630298  0.444377  1
  F  F50  1  0.068191  0.551843  0.562138  1
  F  F51  1  0.188553  0.727772  0.075133  1
  F  F52  1  0.428936  0.752047  0.674889  1
  F  F53  1  0.220772  0.884450  0.738443  1
  F  F54  1  0.571064  0.247953  0.325111  1
  F  F55  1  0.264924  0.643283  0.538641  1
  F  F56  1  0.638567  0.656989  0.012686  1
  F  F57  1  0.414959  0.363207  0.460900  1
  F  F58  1  0.927427  0.289659  0.753263  1
  F  F59  1  0.970587  0.570128  0.245686  1
  F  F60  1  0.616641  0.054064  0.414905  1
  F  F61  1  0.438409  0.797519  0.075167  1
  F  F62  1  0.122470  0.183813  0.457058  1
  F  F63  1  0.877530  0.816187  0.542942  1
  F  F64  1  0.808150  0.247788  0.326627  1
  F  F65  1  0.280974  0.240597  0.214697  1
  F  F66  1  0.354684  0.815270  0.518763  1
  F  F67  1  0.191850  0.752212  0.673373  1
  F  F68  1  0.270633  0.304656  0.351345  1
  F  F69  1  0.520699  0.394548  0.832455  1
  F  F70  1  0.318532  0.208817  0.930203  1
  F  F71  1  0.072573  0.710341  0.246737  1
  F  F72  1  0.633072  0.406476  0.643468  1
  F  F73  1  0.354632  0.106122  0.362401  1
  F  F74  1  0.277132  0.401420  0.836275  1
  F  F75  1  0.682206  0.587712  0.359843  1
  F  F76  1  0.148659  0.505060  0.405068  1
  F  F77  1  0.854154  0.054655  0.417876  1
  F  F78  1  0.029413  0.429872  0.754314  1
  F  F79  1  0.585041  0.636793  0.539100  1
  F  F80  1  0.735076  0.356717  0.461359  1
  F  F81  1  0.226246  0.546717  0.197281  1
  F  F82  1  0.909489  0.413063  0.924564  1
  F  F83  1  0.522506  0.739172  0.226399  1
  F  F84  1  0.561591  0.202481  0.924833  1
  F  F85  1  0.383359  0.945936  0.585095  1
  F  F86  1  0.773754  0.453283  0.802719  1
  F  F87  1  0.317794  0.412288  0.640157  1
  F  F88  1  0.361433  0.343011  0.987314  1
  F  F89  1  0.068185  0.248995  0.873449  1
  F  F90  1  0.645316  0.184730  0.481237  1
  F  F91  1  0.864046  0.883179  0.680348  1
  F  F92  1  0.811447  0.272228  0.924867  1
  F  F93  1  0.851341  0.494940  0.594932  1
  F  F94  1  0.612831  0.441500  0.299262  1
  F  F95  1  0.479301  0.605452  0.167545  1
  F  F96  1  0.090511  0.586937  0.075436  1
  F  F97  1  0.729367  0.695344  0.648655  1
  F  F98  1  0.053369  0.314897  0.309453  1
  F  F99  1  0.645368  0.893878  0.637599  1
  F  F100  1  0.931815  0.751005  0.126551  1
  F  F101  1  0.082526  0.369702  0.555623  1
  F  F102  1  0.779228  0.115550  0.261557  1
  F  F103  1  0.931809  0.448157  0.437862  1
  F  F104  1  0.946631  0.685103  0.690547  1
  F  F105  1  0.722868  0.598580  0.163725  1
  F  F106  1  0.719026  0.759403  0.785303  1
  F  F107  1  0.145846  0.945345  0.582124  1
  F  F108  1  0.387169  0.558500  0.700738  1
  F  F109  1  0.500000  0.500000  0.500000  1
  F  F110  1  0.477494  0.260828  0.773601  1
  F  F111  1  0.135954  0.116821  0.319652  1
  F  F112  1  0.681468  0.791183  0.069797  1
  F  F113  1  0.366928  0.593524  0.356532  1
