# generated using pymatgen
data_Ba2Sb4P2O17
_symmetry_space_group_name_H-M   'P 1'
_cell_length_a   7.31107991
_cell_length_b   9.68854512
_cell_length_c   21.31115893
_cell_angle_alpha   90.00000000
_cell_angle_beta   90.00000000
_cell_angle_gamma   90.00000000
_symmetry_Int_Tables_number   1
_chemical_formula_structural   Ba2Sb4P2O17
_chemical_formula_sum   'Ba8 Sb16 P8 O68'
_cell_volume   1509.54882615
_cell_formula_units_Z   4
loop_
 _symmetry_equiv_pos_site_id
 _symmetry_equiv_pos_as_xyz
  1  'x, y, z'
loop_
 _atom_site_type_symbol
 _atom_site_label
 _atom_site_symmetry_multiplicity
 _atom_site_fract_x
 _atom_site_fract_y
 _atom_site_fract_z
 _atom_site_occupancy
  Ba  Ba0  1  0.250000  0.310763  0.674714  1
  Ba  Ba1  1  0.250000  0.151530  0.470292  1
  Ba  Ba2  1  0.250000  0.348470  0.970292  1
  Ba  Ba3  1  0.750000  0.689237  0.325286  1
  Ba  Ba4  1  0.750000  0.848470  0.529708  1
  Ba  Ba5  1  0.750000  0.651530  0.029708  1
  Ba  Ba6  1  0.250000  0.189237  0.174714  1
  Ba  Ba7  1  0.750000  0.810763  0.825286  1
  Sb  Sb8  1  0.001376  0.670956  0.658641  1
  Sb  Sb9  1  0.250000  0.868011  0.776587  1
  Sb  Sb10  1  0.998624  0.170956  0.841359  1
  Sb  Sb11  1  0.250000  0.631989  0.276587  1
  Sb  Sb12  1  0.000000  0.500000  0.500000  1
  Sb  Sb13  1  0.750000  0.131989  0.223413  1
  Sb  Sb14  1  0.501376  0.170956  0.841359  1
  Sb  Sb15  1  0.498624  0.670956  0.658641  1
  Sb  Sb16  1  0.750000  0.368011  0.723413  1
  Sb  Sb17  1  0.000000  0.000000  0.000000  1
  Sb  Sb18  1  0.500000  0.000000  0.000000  1
  Sb  Sb19  1  0.001376  0.829044  0.158641  1
  Sb  Sb20  1  0.998624  0.329044  0.341359  1
  Sb  Sb21  1  0.498624  0.829044  0.158641  1
  Sb  Sb22  1  0.501376  0.329044  0.341359  1
  Sb  Sb23  1  0.500000  0.500000  0.500000  1
  P  P24  1  0.250000  0.753225  0.926427  1
  P  P25  1  0.250000  0.548870  0.130032  1
  P  P26  1  0.750000  0.253225  0.573573  1
  P  P27  1  0.250000  0.746775  0.426427  1
  P  P28  1  0.750000  0.048870  0.369968  1
  P  P29  1  0.750000  0.451130  0.869968  1
  P  P30  1  0.750000  0.246775  0.073573  1
  P  P31  1  0.250000  0.951130  0.630032  1
  O  O32  1  0.750000  0.240217  0.646876  1
  O  O33  1  0.948376  0.020240  0.186643  1
  O  O34  1  0.750000  0.403888  0.347038  1
  O  O35  1  0.546182  0.248619  0.256235  1
  O  O36  1  0.927576  0.165070  0.054724  1
  O  O37  1  0.750000  0.096112  0.847038  1
  O  O38  1  0.051624  0.979760  0.813357  1
  O  O39  1  0.074579  0.862248  0.617953  1
  O  O40  1  0.750000  0.547596  0.469119  1
  O  O41  1  0.750000  0.749801  0.665859  1
  O  O42  1  0.250000  0.612074  0.955654  1
  O  O43  1  0.953818  0.251381  0.756235  1
  O  O44  1  0.448376  0.520240  0.313357  1
  O  O45  1  0.750000  0.918324  0.409008  1
  O  O46  1  0.927576  0.334930  0.554724  1
  O  O47  1  0.452127  0.130986  0.931258  1
  O  O48  1  0.046182  0.751381  0.743765  1
  O  O49  1  0.948376  0.479760  0.686643  1
  O  O50  1  0.047873  0.130986  0.931258  1
  O  O51  1  0.046182  0.748619  0.243765  1
  O  O52  1  0.952127  0.630986  0.568742  1
  O  O53  1  0.074579  0.637752  0.117953  1
  O  O54  1  0.250000  0.418324  0.090992  1
  O  O55  1  0.574579  0.137752  0.382047  1
  O  O56  1  0.546182  0.251381  0.756235  1
  O  O57  1  0.250000  0.887926  0.455654  1
  O  O58  1  0.250000  0.596112  0.652962  1
  O  O59  1  0.750000  0.112074  0.544346  1
  O  O60  1  0.250000  0.903888  0.152962  1
  O  O61  1  0.427576  0.834930  0.945276  1
  O  O62  1  0.750000  0.259783  0.146876  1
  O  O63  1  0.750000  0.750199  0.165859  1
  O  O64  1  0.427576  0.665070  0.445276  1
  O  O65  1  0.453818  0.748619  0.243765  1
  O  O66  1  0.250000  0.759783  0.353124  1
  O  O67  1  0.250000  0.047596  0.030881  1
  O  O68  1  0.425421  0.862248  0.617953  1
  O  O69  1  0.925421  0.137752  0.382047  1
  O  O70  1  0.072424  0.834930  0.945276  1
  O  O71  1  0.551624  0.020240  0.186643  1
  O  O72  1  0.250000  0.501704  0.200775  1
  O  O73  1  0.453818  0.751381  0.743765  1
  O  O74  1  0.750000  0.001704  0.299225  1
  O  O75  1  0.547873  0.869014  0.068742  1
  O  O76  1  0.750000  0.498296  0.799225  1
  O  O77  1  0.750000  0.952404  0.969119  1
  O  O78  1  0.952127  0.869014  0.068742  1
  O  O79  1  0.047873  0.369014  0.431258  1
  O  O80  1  0.750000  0.387926  0.044346  1
  O  O81  1  0.547873  0.630986  0.568742  1
  O  O82  1  0.250000  0.998296  0.700775  1
  O  O83  1  0.425421  0.637752  0.117953  1
  O  O84  1  0.448376  0.979760  0.813357  1
  O  O85  1  0.250000  0.249801  0.834141  1
  O  O86  1  0.925421  0.362248  0.882047  1
  O  O87  1  0.250000  0.250199  0.334141  1
  O  O88  1  0.572424  0.334930  0.554724  1
  O  O89  1  0.551624  0.479760  0.686643  1
  O  O90  1  0.953818  0.248619  0.256235  1
  O  O91  1  0.051624  0.520240  0.313357  1
  O  O92  1  0.072424  0.665070  0.445276  1
  O  O93  1  0.250000  0.081676  0.590992  1
  O  O94  1  0.250000  0.452404  0.530881  1
  O  O95  1  0.572424  0.165070  0.054724  1
  O  O96  1  0.452127  0.369014  0.431258  1
  O  O97  1  0.574579  0.362248  0.882047  1
  O  O98  1  0.750000  0.581676  0.909008  1
  O  O99  1  0.250000  0.740217  0.853124  1
