# generated using pymatgen
data_Sb2(KrF4)5
_symmetry_space_group_name_H-M   'P 1'
_cell_length_a   8.26421066
_cell_length_b   31.79981782
_cell_length_c   8.37953915
_cell_angle_alpha   90.00000000
_cell_angle_beta   111.53332059
_cell_angle_gamma   90.00000000
_symmetry_Int_Tables_number   1
_chemical_formula_structural   Sb2(KrF4)5
_chemical_formula_sum   'Sb8 Kr20 F80'
_cell_volume   2048.44578486
_cell_formula_units_Z   4
loop_
 _symmetry_equiv_pos_site_id
 _symmetry_equiv_pos_as_xyz
  1  'x, y, z'
loop_
 _atom_site_type_symbol
 _atom_site_label
 _atom_site_symmetry_multiplicity
 _atom_site_fract_x
 _atom_site_fract_y
 _atom_site_fract_z
 _atom_site_occupancy
  Sb  Sb0  1  0.789580  0.575798  0.442451  1
  Sb  Sb1  1  0.789580  0.924202  0.942451  1
  Sb  Sb2  1  0.315237  0.824036  0.462156  1
  Sb  Sb3  1  0.684763  0.324036  0.037844  1
  Sb  Sb4  1  0.210420  0.075798  0.057549  1
  Sb  Sb5  1  0.315237  0.675964  0.962156  1
  Sb  Sb6  1  0.684763  0.175964  0.537844  1
  Sb  Sb7  1  0.210420  0.424202  0.557549  1
  Kr  Kr8  1  0.756899  0.780936  0.019404  1
  Kr  Kr9  1  0.243101  0.219064  0.980596  1
  Kr  Kr10  1  0.855729  0.195046  0.094406  1
  Kr  Kr11  1  0.756899  0.719064  0.519404  1
  Kr  Kr12  1  0.240058  0.969351  0.487848  1
  Kr  Kr13  1  0.803873  0.623888  0.955656  1
  Kr  Kr14  1  0.759942  0.469351  0.012152  1
  Kr  Kr15  1  0.240058  0.530649  0.987848  1
  Kr  Kr16  1  0.243101  0.280936  0.480596  1
  Kr  Kr17  1  0.196127  0.376112  0.044344  1
  Kr  Kr18  1  0.855729  0.304954  0.594406  1
  Kr  Kr19  1  0.658959  0.441194  0.395952  1
  Kr  Kr20  1  0.658959  0.058806  0.895952  1
  Kr  Kr21  1  0.144271  0.695046  0.405594  1
  Kr  Kr22  1  0.196127  0.123888  0.544344  1
  Kr  Kr23  1  0.341041  0.558806  0.604048  1
  Kr  Kr24  1  0.803873  0.876112  0.455656  1
  Kr  Kr25  1  0.341041  0.941194  0.104048  1
  Kr  Kr26  1  0.144271  0.804954  0.905594  1
  Kr  Kr27  1  0.759942  0.030649  0.512152  1
  F  F28  1  0.627834  0.782383  0.159738  1
  F  F29  1  0.912196  0.880687  0.873206  1
  F  F30  1  0.467226  0.326981  0.848699  1
  F  F31  1  0.392099  0.635221  0.835286  1
  F  F32  1  0.603563  0.577345  0.223028  1
  F  F33  1  0.407071  0.779453  0.364894  1
  F  F34  1  0.230773  0.716735  0.082371  1
  F  F35  1  0.592929  0.220547  0.635106  1
  F  F36  1  0.398124  0.529404  0.843254  1
  F  F37  1  0.603563  0.922655  0.723028  1
  F  F38  1  0.299547  0.916350  0.893530  1
  F  F39  1  0.396437  0.422655  0.776972  1
  F  F40  1  0.097773  0.223515  0.138193  1
  F  F41  1  0.019694  0.427332  0.339722  1
  F  F42  1  0.355694  0.670723  0.433005  1
  F  F43  1  0.372166  0.217617  0.840262  1
  F  F44  1  0.097773  0.276485  0.638193  1
  F  F45  1  0.355694  0.829277  0.933005  1
  F  F46  1  0.333118  0.467454  0.487115  1
  F  F47  1  0.230773  0.783265  0.582371  1
  F  F48  1  0.098851  0.819206  0.267978  1
  F  F49  1  0.769227  0.216735  0.417629  1
  F  F50  1  0.134568  0.318195  0.980194  1
  F  F51  1  0.396437  0.077345  0.276972  1
  F  F52  1  0.865432  0.818195  0.519806  1
  F  F53  1  0.319328  0.382114  0.466164  1
  F  F54  1  0.769227  0.283265  0.917629  1
  F  F55  1  0.980306  0.572668  0.660278  1
  F  F56  1  0.700453  0.416350  0.606470  1
  F  F57  1  0.901149  0.180794  0.732022  1
  F  F58  1  0.666882  0.532546  0.512885  1
  F  F59  1  0.890585  0.470068  0.873143  1
  F  F60  1  0.532774  0.826981  0.651301  1
  F  F61  1  0.644306  0.329277  0.566995  1
  F  F62  1  0.258698  0.066011  0.609671  1
  F  F63  1  0.087804  0.380687  0.626794  1
  F  F64  1  0.902227  0.723515  0.361807  1
  F  F65  1  0.019694  0.072668  0.839722  1
  F  F66  1  0.134568  0.181805  0.480194  1
  F  F67  1  0.219420  0.868730  0.554375  1
  F  F68  1  0.467226  0.173019  0.348699  1
  F  F69  1  0.666882  0.967454  0.012885  1
  F  F70  1  0.741302  0.566011  0.890329  1
  F  F71  1  0.780580  0.368730  0.945625  1
  F  F72  1  0.219420  0.631270  0.054375  1
  F  F73  1  0.980306  0.927332  0.160278  1
  F  F74  1  0.780580  0.131270  0.445625  1
  F  F75  1  0.398124  0.970596  0.343254  1
  F  F76  1  0.901149  0.319206  0.232022  1
  F  F77  1  0.903634  0.966115  0.855008  1
  F  F78  1  0.741302  0.933989  0.390329  1
  F  F79  1  0.607901  0.135221  0.664714  1
  F  F80  1  0.601876  0.029404  0.656746  1
  F  F81  1  0.644306  0.170723  0.066995  1
  F  F82  1  0.902227  0.776485  0.861807  1
  F  F83  1  0.627834  0.717617  0.659738  1
  F  F84  1  0.087804  0.119313  0.126794  1
  F  F85  1  0.601876  0.470596  0.156746  1
  F  F86  1  0.680672  0.617886  0.533836  1
  F  F87  1  0.319328  0.117886  0.966164  1
  F  F88  1  0.333118  0.032546  0.987115  1
  F  F89  1  0.890585  0.029932  0.373143  1
  F  F90  1  0.109415  0.529932  0.126857  1
  F  F91  1  0.258698  0.433989  0.109671  1
  F  F92  1  0.372166  0.282383  0.340262  1
  F  F93  1  0.096366  0.466115  0.644992  1
  F  F94  1  0.098851  0.680794  0.767978  1
  F  F95  1  0.865432  0.681805  0.019806  1
  F  F96  1  0.607901  0.364779  0.164714  1
  F  F97  1  0.912196  0.619313  0.373206  1
  F  F98  1  0.407071  0.720547  0.864894  1
  F  F99  1  0.532774  0.673019  0.151301  1
  F  F100  1  0.392099  0.864779  0.335286  1
  F  F101  1  0.903634  0.533885  0.355008  1
  F  F102  1  0.109415  0.970068  0.626857  1
  F  F103  1  0.700453  0.083650  0.106470  1
  F  F104  1  0.680672  0.882114  0.033836  1
  F  F105  1  0.299547  0.583650  0.393530  1
  F  F106  1  0.096366  0.033885  0.144992  1
  F  F107  1  0.592929  0.279453  0.135106  1
