# generated using pymatgen
data_Na2Al2B2O7
_symmetry_space_group_name_H-M   'P 1'
_cell_length_a   4.87257089
_cell_length_b   4.87257089
_cell_length_c   15.59450910
_cell_angle_alpha   90.00000000
_cell_angle_beta   90.00000000
_cell_angle_gamma   120.00000000
_symmetry_Int_Tables_number   1
_chemical_formula_structural   Na2Al2B2O7
_chemical_formula_sum   'Na4 Al4 B4 O14'
_cell_volume   320.64071816
_cell_formula_units_Z   2
loop_
 _symmetry_equiv_pos_site_id
 _symmetry_equiv_pos_as_xyz
  1  'x, y, z'
loop_
 _atom_site_type_symbol
 _atom_site_label
 _atom_site_symmetry_multiplicity
 _atom_site_fract_x
 _atom_site_fract_y
 _atom_site_fract_z
 _atom_site_occupancy
  Na  Na0  1  0.000000  0.000000  0.250000  1
  Na  Na1  1  0.000000  0.000000  0.500000  1
  Na  Na2  1  0.000000  0.000000  0.000000  1
  Na  Na3  1  0.000000  0.000000  0.750000  1
  Al  Al4  1  0.333333  0.666667  0.638803  1
  Al  Al5  1  0.666667  0.333333  0.138803  1
  Al  Al6  1  0.333333  0.666667  0.861197  1
  Al  Al7  1  0.666667  0.333333  0.361197  1
  B  B8  1  0.666667  0.333333  0.895881  1
  B  B9  1  0.333333  0.666667  0.395881  1
  B  B10  1  0.333333  0.666667  0.104119  1
  B  B11  1  0.666667  0.333333  0.604119  1
  O  O12  1  0.960701  0.605585  0.895930  1
  O  O13  1  0.394415  0.039299  0.604070  1
  O  O14  1  0.960701  0.355116  0.604070  1
  O  O15  1  0.355116  0.394415  0.395930  1
  O  O16  1  0.039299  0.644884  0.395930  1
  O  O17  1  0.644884  0.039299  0.895930  1
  O  O18  1  0.605585  0.644884  0.104070  1
  O  O19  1  0.039299  0.394415  0.104070  1
  O  O20  1  0.355116  0.960701  0.104070  1
  O  O21  1  0.644884  0.605585  0.604070  1
  O  O22  1  0.394415  0.355116  0.895930  1
  O  O23  1  0.605585  0.960701  0.395930  1
  O  O24  1  0.666667  0.333333  0.250000  1
  O  O25  1  0.333333  0.666667  0.750000  1
