# generated using pymatgen
data_SrCa2WN4
_symmetry_space_group_name_H-M   'P 1'
_cell_length_a   9.35678343
_cell_length_b   10.22367424
_cell_length_c   11.40710578
_cell_angle_alpha   90.00000000
_cell_angle_beta   90.00000000
_cell_angle_gamma   90.00000000
_symmetry_Int_Tables_number   1
_chemical_formula_structural   SrCa2WN4
_chemical_formula_sum   'Sr8 Ca16 W8 N32'
_cell_volume   1091.21178917
_cell_formula_units_Z   8
loop_
 _symmetry_equiv_pos_site_id
 _symmetry_equiv_pos_as_xyz
  1  'x, y, z'
loop_
 _atom_site_type_symbol
 _atom_site_label
 _atom_site_symmetry_multiplicity
 _atom_site_fract_x
 _atom_site_fract_y
 _atom_site_fract_z
 _atom_site_occupancy
  Sr  Sr0  1  0.811636  0.220756  0.118015  1
  Sr  Sr1  1  0.188364  0.279244  0.618015  1
  Sr  Sr2  1  0.311636  0.779244  0.381985  1
  Sr  Sr3  1  0.688364  0.220756  0.618015  1
  Sr  Sr4  1  0.188364  0.779244  0.881985  1
  Sr  Sr5  1  0.811636  0.720756  0.381985  1
  Sr  Sr6  1  0.311636  0.279244  0.118015  1
  Sr  Sr7  1  0.688364  0.720756  0.881985  1
  Ca  Ca8  1  0.368414  0.966415  0.639348  1
  Ca  Ca9  1  0.028123  0.378377  0.898164  1
  Ca  Ca10  1  0.971877  0.621623  0.101836  1
  Ca  Ca11  1  0.528123  0.621623  0.601836  1
  Ca  Ca12  1  0.368414  0.466415  0.860652  1
  Ca  Ca13  1  0.131586  0.466415  0.360652  1
  Ca  Ca14  1  0.131586  0.966415  0.139348  1
  Ca  Ca15  1  0.631586  0.533585  0.139348  1
  Ca  Ca16  1  0.868414  0.033585  0.860652  1
  Ca  Ca17  1  0.631586  0.033585  0.360652  1
  Ca  Ca18  1  0.471877  0.878377  0.101836  1
  Ca  Ca19  1  0.528123  0.121623  0.898164  1
  Ca  Ca20  1  0.971877  0.121623  0.398164  1
  Ca  Ca21  1  0.028123  0.878377  0.601836  1
  Ca  Ca22  1  0.471877  0.378377  0.398164  1
  Ca  Ca23  1  0.868414  0.533585  0.639348  1
  W  W24  1  0.808517  0.898537  0.112094  1
  W  W25  1  0.191483  0.101463  0.887906  1
  W  W26  1  0.691483  0.398537  0.887906  1
  W  W27  1  0.808517  0.398537  0.387906  1
  W  W28  1  0.191483  0.601463  0.612094  1
  W  W29  1  0.308517  0.601463  0.112094  1
  W  W30  1  0.691483  0.898537  0.612094  1
  W  W31  1  0.308517  0.101463  0.387906  1
  N  N32  1  0.605044  0.000583  0.730295  1
  N  N33  1  0.206327  0.243120  0.324685  1
  N  N34  1  0.293673  0.243120  0.824685  1
  N  N35  1  0.817390  0.506674  0.973750  1
  N  N36  1  0.894956  0.500583  0.269705  1
  N  N37  1  0.447138  0.162159  0.495132  1
  N  N38  1  0.894956  0.000583  0.230295  1
  N  N39  1  0.105044  0.999417  0.769705  1
  N  N40  1  0.817390  0.006674  0.526250  1
  N  N41  1  0.552862  0.837841  0.504868  1
  N  N42  1  0.293673  0.743120  0.675315  1
  N  N43  1  0.947138  0.837841  0.004868  1
  N  N44  1  0.317390  0.493326  0.526250  1
  N  N45  1  0.947138  0.337841  0.495132  1
  N  N46  1  0.706327  0.256880  0.324685  1
  N  N47  1  0.317390  0.993326  0.973750  1
  N  N48  1  0.682610  0.006674  0.026250  1
  N  N49  1  0.182610  0.493326  0.026250  1
  N  N50  1  0.394956  0.999417  0.269705  1
  N  N51  1  0.605044  0.500583  0.769705  1
  N  N52  1  0.706327  0.756880  0.175315  1
  N  N53  1  0.052862  0.662159  0.504868  1
  N  N54  1  0.105044  0.499417  0.730295  1
  N  N55  1  0.447138  0.662159  0.004868  1
  N  N56  1  0.793673  0.256880  0.824685  1
  N  N57  1  0.394956  0.499417  0.230295  1
  N  N58  1  0.682610  0.506674  0.473750  1
  N  N59  1  0.552862  0.337841  0.995132  1
  N  N60  1  0.206327  0.743120  0.175315  1
  N  N61  1  0.052862  0.162159  0.995132  1
  N  N62  1  0.182610  0.993326  0.473750  1
  N  N63  1  0.793673  0.756880  0.675315  1
