# generated using pymatgen
data_SiO2
_symmetry_space_group_name_H-M   'P 1'
_cell_length_a   13.31919497
_cell_length_b   13.31919497
_cell_length_c   13.31919497
_cell_angle_alpha   142.94507093
_cell_angle_beta   113.61257324
_cell_angle_gamma   78.54441196
_symmetry_Int_Tables_number   1
_chemical_formula_structural   SiO2
_chemical_formula_sum   'Si24 O48'
_cell_volume   1272.84972649
_cell_formula_units_Z   24
loop_
 _symmetry_equiv_pos_site_id
 _symmetry_equiv_pos_as_xyz
  1  'x, y, z'
loop_
 _atom_site_type_symbol
 _atom_site_label
 _atom_site_symmetry_multiplicity
 _atom_site_fract_x
 _atom_site_fract_y
 _atom_site_fract_z
 _atom_site_occupancy
  Si  Si0  1  0.874318  0.626371  0.120950  1
  Si  Si1  1  0.268170  0.633826  0.757057  1
  Si  Si2  1  0.737879  0.169645  0.431766  1
  Si  Si3  1  0.120446  0.557004  0.436559  1
  Si  Si4  1  0.494580  0.373629  0.247948  1
  Si  Si5  1  0.874318  0.253368  0.747948  1
  Si  Si6  1  0.262121  0.193887  0.931766  1
  Si  Si7  1  0.879554  0.816113  0.936559  1
  Si  Si8  1  0.876769  0.633826  0.365656  1
  Si  Si9  1  0.876769  0.011113  0.742943  1
  Si  Si10  1  0.737879  0.806113  0.068234  1
  Si  Si11  1  0.125682  0.373629  0.879050  1
  Si  Si12  1  0.731830  0.988887  0.865656  1
  Si  Si13  1  0.879554  0.442996  0.563441  1
  Si  Si14  1  0.125682  0.746632  0.252052  1
  Si  Si15  1  0.268170  0.011113  0.134344  1
  Si  Si16  1  0.123231  0.366174  0.634344  1
  Si  Si17  1  0.120446  0.183887  0.063441  1
  Si  Si18  1  0.505420  0.253368  0.379050  1
  Si  Si19  1  0.505420  0.626371  0.752052  1
  Si  Si20  1  0.262121  0.830355  0.568234  1
  Si  Si21  1  0.731830  0.366174  0.242943  1
  Si  Si22  1  0.123231  0.988887  0.257057  1
  Si  Si23  1  0.494580  0.746632  0.620950  1
  O  O24  1  0.216638  0.844098  0.447382  1
  O  O25  1  0.783362  0.155902  0.552618  1
  O  O26  1  0.218815  0.500000  0.718815  1
  O  O27  1  0.857321  0.150941  0.764725  1
  O  O28  1  0.763620  0.013620  0.250000  1
  O  O29  1  0.898563  0.648563  0.750000  1
  O  O30  1  0.999460  0.931736  0.111497  1
  O  O31  1  0.396716  0.269255  0.052618  1
  O  O32  1  0.134860  0.172265  0.462596  1
  O  O33  1  0.142679  0.407404  0.793619  1
  O  O34  1  0.000540  0.068264  0.888503  1
  O  O35  1  0.709669  0.172265  0.037404  1
  O  O36  1  0.854939  0.445119  0.909820  1
  O  O37  1  0.216638  0.269255  0.872539  1
  O  O38  1  0.613784  0.407404  0.264725  1
  O  O39  1  0.535299  0.445119  0.590180  1
  O  O40  1  0.396716  0.844098  0.627461  1
  O  O41  1  0.781185  0.500000  0.281185  1
  O  O42  1  0.218815  0.000000  0.218815  1
  O  O43  1  0.613784  0.849059  0.706381  1
  O  O44  1  0.000540  0.612036  0.432276  1
  O  O45  1  0.783362  0.730745  0.127461  1
  O  O46  1  0.199239  0.650905  0.451666  1
  O  O47  1  0.000000  0.260757  0.760757  1
  O  O48  1  0.603284  0.730745  0.947382  1
  O  O49  1  0.145061  0.554881  0.090180  1
  O  O50  1  0.101437  0.351437  0.250000  1
  O  O51  1  0.500000  0.739243  0.739243  1
  O  O52  1  0.500000  0.260757  0.260757  1
  O  O53  1  0.800761  0.349095  0.548334  1
  O  O54  1  0.199239  0.247572  0.048334  1
  O  O55  1  0.603284  0.155902  0.372539  1
  O  O56  1  0.857321  0.592596  0.206381  1
  O  O57  1  0.820239  0.931736  0.932276  1
  O  O58  1  0.000000  0.739243  0.239243  1
  O  O59  1  0.865140  0.827735  0.537404  1
  O  O60  1  0.290331  0.827735  0.962596  1
  O  O61  1  0.464701  0.554881  0.409820  1
  O  O62  1  0.236380  0.986380  0.750000  1
  O  O63  1  0.142679  0.849059  0.235275  1
  O  O64  1  0.179761  0.068264  0.067724  1
  O  O65  1  0.386216  0.592596  0.735275  1
  O  O66  1  0.386216  0.150941  0.293619  1
  O  O67  1  0.781185  1.000000  0.781185  1
  O  O68  1  0.800761  0.752428  0.951666  1
  O  O69  1  0.820239  0.387964  0.388503  1
  O  O70  1  0.999460  0.387964  0.567724  1
  O  O71  1  0.179761  0.612036  0.611497  1
