# generated using pymatgen
data_Na26In4O19
_symmetry_space_group_name_H-M   'P 1'
_cell_length_a   12.48743014
_cell_length_b   12.48743014
_cell_length_c   12.48168524
_cell_angle_alpha   70.42894390
_cell_angle_beta   109.57105610
_cell_angle_gamma   71.02655194
_symmetry_Int_Tables_number   1
_chemical_formula_structural   Na26In4O19
_chemical_formula_sum   'Na52 In8 O38'
_cell_volume   1503.74156319
_cell_formula_units_Z   2
loop_
 _symmetry_equiv_pos_site_id
 _symmetry_equiv_pos_as_xyz
  1  'x, y, z'
loop_
 _atom_site_type_symbol
 _atom_site_label
 _atom_site_symmetry_multiplicity
 _atom_site_fract_x
 _atom_site_fract_y
 _atom_site_fract_z
 _atom_site_occupancy
  Na  Na0  1  0.185634  0.443076  0.142171  1
  Na  Na1  1  0.440639  0.318328  0.351310  1
  Na  Na2  1  0.147262  0.409603  0.825966  1
  Na  Na3  1  0.321084  0.358269  0.588963  1
  Na  Na4  1  0.734897  0.445640  0.408051  1
  Na  Na5  1  0.868872  0.382785  0.242833  1
  Na  Na6  1  0.410434  0.145532  0.541841  1
  Na  Na7  1  0.355780  0.457431  0.913654  1
  Na  Na8  1  0.638240  0.316661  0.554036  1
  Na  Na9  1  0.895637  0.177600  0.481589  1
  Na  Na10  1  0.085108  0.348970  0.460922  1
  Na  Na11  1  0.949826  0.397086  0.630684  1
  Na  Na12  1  0.554360  0.265103  0.908051  1
  Na  Na13  1  0.816086  0.318602  0.771283  1
  Na  Na14  1  0.170743  0.240974  0.315269  1
  Na  Na15  1  0.380302  0.244913  0.125018  1
  Na  Na16  1  0.617215  0.131128  0.742833  1
  Na  Na17  1  0.683338  0.361760  0.054036  1
  Na  Na18  1  0.847212  0.052948  0.698617  1
  Na  Na19  1  0.822400  0.104363  0.981589  1
  Na  Na20  1  0.602914  0.050174  0.130684  1
  Na  Na21  1  0.651030  0.914892  0.960922  1
  Na  Na22  1  0.759026  0.829257  0.815269  1
  Na  Na23  1  0.681398  0.183914  0.271283  1
  Na  Na24  1  0.044929  0.099215  0.836319  1
  Na  Na25  1  0.055991  0.859642  0.683645  1
  Na  Na26  1  0.947052  0.152788  0.198617  1
  Na  Na27  1  0.415769  0.942470  0.743968  1
  Na  Na28  1  0.238804  0.087449  0.061549  1
  Na  Na29  1  0.246345  0.886414  0.865348  1
  Na  Na30  1  0.900785  0.955071  0.336319  1
  Na  Na31  1  0.140358  0.944009  0.183645  1
  Na  Na32  1  0.186444  0.649544  0.943771  1
  Na  Na33  1  0.374227  0.039099  0.317619  1
  Na  Na34  1  0.456647  0.687394  0.870002  1
  Na  Na35  1  0.440524  0.870156  0.089490  1
  Na  Na36  1  0.057530  0.584231  0.243968  1
  Na  Na37  1  0.912551  0.761196  0.561549  1
  Na  Na38  1  0.314931  0.741348  0.167703  1
  Na  Na39  1  0.113586  0.753655  0.365348  1
  Na  Na40  1  0.350456  0.813556  0.443771  1
  Na  Na41  1  0.641731  0.678916  0.088963  1
  Na  Na42  1  0.590397  0.852738  0.325966  1
  Na  Na43  1  0.960901  0.625773  0.817619  1
  Na  Na44  1  0.312606  0.543353  0.370002  1
  Na  Na45  1  0.129844  0.559476  0.589490  1
  Na  Na46  1  0.258652  0.685069  0.667703  1
  Na  Na47  1  0.854468  0.589566  0.041841  1
  Na  Na48  1  0.542569  0.644220  0.413654  1
  Na  Na49  1  0.556924  0.814366  0.642171  1
  Na  Na50  1  0.755087  0.619698  0.625018  1
  Na  Na51  1  0.681672  0.559361  0.851310  1
  In  In52  1  0.497436  0.502562  0.179430  1
  In  In53  1  0.497438  0.502564  0.679430  1
  In  In54  1  0.181684  0.998824  0.498539  1
  In  In55  1  0.000737  0.316249  0.999735  1
  In  In56  1  0.314244  0.179870  0.817561  1
  In  In57  1  0.683751  0.999263  0.499735  1
  In  In58  1  0.001176  0.818316  0.998539  1
  In  In59  1  0.820130  0.685756  0.317561  1
  O  O60  1  0.366320  0.437565  0.115201  1
  O  O61  1  0.251063  0.373311  0.376598  1
  O  O62  1  0.496666  0.502581  0.349665  1
  O  O63  1  0.691458  0.374916  0.245348  1
  O  O64  1  0.497419  0.503334  0.849665  1
  O  O65  1  0.609072  0.135270  0.554808  1
  O  O66  1  0.625084  0.308542  0.745348  1
  O  O67  1  0.387715  0.247252  0.945290  1
  O  O68  1  0.446070  0.114468  0.753916  1
  O  O69  1  0.857391  0.255863  0.623673  1
  O  O70  1  0.043731  0.194457  0.408287  1
  O  O71  1  0.942317  0.443338  0.805927  1
  O  O72  1  0.153398  0.358024  0.652089  1
  O  O73  1  0.864730  0.390928  0.054808  1
  O  O74  1  0.744137  0.142609  0.123673  1
  O  O75  1  0.556662  0.057683  0.305927  1
  O  O76  1  0.805543  0.956269  0.908287  1
  O  O77  1  0.353731  0.998920  0.502048  1
  O  O78  1  0.999119  0.147397  0.997077  1
  O  O79  1  0.065144  0.884149  0.866024  1
  O  O80  1  0.250458  0.864019  0.692439  1
  O  O81  1  0.195646  0.250449  0.133760  1
  O  O82  1  0.261008  0.048013  0.902245  1
  O  O83  1  0.001080  0.646269  0.002048  1
  O  O84  1  0.852603  0.000881  0.497077  1
  O  O85  1  0.115851  0.934856  0.366024  1
  O  O86  1  0.749551  0.804354  0.633760  1
  O  O87  1  0.135981  0.749542  0.192439  1
  O  O88  1  0.951987  0.738992  0.402245  1
  O  O89  1  0.626689  0.748937  0.876598  1
  O  O90  1  0.374908  0.872611  0.254119  1
  O  O91  1  0.431689  0.697114  0.048199  1
  O  O92  1  0.641976  0.846602  0.152089  1
  O  O93  1  0.127389  0.625092  0.754119  1
  O  O94  1  0.302886  0.568311  0.548199  1
  O  O95  1  0.562435  0.633680  0.615201  1
  O  O96  1  0.752748  0.612285  0.445290  1
  O  O97  1  0.885532  0.553930  0.253916  1
