# generated using pymatgen
data_HgI2
_symmetry_space_group_name_H-M   'P 1'
_cell_length_a   9.14944071
_cell_length_b   9.14944071
_cell_length_c   13.24801754
_cell_angle_alpha   90.00000000
_cell_angle_beta   90.00000000
_cell_angle_gamma   90.00000000
_symmetry_Int_Tables_number   1
_chemical_formula_structural   HgI2
_chemical_formula_sum   'Hg8 I16'
_cell_volume   1109.02155908
_cell_formula_units_Z   8
loop_
 _symmetry_equiv_pos_site_id
 _symmetry_equiv_pos_as_xyz
  1  'x, y, z'
loop_
 _atom_site_type_symbol
 _atom_site_label
 _atom_site_symmetry_multiplicity
 _atom_site_fract_x
 _atom_site_fract_y
 _atom_site_fract_z
 _atom_site_occupancy
  Hg  Hg0  1  0.251863  0.500000  0.877304  1
  Hg  Hg1  1  0.500000  0.748137  0.122696  1
  Hg  Hg2  1  0.751863  0.000000  0.622696  1
  Hg  Hg3  1  0.500000  0.251863  0.122696  1
  Hg  Hg4  1  0.748137  0.500000  0.877304  1
  Hg  Hg5  1  0.000000  0.751863  0.377304  1
  Hg  Hg6  1  0.000000  0.248137  0.377304  1
  Hg  Hg7  1  0.248137  0.000000  0.622696  1
  I  I8  1  0.000000  0.000000  0.755048  1
  I  I9  1  0.500000  0.000000  0.252497  1
  I  I10  1  0.242023  0.757977  0.000000  1
  I  I11  1  0.742023  0.257977  0.500000  1
  I  I12  1  0.000000  0.000000  0.244952  1
  I  I13  1  0.257977  0.257977  0.500000  1
  I  I14  1  0.257977  0.742023  0.500000  1
  I  I15  1  0.500000  0.000000  0.752497  1
  I  I16  1  0.500000  0.500000  0.255048  1
  I  I17  1  0.742023  0.742023  0.500000  1
  I  I18  1  0.500000  0.500000  0.744952  1
  I  I19  1  0.000000  0.500000  0.247503  1
  I  I20  1  0.242023  0.242023  0.000000  1
  I  I21  1  0.757977  0.757977  0.000000  1
  I  I22  1  0.757977  0.242023  0.000000  1
  I  I23  1  0.000000  0.500000  0.747503  1
