# generated using pymatgen
data_Ba3BiN
_symmetry_space_group_name_H-M   'P 1'
_cell_length_a   7.78049677
_cell_length_b   7.78049677
_cell_length_c   6.80394367
_cell_angle_alpha   90.00000000
_cell_angle_beta   90.00000000
_cell_angle_gamma   120.00000000
_symmetry_Int_Tables_number   1
_chemical_formula_structural   Ba3BiN
_chemical_formula_sum   'Ba6 Bi2 N2'
_cell_volume   356.70237007
_cell_formula_units_Z   2
loop_
 _symmetry_equiv_pos_site_id
 _symmetry_equiv_pos_as_xyz
  1  'x, y, z'
loop_
 _atom_site_type_symbol
 _atom_site_label
 _atom_site_symmetry_multiplicity
 _atom_site_fract_x
 _atom_site_fract_y
 _atom_site_fract_z
 _atom_site_occupancy
  Ba  Ba0  1  0.157285  0.842715  0.250000  1
  Ba  Ba1  1  0.842715  0.685429  0.750000  1
  Ba  Ba2  1  0.314571  0.157285  0.750000  1
  Ba  Ba3  1  0.842715  0.157285  0.750000  1
  Ba  Ba4  1  0.685429  0.842715  0.250000  1
  Ba  Ba5  1  0.157285  0.314571  0.250000  1
  Bi  Bi6  1  0.333333  0.666667  0.750000  1
  Bi  Bi7  1  0.666667  0.333333  0.250000  1
  N  N8  1  0.000000  0.000000  0.000000  1
  N  N9  1  0.000000  0.000000  0.500000  1
