# generated using pymatgen
data_SrZr(PO4)2
_symmetry_space_group_name_H-M   'P 1'
_cell_length_a   5.19191194
_cell_length_b   7.85190002
_cell_length_c   8.02748175
_cell_angle_alpha   92.29731976
_cell_angle_beta   95.98960134
_cell_angle_gamma   90.33027177
_symmetry_Int_Tables_number   1
_chemical_formula_structural   SrZr(PO4)2
_chemical_formula_sum   'Sr2 Zr2 P4 O16'
_cell_volume   325.18692731
_cell_formula_units_Z   2
loop_
 _symmetry_equiv_pos_site_id
 _symmetry_equiv_pos_as_xyz
  1  'x, y, z'
loop_
 _atom_site_type_symbol
 _atom_site_label
 _atom_site_symmetry_multiplicity
 _atom_site_fract_x
 _atom_site_fract_y
 _atom_site_fract_z
 _atom_site_occupancy
  Sr  Sr0  1  0.698817  0.522902  0.768072  1
  Sr  Sr1  1  0.301183  0.477098  0.231928  1
  Zr  Zr2  1  0.338562  0.974065  0.277004  1
  Zr  Zr3  1  0.661438  0.025935  0.722996  1
  P  P4  1  0.200178  0.789098  0.876953  1
  P  P5  1  0.216034  0.249994  0.627750  1
  P  P6  1  0.783966  0.750006  0.372250  1
  P  P7  1  0.799822  0.210902  0.123047  1
  O  O8  1  0.689020  0.915882  0.467006  1
  O  O9  1  0.310980  0.084118  0.532994  1
  O  O10  1  0.951831  0.832272  0.761469  1
  O  O11  1  0.048169  0.167728  0.238531  1
  O  O12  1  0.228264  0.917050  0.027968  1
  O  O13  1  0.771736  0.082950  0.972032  1
  O  O14  1  0.810223  0.397672  0.076496  1
  O  O15  1  0.069173  0.774801  0.333789  1
  O  O16  1  0.588678  0.759547  0.209658  1
  O  O17  1  0.411322  0.240453  0.790342  1
  O  O18  1  0.738005  0.587022  0.458904  1
  O  O19  1  0.930827  0.225199  0.666211  1
  O  O20  1  0.561841  0.186126  0.225180  1
  O  O21  1  0.261995  0.412978  0.541096  1
  O  O22  1  0.189777  0.602328  0.923504  1
  O  O23  1  0.438159  0.813874  0.774820  1
