# generated using pymatgen
data_Cs3KRe6C6(S4N3)2
_symmetry_space_group_name_H-M   'P 1'
_cell_length_a   15.65419822
_cell_length_b   15.65419822
_cell_length_c   15.65419822
_cell_angle_alpha   109.47122063
_cell_angle_beta   109.47122063
_cell_angle_gamma   109.47122063
_symmetry_Int_Tables_number   1
_chemical_formula_structural   Cs3KRe6C6(S4N3)2
_chemical_formula_sum   'Cs12 K4 Re24 C24 S32 N24'
_cell_volume   2953.04860409
_cell_formula_units_Z   4
loop_
 _symmetry_equiv_pos_site_id
 _symmetry_equiv_pos_as_xyz
  1  'x, y, z'
loop_
 _atom_site_type_symbol
 _atom_site_label
 _atom_site_symmetry_multiplicity
 _atom_site_fract_x
 _atom_site_fract_y
 _atom_site_fract_z
 _atom_site_occupancy
  Cs  Cs0  1  0.750000  0.448533  0.698533  1
  Cs  Cs1  1  0.301467  0.250000  0.551467  1
  Cs  Cs2  1  0.801467  0.250000  0.051467  1
  Cs  Cs3  1  0.698533  0.750000  0.448533  1
  Cs  Cs4  1  0.750000  0.948533  0.198533  1
  Cs  Cs5  1  0.250000  0.551467  0.301467  1
  Cs  Cs6  1  0.198533  0.750000  0.948533  1
  Cs  Cs7  1  0.551467  0.301467  0.250000  1
  Cs  Cs8  1  0.250000  0.051467  0.801467  1
  Cs  Cs9  1  0.948533  0.198533  0.750000  1
  Cs  Cs10  1  0.051467  0.801467  0.250000  1
  Cs  Cs11  1  0.448533  0.698533  0.750000  1
  K  K12  1  0.500000  0.500000  0.500000  1
  K  K13  1  0.000000  0.000000  0.500000  1
  K  K14  1  0.500000  1.000000  1.000000  1
  K  K15  1  0.000000  0.500000  0.000000  1
  Re  Re16  1  0.007086  0.537847  0.400406  1
  Re  Re17  1  0.030761  0.137441  0.037847  1
  Re  Re18  1  0.900406  0.362559  0.393320  1
  Re  Re19  1  0.637441  0.606680  0.099594  1
  Re  Re20  1  0.992914  0.462153  0.599594  1
  Re  Re21  1  0.492914  0.893320  0.530761  1
  Re  Re22  1  0.099594  0.637441  0.606680  1
  Re  Re23  1  0.969239  0.862559  0.962153  1
  Re  Re24  1  0.400406  0.007086  0.537847  1
  Re  Re25  1  0.037847  0.030761  0.137441  1
  Re  Re26  1  0.469239  0.507086  0.106680  1
  Re  Re27  1  0.893320  0.530761  0.492914  1
  Re  Re28  1  0.137441  0.037847  0.030761  1
  Re  Re29  1  0.606680  0.099594  0.637441  1
  Re  Re30  1  0.393320  0.900406  0.362559  1
  Re  Re31  1  0.362559  0.393320  0.900406  1
  Re  Re32  1  0.462153  0.599594  0.992914  1
  Re  Re33  1  0.862559  0.962153  0.969239  1
  Re  Re34  1  0.599594  0.992914  0.462153  1
  Re  Re35  1  0.507086  0.106680  0.469239  1
  Re  Re36  1  0.962153  0.969239  0.862559  1
  Re  Re37  1  0.530761  0.492914  0.893320  1
  Re  Re38  1  0.106680  0.469239  0.507086  1
  Re  Re39  1  0.537847  0.400406  0.007086  1
  C  C40  1  0.942463  0.712123  0.932567  1
  C  C41  1  0.442463  0.509897  0.230340  1
  C  C42  1  0.009897  0.567433  0.279556  1
  C  C43  1  0.730340  0.220444  0.787877  1
  C  C44  1  0.230340  0.442463  0.509897  1
  C  C45  1  0.279556  0.009897  0.567433  1
  C  C46  1  0.269660  0.779556  0.212123  1
  C  C47  1  0.287877  0.067433  0.057537  1
  C  C48  1  0.769660  0.557537  0.490103  1
  C  C49  1  0.432567  0.720444  0.990103  1
  C  C50  1  0.720444  0.990103  0.432567  1
  C  C51  1  0.712123  0.932567  0.942463  1
  C  C52  1  0.557537  0.490103  0.769660  1
  C  C53  1  0.490103  0.769660  0.557537  1
  C  C54  1  0.990103  0.432567  0.720444  1
  C  C55  1  0.212123  0.269660  0.779556  1
  C  C56  1  0.932567  0.942463  0.712123  1
  C  C57  1  0.779556  0.212123  0.269660  1
  C  C58  1  0.509897  0.230340  0.442463  1
  C  C59  1  0.220444  0.787877  0.730340  1
  C  C60  1  0.567433  0.279556  0.009897  1
  C  C61  1  0.787877  0.730340  0.220444  1
  C  C62  1  0.067433  0.057537  0.287877  1
  C  C63  1  0.057537  0.287877  0.067433  1
  S  S64  1  0.500000  1.000000  0.310204  1
  S  S65  1  0.681777  0.986188  0.619904  1
  S  S66  1  0.619904  0.681777  0.986188  1
  S  S67  1  0.438126  0.304410  0.818223  1
  S  S68  1  0.880096  0.866284  0.061874  1
  S  S69  1  0.938126  0.119904  0.133716  1
  S  S70  1  0.633716  0.513812  0.195590  1
  S  S71  1  0.366284  0.486188  0.804410  1
  S  S72  1  0.561874  0.695590  0.181777  1
  S  S73  1  0.818223  0.438126  0.304410  1
  S  S74  1  0.500000  1.000000  0.689796  1
  S  S75  1  0.689796  0.500000  0.000000  1
  S  S76  1  0.189796  0.189796  0.189796  1
  S  S77  1  0.304410  0.818223  0.438126  1
  S  S78  1  0.195590  0.633716  0.513812  1
  S  S79  1  0.986188  0.619904  0.681777  1
  S  S80  1  0.866284  0.061874  0.880096  1
  S  S81  1  0.804410  0.366284  0.486188  1
  S  S82  1  0.061874  0.880096  0.866284  1
  S  S83  1  0.310204  0.500000  0.000000  1
  S  S84  1  0.181777  0.561874  0.695590  1
  S  S85  1  0.133716  0.938126  0.119904  1
  S  S86  1  1.000000  0.310204  0.500000  1
  S  S87  1  0.695590  0.181777  0.561874  1
  S  S88  1  0.380096  0.318223  0.013812  1
  S  S89  1  1.000000  0.689796  0.500000  1
  S  S90  1  0.486188  0.804410  0.366284  1
  S  S91  1  0.119904  0.133716  0.938126  1
  S  S92  1  0.013812  0.380096  0.318223  1
  S  S93  1  0.513812  0.195590  0.633716  1
  S  S94  1  0.810204  0.810204  0.810204  1
  S  S95  1  0.318223  0.013812  0.380096  1
  N  N96  1  0.934259  0.631872  0.924711  1
  N  N97  1  0.075289  0.065741  0.368128  1
  N  N98  1  0.009549  0.575289  0.207161  1
  N  N99  1  0.424711  0.792839  0.990451  1
  N  N100  1  0.990451  0.424711  0.792839  1
  N  N101  1  0.924711  0.934259  0.631872  1
  N  N102  1  0.707161  0.131872  0.197613  1
  N  N103  1  0.434259  0.509549  0.302387  1
  N  N104  1  0.697613  0.565741  0.490451  1
  N  N105  1  0.065741  0.368128  0.075289  1
  N  N106  1  0.292839  0.868128  0.802387  1
  N  N107  1  0.802387  0.292839  0.868128  1
  N  N108  1  0.565741  0.490451  0.697613  1
  N  N109  1  0.631872  0.924711  0.934259  1
  N  N110  1  0.868128  0.802387  0.292839  1
  N  N111  1  0.490451  0.697613  0.565741  1
  N  N112  1  0.302387  0.434259  0.509549  1
  N  N113  1  0.575289  0.207161  0.009549  1
  N  N114  1  0.368128  0.075289  0.065741  1
  N  N115  1  0.792839  0.990451  0.424711  1
  N  N116  1  0.197613  0.707161  0.131872  1
  N  N117  1  0.131872  0.197613  0.707161  1
  N  N118  1  0.509549  0.302387  0.434259  1
  N  N119  1  0.207161  0.009549  0.575289  1
