# generated using pymatgen
data_Na4Ca(PO3)6
_symmetry_space_group_name_H-M   'P 1'
_cell_length_a   7.78123884
_cell_length_b   7.78123884
_cell_length_c   14.46879875
_cell_angle_alpha   86.30387730
_cell_angle_beta   93.69612270
_cell_angle_gamma   117.15807813
_symmetry_Int_Tables_number   1
_chemical_formula_structural   Na4Ca(PO3)6
_chemical_formula_sum   'Na8 Ca2 P12 O36'
_cell_volume   777.24067200
_cell_formula_units_Z   2
loop_
 _symmetry_equiv_pos_site_id
 _symmetry_equiv_pos_as_xyz
  1  'x, y, z'
loop_
 _atom_site_type_symbol
 _atom_site_label
 _atom_site_symmetry_multiplicity
 _atom_site_fract_x
 _atom_site_fract_y
 _atom_site_fract_z
 _atom_site_occupancy
  Na  Na0  1  0.214943  0.539295  0.545416  1
  Na  Na1  1  0.539295  0.214943  0.954584  1
  Na  Na2  1  0.785057  0.460705  0.454584  1
  Na  Na3  1  0.460705  0.785057  0.045416  1
  Na  Na4  1  0.708831  0.040890  0.583427  1
  Na  Na5  1  0.040890  0.708831  0.916573  1
  Na  Na6  1  0.291169  0.959110  0.416573  1
  Na  Na7  1  0.959110  0.291169  0.083427  1
  Ca  Ca8  1  0.377562  0.377562  0.250000  1
  Ca  Ca9  1  0.622438  0.622438  0.750000  1
  P  P10  1  0.958327  0.144455  0.384882  1
  P  P11  1  0.144455  0.958327  0.115118  1
  P  P12  1  0.041673  0.855545  0.615118  1
  P  P13  1  0.855545  0.041673  0.884882  1
  P  P14  1  0.634074  0.089063  0.252480  1
  P  P15  1  0.089063  0.634074  0.247520  1
  P  P16  1  0.365926  0.910937  0.747520  1
  P  P17  1  0.910937  0.365926  0.752480  1
  P  P18  1  0.605081  0.779027  0.388769  1
  P  P19  1  0.779027  0.605081  0.111231  1
  P  P20  1  0.394919  0.220973  0.611231  1
  P  P21  1  0.220973  0.394919  0.888769  1
  O  O22  1  0.160998  0.186696  0.365343  1
  O  O23  1  0.186696  0.160998  0.134657  1
  O  O24  1  0.839002  0.813304  0.634657  1
  O  O25  1  0.813304  0.839002  0.865343  1
  O  O26  1  0.921325  0.241393  0.462011  1
  O  O27  1  0.241393  0.921325  0.037989  1
  O  O28  1  0.078675  0.758607  0.537989  1
  O  O29  1  0.758607  0.078675  0.962011  1
  O  O30  1  0.837928  0.910400  0.400151  1
  O  O31  1  0.910400  0.837928  0.099849  1
  O  O32  1  0.162072  0.089600  0.599849  1
  O  O33  1  0.089600  0.162072  0.900151  1
  O  O34  1  0.860355  0.179731  0.287602  1
  O  O35  1  0.179731  0.860355  0.212398  1
  O  O36  1  0.139645  0.820269  0.712398  1
  O  O37  1  0.820269  0.139645  0.787602  1
  O  O38  1  0.534442  0.181639  0.301946  1
  O  O39  1  0.181639  0.534442  0.198054  1
  O  O40  1  0.465558  0.818361  0.698054  1
  O  O41  1  0.818361  0.465558  0.801946  1
  O  O42  1  0.630021  0.092967  0.149254  1
  O  O43  1  0.092967  0.630021  0.350746  1
  O  O44  1  0.369979  0.907033  0.850746  1
  O  O45  1  0.907033  0.369979  0.649254  1
  O  O46  1  0.555984  0.865300  0.290668  1
  O  O47  1  0.865300  0.555984  0.209332  1
  O  O48  1  0.444016  0.134700  0.709332  1
  O  O49  1  0.134700  0.444016  0.790668  1
  O  O50  1  0.572335  0.577821  0.371601  1
  O  O51  1  0.577821  0.572335  0.128399  1
  O  O52  1  0.427665  0.422179  0.628399  1
  O  O53  1  0.422179  0.427665  0.871601  1
  O  O54  1  0.504896  0.812491  0.465640  1
  O  O55  1  0.812491  0.504896  0.034360  1
  O  O56  1  0.495104  0.187509  0.534360  1
  O  O57  1  0.187509  0.495104  0.965640  1
