# generated using pymatgen
data_BaFeF4
_symmetry_space_group_name_H-M   'P 1'
_cell_length_a   7.92033874
_cell_length_b   7.92033874
_cell_length_c   5.89726639
_cell_angle_alpha   90.00000000
_cell_angle_beta   90.00000000
_cell_angle_gamma   148.42960774
_symmetry_Int_Tables_number   1
_chemical_formula_structural   BaFeF4
_chemical_formula_sum   'Ba2 Fe2 F8'
_cell_volume   193.68360452
_cell_formula_units_Z   2
loop_
 _symmetry_equiv_pos_site_id
 _symmetry_equiv_pos_as_xyz
  1  'x, y, z'
loop_
 _atom_site_type_symbol
 _atom_site_label
 _atom_site_symmetry_multiplicity
 _atom_site_fract_x
 _atom_site_fract_y
 _atom_site_fract_z
 _atom_site_occupancy
  Ba  Ba0  1  0.153173  0.846827  0.036501  1
  Ba  Ba1  1  0.846827  0.153173  0.536501  1
  Fe  Fe2  1  0.585848  0.414152  0.494540  1
  Fe  Fe3  1  0.414152  0.585848  0.994540  1
  F  F4  1  0.082665  0.917335  0.480831  1
  F  F5  1  0.917335  0.082665  0.980831  1
  F  F6  1  0.532512  0.467488  0.147812  1
  F  F7  1  0.467488  0.532512  0.647812  1
  F  F8  1  0.302343  0.697657  0.798533  1
  F  F9  1  0.697657  0.302343  0.298533  1
  F  F10  1  0.329902  0.670098  0.269383  1
  F  F11  1  0.670098  0.329902  0.769383  1
