# generated using pymatgen
data_Na2SO4
_symmetry_space_group_name_H-M   'P 1'
_cell_length_a   5.34119859
_cell_length_b   7.06587240
_cell_length_c   9.66644000
_cell_angle_alpha   90.00000000
_cell_angle_beta   90.00000000
_cell_angle_gamma   90.00000000
_symmetry_Int_Tables_number   1
_chemical_formula_structural   Na2SO4
_chemical_formula_sum   'Na8 S4 O16'
_cell_volume   364.81364665
_cell_formula_units_Z   4
loop_
 _symmetry_equiv_pos_site_id
 _symmetry_equiv_pos_as_xyz
  1  'x, y, z'
loop_
 _atom_site_type_symbol
 _atom_site_label
 _atom_site_symmetry_multiplicity
 _atom_site_fract_x
 _atom_site_fract_y
 _atom_site_fract_z
 _atom_site_occupancy
  Na  Na0  1  0.000000  0.000000  0.500000  1
  Na  Na1  1  0.500000  0.000000  0.000000  1
  Na  Na2  1  0.000000  0.500000  0.500000  1
  Na  Na3  1  0.500000  0.500000  0.000000  1
  Na  Na4  1  0.022355  0.750000  0.149406  1
  Na  Na5  1  0.522355  0.250000  0.350594  1
  Na  Na6  1  0.977645  0.250000  0.850594  1
  Na  Na7  1  0.477645  0.750000  0.649406  1
  S  S8  1  0.982699  0.750000  0.822767  1
  S  S9  1  0.482699  0.250000  0.677233  1
  S  S10  1  0.017301  0.250000  0.177233  1
  S  S11  1  0.517301  0.750000  0.322767  1
  O  O12  1  0.960581  0.750000  0.667837  1
  O  O13  1  0.460581  0.250000  0.832163  1
  O  O14  1  0.039419  0.250000  0.332163  1
  O  O15  1  0.539419  0.750000  0.167837  1
  O  O16  1  0.252602  0.750000  0.865023  1
  O  O17  1  0.752602  0.250000  0.634977  1
  O  O18  1  0.747398  0.250000  0.134977  1
  O  O19  1  0.247398  0.750000  0.365023  1
  O  O20  1  0.857953  0.922029  0.878595  1
  O  O21  1  0.357953  0.077971  0.621405  1
  O  O22  1  0.142047  0.422029  0.121405  1
  O  O23  1  0.642047  0.577971  0.378595  1
  O  O24  1  0.142047  0.077971  0.121405  1
  O  O25  1  0.642047  0.922029  0.378595  1
  O  O26  1  0.857953  0.577971  0.878595  1
  O  O27  1  0.357953  0.422029  0.621405  1
