# generated using pymatgen
data_SbTe(ClF2)3
_symmetry_space_group_name_H-M   'P 1'
_cell_length_a   6.53993319
_cell_length_b   8.66914995
_cell_length_c   17.50126262
_cell_angle_alpha   90.00000000
_cell_angle_beta   90.00000000
_cell_angle_gamma   90.00000000
_symmetry_Int_Tables_number   1
_chemical_formula_structural   SbTe(ClF2)3
_chemical_formula_sum   'Sb4 Te4 Cl12 F24'
_cell_volume   992.24566110
_cell_formula_units_Z   4
loop_
 _symmetry_equiv_pos_site_id
 _symmetry_equiv_pos_as_xyz
  1  'x, y, z'
loop_
 _atom_site_type_symbol
 _atom_site_label
 _atom_site_symmetry_multiplicity
 _atom_site_fract_x
 _atom_site_fract_y
 _atom_site_fract_z
 _atom_site_occupancy
  Sb  Sb0  1  0.848069  0.250000  0.575085  1
  Sb  Sb1  1  0.348069  0.750000  0.924915  1
  Sb  Sb2  1  0.151931  0.750000  0.424915  1
  Sb  Sb3  1  0.651931  0.250000  0.075085  1
  Te  Te4  1  0.128839  0.250000  0.895770  1
  Te  Te5  1  0.628839  0.750000  0.604230  1
  Te  Te6  1  0.871161  0.750000  0.104230  1
  Te  Te7  1  0.371161  0.250000  0.395770  1
  Cl  Cl8  1  0.592102  0.443184  0.357095  1
  Cl  Cl9  1  0.407898  0.943184  0.642905  1
  Cl  Cl10  1  0.592102  0.056816  0.357095  1
  Cl  Cl11  1  0.092102  0.943184  0.142905  1
  Cl  Cl12  1  0.664555  0.750000  0.211404  1
  Cl  Cl13  1  0.907898  0.443184  0.857095  1
  Cl  Cl14  1  0.835445  0.750000  0.711404  1
  Cl  Cl15  1  0.907898  0.056816  0.857095  1
  Cl  Cl16  1  0.092102  0.556816  0.142905  1
  Cl  Cl17  1  0.407898  0.556816  0.642905  1
  Cl  Cl18  1  0.335445  0.250000  0.788596  1
  Cl  Cl19  1  0.164555  0.250000  0.288596  1
  F  F20  1  0.578394  0.250000  0.527016  1
  F  F21  1  0.727411  0.250000  0.674129  1
  F  F22  1  0.272589  0.750000  0.325871  1
  F  F23  1  0.962781  0.250000  0.474287  1
  F  F24  1  0.537219  0.250000  0.974287  1
  F  F25  1  0.772589  0.250000  0.174129  1
  F  F26  1  0.616603  0.750000  0.882709  1
  F  F27  1  0.339958  0.526915  0.926365  1
  F  F28  1  0.227411  0.750000  0.825871  1
  F  F29  1  0.160042  0.526915  0.426365  1
  F  F30  1  0.383397  0.250000  0.117291  1
  F  F31  1  0.037219  0.750000  0.525713  1
  F  F32  1  0.883397  0.750000  0.382709  1
  F  F33  1  0.078394  0.750000  0.972984  1
  F  F34  1  0.839958  0.473085  0.573635  1
  F  F35  1  0.462781  0.750000  0.025713  1
  F  F36  1  0.839958  0.026915  0.573635  1
  F  F37  1  0.660042  0.026915  0.073635  1
  F  F38  1  0.921606  0.250000  0.027016  1
  F  F39  1  0.339958  0.973085  0.926365  1
  F  F40  1  0.660042  0.473085  0.073635  1
  F  F41  1  0.160042  0.973085  0.426365  1
  F  F42  1  0.116603  0.250000  0.617291  1
  F  F43  1  0.421606  0.750000  0.472984  1
