# generated using pymatgen
data_Pb3SeO5
_symmetry_space_group_name_H-M   'P 1'
_cell_length_a   7.73976606
_cell_length_b   7.73976606
_cell_length_c   5.89842089
_cell_angle_alpha   90.00000000
_cell_angle_beta   90.00000000
_cell_angle_gamma   91.75824120
_symmetry_Int_Tables_number   1
_chemical_formula_structural   Pb3SeO5
_chemical_formula_sum   'Pb6 Se2 O10'
_cell_volume   353.17252325
_cell_formula_units_Z   2
loop_
 _symmetry_equiv_pos_site_id
 _symmetry_equiv_pos_as_xyz
  1  'x, y, z'
loop_
 _atom_site_type_symbol
 _atom_site_label
 _atom_site_symmetry_multiplicity
 _atom_site_fract_x
 _atom_site_fract_y
 _atom_site_fract_z
 _atom_site_occupancy
  Pb  Pb0  1  0.113633  0.886367  0.815531  1
  Pb  Pb1  1  0.886367  0.113633  0.315531  1
  Pb  Pb2  1  0.140740  0.355720  0.812253  1
  Pb  Pb3  1  0.859260  0.644280  0.312253  1
  Pb  Pb4  1  0.644280  0.859260  0.812253  1
  Pb  Pb5  1  0.355720  0.140740  0.312253  1
  Se  Se6  1  0.628990  0.371010  0.858424  1
  Se  Se7  1  0.371010  0.628990  0.358424  1
  O  O8  1  0.136281  0.131004  0.048721  1
  O  O9  1  0.863719  0.868996  0.548721  1
  O  O10  1  0.868996  0.863719  0.048721  1
  O  O11  1  0.131004  0.136281  0.548721  1
  O  O12  1  0.775937  0.224063  0.769013  1
  O  O13  1  0.224063  0.775937  0.269013  1
  O  O14  1  0.697481  0.558714  0.716042  1
  O  O15  1  0.302519  0.441286  0.216042  1
  O  O16  1  0.441286  0.302519  0.716042  1
  O  O17  1  0.558714  0.697481  0.216042  1
