# generated using pymatgen
data_Na5AlP2(O4F)2
_symmetry_space_group_name_H-M   'P 1'
_cell_length_a   10.58568159
_cell_length_b   10.58568159
_cell_length_c   6.67456815
_cell_angle_alpha   90.00000000
_cell_angle_beta   90.00000000
_cell_angle_gamma   120.00000000
_symmetry_Int_Tables_number   1
_chemical_formula_structural   Na5AlP2(O4F)2
_chemical_formula_sum   'Na15 Al3 P6 O24 F6'
_cell_volume   647.72618862
_cell_formula_units_Z   3
loop_
 _symmetry_equiv_pos_site_id
 _symmetry_equiv_pos_as_xyz
  1  'x, y, z'
loop_
 _atom_site_type_symbol
 _atom_site_label
 _atom_site_symmetry_multiplicity
 _atom_site_fract_x
 _atom_site_fract_y
 _atom_site_fract_z
 _atom_site_occupancy
  Na  Na0  1  0.666667  0.333333  0.916565  1
  Na  Na1  1  0.333333  0.666667  0.527395  1
  Na  Na2  1  0.169077  0.853409  0.266081  1
  Na  Na3  1  0.146591  0.315669  0.266081  1
  Na  Na4  1  0.830923  0.146591  0.733919  1
  Na  Na5  1  0.853409  0.684331  0.733919  1
  Na  Na6  1  0.684331  0.830923  0.266081  1
  Na  Na7  1  0.000000  0.500000  0.000000  1
  Na  Na8  1  0.666667  0.333333  0.472605  1
  Na  Na9  1  0.315669  0.169077  0.733919  1
  Na  Na10  1  0.000000  0.000000  0.000000  1
  Na  Na11  1  0.333333  0.666667  0.083435  1
  Na  Na12  1  0.500000  0.000000  0.000000  1
  Na  Na13  1  0.000000  0.000000  0.500000  1
  Na  Na14  1  0.500000  0.500000  0.000000  1
  Al  Al15  1  0.500000  0.500000  0.500000  1
  Al  Al16  1  0.500000  0.000000  0.500000  1
  Al  Al17  1  0.000000  0.500000  0.500000  1
  P  P18  1  0.813718  0.184405  0.250665  1
  P  P19  1  0.370687  0.186282  0.250665  1
  P  P20  1  0.629313  0.813718  0.749335  1
  P  P21  1  0.186282  0.815595  0.749335  1
  P  P22  1  0.815595  0.629313  0.250665  1
  P  P23  1  0.184405  0.370687  0.749335  1
  O  O24  1  0.569337  0.695915  0.579059  1
  O  O25  1  0.429827  0.080304  0.299880  1
  O  O26  1  0.126578  0.430663  0.579059  1
  O  O27  1  0.695915  0.126578  0.420941  1
  O  O28  1  0.570173  0.919696  0.700120  1
  O  O29  1  0.901128  0.797935  0.256349  1
  O  O30  1  0.431217  0.255973  0.045122  1
  O  O31  1  0.080304  0.650476  0.700120  1
  O  O32  1  0.568783  0.744027  0.954878  1
  O  O33  1  0.896807  0.098872  0.256349  1
  O  O34  1  0.103193  0.901128  0.743651  1
  O  O35  1  0.650476  0.570173  0.299880  1
  O  O36  1  0.202065  0.103193  0.256349  1
  O  O37  1  0.873422  0.569337  0.420941  1
  O  O38  1  0.919696  0.349524  0.299880  1
  O  O39  1  0.304085  0.873422  0.579059  1
  O  O40  1  0.744027  0.175244  0.045122  1
  O  O41  1  0.430663  0.304085  0.420941  1
  O  O42  1  0.255973  0.824756  0.954878  1
  O  O43  1  0.098872  0.202065  0.743651  1
  O  O44  1  0.824756  0.568783  0.045122  1
  O  O45  1  0.797935  0.896807  0.743651  1
  O  O46  1  0.349524  0.429827  0.700120  1
  O  O47  1  0.175244  0.431217  0.954878  1
  F  F48  1  0.862806  0.384533  0.689831  1
  F  F49  1  0.615467  0.478273  0.689831  1
  F  F50  1  0.384533  0.521727  0.310169  1
  F  F51  1  0.478273  0.862806  0.310169  1
  F  F52  1  0.521727  0.137194  0.689831  1
  F  F53  1  0.137194  0.615467  0.310169  1
