# generated using pymatgen
data_Na2V3O7
_symmetry_space_group_name_H-M   'P 1'
_cell_length_a   11.10469096
_cell_length_b   11.10469096
_cell_length_c   9.69129607
_cell_angle_alpha   90.00000000
_cell_angle_beta   90.00000000
_cell_angle_gamma   120.00000000
_symmetry_Int_Tables_number   1
_chemical_formula_structural   Na2V3O7
_chemical_formula_sum   'Na12 V18 O42'
_cell_volume   1034.96448370
_cell_formula_units_Z   6
loop_
 _symmetry_equiv_pos_site_id
 _symmetry_equiv_pos_as_xyz
  1  'x, y, z'
loop_
 _atom_site_type_symbol
 _atom_site_label
 _atom_site_symmetry_multiplicity
 _atom_site_fract_x
 _atom_site_fract_y
 _atom_site_fract_z
 _atom_site_occupancy
  Na  Na0  1  0.509879  0.023521  0.846659  1
  Na  Na1  1  0.976479  0.486358  0.846659  1
  Na  Na2  1  0.513642  0.490121  0.846659  1
  Na  Na3  1  0.023521  0.509879  0.346659  1
  Na  Na4  1  0.486358  0.976479  0.346659  1
  Na  Na5  1  0.490121  0.513642  0.346659  1
  Na  Na6  1  0.666667  0.333333  0.167608  1
  Na  Na7  1  0.333333  0.666667  0.667608  1
  Na  Na8  1  0.666667  0.333333  0.533210  1
  Na  Na9  1  0.333333  0.666667  0.033210  1
  Na  Na10  1  0.000000  0.000000  0.603820  1
  Na  Na11  1  0.000000  0.000000  0.103820  1
  V  V12  1  0.682996  0.880177  0.200886  1
  V  V13  1  0.119823  0.802818  0.200886  1
  V  V14  1  0.197182  0.317004  0.200886  1
  V  V15  1  0.880177  0.682996  0.700886  1
  V  V16  1  0.802818  0.119823  0.700886  1
  V  V17  1  0.317004  0.197182  0.700886  1
  V  V18  1  0.685651  0.843030  0.851755  1
  V  V19  1  0.156970  0.842621  0.851755  1
  V  V20  1  0.157379  0.314349  0.851755  1
  V  V21  1  0.843030  0.685651  0.351755  1
  V  V22  1  0.842621  0.156970  0.351755  1
  V  V23  1  0.314349  0.157379  0.351755  1
  V  V24  1  0.683133  0.802959  0.502193  1
  V  V25  1  0.197041  0.880174  0.502193  1
  V  V26  1  0.119826  0.316867  0.502193  1
  V  V27  1  0.802959  0.683133  0.002193  1
  V  V28  1  0.880174  0.197041  0.002193  1
  V  V29  1  0.316867  0.119826  0.002193  1
  O  O30  1  0.742128  0.040072  0.890538  1
  O  O31  1  0.959928  0.702056  0.890538  1
  O  O32  1  0.297944  0.257872  0.890538  1
  O  O33  1  0.040072  0.742128  0.390538  1
  O  O34  1  0.702056  0.959928  0.390538  1
  O  O35  1  0.257872  0.297944  0.390538  1
  O  O36  1  0.757274  0.928093  0.668805  1
  O  O37  1  0.071907  0.829180  0.668805  1
  O  O38  1  0.170820  0.242726  0.668805  1
  O  O39  1  0.928093  0.757274  0.168805  1
  O  O40  1  0.829180  0.071907  0.168805  1
  O  O41  1  0.242726  0.170820  0.168805  1
  O  O42  1  0.758219  0.830037  0.034473  1
  O  O43  1  0.169963  0.928182  0.034473  1
  O  O44  1  0.071818  0.241781  0.034473  1
  O  O45  1  0.830037  0.758219  0.534473  1
  O  O46  1  0.928182  0.169963  0.534473  1
  O  O47  1  0.512113  0.755017  0.851082  1
  O  O48  1  0.241781  0.071818  0.534473  1
  O  O49  1  0.256664  0.960068  0.312500  1
  O  O50  1  0.039932  0.296596  0.312500  1
  O  O51  1  0.743336  0.703404  0.812500  1
  O  O52  1  0.960068  0.256664  0.812500  1
  O  O53  1  0.296596  0.039932  0.812500  1
  O  O54  1  0.520775  0.843682  0.164396  1
  O  O55  1  0.156318  0.677093  0.164396  1
  O  O56  1  0.322907  0.479225  0.164396  1
  O  O57  1  0.843682  0.520775  0.664396  1
  O  O58  1  0.677093  0.156318  0.664396  1
  O  O59  1  0.479225  0.322907  0.664396  1
  O  O60  1  0.478510  0.154217  0.038204  1
  O  O61  1  0.845783  0.324293  0.038204  1
  O  O62  1  0.675707  0.521490  0.038204  1
  O  O63  1  0.154217  0.478510  0.538204  1
  O  O64  1  0.324293  0.845783  0.538204  1
  O  O65  1  0.521490  0.675707  0.538204  1
  O  O66  1  0.487887  0.242904  0.351082  1
  O  O67  1  0.757096  0.244983  0.351082  1
  O  O68  1  0.755017  0.512113  0.351082  1
  O  O69  1  0.242904  0.487887  0.851082  1
  O  O70  1  0.244983  0.757096  0.851082  1
  O  O71  1  0.703404  0.743336  0.312500  1
