# generated using pymatgen
data_Er2Au5F21
_symmetry_space_group_name_H-M   'P 1'
_cell_length_a   8.05867227
_cell_length_b   9.11018264
_cell_length_c   12.05770289
_cell_angle_alpha   89.17260415
_cell_angle_beta   88.84653441
_cell_angle_gamma   88.79387997
_symmetry_Int_Tables_number   1
_chemical_formula_structural   Er2Au5F21
_chemical_formula_sum   'Er4 Au10 F42'
_cell_volume   884.76555893
_cell_formula_units_Z   2
loop_
 _symmetry_equiv_pos_site_id
 _symmetry_equiv_pos_as_xyz
  1  'x, y, z'
loop_
 _atom_site_type_symbol
 _atom_site_label
 _atom_site_symmetry_multiplicity
 _atom_site_fract_x
 _atom_site_fract_y
 _atom_site_fract_z
 _atom_site_occupancy
  Er  Er0  1  0.671544  0.316989  0.496014  1
  Er  Er1  1  0.328456  0.683011  0.503986  1
  Er  Er2  1  0.664612  0.182004  0.000580  1
  Er  Er3  1  0.335388  0.817996  0.999420  1
  Au  Au4  1  0.173820  0.277208  0.595360  1
  Au  Au5  1  0.826180  0.722792  0.404640  1
  Au  Au6  1  0.558789  0.508497  0.790504  1
  Au  Au7  1  0.441211  0.491503  0.209496  1
  Au  Au8  1  0.836660  0.775789  0.093517  1
  Au  Au9  1  0.163340  0.224211  0.906483  1
  Au  Au10  1  0.440914  0.014742  0.295756  1
  Au  Au11  1  0.559086  0.985258  0.704244  1
  Au  Au12  1  0.019153  0.249736  0.244951  1
  Au  Au13  1  0.980847  0.750264  0.755049  1
  F  F14  1  0.688325  0.406970  0.673237  1
  F  F15  1  0.311675  0.593030  0.326763  1
  F  F16  1  0.859423  0.255471  0.120972  1
  F  F17  1  0.140577  0.744529  0.879028  1
  F  F18  1  0.700353  0.399698  0.896520  1
  F  F19  1  0.299647  0.600302  0.103480  1
  F  F20  1  0.142115  0.414405  0.833344  1
  F  F21  1  0.857885  0.585595  0.166656  1
  F  F22  1  0.660034  0.104382  0.818426  1
  F  F23  1  0.339966  0.895618  0.181574  1
  F  F24  1  0.500000  0.000000  0.000000  1
  F  F25  1  0.523396  0.132293  0.418537  1
  F  F26  1  0.476604  0.867707  0.581463  1
  F  F27  1  0.931536  0.278426  0.576042  1
  F  F28  1  0.068464  0.721574  0.423958  1
  F  F29  1  0.500000  0.500000  0.500000  1
  F  F30  1  0.185035  0.244431  0.359546  1
  F  F31  1  0.814965  0.755569  0.640454  1
  F  F32  1  0.843191  0.225307  0.361070  1
  F  F33  1  0.156809  0.774693  0.638930  1
  F  F34  1  0.828127  0.512762  0.455375  1
  F  F35  1  0.171873  0.487238  0.544625  1
  F  F36  1  0.700312  0.092283  0.596453  1
  F  F37  1  0.299688  0.907717  0.403547  1
  F  F38  1  0.168264  0.078694  0.654496  1
  F  F39  1  0.831736  0.921306  0.345504  1
  F  F40  1  0.583214  0.735345  0.385132  1
  F  F41  1  0.416786  0.264655  0.614868  1
  F  F42  1  0.588111  0.385182  0.312061  1
  F  F43  1  0.411889  0.614818  0.687939  1
  F  F44  1  0.444069  0.612121  0.912892  1
  F  F45  1  0.555931  0.387879  0.087108  1
  F  F46  1  0.177157  0.023224  0.973975  1
  F  F47  1  0.822843  0.976776  0.026025  1
  F  F48  1  0.416370  0.880100  0.812094  1
  F  F49  1  0.583630  0.119900  0.187906  1
  F  F50  1  0.922675  0.197211  0.898291  1
  F  F51  1  0.077325  0.802789  0.101709  1
  F  F52  1  0.405069  0.257368  0.911741  1
  F  F53  1  0.594931  0.742632  0.088259  1
  F  F54  1  0.800678  0.729450  0.863154  1
  F  F55  1  0.199322  0.270550  0.136846  1
