# generated using pymatgen
data_Na2S
_symmetry_space_group_name_H-M   'P 1'
_cell_length_a   4.34440972
_cell_length_b   7.14429872
_cell_length_c   8.39237484
_cell_angle_alpha   90.00000000
_cell_angle_beta   90.00000000
_cell_angle_gamma   90.00000000
_symmetry_Int_Tables_number   1
_chemical_formula_structural   Na2S
_chemical_formula_sum   'Na8 S4'
_cell_volume   260.48052284
_cell_formula_units_Z   4
loop_
 _symmetry_equiv_pos_site_id
 _symmetry_equiv_pos_as_xyz
  1  'x, y, z'
loop_
 _atom_site_type_symbol
 _atom_site_label
 _atom_site_symmetry_multiplicity
 _atom_site_fract_x
 _atom_site_fract_y
 _atom_site_fract_z
 _atom_site_occupancy
  Na  Na0  1  0.250000  0.148627  0.427247  1
  Na  Na1  1  0.750000  0.477876  0.328921  1
  Na  Na2  1  0.750000  0.977876  0.171079  1
  Na  Na3  1  0.750000  0.351373  0.927247  1
  Na  Na4  1  0.250000  0.522124  0.671079  1
  Na  Na5  1  0.750000  0.851373  0.572753  1
  Na  Na6  1  0.250000  0.648627  0.072753  1
  Na  Na7  1  0.250000  0.022124  0.828921  1
  S  S8  1  0.250000  0.754017  0.388162  1
  S  S9  1  0.250000  0.254017  0.111838  1
  S  S10  1  0.750000  0.745983  0.888162  1
  S  S11  1  0.750000  0.245983  0.611838  1
