# generated using pymatgen
data_KCa12Si4S2O26F
_symmetry_space_group_name_H-M   'P 1'
_cell_length_a   14.49748265
_cell_length_b   14.49748265
_cell_length_c   14.49748265
_cell_angle_alpha   28.94913483
_cell_angle_beta   28.94913483
_cell_angle_gamma   28.94913483
_symmetry_Int_Tables_number   1
_chemical_formula_structural   KCa12Si4S2O26F
_chemical_formula_sum   'K1 Ca12 Si4 S2 O26 F1'
_cell_volume   631.37749144
_cell_formula_units_Z   1
loop_
 _symmetry_equiv_pos_site_id
 _symmetry_equiv_pos_as_xyz
  1  'x, y, z'
loop_
 _atom_site_type_symbol
 _atom_site_label
 _atom_site_symmetry_multiplicity
 _atom_site_fract_x
 _atom_site_fract_y
 _atom_site_fract_z
 _atom_site_occupancy
  K  K0  1  0.000000  0.000000  0.000000  1
  Ca  Ca1  1  0.916877  0.444220  0.444220  1
  Ca  Ca2  1  0.775105  0.311556  0.311556  1
  Ca  Ca3  1  0.444220  0.916877  0.444220  1
  Ca  Ca4  1  0.311556  0.311556  0.775105  1
  Ca  Ca5  1  0.688444  0.688444  0.224895  1
  Ca  Ca6  1  0.555780  0.555780  0.083123  1
  Ca  Ca7  1  0.444220  0.444220  0.916877  1
  Ca  Ca8  1  0.555780  0.083123  0.555780  1
  Ca  Ca9  1  0.224895  0.688444  0.688444  1
  Ca  Ca10  1  0.311556  0.775105  0.311556  1
  Ca  Ca11  1  0.688444  0.224895  0.688444  1
  Ca  Ca12  1  0.083123  0.555780  0.555780  1
  Si  Si13  1  0.204710  0.204710  0.204710  1
  Si  Si14  1  0.917071  0.917071  0.917071  1
  Si  Si15  1  0.082929  0.082929  0.082929  1
  Si  Si16  1  0.795290  0.795290  0.795290  1
  S  S17  1  0.323570  0.323570  0.323570  1
  S  S18  1  0.676430  0.676430  0.676430  1
  O  O19  1  0.123153  0.123153  0.123153  1
  O  O20  1  0.199684  0.534502  0.199684  1
  O  O21  1  0.681599  0.058749  0.681599  1
  O  O22  1  0.431622  0.431622  0.431622  1
  O  O23  1  0.800316  0.800316  0.465498  1
  O  O24  1  0.800316  0.465498  0.800316  1
  O  O25  1  0.800650  0.800650  0.179998  1
  O  O26  1  0.681599  0.681599  0.058749  1
  O  O27  1  0.465498  0.800316  0.800316  1
  O  O28  1  0.941251  0.318401  0.318401  1
  O  O29  1  0.179998  0.800650  0.800650  1
  O  O30  1  0.199684  0.199684  0.534502  1
  O  O31  1  0.820002  0.199350  0.199350  1
  O  O32  1  0.800650  0.179998  0.800650  1
  O  O33  1  0.568378  0.568378  0.568378  1
  O  O34  1  0.058749  0.681599  0.681599  1
  O  O35  1  0.640264  0.640264  0.640264  1
  O  O36  1  0.244987  0.244987  0.244987  1
  O  O37  1  0.534502  0.199684  0.199684  1
  O  O38  1  0.199350  0.820002  0.199350  1
  O  O39  1  0.199350  0.199350  0.820002  1
  O  O40  1  0.876847  0.876847  0.876847  1
  O  O41  1  0.359736  0.359736  0.359736  1
  O  O42  1  0.318401  0.941251  0.318401  1
  O  O43  1  0.755013  0.755013  0.755013  1
  O  O44  1  0.318401  0.318401  0.941251  1
  F  F45  1  0.500000  0.500000  0.500000  1
