# generated using pymatgen
data_P4PtF12
_symmetry_space_group_name_H-M   'P 1'
_cell_length_a   7.30533977
_cell_length_b   7.30533977
_cell_length_c   7.30533977
_cell_angle_alpha   109.47122063
_cell_angle_beta   109.47122063
_cell_angle_gamma   109.47122063
_symmetry_Int_Tables_number   1
_chemical_formula_structural   P4PtF12
_chemical_formula_sum   'P4 Pt1 F12'
_cell_volume   300.12306171
_cell_formula_units_Z   1
loop_
 _symmetry_equiv_pos_site_id
 _symmetry_equiv_pos_as_xyz
  1  'x, y, z'
loop_
 _atom_site_type_symbol
 _atom_site_label
 _atom_site_symmetry_multiplicity
 _atom_site_fract_x
 _atom_site_fract_y
 _atom_site_fract_z
 _atom_site_occupancy
  P  P0  1  1.000000  1.000000  0.691087  1
  P  P1  1  1.000000  0.691087  1.000000  1
  P  P2  1  0.691087  1.000000  0.000000  1
  P  P3  1  0.308913  0.308913  0.308913  1
  Pt  Pt4  1  0.000000  0.000000  0.000000  1
  F  F5  1  0.481982  0.481982  0.281909  1
  F  F6  1  1.000000  0.799928  0.518018  1
  F  F7  1  0.200072  0.718091  0.200072  1
  F  F8  1  0.281909  0.481982  0.481982  1
  F  F9  1  0.718091  0.200072  0.200072  1
  F  F10  1  0.200072  0.200072  0.718091  1
  F  F11  1  1.000000  0.518018  0.799928  1
  F  F12  1  0.518018  0.799928  0.000000  1
  F  F13  1  0.799928  0.518018  0.000000  1
  F  F14  1  0.481982  0.281909  0.481982  1
  F  F15  1  0.799928  1.000000  0.518018  1
  F  F16  1  0.518018  1.000000  0.799928  1
