# generated using pymatgen
data_Ga2(SO4)3
_symmetry_space_group_name_H-M   'P 1'
_cell_length_a   8.78369887
_cell_length_b   8.78369887
_cell_length_c   8.78369887
_cell_angle_alpha   55.59406462
_cell_angle_beta   55.59406462
_cell_angle_gamma   55.59406462
_symmetry_Int_Tables_number   1
_chemical_formula_structural   Ga2(SO4)3
_chemical_formula_sum   'Ga4 S6 O24'
_cell_volume   430.19928082
_cell_formula_units_Z   2
loop_
 _symmetry_equiv_pos_site_id
 _symmetry_equiv_pos_as_xyz
  1  'x, y, z'
loop_
 _atom_site_type_symbol
 _atom_site_label
 _atom_site_symmetry_multiplicity
 _atom_site_fract_x
 _atom_site_fract_y
 _atom_site_fract_z
 _atom_site_occupancy
  Ga  Ga0  1  0.856166  0.856166  0.856166  1
  Ga  Ga1  1  0.143834  0.143834  0.143834  1
  Ga  Ga2  1  0.650599  0.650599  0.650599  1
  Ga  Ga3  1  0.349401  0.349401  0.349401  1
  S  S4  1  0.960725  0.248836  0.541968  1
  S  S5  1  0.541968  0.960725  0.248836  1
  S  S6  1  0.248836  0.541968  0.960725  1
  S  S7  1  0.039275  0.751164  0.458032  1
  S  S8  1  0.458032  0.039275  0.751164  1
  S  S9  1  0.751164  0.458032  0.039275  1
  O  O10  1  0.985939  0.202609  0.389564  1
  O  O11  1  0.389564  0.985939  0.202609  1
  O  O12  1  0.202609  0.389564  0.985939  1
  O  O13  1  0.014061  0.797391  0.610436  1
  O  O14  1  0.610436  0.014061  0.797391  1
  O  O15  1  0.797391  0.610436  0.014061  1
  O  O16  1  0.154364  0.215335  0.526528  1
  O  O17  1  0.526528  0.154364  0.215335  1
  O  O18  1  0.215335  0.526528  0.154364  1
  O  O19  1  0.845636  0.784665  0.473472  1
  O  O20  1  0.473472  0.845636  0.784665  1
  O  O21  1  0.784665  0.473472  0.845636  1
  O  O22  1  0.824934  0.457940  0.514497  1
  O  O23  1  0.514497  0.824934  0.457940  1
  O  O24  1  0.457940  0.514497  0.824934  1
  O  O25  1  0.175066  0.542060  0.485503  1
  O  O26  1  0.485503  0.175066  0.542060  1
  O  O27  1  0.542060  0.485503  0.175066  1
  O  O28  1  0.872485  0.117788  0.741601  1
  O  O29  1  0.741601  0.872485  0.117788  1
  O  O30  1  0.117788  0.741601  0.872485  1
  O  O31  1  0.127515  0.882212  0.258399  1
  O  O32  1  0.258399  0.127515  0.882212  1
  O  O33  1  0.882212  0.258399  0.127515  1
