# generated using pymatgen
data_BaSi2(BO4)2
_symmetry_space_group_name_H-M   'P 1'
_cell_length_a   8.26704983
_cell_length_b   8.31279304
_cell_length_c   9.15951254
_cell_angle_alpha   90.00000000
_cell_angle_beta   90.00000000
_cell_angle_gamma   90.00000000
_symmetry_Int_Tables_number   1
_chemical_formula_structural   BaSi2(BO4)2
_chemical_formula_sum   'Ba4 Si8 B8 O32'
_cell_volume   629.46253312
_cell_formula_units_Z   4
loop_
 _symmetry_equiv_pos_site_id
 _symmetry_equiv_pos_as_xyz
  1  'x, y, z'
loop_
 _atom_site_type_symbol
 _atom_site_label
 _atom_site_symmetry_multiplicity
 _atom_site_fract_x
 _atom_site_fract_y
 _atom_site_fract_z
 _atom_site_occupancy
  Ba  Ba0  1  0.250000  0.391565  0.918650  1
  Ba  Ba1  1  0.750000  0.608435  0.081350  1
  Ba  Ba2  1  0.250000  0.891565  0.581350  1
  Ba  Ba3  1  0.750000  0.108435  0.418650  1
  Si  Si4  1  0.565423  0.074312  0.810912  1
  Si  Si5  1  0.934577  0.074312  0.810912  1
  Si  Si6  1  0.065423  0.925688  0.189088  1
  Si  Si7  1  0.434577  0.925688  0.189088  1
  Si  Si8  1  0.434577  0.425688  0.310912  1
  Si  Si9  1  0.065423  0.425688  0.310912  1
  Si  Si10  1  0.565423  0.574312  0.689088  1
  Si  Si11  1  0.934577  0.574312  0.689088  1
  B  B12  1  0.085985  0.774264  0.909692  1
  B  B13  1  0.914015  0.725736  0.409692  1
  B  B14  1  0.585985  0.225736  0.090308  1
  B  B15  1  0.085985  0.274264  0.590308  1
  B  B16  1  0.585985  0.725736  0.409692  1
  B  B17  1  0.414015  0.274264  0.590308  1
  B  B18  1  0.914015  0.225736  0.090308  1
  B  B19  1  0.414015  0.774264  0.909692  1
  O  O20  1  0.250000  0.214279  0.618636  1
  O  O21  1  0.750000  0.285721  0.118636  1
  O  O22  1  0.028773  0.351744  0.148159  1
  O  O23  1  0.043572  0.784268  0.067001  1
  O  O24  1  0.936258  0.070894  0.165095  1
  O  O25  1  0.028773  0.851744  0.351841  1
  O  O26  1  0.250000  0.498462  0.310101  1
  O  O27  1  0.971227  0.648256  0.851841  1
  O  O28  1  0.528773  0.648256  0.851841  1
  O  O29  1  0.063742  0.929106  0.834905  1
  O  O30  1  0.971227  0.148256  0.648159  1
  O  O31  1  0.456428  0.784268  0.067001  1
  O  O32  1  0.750000  0.785721  0.381364  1
  O  O33  1  0.543572  0.715732  0.567001  1
  O  O34  1  0.936258  0.570894  0.334905  1
  O  O35  1  0.563742  0.070894  0.165095  1
  O  O36  1  0.471227  0.851744  0.351841  1
  O  O37  1  0.436258  0.429106  0.665095  1
  O  O38  1  0.250000  0.714279  0.881364  1
  O  O39  1  0.956428  0.715732  0.567001  1
  O  O40  1  0.436258  0.929106  0.834905  1
  O  O41  1  0.250000  0.998462  0.189899  1
  O  O42  1  0.063742  0.429106  0.665095  1
  O  O43  1  0.543572  0.215732  0.932999  1
  O  O44  1  0.750000  0.001538  0.810101  1
  O  O45  1  0.956428  0.215732  0.932999  1
  O  O46  1  0.563742  0.570894  0.334905  1
  O  O47  1  0.043572  0.284268  0.432999  1
  O  O48  1  0.528773  0.148256  0.648159  1
  O  O49  1  0.471227  0.351744  0.148159  1
  O  O50  1  0.750000  0.501538  0.689899  1
  O  O51  1  0.456428  0.284268  0.432999  1
