# generated using pymatgen
data_KAg(PO3)2
_symmetry_space_group_name_H-M   'P 1'
_cell_length_a   6.15351548
_cell_length_b   13.37399725
_cell_length_c   7.62290830
_cell_angle_alpha   90.00000000
_cell_angle_beta   94.34826314
_cell_angle_gamma   90.00000000
_symmetry_Int_Tables_number   1
_chemical_formula_structural   KAg(PO3)2
_chemical_formula_sum   'K4 Ag4 P8 O24'
_cell_volume   625.53750848
_cell_formula_units_Z   4
loop_
 _symmetry_equiv_pos_site_id
 _symmetry_equiv_pos_as_xyz
  1  'x, y, z'
loop_
 _atom_site_type_symbol
 _atom_site_label
 _atom_site_symmetry_multiplicity
 _atom_site_fract_x
 _atom_site_fract_y
 _atom_site_fract_z
 _atom_site_occupancy
  K  K0  1  0.299698  0.330506  0.231665  1
  K  K1  1  0.299698  0.169494  0.731665  1
  K  K2  1  0.700302  0.669494  0.768335  1
  K  K3  1  0.700302  0.830506  0.268335  1
  Ag  Ag4  1  0.187009  0.471543  0.803192  1
  Ag  Ag5  1  0.812991  0.528457  0.196808  1
  Ag  Ag6  1  0.187009  0.028457  0.303192  1
  Ag  Ag7  1  0.812991  0.971543  0.696808  1
  P  P8  1  0.847615  0.173584  0.993869  1
  P  P9  1  0.152385  0.673584  0.506131  1
  P  P10  1  0.847615  0.326416  0.493869  1
  P  P11  1  0.686429  0.131948  0.348690  1
  P  P12  1  0.313571  0.631948  0.151310  1
  P  P13  1  0.313571  0.868052  0.651310  1
  P  P14  1  0.686429  0.368052  0.848690  1
  P  P15  1  0.152385  0.826416  0.006131  1
  O  O16  1  0.322043  0.828674  0.853120  1
  O  O17  1  0.322043  0.671326  0.353120  1
  O  O18  1  0.461394  0.348970  0.905945  1
  O  O19  1  0.538606  0.848970  0.594055  1
  O  O20  1  0.139387  0.793529  0.546868  1
  O  O21  1  0.461394  0.151030  0.405945  1
  O  O22  1  0.263157  0.877519  0.163978  1
  O  O23  1  0.075232  0.146921  0.062376  1
  O  O24  1  0.860613  0.206471  0.453132  1
  O  O25  1  0.263157  0.622481  0.663978  1
  O  O26  1  0.786141  0.470788  0.863670  1
  O  O27  1  0.677957  0.328674  0.646880  1
  O  O28  1  0.538606  0.651030  0.094055  1
  O  O29  1  0.139387  0.706471  0.046868  1
  O  O30  1  0.736843  0.377519  0.336022  1
  O  O31  1  0.677957  0.171326  0.146880  1
  O  O32  1  0.213859  0.529212  0.136330  1
  O  O33  1  0.860613  0.293529  0.953132  1
  O  O34  1  0.075232  0.353079  0.562376  1
  O  O35  1  0.213859  0.970788  0.636330  1
  O  O36  1  0.924768  0.646921  0.437624  1
  O  O37  1  0.736843  0.122481  0.836022  1
  O  O38  1  0.924768  0.853079  0.937624  1
  O  O39  1  0.786141  0.029212  0.363670  1
