# generated using pymatgen
data_K2Se2O5
_symmetry_space_group_name_H-M   'P 1'
_cell_length_a   9.98339838
_cell_length_b   10.87381514
_cell_length_c   25.74334159
_cell_angle_alpha   90.00000000
_cell_angle_beta   90.00000000
_cell_angle_gamma   90.00000000
_symmetry_Int_Tables_number   1
_chemical_formula_structural   K2Se2O5
_chemical_formula_sum   'K32 Se32 O80'
_cell_volume   2794.63611147
_cell_formula_units_Z   16
loop_
 _symmetry_equiv_pos_site_id
 _symmetry_equiv_pos_as_xyz
  1  'x, y, z'
loop_
 _atom_site_type_symbol
 _atom_site_label
 _atom_site_symmetry_multiplicity
 _atom_site_fract_x
 _atom_site_fract_y
 _atom_site_fract_z
 _atom_site_occupancy
  K  K0  1  0.525088  0.495611  0.870256  1
  K  K1  1  0.000528  0.791521  0.992155  1
  K  K2  1  0.474912  0.504389  0.129744  1
  K  K3  1  0.107529  0.496848  0.125899  1
  K  K4  1  0.459377  0.752458  0.744940  1
  K  K5  1  0.540623  0.247542  0.255060  1
  K  K6  1  0.500528  0.708479  0.992155  1
  K  K7  1  0.499472  0.791521  0.492155  1
  K  K8  1  0.999472  0.708479  0.492155  1
  K  K9  1  0.500528  0.208479  0.507845  1
  K  K10  1  0.974912  0.495611  0.370256  1
  K  K11  1  0.974912  0.995611  0.129744  1
  K  K12  1  0.959377  0.747542  0.744940  1
  K  K13  1  0.892471  0.503152  0.874101  1
  K  K14  1  0.959377  0.247542  0.755060  1
  K  K15  1  0.459377  0.252458  0.755060  1
  K  K16  1  0.607529  0.503152  0.374101  1
  K  K17  1  0.107529  0.996848  0.374101  1
  K  K18  1  0.025088  0.504389  0.629744  1
  K  K19  1  0.000528  0.291521  0.507845  1
  K  K20  1  0.040623  0.252458  0.255060  1
  K  K21  1  0.540623  0.747542  0.244940  1
  K  K22  1  0.392471  0.996848  0.874101  1
  K  K23  1  0.474912  0.004389  0.370256  1
  K  K24  1  0.040623  0.752458  0.244940  1
  K  K25  1  0.607529  0.003152  0.125899  1
  K  K26  1  0.999472  0.208479  0.007845  1
  K  K27  1  0.525088  0.995611  0.629744  1
  K  K28  1  0.892471  0.003152  0.625899  1
  K  K29  1  0.392471  0.496848  0.625899  1
  K  K30  1  0.025088  0.004389  0.870256  1
  K  K31  1  0.499472  0.291521  0.007845  1
  Se  Se32  1  0.286872  0.491737  0.486928  1
  Se  Se33  1  0.713128  0.508263  0.513072  1
  Se  Se34  1  0.326123  0.296612  0.388216  1
  Se  Se35  1  0.303476  0.201954  0.139255  1
  Se  Se36  1  0.214204  0.004319  0.739223  1
  Se  Se37  1  0.713128  0.008263  0.986928  1
  Se  Se38  1  0.803476  0.298046  0.139255  1
  Se  Se39  1  0.714204  0.495681  0.739223  1
  Se  Se40  1  0.785796  0.495681  0.239223  1
  Se  Se41  1  0.785796  0.995681  0.260777  1
  Se  Se42  1  0.214204  0.504319  0.760777  1
  Se  Se43  1  0.173877  0.796612  0.611784  1
  Se  Se44  1  0.826123  0.203388  0.388216  1
  Se  Se45  1  0.286872  0.991737  0.013072  1
  Se  Se46  1  0.786872  0.508263  0.013072  1
  Se  Se47  1  0.285796  0.504319  0.260777  1
  Se  Se48  1  0.826123  0.703388  0.111784  1
  Se  Se49  1  0.213128  0.991737  0.513072  1
  Se  Se50  1  0.213128  0.491737  0.986928  1
  Se  Se51  1  0.173877  0.296612  0.888216  1
  Se  Se52  1  0.303476  0.701954  0.360745  1
  Se  Se53  1  0.786872  0.008263  0.486928  1
  Se  Se54  1  0.803476  0.798046  0.360745  1
  Se  Se55  1  0.196524  0.701954  0.860745  1
  Se  Se56  1  0.673877  0.703388  0.611784  1
  Se  Se57  1  0.696524  0.298046  0.639255  1
  Se  Se58  1  0.696524  0.798046  0.860745  1
  Se  Se59  1  0.285796  0.004319  0.239223  1
  Se  Se60  1  0.326123  0.796612  0.111784  1
  Se  Se61  1  0.196524  0.201954  0.639255  1
  Se  Se62  1  0.673877  0.203388  0.888216  1
  Se  Se63  1  0.714204  0.995681  0.760777  1
  O  O64  1  0.526265  0.721618  0.642530  1
  O  O65  1  0.117634  0.590628  0.812679  1
  O  O66  1  0.263259  0.321527  0.178083  1
  O  O67  1  0.550765  0.760347  0.889500  1
  O  O68  1  0.196241  0.668222  0.576049  1
  O  O69  1  0.803759  0.331778  0.423951  1
  O  O70  1  0.135756  0.991076  0.042783  1
  O  O71  1  0.949235  0.760347  0.389500  1
  O  O72  1  0.603249  0.591470  0.561218  1
  O  O73  1  0.303759  0.168222  0.423951  1
  O  O74  1  0.284689  0.106778  0.288273  1
  O  O75  1  0.215311  0.606778  0.711727  1
  O  O76  1  0.617634  0.909372  0.812679  1
  O  O77  1  0.873054  0.996707  0.783966  1
  O  O78  1  0.449235  0.239653  0.110500  1
  O  O79  1  0.784689  0.893222  0.211727  1
  O  O80  1  0.696241  0.831778  0.576049  1
  O  O81  1  0.364244  0.491076  0.957217  1
  O  O82  1  0.396751  0.408530  0.438782  1
  O  O83  1  0.635756  0.508924  0.042783  1
  O  O84  1  0.396751  0.908530  0.061218  1
  O  O85  1  0.763259  0.178473  0.178083  1
  O  O86  1  0.026265  0.278382  0.857470  1
  O  O87  1  0.364244  0.991076  0.542783  1
  O  O88  1  0.263259  0.821527  0.321917  1
  O  O89  1  0.763259  0.678473  0.321917  1
  O  O90  1  0.778035  0.112932  0.535003  1
  O  O91  1  0.896751  0.091470  0.438782  1
  O  O92  1  0.896751  0.591470  0.061218  1
  O  O93  1  0.721965  0.612932  0.464997  1
  O  O94  1  0.236741  0.321527  0.678083  1
  O  O95  1  0.635756  0.008924  0.457217  1
  O  O96  1  0.221965  0.887068  0.464997  1
  O  O97  1  0.626946  0.496707  0.216034  1
  O  O98  1  0.882366  0.909372  0.312679  1
  O  O99  1  0.050765  0.239653  0.610500  1
  O  O100  1  0.126946  0.503293  0.283966  1
  O  O101  1  0.864244  0.008924  0.957217  1
  O  O102  1  0.736741  0.678473  0.821917  1
  O  O103  1  0.803759  0.831778  0.076049  1
  O  O104  1  0.626946  0.996707  0.283966  1
  O  O105  1  0.284689  0.606778  0.211727  1
  O  O106  1  0.973735  0.721618  0.142530  1
  O  O107  1  0.696241  0.331778  0.923951  1
  O  O108  1  0.236741  0.821527  0.821917  1
  O  O109  1  0.382366  0.590628  0.312679  1
  O  O110  1  0.473735  0.278382  0.357470  1
  O  O111  1  0.882366  0.409372  0.187321  1
  O  O112  1  0.215311  0.106778  0.788273  1
  O  O113  1  0.784689  0.393222  0.288273  1
  O  O114  1  0.973735  0.221618  0.357470  1
  O  O115  1  0.278035  0.387068  0.535003  1
  O  O116  1  0.526265  0.221618  0.857470  1
  O  O117  1  0.736741  0.178473  0.678083  1
  O  O118  1  0.864244  0.508924  0.542783  1
  O  O119  1  0.103249  0.908530  0.561218  1
  O  O120  1  0.873054  0.496707  0.716034  1
  O  O121  1  0.026265  0.778382  0.642530  1
  O  O122  1  0.449235  0.739653  0.389500  1
  O  O123  1  0.303759  0.668222  0.076049  1
  O  O124  1  0.373054  0.503293  0.783966  1
  O  O125  1  0.196241  0.168222  0.923951  1
  O  O126  1  0.373054  0.003293  0.716034  1
  O  O127  1  0.382366  0.090628  0.187321  1
  O  O128  1  0.117634  0.090628  0.687321  1
  O  O129  1  0.949235  0.260347  0.110500  1
  O  O130  1  0.278035  0.887068  0.964997  1
  O  O131  1  0.221965  0.387068  0.035003  1
  O  O132  1  0.126946  0.003293  0.216034  1
  O  O133  1  0.550765  0.260347  0.610500  1
  O  O134  1  0.050765  0.739653  0.889500  1
  O  O135  1  0.778035  0.612932  0.964997  1
  O  O136  1  0.721965  0.112932  0.035003  1
  O  O137  1  0.103249  0.408530  0.938782  1
  O  O138  1  0.715311  0.893222  0.711727  1
  O  O139  1  0.603249  0.091470  0.938782  1
  O  O140  1  0.715311  0.393222  0.788273  1
  O  O141  1  0.135756  0.491076  0.457217  1
  O  O142  1  0.617634  0.409372  0.687321  1
  O  O143  1  0.473735  0.778382  0.142530  1
