# generated using pymatgen
data_SrH9ClO5
_symmetry_space_group_name_H-M   'P 1'
_cell_length_a   5.96405099
_cell_length_b   7.45879399
_cell_length_c   7.75398692
_cell_angle_alpha   89.64766004
_cell_angle_beta   107.83073236
_cell_angle_gamma   92.21748705
_symmetry_Int_Tables_number   1
_chemical_formula_structural   SrH9ClO5
_chemical_formula_sum   'Sr2 H18 Cl2 O10'
_cell_volume   328.11267068
_cell_formula_units_Z   2
loop_
 _symmetry_equiv_pos_site_id
 _symmetry_equiv_pos_as_xyz
  1  'x, y, z'
loop_
 _atom_site_type_symbol
 _atom_site_label
 _atom_site_symmetry_multiplicity
 _atom_site_fract_x
 _atom_site_fract_y
 _atom_site_fract_z
 _atom_site_occupancy
  Sr  Sr0  1  0.176244  0.041996  0.284599  1
  Sr  Sr1  1  0.823756  0.958004  0.715401  1
  H  H2  1  0.118900  0.313275  0.794953  1
  H  H3  1  0.881100  0.686725  0.205047  1
  H  H4  1  0.306803  0.195529  0.944750  1
  H  H5  1  0.693197  0.804471  0.055250  1
  H  H6  1  0.545503  0.294611  0.602276  1
  H  H7  1  0.454497  0.705389  0.397724  1
  H  H8  1  0.364130  0.188347  0.681263  1
  H  H9  1  0.635870  0.811653  0.318737  1
  H  H10  1  0.096867  0.712240  0.540097  1
  H  H11  1  0.903133  0.287760  0.459903  1
  H  H12  1  0.296300  0.829610  0.679834  1
  H  H13  1  0.703700  0.170390  0.320166  1
  H  H14  1  0.313573  0.821946  0.947879  1
  H  H15  1  0.686427  0.178054  0.052121  1
  H  H16  1  0.137446  0.711554  0.028314  1
  H  H17  1  0.862554  0.288446  0.971686  1
  H  H18  1  0.458789  0.323319  0.171767  1
  H  H19  1  0.541211  0.676681  0.828233  1
  Cl  Cl20  1  0.155685  0.494096  0.281982  1
  Cl  Cl21  1  0.844315  0.505904  0.718018  1
  O  O22  1  0.197571  0.197003  0.812864  1
  O  O23  1  0.802429  0.802997  0.187136  1
  O  O24  1  0.460620  0.177293  0.595089  1
  O  O25  1  0.539380  0.822707  0.404911  1
  O  O26  1  0.144479  0.837717  0.572904  1
  O  O27  1  0.855521  0.162283  0.427096  1
  O  O28  1  0.173253  0.834366  0.995907  1
  O  O29  1  0.826747  0.165634  0.004093  1
  O  O30  1  0.477026  0.197188  0.146758  1
  O  O31  1  0.522974  0.802812  0.853242  1
