# generated using pymatgen
data_RbV3Cd3O11
_symmetry_space_group_name_H-M   'P 1'
_cell_length_a   8.56877577
_cell_length_b   9.96822880
_cell_length_c   12.87439551
_cell_angle_alpha   90.00000000
_cell_angle_beta   98.32746727
_cell_angle_gamma   90.00000000
_symmetry_Int_Tables_number   1
_chemical_formula_structural   RbV3Cd3O11
_chemical_formula_sum   'Rb4 V12 Cd12 O44'
_cell_volume   1088.07871904
_cell_formula_units_Z   4
loop_
 _symmetry_equiv_pos_site_id
 _symmetry_equiv_pos_as_xyz
  1  'x, y, z'
loop_
 _atom_site_type_symbol
 _atom_site_label
 _atom_site_symmetry_multiplicity
 _atom_site_fract_x
 _atom_site_fract_y
 _atom_site_fract_z
 _atom_site_occupancy
  Rb  Rb0  1  0.888623  0.747572  0.490263  1
  Rb  Rb1  1  0.111377  0.247572  0.009737  1
  Rb  Rb2  1  0.111377  0.252428  0.509737  1
  Rb  Rb3  1  0.888623  0.752428  0.990263  1
  V  V4  1  0.679163  0.675213  0.215839  1
  V  V5  1  0.764436  0.431847  0.850731  1
  V  V6  1  0.764436  0.068153  0.350731  1
  V  V7  1  0.222452  0.567791  0.394608  1
  V  V8  1  0.235564  0.568153  0.149269  1
  V  V9  1  0.320837  0.324787  0.784161  1
  V  V10  1  0.679163  0.824787  0.715839  1
  V  V11  1  0.777548  0.432209  0.605392  1
  V  V12  1  0.320837  0.175213  0.284161  1
  V  V13  1  0.777548  0.067791  0.105392  1
  V  V14  1  0.222452  0.932209  0.894608  1
  V  V15  1  0.235564  0.931847  0.649269  1
  Cd  Cd16  1  0.432576  0.895091  0.153045  1
  Cd  Cd17  1  0.452376  0.645168  0.932181  1
  Cd  Cd18  1  0.919686  0.375104  0.238747  1
  Cd  Cd19  1  0.919686  0.124896  0.738747  1
  Cd  Cd20  1  0.080314  0.875104  0.261253  1
  Cd  Cd21  1  0.452376  0.854832  0.432181  1
  Cd  Cd22  1  0.547624  0.354832  0.067819  1
  Cd  Cd23  1  0.432576  0.604909  0.653045  1
  Cd  Cd24  1  0.547624  0.145168  0.567819  1
  Cd  Cd25  1  0.080314  0.624896  0.761253  1
  Cd  Cd26  1  0.567424  0.395091  0.346955  1
  Cd  Cd27  1  0.567424  0.104909  0.846955  1
  O  O28  1  0.678934  0.007735  0.717032  1
  O  O29  1  0.868799  0.769519  0.733643  1
  O  O30  1  0.131201  0.269519  0.766357  1
  O  O31  1  0.784195  0.256225  0.603327  1
  O  O32  1  0.676023  0.495208  0.492497  1
  O  O33  1  0.868799  0.730481  0.233643  1
  O  O34  1  0.782513  0.258288  0.850900  1
  O  O35  1  0.962070  0.498371  0.623466  1
  O  O36  1  0.346350  0.510490  0.055160  1
  O  O37  1  0.583387  0.732649  0.092737  1
  O  O38  1  0.323401  0.983597  0.783133  1
  O  O39  1  0.321066  0.992265  0.282968  1
  O  O40  1  0.323977  0.504792  0.507503  1
  O  O41  1  0.416613  0.232649  0.407263  1
  O  O42  1  0.217487  0.741712  0.149100  1
  O  O43  1  0.653650  0.489510  0.944840  1
  O  O44  1  0.676599  0.483597  0.716867  1
  O  O45  1  0.416613  0.267351  0.907263  1
  O  O46  1  0.420159  0.260678  0.687168  1
  O  O47  1  0.215805  0.743775  0.396673  1
  O  O48  1  0.653650  0.010490  0.444840  1
  O  O49  1  0.323401  0.516403  0.283133  1
  O  O50  1  0.037930  0.998371  0.876534  1
  O  O51  1  0.676023  0.004792  0.992497  1
  O  O52  1  0.217487  0.758288  0.649100  1
  O  O53  1  0.946227  0.997856  0.372417  1
  O  O54  1  0.420159  0.239322  0.187168  1
  O  O55  1  0.053773  0.002144  0.627583  1
  O  O56  1  0.962070  0.001629  0.123466  1
  O  O57  1  0.676599  0.016403  0.216867  1
  O  O58  1  0.579841  0.739322  0.312832  1
  O  O59  1  0.053773  0.497856  0.127583  1
  O  O60  1  0.215805  0.756225  0.896673  1
  O  O61  1  0.321066  0.507735  0.782968  1
  O  O62  1  0.323977  0.995208  0.007503  1
  O  O63  1  0.784195  0.243775  0.103327  1
  O  O64  1  0.583387  0.767351  0.592737  1
  O  O65  1  0.037930  0.501629  0.376534  1
  O  O66  1  0.346350  0.989510  0.555160  1
  O  O67  1  0.579841  0.760678  0.812832  1
  O  O68  1  0.946227  0.502144  0.872417  1
  O  O69  1  0.131201  0.230481  0.266357  1
  O  O70  1  0.678934  0.492265  0.217032  1
  O  O71  1  0.782513  0.241712  0.350900  1
