# generated using pymatgen
data_Sr(PO3)2
_symmetry_space_group_name_H-M   'P 1'
_cell_length_a   4.55874952
_cell_length_b   11.06983115
_cell_length_c   10.51745398
_cell_angle_alpha   90.00000000
_cell_angle_beta   91.54000429
_cell_angle_gamma   90.00000000
_symmetry_Int_Tables_number   1
_chemical_formula_structural   Sr(PO3)2
_chemical_formula_sum   'Sr4 P8 O24'
_cell_volume   530.56726768
_cell_formula_units_Z   4
loop_
 _symmetry_equiv_pos_site_id
 _symmetry_equiv_pos_as_xyz
  1  'x, y, z'
loop_
 _atom_site_type_symbol
 _atom_site_label
 _atom_site_symmetry_multiplicity
 _atom_site_fract_x
 _atom_site_fract_y
 _atom_site_fract_z
 _atom_site_occupancy
  Sr  Sr0  1  0.031678  0.807383  0.014651  1
  Sr  Sr1  1  0.968322  0.192617  0.985349  1
  Sr  Sr2  1  0.031678  0.692617  0.514651  1
  Sr  Sr3  1  0.968322  0.307383  0.485349  1
  P  P4  1  0.436553  0.349364  0.206640  1
  P  P5  1  0.563447  0.650636  0.793360  1
  P  P6  1  0.930892  0.986711  0.716449  1
  P  P7  1  0.069108  0.013289  0.283551  1
  P  P8  1  0.563447  0.849364  0.293360  1
  P  P9  1  0.069108  0.486711  0.783551  1
  P  P10  1  0.930892  0.513289  0.216449  1
  P  P11  1  0.436553  0.150636  0.706640  1
  O  O12  1  0.896798  0.890703  0.330764  1
  O  O13  1  0.041954  0.484618  0.640109  1
  O  O14  1  0.958046  0.515382  0.359891  1
  O  O15  1  0.500637  0.249442  0.613446  1
  O  O16  1  0.041954  0.015382  0.140109  1
  O  O17  1  0.983832  0.378898  0.857455  1
  O  O18  1  0.499363  0.749442  0.886554  1
  O  O19  1  0.607280  0.027541  0.668971  1
  O  O20  1  0.103202  0.109297  0.669236  1
  O  O21  1  0.499363  0.750558  0.386554  1
  O  O22  1  0.469023  0.327757  0.347318  1
  O  O23  1  0.958046  0.984618  0.859891  1
  O  O24  1  0.530977  0.827757  0.152682  1
  O  O25  1  0.016168  0.621102  0.142545  1
  O  O26  1  0.896798  0.609297  0.830764  1
  O  O27  1  0.607280  0.472459  0.168971  1
  O  O28  1  0.016168  0.878898  0.642545  1
  O  O29  1  0.530977  0.672243  0.652682  1
  O  O30  1  0.103202  0.390703  0.169236  1
  O  O31  1  0.392720  0.972459  0.331029  1
  O  O32  1  0.500637  0.250558  0.113446  1
  O  O33  1  0.392720  0.527541  0.831029  1
  O  O34  1  0.983832  0.121102  0.357455  1
  O  O35  1  0.469023  0.172243  0.847318  1
