# generated using pymatgen
data_Pr3W(ClO2)3
_symmetry_space_group_name_H-M   'P 1'
_cell_length_a   9.42995953
_cell_length_b   9.42995953
_cell_length_c   5.44593158
_cell_angle_alpha   90.00000000
_cell_angle_beta   90.00000000
_cell_angle_gamma   120.00000000
_symmetry_Int_Tables_number   1
_chemical_formula_structural   Pr3W(ClO2)3
_chemical_formula_sum   'Pr6 W2 Cl6 O12'
_cell_volume   419.39424801
_cell_formula_units_Z   2
loop_
 _symmetry_equiv_pos_site_id
 _symmetry_equiv_pos_as_xyz
  1  'x, y, z'
loop_
 _atom_site_type_symbol
 _atom_site_label
 _atom_site_symmetry_multiplicity
 _atom_site_fract_x
 _atom_site_fract_y
 _atom_site_fract_z
 _atom_site_occupancy
  Pr  Pr0  1  0.685881  0.090386  0.250000  1
  Pr  Pr1  1  0.404505  0.314119  0.250000  1
  Pr  Pr2  1  0.090386  0.404505  0.750000  1
  Pr  Pr3  1  0.909614  0.595495  0.250000  1
  Pr  Pr4  1  0.595495  0.685881  0.750000  1
  Pr  Pr5  1  0.314119  0.909614  0.750000  1
  W  W6  1  0.333333  0.666667  0.250000  1
  W  W7  1  0.666667  0.333333  0.750000  1
  Cl  Cl8  1  0.951859  0.759481  0.750000  1
  Cl  Cl9  1  0.240519  0.192378  0.750000  1
  Cl  Cl10  1  0.759481  0.807622  0.250000  1
  Cl  Cl11  1  0.807622  0.048141  0.750000  1
  Cl  Cl12  1  0.192378  0.951859  0.250000  1
  Cl  Cl13  1  0.048141  0.240519  0.250000  1
  O  O14  1  0.635951  0.475731  0.518675  1
  O  O15  1  0.364049  0.524269  0.481325  1
  O  O16  1  0.475731  0.839780  0.018675  1
  O  O17  1  0.839780  0.364049  0.981325  1
  O  O18  1  0.524269  0.160220  0.518675  1
  O  O19  1  0.364049  0.524269  0.018675  1
  O  O20  1  0.524269  0.160220  0.981325  1
  O  O21  1  0.839780  0.364049  0.518675  1
  O  O22  1  0.475731  0.839780  0.481325  1
  O  O23  1  0.635951  0.475731  0.981325  1
  O  O24  1  0.160220  0.635951  0.481325  1
  O  O25  1  0.160220  0.635951  0.018675  1
