# generated using pymatgen
data_KNaP2H2O7
_symmetry_space_group_name_H-M   'P 1'
_cell_length_a   8.01695345
_cell_length_b   8.03892261
_cell_length_c   11.48029459
_cell_angle_alpha   106.48749512
_cell_angle_beta   95.30391802
_cell_angle_gamma   90.06560230
_symmetry_Int_Tables_number   1
_chemical_formula_structural   KNaP2H2O7
_chemical_formula_sum   'K4 Na4 P8 H8 O28'
_cell_volume   706.12754533
_cell_formula_units_Z   4
loop_
 _symmetry_equiv_pos_site_id
 _symmetry_equiv_pos_as_xyz
  1  'x, y, z'
loop_
 _atom_site_type_symbol
 _atom_site_label
 _atom_site_symmetry_multiplicity
 _atom_site_fract_x
 _atom_site_fract_y
 _atom_site_fract_z
 _atom_site_occupancy
  K  K0  1  0.222861  0.646878  0.436148  1
  K  K1  1  0.777139  0.353122  0.563852  1
  K  K2  1  0.339402  0.764904  0.063322  1
  K  K3  1  0.660598  0.235096  0.936678  1
  Na  Na4  1  0.667971  0.851443  0.420022  1
  Na  Na5  1  0.332029  0.148557  0.579978  1
  Na  Na6  1  0.123649  0.210322  0.076934  1
  Na  Na7  1  0.876351  0.789678  0.923066  1
  P  P8  1  0.448672  0.159062  0.293209  1
  P  P9  1  0.551328  0.840938  0.706791  1
  P  P10  1  0.783554  0.068588  0.210592  1
  P  P11  1  0.216446  0.931412  0.789408  1
  P  P12  1  0.852351  0.446997  0.286008  1
  P  P13  1  0.147649  0.553003  0.713992  1
  P  P14  1  0.491823  0.471026  0.209216  1
  P  P15  1  0.508177  0.528974  0.790784  1
  H  H16  1  0.191342  0.004282  0.346490  1
  H  H17  1  0.808658  0.995718  0.653510  1
  H  H18  1  0.023553  0.968361  0.390250  1
  H  H19  1  0.976447  0.031639  0.609750  1
  H  H20  1  0.010347  0.593477  0.119048  1
  H  H21  1  0.989653  0.406523  0.880952  1
  H  H22  1  0.958389  0.783444  0.158247  1
  H  H23  1  0.041611  0.216556  0.841753  1
  O  O24  1  0.579013  0.078286  0.191159  1
  O  O25  1  0.420987  0.921714  0.808841  1
  O  O26  1  0.833949  0.255851  0.309549  1
  O  O27  1  0.166051  0.744149  0.690451  1
  O  O28  1  0.690433  0.442540  0.187567  1
  O  O29  1  0.309567  0.557460  0.812433  1
  O  O30  1  0.466883  0.367863  0.311104  1
  O  O31  1  0.533117  0.632137  0.688896  1
  O  O32  1  0.278442  0.091950  0.231876  1
  O  O33  1  0.721558  0.908050  0.768124  1
  O  O34  1  0.508905  0.132217  0.413888  1
  O  O35  1  0.491095  0.867783  0.586112  1
  O  O36  1  0.845226  0.057932  0.089471  1
  O  O37  1  0.154774  0.942068  0.910529  1
  O  O38  1  0.828901  0.932939  0.274059  1
  O  O39  1  0.171099  0.067061  0.725941  1
  O  O40  1  0.833771  0.577710  0.405876  1
  O  O41  1  0.166229  0.422290  0.594124  1
  O  O42  1  0.005769  0.450361  0.220889  1
  O  O43  1  0.994231  0.549639  0.779111  1
  O  O44  1  0.464663  0.658514  0.271470  1
  O  O45  1  0.535337  0.341486  0.728530  1
  O  O46  1  0.395831  0.381068  0.089579  1
  O  O47  1  0.604169  0.618932  0.910421  1
  O  O48  1  0.144743  0.971410  0.413928  1
  O  O49  1  0.855257  0.028590  0.586072  1
  O  O50  1  0.012190  0.700146  0.092921  1
  O  O51  1  0.987810  0.299854  0.907079  1
