# generated using pymatgen
data_Cd4GeS6
_symmetry_space_group_name_H-M   'P 1'
_cell_length_a   7.27927468
_cell_length_b   7.27927468
_cell_length_c   12.66627827
_cell_angle_alpha   72.61856751
_cell_angle_beta   107.38143249
_cell_angle_gamma   120.17978460
_symmetry_Int_Tables_number   1
_chemical_formula_structural   Cd4GeS6
_chemical_formula_sum   'Cd8 Ge2 S12'
_cell_volume   544.64093875
_cell_formula_units_Z   2
loop_
 _symmetry_equiv_pos_site_id
 _symmetry_equiv_pos_as_xyz
  1  'x, y, z'
loop_
 _atom_site_type_symbol
 _atom_site_label
 _atom_site_symmetry_multiplicity
 _atom_site_fract_x
 _atom_site_fract_y
 _atom_site_fract_z
 _atom_site_occupancy
  Cd  Cd0  1  0.268750  0.328701  0.700175  1
  Cd  Cd1  1  0.671299  0.731250  0.200175  1
  Cd  Cd2  1  0.756858  0.087250  0.855562  1
  Cd  Cd3  1  0.912750  0.243142  0.355562  1
  Cd  Cd4  1  0.544051  0.233982  0.047469  1
  Cd  Cd5  1  0.766018  0.455949  0.547469  1
  Cd  Cd6  1  0.072689  0.714030  0.857336  1
  Cd  Cd7  1  0.285970  0.927311  0.357336  1
  Ge  Ge8  1  0.131518  0.322878  0.109952  1
  Ge  Ge9  1  0.677122  0.868482  0.609952  1
  S  S10  1  0.709120  0.754037  0.795230  1
  S  S11  1  0.245963  0.290880  0.295230  1
  S  S12  1  0.560782  0.989844  0.241248  1
  S  S13  1  0.010156  0.439218  0.741248  1
  S  S14  1  0.997638  0.045842  0.559166  1
  S  S15  1  0.954158  0.002362  0.059166  1
  S  S16  1  0.954233  0.519201  0.052955  1
  S  S17  1  0.480799  0.045767  0.552955  1
  S  S18  1  0.430536  0.525676  0.034110  1
  S  S19  1  0.474324  0.569464  0.534110  1
  S  S20  1  0.403901  0.086436  0.862598  1
  S  S21  1  0.913564  0.596099  0.362598  1
