# generated using pymatgen
data_KMoAsO6
_symmetry_space_group_name_H-M   'P 1'
_cell_length_a   6.75935019
_cell_length_b   7.13962604
_cell_length_c   10.94219996
_cell_angle_alpha   90.00000000
_cell_angle_beta   90.00000000
_cell_angle_gamma   90.00000000
_symmetry_Int_Tables_number   1
_chemical_formula_structural   KMoAsO6
_chemical_formula_sum   'K4 Mo4 As4 O24'
_cell_volume   528.06217335
_cell_formula_units_Z   4
loop_
 _symmetry_equiv_pos_site_id
 _symmetry_equiv_pos_as_xyz
  1  'x, y, z'
loop_
 _atom_site_type_symbol
 _atom_site_label
 _atom_site_symmetry_multiplicity
 _atom_site_fract_x
 _atom_site_fract_y
 _atom_site_fract_z
 _atom_site_occupancy
  K  K0  1  0.500000  0.000000  0.500000  1
  K  K1  1  0.000000  0.500000  0.000000  1
  K  K2  1  0.500000  0.500000  0.000000  1
  K  K3  1  0.000000  0.000000  0.500000  1
  Mo  Mo4  1  0.750000  0.548388  0.339982  1
  Mo  Mo5  1  0.250000  0.451612  0.660018  1
  Mo  Mo6  1  0.250000  0.048388  0.160018  1
  Mo  Mo7  1  0.750000  0.951612  0.839982  1
  As  As8  1  0.750000  0.542619  0.654303  1
  As  As9  1  0.250000  0.457381  0.345697  1
  As  As10  1  0.750000  0.957381  0.154303  1
  As  As11  1  0.250000  0.042619  0.845697  1
  O  O12  1  0.750000  0.328494  0.409153  1
  O  O13  1  0.456043  0.602883  0.350351  1
  O  O14  1  0.750000  0.815243  0.027895  1
  O  O15  1  0.250000  0.315243  0.472105  1
  O  O16  1  0.750000  0.487774  0.186415  1
  O  O17  1  0.750000  0.650208  0.794846  1
  O  O18  1  0.956043  0.397117  0.649649  1
  O  O19  1  0.750000  0.012226  0.686415  1
  O  O20  1  0.043957  0.897117  0.850351  1
  O  O21  1  0.750000  0.849792  0.294846  1
  O  O22  1  0.543957  0.102883  0.149649  1
  O  O23  1  0.956043  0.102883  0.149649  1
  O  O24  1  0.250000  0.987774  0.313585  1
  O  O25  1  0.250000  0.349792  0.205154  1
  O  O26  1  0.750000  0.684757  0.527895  1
  O  O27  1  0.250000  0.512226  0.813585  1
  O  O28  1  0.250000  0.184757  0.972105  1
  O  O29  1  0.043957  0.602883  0.350351  1
  O  O30  1  0.750000  0.171506  0.909153  1
  O  O31  1  0.456043  0.897117  0.850351  1
  O  O32  1  0.250000  0.150208  0.705154  1
  O  O33  1  0.250000  0.671506  0.590847  1
  O  O34  1  0.543957  0.397117  0.649649  1
  O  O35  1  0.250000  0.828494  0.090847  1
