# generated using pymatgen
data_Na2TiSiO5
_symmetry_space_group_name_H-M   'P 1'
_cell_length_a   4.86754700
_cell_length_b   9.23820000
_cell_length_c   9.96300600
_cell_angle_alpha   90.00000000
_cell_angle_beta   90.00000000
_cell_angle_gamma   90.00000000
_symmetry_Int_Tables_number   1
_chemical_formula_structural   Na2TiSiO5
_chemical_formula_sum   'Na8 Ti4 Si4 O20'
_cell_volume   448.01020397
_cell_formula_units_Z   4
loop_
 _symmetry_equiv_pos_site_id
 _symmetry_equiv_pos_as_xyz
  1  'x, y, z'
loop_
 _atom_site_type_symbol
 _atom_site_label
 _atom_site_symmetry_multiplicity
 _atom_site_fract_x
 _atom_site_fract_y
 _atom_site_fract_z
 _atom_site_occupancy
  Na  Na0  1  0.005160  0.251347  0.503837  1
  Na  Na1  1  0.006529  0.500000  0.753442  1
  Na  Na2  1  0.993471  0.500000  0.253442  1
  Na  Na3  1  0.405893  0.000000  0.005403  1
  Na  Na4  1  0.994840  0.251347  0.003837  1
  Na  Na5  1  0.994840  0.748653  0.003837  1
  Na  Na6  1  0.594107  0.000000  0.505403  1
  Na  Na7  1  0.005160  0.748653  0.503837  1
  Ti  Ti8  1  0.532858  0.500000  0.998907  1
  Ti  Ti9  1  0.973678  0.000000  0.785144  1
  Ti  Ti10  1  0.026322  0.000000  0.285144  1
  Ti  Ti11  1  0.467142  0.500000  0.498907  1
  Si  Si12  1  0.504411  0.749963  0.749365  1
  Si  Si13  1  0.495589  0.250037  0.249365  1
  Si  Si14  1  0.504411  0.250037  0.749365  1
  Si  Si15  1  0.495589  0.749963  0.249365  1
  O  O16  1  0.639221  0.647526  0.134017  1
  O  O17  1  0.251242  0.147453  0.184048  1
  O  O18  1  0.740527  0.149181  0.314676  1
  O  O19  1  0.821770  0.500000  0.498102  1
  O  O20  1  0.646711  0.353425  0.864199  1
  O  O21  1  0.353289  0.353425  0.364199  1
  O  O22  1  0.639221  0.352474  0.134017  1
  O  O23  1  0.251242  0.852547  0.184048  1
  O  O24  1  0.646711  0.646575  0.864199  1
  O  O25  1  0.353289  0.646575  0.364199  1
  O  O26  1  0.850769  0.000000  0.947118  1
  O  O27  1  0.259473  0.850819  0.814676  1
  O  O28  1  0.360779  0.647526  0.634017  1
  O  O29  1  0.259473  0.149181  0.814676  1
  O  O30  1  0.748758  0.147453  0.684048  1
  O  O31  1  0.740527  0.850819  0.314676  1
  O  O32  1  0.149231  0.000000  0.447118  1
  O  O33  1  0.748758  0.852547  0.684048  1
  O  O34  1  0.178230  0.500000  0.998102  1
  O  O35  1  0.360779  0.352474  0.634017  1
