# generated using pymatgen
data_Ca(PO3)2
_symmetry_space_group_name_H-M   'P 1'
_cell_length_a   7.12080076
_cell_length_b   7.83570276
_cell_length_c   17.22035209
_cell_angle_alpha   90.00000000
_cell_angle_beta   90.38621720
_cell_angle_gamma   90.00000000
_symmetry_Int_Tables_number   1
_chemical_formula_structural   Ca(PO3)2
_chemical_formula_sum   'Ca8 P16 O48'
_cell_volume   960.81316984
_cell_formula_units_Z   8
loop_
 _symmetry_equiv_pos_site_id
 _symmetry_equiv_pos_as_xyz
  1  'x, y, z'
loop_
 _atom_site_type_symbol
 _atom_site_label
 _atom_site_symmetry_multiplicity
 _atom_site_fract_x
 _atom_site_fract_y
 _atom_site_fract_z
 _atom_site_occupancy
  Ca  Ca0  1  0.015800  0.867639  0.829685  1
  Ca  Ca1  1  0.984200  0.367639  0.670315  1
  Ca  Ca2  1  0.984200  0.132361  0.170315  1
  Ca  Ca3  1  0.015800  0.632361  0.329685  1
  Ca  Ca4  1  0.474345  0.384512  0.603028  1
  Ca  Ca5  1  0.525655  0.884512  0.896972  1
  Ca  Ca6  1  0.525655  0.615488  0.396972  1
  Ca  Ca7  1  0.474345  0.115488  0.103028  1
  P  P8  1  0.138666  0.700351  0.537717  1
  P  P9  1  0.861334  0.200351  0.962283  1
  P  P10  1  0.861334  0.299649  0.462283  1
  P  P11  1  0.138666  0.799649  0.037717  1
  P  P12  1  0.627427  0.998426  0.694037  1
  P  P13  1  0.372573  0.498426  0.805963  1
  P  P14  1  0.372573  0.001574  0.305963  1
  P  P15  1  0.627427  0.501574  0.194037  1
  P  P16  1  0.218600  0.988679  0.646905  1
  P  P17  1  0.781400  0.488679  0.853095  1
  P  P18  1  0.781400  0.011321  0.353095  1
  P  P19  1  0.218600  0.511321  0.146905  1
  P  P20  1  0.733231  0.788303  0.088335  1
  P  P21  1  0.266769  0.288303  0.411665  1
  P  P22  1  0.266769  0.211697  0.911665  1
  P  P23  1  0.733231  0.711697  0.588335  1
  O  O24  1  0.423547  0.162138  0.966660  1
  O  O25  1  0.576453  0.662138  0.533340  1
  O  O26  1  0.576453  0.837862  0.033340  1
  O  O27  1  0.423547  0.337862  0.466660  1
  O  O28  1  0.759260  0.588668  0.654929  1
  O  O29  1  0.240740  0.088668  0.845071  1
  O  O30  1  0.240740  0.411332  0.345071  1
  O  O31  1  0.759260  0.911332  0.154929  1
  O  O32  1  0.179669  0.555763  0.593143  1
  O  O33  1  0.820331  0.055763  0.906857  1
  O  O34  1  0.820331  0.444237  0.406857  1
  O  O35  1  0.179669  0.944237  0.093143  1
  O  O36  1  0.063361  0.571180  0.198213  1
  O  O37  1  0.936639  0.071180  0.301787  1
  O  O38  1  0.936639  0.428820  0.801787  1
  O  O39  1  0.063361  0.928820  0.698213  1
  O  O40  1  0.410456  0.558798  0.190329  1
  O  O41  1  0.589544  0.058798  0.309671  1
  O  O42  1  0.082583  0.239693  0.962445  1
  O  O43  1  0.410456  0.941202  0.690329  1
  O  O44  1  0.220894  0.326745  0.121976  1
  O  O45  1  0.779106  0.826745  0.378024  1
  O  O46  1  0.779106  0.673255  0.878024  1
  O  O47  1  0.220894  0.173255  0.621976  1
  O  O48  1  0.228332  0.622662  0.068058  1
  O  O49  1  0.771668  0.122662  0.431942  1
  O  O50  1  0.771668  0.377338  0.931942  1
  O  O51  1  0.228332  0.877338  0.568058  1
  O  O52  1  0.917417  0.739693  0.537555  1
  O  O53  1  0.705908  0.903733  0.617524  1
  O  O54  1  0.082583  0.260307  0.462445  1
  O  O55  1  0.917417  0.760307  0.037555  1
  O  O56  1  0.193483  0.681278  0.454322  1
  O  O57  1  0.806517  0.181278  0.045678  1
  O  O58  1  0.806517  0.318722  0.545678  1
  O  O59  1  0.193483  0.818722  0.954322  1
  O  O60  1  0.653140  0.314144  0.178829  1
  O  O61  1  0.346860  0.814144  0.321171  1
  O  O62  1  0.346860  0.685856  0.821171  1
  O  O63  1  0.653140  0.185856  0.678829  1
  O  O64  1  0.699298  0.575875  0.268603  1
  O  O65  1  0.300702  0.075875  0.231397  1
  O  O66  1  0.300702  0.424125  0.731397  1
  O  O67  1  0.699298  0.924125  0.768603  1
  O  O68  1  0.705908  0.596267  0.117524  1
  O  O69  1  0.294092  0.096267  0.382476  1
  O  O70  1  0.294092  0.403733  0.882476  1
  O  O71  1  0.589544  0.441202  0.809671  1
