# generated using pymatgen
data_Na17Al5O16
_symmetry_space_group_name_H-M   'P 1'
_cell_length_a   16.89021287
_cell_length_b   16.89021287
_cell_length_c   6.03477408
_cell_angle_alpha   84.92359380
_cell_angle_beta   95.07640620
_cell_angle_gamma   20.56332606
_symmetry_Int_Tables_number   1
_chemical_formula_structural   Na17Al5O16
_chemical_formula_sum   'Na17 Al5 O16'
_cell_volume   525.16070363
_cell_formula_units_Z   1
loop_
 _symmetry_equiv_pos_site_id
 _symmetry_equiv_pos_as_xyz
  1  'x, y, z'
loop_
 _atom_site_type_symbol
 _atom_site_label
 _atom_site_symmetry_multiplicity
 _atom_site_fract_x
 _atom_site_fract_y
 _atom_site_fract_z
 _atom_site_occupancy
  Na  Na0  1  0.212354  0.329118  0.050735  1
  Na  Na1  1  0.089942  0.086926  0.193935  1
  Na  Na2  1  0.670882  0.787646  0.050735  1
  Na  Na3  1  0.330543  0.393666  0.057258  1
  Na  Na4  1  0.582490  0.509517  0.611380  1
  Na  Na5  1  0.913074  0.910058  0.193935  1
  Na  Na6  1  0.820326  0.827169  0.463666  1
  Na  Na7  1  0.398834  0.326583  0.586310  1
  Na  Na8  1  0.673417  0.601166  0.586310  1
  Na  Na9  1  0.515818  0.576252  0.079238  1
  Na  Na10  1  0.172831  0.179674  0.463666  1
  Na  Na11  1  0.777709  0.671958  0.623995  1
  Na  Na12  1  0.606334  0.669457  0.057258  1
  Na  Na13  1  0.423748  0.484182  0.079238  1
  Na  Na14  1  0.490483  0.417510  0.611380  1
  Na  Na15  1  0.328042  0.222291  0.623995  1
  Na  Na16  1  0.000957  0.999043  0.487629  1
  Al  Al17  1  0.822331  0.817189  0.991587  1
  Al  Al18  1  0.182811  0.177669  0.991587  1
  Al  Al19  1  0.913062  0.906409  0.675625  1
  Al  Al20  1  0.093591  0.086938  0.675625  1
  Al  Al21  1  0.004342  0.995658  0.003930  1
  O  O22  1  0.721846  0.278154  0.022817  1
  O  O23  1  0.777400  0.790296  0.768002  1
  O  O24  1  0.132570  0.126484  0.878526  1
  O  O25  1  0.959470  0.953978  0.824793  1
  O  O26  1  0.813684  0.372778  0.377121  1
  O  O27  1  0.046022  0.040530  0.824793  1
  O  O28  1  0.289864  0.710136  0.300789  1
  O  O29  1  0.475391  0.896889  0.288055  1
  O  O30  1  0.536090  0.093219  0.015080  1
  O  O31  1  0.103111  0.524609  0.288055  1
  O  O32  1  0.627222  0.186316  0.377121  1
  O  O33  1  0.192934  0.620525  0.658112  1
  O  O34  1  0.209704  0.222600  0.768002  1
  O  O35  1  0.379475  0.807066  0.658112  1
  O  O36  1  0.873516  0.867430  0.878526  1
  O  O37  1  0.906781  0.463910  0.015080  1
