# generated using pymatgen
data_Al(HO)3
_symmetry_space_group_name_H-M   'P 1'
_cell_length_a   5.12345783
_cell_length_b   8.76280645
_cell_length_c   10.77875242
_cell_angle_alpha   90.00000000
_cell_angle_beta   118.10203873
_cell_angle_gamma   90.00000000
_symmetry_Int_Tables_number   1
_chemical_formula_structural   Al(HO)3
_chemical_formula_sum   'Al8 H24 O24'
_cell_volume   426.87201044
_cell_formula_units_Z   8
loop_
 _symmetry_equiv_pos_site_id
 _symmetry_equiv_pos_as_xyz
  1  'x, y, z'
loop_
 _atom_site_type_symbol
 _atom_site_label
 _atom_site_symmetry_multiplicity
 _atom_site_fract_x
 _atom_site_fract_y
 _atom_site_fract_z
 _atom_site_occupancy
  Al  Al0  1  0.035096  0.832181  0.503519  1
  Al  Al1  1  0.471164  0.334479  0.496446  1
  Al  Al2  1  0.035096  0.667819  0.003519  1
  Al  Al3  1  0.471164  0.165521  0.996446  1
  Al  Al4  1  0.964904  0.332181  0.996481  1
  Al  Al5  1  0.528836  0.665521  0.503554  1
  Al  Al6  1  0.528836  0.834479  0.003554  1
  Al  Al7  1  0.964904  0.167819  0.496481  1
  H  H8  1  0.828655  0.916618  0.885777  1
  H  H9  1  0.466844  0.729309  0.711348  1
  H  H10  1  0.434082  0.462294  0.126051  1
  H  H11  1  0.210066  0.096104  0.354364  1
  H  H12  1  0.533156  0.229309  0.788652  1
  H  H13  1  0.753366  0.494214  0.706954  1
  H  H14  1  0.565918  0.537706  0.873949  1
  H  H15  1  0.112420  0.793491  0.294786  1
  H  H16  1  0.533156  0.270691  0.288652  1
  H  H17  1  0.434082  0.037706  0.626051  1
  H  H18  1  0.171345  0.083382  0.114223  1
  H  H19  1  0.789934  0.903896  0.645636  1
  H  H20  1  0.565918  0.962294  0.373949  1
  H  H21  1  0.210066  0.403896  0.854364  1
  H  H22  1  0.887580  0.206509  0.705214  1
  H  H23  1  0.789934  0.596104  0.145636  1
  H  H24  1  0.246634  0.505786  0.293046  1
  H  H25  1  0.246634  0.994214  0.793046  1
  H  H26  1  0.753366  0.005786  0.206954  1
  H  H27  1  0.466844  0.770691  0.211348  1
  H  H28  1  0.828655  0.583382  0.385777  1
  H  H29  1  0.887580  0.293491  0.205214  1
  H  H30  1  0.171345  0.416618  0.614223  1
  H  H31  1  0.112420  0.706509  0.794786  1
  O  O32  1  0.743964  0.820985  0.897395  1
  O  O33  1  0.765045  0.988709  0.389923  1
  O  O34  1  0.734945  0.009154  0.111751  1
  O  O35  1  0.265055  0.990846  0.888249  1
  O  O36  1  0.837820  0.692287  0.115959  1
  O  O37  1  0.265055  0.509154  0.388249  1
  O  O38  1  0.335660  0.804611  0.114669  1
  O  O39  1  0.162180  0.192287  0.384041  1
  O  O40  1  0.664340  0.195389  0.885331  1
  O  O41  1  0.234955  0.488709  0.110077  1
  O  O42  1  0.256036  0.179015  0.102605  1
  O  O43  1  0.765045  0.511291  0.889923  1
  O  O44  1  0.256036  0.320985  0.602605  1
  O  O45  1  0.743964  0.679015  0.397395  1
  O  O46  1  0.162180  0.307713  0.884041  1
  O  O47  1  0.664340  0.304611  0.385331  1
  O  O48  1  0.837820  0.807713  0.615959  1
  O  O49  1  0.335660  0.695389  0.614669  1
  O  O50  1  0.243536  0.674410  0.892638  1
  O  O51  1  0.756464  0.174410  0.607362  1
  O  O52  1  0.234955  0.011291  0.610077  1
  O  O53  1  0.243536  0.825590  0.392638  1
  O  O54  1  0.734945  0.490846  0.611751  1
  O  O55  1  0.756464  0.325590  0.107362  1
