# generated using pymatgen
data_Nd3Si2ClO8
_symmetry_space_group_name_H-M   'P 1'
_cell_length_a   6.38213954
_cell_length_b   7.17106630
_cell_length_c   18.34258559
_cell_angle_alpha   90.00000000
_cell_angle_beta   90.00000000
_cell_angle_gamma   90.00000000
_symmetry_Int_Tables_number   1
_chemical_formula_structural   Nd3Si2ClO8
_chemical_formula_sum   'Nd12 Si8 Cl4 O32'
_cell_volume   839.48045159
_cell_formula_units_Z   4
loop_
 _symmetry_equiv_pos_site_id
 _symmetry_equiv_pos_as_xyz
  1  'x, y, z'
loop_
 _atom_site_type_symbol
 _atom_site_label
 _atom_site_symmetry_multiplicity
 _atom_site_fract_x
 _atom_site_fract_y
 _atom_site_fract_z
 _atom_site_occupancy
  Nd  Nd0  1  0.874200  0.974849  0.590748  1
  Nd  Nd1  1  0.625800  0.474849  0.590748  1
  Nd  Nd2  1  0.125800  0.025151  0.090748  1
  Nd  Nd3  1  0.125800  0.025151  0.409252  1
  Nd  Nd4  1  0.383367  0.190616  0.750000  1
  Nd  Nd5  1  0.883367  0.309384  0.250000  1
  Nd  Nd6  1  0.374200  0.525151  0.090748  1
  Nd  Nd7  1  0.374200  0.525151  0.409252  1
  Nd  Nd8  1  0.616633  0.809384  0.250000  1
  Nd  Nd9  1  0.116633  0.690616  0.750000  1
  Nd  Nd10  1  0.625800  0.474849  0.909252  1
  Nd  Nd11  1  0.874200  0.974849  0.909252  1
  Si  Si12  1  0.120059  0.465389  0.599954  1
  Si  Si13  1  0.379941  0.965389  0.900046  1
  Si  Si14  1  0.879941  0.534611  0.099954  1
  Si  Si15  1  0.620059  0.034611  0.400046  1
  Si  Si16  1  0.379941  0.965389  0.599954  1
  Si  Si17  1  0.620059  0.034611  0.099954  1
  Si  Si18  1  0.879941  0.534611  0.400046  1
  Si  Si19  1  0.120059  0.465389  0.900046  1
  Cl  Cl20  1  0.764249  0.943835  0.750000  1
  Cl  Cl21  1  0.235751  0.056165  0.250000  1
  Cl  Cl22  1  0.264249  0.556165  0.250000  1
  Cl  Cl23  1  0.735751  0.443835  0.750000  1
  O  O24  1  0.049572  0.704209  0.094659  1
  O  O25  1  0.970950  0.650193  0.618749  1
  O  O26  1  0.217482  0.981425  0.531461  1
  O  O27  1  0.950428  0.295791  0.594659  1
  O  O28  1  0.273206  0.451071  0.825892  1
  O  O29  1  0.273206  0.451071  0.674108  1
  O  O30  1  0.226794  0.951071  0.825892  1
  O  O31  1  0.726794  0.548929  0.174108  1
  O  O32  1  0.529050  0.150193  0.618749  1
  O  O33  1  0.549572  0.795791  0.594659  1
  O  O34  1  0.717482  0.518575  0.468539  1
  O  O35  1  0.450428  0.204209  0.405341  1
  O  O36  1  0.282518  0.481425  0.531461  1
  O  O37  1  0.282518  0.481425  0.968539  1
  O  O38  1  0.549572  0.795791  0.905341  1
  O  O39  1  0.529050  0.150193  0.881251  1
  O  O40  1  0.470950  0.849807  0.381251  1
  O  O41  1  0.970950  0.650193  0.881251  1
  O  O42  1  0.226794  0.951071  0.674108  1
  O  O43  1  0.773206  0.048929  0.174108  1
  O  O44  1  0.773206  0.048929  0.325892  1
  O  O45  1  0.029050  0.349807  0.381251  1
  O  O46  1  0.717482  0.518575  0.031461  1
  O  O47  1  0.470950  0.849807  0.118749  1
  O  O48  1  0.782518  0.018575  0.031461  1
  O  O49  1  0.950428  0.295791  0.905341  1
  O  O50  1  0.217482  0.981425  0.968539  1
  O  O51  1  0.049572  0.704209  0.405341  1
  O  O52  1  0.782518  0.018575  0.468539  1
  O  O53  1  0.726794  0.548929  0.325892  1
  O  O54  1  0.450428  0.204209  0.094659  1
  O  O55  1  0.029050  0.349807  0.118749  1
