# generated using pymatgen
data_SbPOF8
_symmetry_space_group_name_H-M   'P 1'
_cell_length_a   5.60352041
_cell_length_b   17.51324204
_cell_length_c   7.71056634
_cell_angle_alpha   90.00000000
_cell_angle_beta   99.55914226
_cell_angle_gamma   90.00000000
_symmetry_Int_Tables_number   1
_chemical_formula_structural   SbPOF8
_chemical_formula_sum   'Sb4 P4 O4 F32'
_cell_volume   746.17590837
_cell_formula_units_Z   4
loop_
 _symmetry_equiv_pos_site_id
 _symmetry_equiv_pos_as_xyz
  1  'x, y, z'
loop_
 _atom_site_type_symbol
 _atom_site_label
 _atom_site_symmetry_multiplicity
 _atom_site_fract_x
 _atom_site_fract_y
 _atom_site_fract_z
 _atom_site_occupancy
  Sb  Sb0  1  0.033689  0.122306  0.261168  1
  Sb  Sb1  1  0.966311  0.877694  0.738832  1
  Sb  Sb2  1  0.033689  0.377694  0.761168  1
  Sb  Sb3  1  0.966311  0.622306  0.238832  1
  P  P4  1  0.625346  0.130710  0.855571  1
  P  P5  1  0.625346  0.369290  0.355571  1
  P  P6  1  0.374654  0.630710  0.644429  1
  P  P7  1  0.374654  0.869290  0.144429  1
  O  O8  1  0.173392  0.872934  0.995690  1
  O  O9  1  0.826608  0.372934  0.504310  1
  O  O10  1  0.173392  0.627066  0.495690  1
  O  O11  1  0.826608  0.127066  0.004310  1
  F  F12  1  0.753667  0.420168  0.831660  1
  F  F13  1  0.284842  0.163681  0.151285  1
  F  F14  1  0.780188  0.620878  0.009568  1
  F  F15  1  0.871734  0.522823  0.300909  1
  F  F16  1  0.083555  0.776979  0.710774  1
  F  F17  1  0.219812  0.120878  0.490432  1
  F  F18  1  0.525411  0.703469  0.652805  1
  F  F19  1  0.916445  0.276979  0.789226  1
  F  F20  1  0.246333  0.920168  0.668340  1
  F  F21  1  0.474589  0.203469  0.847195  1
  F  F22  1  0.559462  0.933560  0.148219  1
  F  F23  1  0.440538  0.066440  0.851781  1
  F  F24  1  0.083555  0.723021  0.210774  1
  F  F25  1  0.916445  0.223021  0.289226  1
  F  F26  1  0.128266  0.477177  0.699091  1
  F  F27  1  0.440538  0.433560  0.351781  1
  F  F28  1  0.474589  0.296531  0.347195  1
  F  F29  1  0.219812  0.379122  0.990432  1
  F  F30  1  0.559462  0.566440  0.648219  1
  F  F31  1  0.753667  0.079832  0.331660  1
  F  F32  1  0.289241  0.873087  0.321515  1
  F  F33  1  0.715158  0.663681  0.348715  1
  F  F34  1  0.780188  0.879122  0.509568  1
  F  F35  1  0.525411  0.796531  0.152805  1
  F  F36  1  0.710759  0.126913  0.678485  1
  F  F37  1  0.246333  0.579832  0.168340  1
  F  F38  1  0.128266  0.022823  0.199091  1
  F  F39  1  0.710759  0.373087  0.178485  1
  F  F40  1  0.284842  0.336319  0.651285  1
  F  F41  1  0.715158  0.836319  0.848715  1
  F  F42  1  0.289241  0.626913  0.821515  1
  F  F43  1  0.871734  0.977177  0.800909  1
