# generated using pymatgen
data_RbAlAs2O7
_symmetry_space_group_name_H-M   'P 1'
_cell_length_a   6.35503658
_cell_length_b   6.43699884
_cell_length_c   8.41431764
_cell_angle_alpha   96.84178729
_cell_angle_beta   103.99642275
_cell_angle_gamma   102.57944560
_symmetry_Int_Tables_number   1
_chemical_formula_structural   RbAlAs2O7
_chemical_formula_sum   'Rb2 Al2 As4 O14'
_cell_volume   320.56191755
_cell_formula_units_Z   2
loop_
 _symmetry_equiv_pos_site_id
 _symmetry_equiv_pos_as_xyz
  1  'x, y, z'
loop_
 _atom_site_type_symbol
 _atom_site_label
 _atom_site_symmetry_multiplicity
 _atom_site_fract_x
 _atom_site_fract_y
 _atom_site_fract_z
 _atom_site_occupancy
  Rb  Rb0  1  0.000000  0.000000  0.000000  1
  Rb  Rb1  1  0.000000  0.000000  0.500000  1
  Al  Al2  1  0.624133  0.315272  0.770545  1
  Al  Al3  1  0.375867  0.684728  0.229455  1
  As  As4  1  0.177772  0.472806  0.814477  1
  As  As5  1  0.822228  0.527194  0.185523  1
  As  As6  1  0.508118  0.757173  0.663080  1
  As  As7  1  0.491882  0.242827  0.336920  1
  O  O8  1  0.336467  0.290886  0.812784  1
  O  O9  1  0.468730  0.254273  0.533999  1
  O  O10  1  0.580761  0.012316  0.772017  1
  O  O11  1  0.326431  0.379041  0.222373  1
  O  O12  1  0.091198  0.677817  0.271360  1
  O  O13  1  0.908802  0.322183  0.728640  1
  O  O14  1  0.419239  0.987684  0.227983  1
  O  O15  1  0.663533  0.709114  0.187216  1
  O  O16  1  0.531270  0.745727  0.466001  1
  O  O17  1  0.778064  0.360304  0.340088  1
  O  O18  1  0.673569  0.620959  0.777628  1
  O  O19  1  0.221936  0.639696  0.659912  1
  O  O20  1  0.226018  0.646696  0.993957  1
  O  O21  1  0.773982  0.353304  0.006043  1
