# generated using pymatgen
data_VP2O7
_symmetry_space_group_name_H-M   'P 1'
_cell_length_a   5.20155633
_cell_length_b   6.73439742
_cell_length_c   8.20841218
_cell_angle_alpha   69.97316777
_cell_angle_beta   88.44026426
_cell_angle_gamma   88.92804861
_symmetry_Int_Tables_number   1
_chemical_formula_structural   VP2O7
_chemical_formula_sum   'V2 P4 O14'
_cell_volume   270.03515666
_cell_formula_units_Z   2
loop_
 _symmetry_equiv_pos_site_id
 _symmetry_equiv_pos_as_xyz
  1  'x, y, z'
loop_
 _atom_site_type_symbol
 _atom_site_label
 _atom_site_symmetry_multiplicity
 _atom_site_fract_x
 _atom_site_fract_y
 _atom_site_fract_z
 _atom_site_occupancy
  V  V0  1  0.241802  0.207879  0.730992  1
  V  V1  1  0.758198  0.792121  0.269008  1
  P  P2  1  0.242973  0.107580  0.166194  1
  P  P3  1  0.275491  0.456202  0.312401  1
  P  P4  1  0.724509  0.543798  0.687599  1
  P  P5  1  0.757027  0.892420  0.833806  1
  O  O6  1  0.029780  0.958192  0.765019  1
  O  O7  1  0.070165  0.626378  0.257775  1
  O  O8  1  0.211457  0.282406  0.488080  1
  O  O9  1  0.277879  0.342039  0.169616  1
  O  O10  1  0.274737  0.137079  0.972782  1
  O  O11  1  0.451931  0.965972  0.272887  1
  O  O12  1  0.453345  0.461228  0.692671  1
  O  O13  1  0.546655  0.538772  0.307329  1
  O  O14  1  0.548069  0.034028  0.727113  1
  O  O15  1  0.725263  0.862921  0.027218  1
  O  O16  1  0.970220  0.041808  0.234981  1
  O  O17  1  0.788543  0.717594  0.511920  1
  O  O18  1  0.929835  0.373622  0.742225  1
  O  O19  1  0.722121  0.657961  0.830384  1
