# generated using pymatgen
data_CrAg(PS3)2
_symmetry_space_group_name_H-M   'P 1'
_cell_length_a   5.96965300
_cell_length_b   10.67979517
_cell_length_c   7.36758123
_cell_angle_alpha   90.00000000
_cell_angle_beta   104.56821360
_cell_angle_gamma   90.00000000
_symmetry_Int_Tables_number   1
_chemical_formula_structural   CrAg(PS3)2
_chemical_formula_sum   'Cr2 Ag2 P4 S12'
_cell_volume   454.61576109
_cell_formula_units_Z   2
loop_
 _symmetry_equiv_pos_site_id
 _symmetry_equiv_pos_as_xyz
  1  'x, y, z'
loop_
 _atom_site_type_symbol
 _atom_site_label
 _atom_site_symmetry_multiplicity
 _atom_site_fract_x
 _atom_site_fract_y
 _atom_site_fract_z
 _atom_site_occupancy
  Cr  Cr0  1  0.750000  0.917791  0.000000  1
  Cr  Cr1  1  0.250000  0.082209  0.000000  1
  Ag  Ag2  1  0.750000  0.561349  0.000000  1
  Ag  Ag3  1  0.250000  0.438651  0.000000  1
  P  P4  1  0.792661  0.244356  0.155627  1
  P  P5  1  0.207339  0.755644  0.844373  1
  P  P6  1  0.292661  0.755644  0.155627  1
  P  P7  1  0.707339  0.244356  0.844373  1
  S  S8  1  0.984114  0.074279  0.204180  1
  S  S9  1  0.520820  0.769048  0.781355  1
  S  S10  1  0.479180  0.230952  0.218645  1
  S  S11  1  0.524060  0.393062  0.736991  1
  S  S12  1  0.015886  0.925721  0.795820  1
  S  S13  1  0.020820  0.230952  0.781355  1
  S  S14  1  0.475940  0.606938  0.263009  1
  S  S15  1  0.484114  0.925721  0.204180  1
  S  S16  1  0.515886  0.074279  0.795820  1
  S  S17  1  0.975940  0.393062  0.263009  1
  S  S18  1  0.024060  0.606938  0.736991  1
  S  S19  1  0.979180  0.769048  0.218645  1
