# generated using pymatgen
data_Mg3BeAl8O16
_symmetry_space_group_name_H-M   'P 1'
_cell_length_a   5.72392932
_cell_length_b   5.72392932
_cell_length_c   18.56697450
_cell_angle_alpha   90.00000000
_cell_angle_beta   90.00000000
_cell_angle_gamma   120.00000000
_symmetry_Int_Tables_number   1
_chemical_formula_structural   Mg3BeAl8O16
_chemical_formula_sum   'Mg6 Be2 Al16 O32'
_cell_volume   526.81762731
_cell_formula_units_Z   2
loop_
 _symmetry_equiv_pos_site_id
 _symmetry_equiv_pos_as_xyz
  1  'x, y, z'
loop_
 _atom_site_type_symbol
 _atom_site_label
 _atom_site_symmetry_multiplicity
 _atom_site_fract_x
 _atom_site_fract_y
 _atom_site_fract_z
 _atom_site_occupancy
  Mg  Mg0  1  0.666667  0.333333  0.642707  1
  Mg  Mg1  1  0.333333  0.666667  0.955094  1
  Mg  Mg2  1  0.333333  0.666667  0.142707  1
  Mg  Mg3  1  0.000000  0.000000  0.891963  1
  Mg  Mg4  1  0.000000  0.000000  0.391963  1
  Mg  Mg5  1  0.666667  0.333333  0.455094  1
  Be  Be6  1  0.666667  0.333333  0.191843  1
  Be  Be7  1  0.333333  0.666667  0.691843  1
  Al  Al8  1  0.835054  0.164946  0.051941  1
  Al  Al9  1  0.835054  0.670108  0.051941  1
  Al  Al10  1  0.670108  0.835054  0.551941  1
  Al  Al11  1  0.329892  0.164946  0.051941  1
  Al  Al12  1  0.164946  0.835054  0.551941  1
  Al  Al13  1  0.000000  0.000000  0.181900  1
  Al  Al14  1  0.498122  0.501878  0.297309  1
  Al  Al15  1  0.498122  0.996244  0.297309  1
  Al  Al16  1  0.000000  0.000000  0.681900  1
  Al  Al17  1  0.164946  0.329892  0.551941  1
  Al  Al18  1  0.501878  0.003756  0.797309  1
  Al  Al19  1  0.333333  0.666667  0.425359  1
  Al  Al20  1  0.996244  0.498122  0.797309  1
  Al  Al21  1  0.501878  0.498122  0.797309  1
  Al  Al22  1  0.003756  0.501878  0.297309  1
  Al  Al23  1  0.666667  0.333333  0.925359  1
  O  O24  1  0.517822  0.035644  0.992371  1
  O  O25  1  0.964356  0.482178  0.992371  1
  O  O26  1  0.852396  0.704793  0.611113  1
  O  O27  1  0.666667  0.333333  0.348157  1
  O  O28  1  0.482178  0.517822  0.492371  1
  O  O29  1  0.482178  0.964356  0.492371  1
  O  O30  1  0.035644  0.517822  0.492371  1
  O  O31  1  0.333333  0.666667  0.848157  1
  O  O32  1  0.184916  0.815084  0.358346  1
  O  O33  1  0.184916  0.369833  0.358346  1
  O  O34  1  0.821106  0.178894  0.235364  1
  O  O35  1  0.178894  0.821106  0.735364  1
  O  O36  1  0.704793  0.852396  0.111113  1
  O  O37  1  0.147604  0.852396  0.111113  1
  O  O38  1  0.178894  0.357789  0.735364  1
  O  O39  1  0.815084  0.184916  0.858346  1
  O  O40  1  0.333333  0.666667  0.606927  1
  O  O41  1  0.000000  0.000000  0.997287  1
  O  O42  1  0.295207  0.147604  0.611113  1
  O  O43  1  0.517822  0.482178  0.992371  1
  O  O44  1  0.333333  0.666667  0.246333  1
  O  O45  1  0.630167  0.815084  0.358346  1
  O  O46  1  0.642211  0.821106  0.735364  1
  O  O47  1  0.369833  0.184916  0.858346  1
  O  O48  1  0.666667  0.333333  0.106927  1
  O  O49  1  0.852396  0.147604  0.611113  1
  O  O50  1  0.666667  0.333333  0.746333  1
  O  O51  1  0.147604  0.295207  0.111113  1
  O  O52  1  0.000000  0.000000  0.497287  1
  O  O53  1  0.821106  0.642211  0.235364  1
  O  O54  1  0.357789  0.178894  0.235364  1
  O  O55  1  0.815084  0.630167  0.858346  1
