# generated using pymatgen
data_K2RuBr5NO
_symmetry_space_group_name_H-M   'P 1'
_cell_length_a   7.43071358
_cell_length_b   11.06443775
_cell_length_c   14.31798777
_cell_angle_alpha   90.00000000
_cell_angle_beta   90.00000000
_cell_angle_gamma   90.00000000
_symmetry_Int_Tables_number   1
_chemical_formula_structural   K2RuBr5NO
_chemical_formula_sum   'K8 Ru4 Br20 N4 O4'
_cell_volume   1177.17724468
_cell_formula_units_Z   4
loop_
 _symmetry_equiv_pos_site_id
 _symmetry_equiv_pos_as_xyz
  1  'x, y, z'
loop_
 _atom_site_type_symbol
 _atom_site_label
 _atom_site_symmetry_multiplicity
 _atom_site_fract_x
 _atom_site_fract_y
 _atom_site_fract_z
 _atom_site_occupancy
  K  K0  1  0.847367  0.499516  0.644622  1
  K  K1  1  0.652633  0.499516  0.144622  1
  K  K2  1  0.347367  0.999516  0.855378  1
  K  K3  1  0.652633  0.000484  0.144622  1
  K  K4  1  0.152633  0.999516  0.355378  1
  K  K5  1  0.152633  0.500484  0.355378  1
  K  K6  1  0.347367  0.500484  0.855378  1
  K  K7  1  0.847367  0.000484  0.644622  1
  Ru  Ru8  1  0.678836  0.750000  0.390866  1
  Ru  Ru9  1  0.178836  0.250000  0.109134  1
  Ru  Ru10  1  0.321164  0.250000  0.609134  1
  Ru  Ru11  1  0.821164  0.750000  0.890866  1
  Br  Br12  1  0.414024  0.750000  0.275887  1
  Br  Br13  1  0.386213  0.250000  0.250194  1
  Br  Br14  1  0.188824  0.019140  0.113596  1
  Br  Br15  1  0.688824  0.519140  0.386404  1
  Br  Br16  1  0.458191  0.250000  0.004123  1
  Br  Br17  1  0.041809  0.250000  0.504123  1
  Br  Br18  1  0.811176  0.980860  0.886404  1
  Br  Br19  1  0.085976  0.750000  0.775887  1
  Br  Br20  1  0.311176  0.019140  0.613596  1
  Br  Br21  1  0.188824  0.480860  0.113596  1
  Br  Br22  1  0.113787  0.250000  0.750194  1
  Br  Br23  1  0.688824  0.980860  0.386404  1
  Br  Br24  1  0.811176  0.519140  0.886404  1
  Br  Br25  1  0.886213  0.750000  0.249806  1
  Br  Br26  1  0.958191  0.750000  0.495877  1
  Br  Br27  1  0.541809  0.750000  0.995877  1
  Br  Br28  1  0.585976  0.250000  0.724113  1
  Br  Br29  1  0.613787  0.750000  0.749806  1
  Br  Br30  1  0.914024  0.250000  0.224113  1
  Br  Br31  1  0.311176  0.480860  0.613596  1
  N  N32  1  0.974425  0.750000  0.982622  1
  N  N33  1  0.474425  0.250000  0.517378  1
  N  N34  1  0.525575  0.750000  0.482622  1
  N  N35  1  0.025575  0.250000  0.017378  1
  O  O36  1  0.413269  0.750000  0.539696  1
  O  O37  1  0.086731  0.750000  0.039696  1
  O  O38  1  0.586731  0.250000  0.460304  1
  O  O39  1  0.913269  0.250000  0.960304  1
