# generated using pymatgen
data_Na2Sr(PO3)4
_symmetry_space_group_name_H-M   'P 1'
_cell_length_a   9.97358832
_cell_length_b   9.97358832
_cell_length_c   5.05621171
_cell_angle_alpha   90.00000000
_cell_angle_beta   90.00000000
_cell_angle_gamma   90.00000000
_symmetry_Int_Tables_number   1
_chemical_formula_structural   Na2Sr(PO3)4
_chemical_formula_sum   'Na4 Sr2 P8 O24'
_cell_volume   502.95383718
_cell_formula_units_Z   2
loop_
 _symmetry_equiv_pos_site_id
 _symmetry_equiv_pos_as_xyz
  1  'x, y, z'
loop_
 _atom_site_type_symbol
 _atom_site_label
 _atom_site_symmetry_multiplicity
 _atom_site_fract_x
 _atom_site_fract_y
 _atom_site_fract_z
 _atom_site_occupancy
  Na  Na0  1  0.750000  0.750000  0.500000  1
  Na  Na1  1  0.750000  0.250000  0.500000  1
  Na  Na2  1  0.250000  0.750000  0.500000  1
  Na  Na3  1  0.250000  0.250000  0.500000  1
  Sr  Sr4  1  0.000000  0.000000  0.500000  1
  Sr  Sr5  1  0.500000  0.500000  0.500000  1
  P  P6  1  0.000000  0.287888  0.000000  1
  P  P7  1  0.287888  0.000000  0.000000  1
  P  P8  1  0.712112  0.000000  0.000000  1
  P  P9  1  0.000000  0.712112  0.000000  1
  P  P10  1  0.500000  0.212112  0.000000  1
  P  P11  1  0.212112  0.500000  0.000000  1
  P  P12  1  0.787888  0.500000  0.000000  1
  P  P13  1  0.500000  0.787888  0.000000  1
  O  O14  1  0.109884  0.390116  0.130423  1
  O  O15  1  0.390116  0.890116  0.130423  1
  O  O16  1  0.609884  0.109884  0.130423  1
  O  O17  1  0.890116  0.609884  0.130423  1
  O  O18  1  0.890116  0.390116  0.869577  1
  O  O19  1  0.109884  0.609884  0.869577  1
  O  O20  1  0.390116  0.109884  0.869577  1
  O  O21  1  0.609884  0.890116  0.869577  1
  O  O22  1  0.786276  0.939418  0.228179  1
  O  O23  1  0.939418  0.213724  0.228179  1
  O  O24  1  0.060582  0.786276  0.228179  1
  O  O25  1  0.213724  0.060582  0.228179  1
  O  O26  1  0.213724  0.939418  0.771821  1
  O  O27  1  0.786276  0.060582  0.771821  1
  O  O28  1  0.939418  0.786276  0.771821  1
  O  O29  1  0.060582  0.213724  0.771821  1
  O  O30  1  0.713724  0.560582  0.771821  1
  O  O31  1  0.560582  0.286276  0.771821  1
  O  O32  1  0.439418  0.713724  0.771821  1
  O  O33  1  0.286276  0.439418  0.771821  1
  O  O34  1  0.286276  0.560582  0.228179  1
  O  O35  1  0.713724  0.439418  0.228179  1
  O  O36  1  0.560582  0.713724  0.228179  1
  O  O37  1  0.439418  0.286276  0.228179  1
