# generated using pymatgen
data_Ba2AlInO5
_symmetry_space_group_name_H-M   'P 1'
_cell_length_a   5.93292205
_cell_length_b   5.93292205
_cell_length_c   19.98245963
_cell_angle_alpha   90.00000000
_cell_angle_beta   90.00000000
_cell_angle_gamma   120.00000000
_symmetry_Int_Tables_number   1
_chemical_formula_structural   Ba2AlInO5
_chemical_formula_sum   'Ba8 Al4 In4 O20'
_cell_volume   609.13963793
_cell_formula_units_Z   4
loop_
 _symmetry_equiv_pos_site_id
 _symmetry_equiv_pos_as_xyz
  1  'x, y, z'
loop_
 _atom_site_type_symbol
 _atom_site_label
 _atom_site_symmetry_multiplicity
 _atom_site_fract_x
 _atom_site_fract_y
 _atom_site_fract_z
 _atom_site_occupancy
  Ba  Ba0  1  0.666667  0.333333  0.894087  1
  Ba  Ba1  1  0.333333  0.666667  0.105913  1
  Ba  Ba2  1  0.333333  0.666667  0.394087  1
  Ba  Ba3  1  0.000000  0.000000  0.000000  1
  Ba  Ba4  1  0.000000  0.000000  0.500000  1
  Ba  Ba5  1  0.666667  0.333333  0.250000  1
  Ba  Ba6  1  0.666667  0.333333  0.605913  1
  Ba  Ba7  1  0.333333  0.666667  0.750000  1
  Al  Al8  1  0.000000  0.000000  0.836687  1
  Al  Al9  1  0.000000  0.000000  0.163313  1
  Al  Al10  1  0.000000  0.000000  0.663313  1
  Al  Al11  1  0.000000  0.000000  0.336687  1
  In  In12  1  0.333333  0.666667  0.566752  1
  In  In13  1  0.666667  0.333333  0.066752  1
  In  In14  1  0.333333  0.666667  0.933248  1
  In  In15  1  0.666667  0.333333  0.433248  1
  O  O16  1  0.673611  0.836806  0.634333  1
  O  O17  1  0.000000  0.500000  0.500000  1
  O  O18  1  0.000000  0.000000  0.250000  1
  O  O19  1  0.836806  0.673611  0.365667  1
  O  O20  1  0.836806  0.163194  0.134333  1
  O  O21  1  0.163194  0.326389  0.634333  1
  O  O22  1  0.673611  0.836806  0.865667  1
  O  O23  1  0.326389  0.163194  0.134333  1
  O  O24  1  0.000000  0.000000  0.750000  1
  O  O25  1  0.836806  0.163194  0.365667  1
  O  O26  1  0.163194  0.326389  0.865667  1
  O  O27  1  0.500000  0.000000  0.000000  1
  O  O28  1  0.326389  0.163194  0.365667  1
  O  O29  1  0.500000  0.000000  0.500000  1
  O  O30  1  0.836806  0.673611  0.134333  1
  O  O31  1  0.163194  0.836806  0.634333  1
  O  O32  1  0.500000  0.500000  0.000000  1
  O  O33  1  0.000000  0.500000  0.000000  1
  O  O34  1  0.500000  0.500000  0.500000  1
  O  O35  1  0.163194  0.836806  0.865667  1
