# generated using pymatgen
data_Tb3CuSiS7
_symmetry_space_group_name_H-M   'P 1'
_cell_length_a   9.94491853
_cell_length_b   9.94491853
_cell_length_c   5.70554136
_cell_angle_alpha   90.00000000
_cell_angle_beta   90.00000000
_cell_angle_gamma   120.00000000
_symmetry_Int_Tables_number   1
_chemical_formula_structural   Tb3CuSiS7
_chemical_formula_sum   'Tb6 Cu2 Si2 S14'
_cell_volume   488.68605788
_cell_formula_units_Z   2
loop_
 _symmetry_equiv_pos_site_id
 _symmetry_equiv_pos_as_xyz
  1  'x, y, z'
loop_
 _atom_site_type_symbol
 _atom_site_label
 _atom_site_symmetry_multiplicity
 _atom_site_fract_x
 _atom_site_fract_y
 _atom_site_fract_z
 _atom_site_occupancy
  Tb  Tb0  1  0.874737  0.643646  0.248125  1
  Tb  Tb1  1  0.356354  0.231091  0.248125  1
  Tb  Tb2  1  0.231091  0.874737  0.748125  1
  Tb  Tb3  1  0.125263  0.356354  0.748125  1
  Tb  Tb4  1  0.643646  0.768909  0.748125  1
  Tb  Tb5  1  0.768909  0.125263  0.248125  1
  Cu  Cu6  1  0.000000  0.000000  0.200502  1
  Cu  Cu7  1  0.000000  0.000000  0.700502  1
  Si  Si8  1  0.333333  0.666667  0.336673  1
  Si  Si9  1  0.666667  0.333333  0.836673  1
  S  S10  1  0.666667  0.333333  0.466744  1
  S  S11  1  0.892062  0.413961  0.986575  1
  S  S12  1  0.908727  0.743247  0.723423  1
  S  S13  1  0.521899  0.107938  0.986575  1
  S  S14  1  0.478101  0.892062  0.486575  1
  S  S15  1  0.743247  0.834520  0.223423  1
  S  S16  1  0.107938  0.586039  0.486575  1
  S  S17  1  0.586039  0.478101  0.986575  1
  S  S18  1  0.165480  0.908727  0.223423  1
  S  S19  1  0.834520  0.091273  0.723423  1
  S  S20  1  0.091273  0.256753  0.223423  1
  S  S21  1  0.333333  0.666667  0.966744  1
  S  S22  1  0.413961  0.521899  0.486575  1
  S  S23  1  0.256753  0.165480  0.723423  1
