# generated using pymatgen
data_Cr2Te4O11
_symmetry_space_group_name_H-M   'P 1'
_cell_length_a   7.12174100
_cell_length_b   7.74043643
_cell_length_c   9.92852833
_cell_angle_alpha   90.00000000
_cell_angle_beta   99.49399694
_cell_angle_gamma   90.00000000
_symmetry_Int_Tables_number   1
_chemical_formula_structural   Cr2Te4O11
_chemical_formula_sum   'Cr4 Te8 O22'
_cell_volume   539.81731204
_cell_formula_units_Z   2
loop_
 _symmetry_equiv_pos_site_id
 _symmetry_equiv_pos_as_xyz
  1  'x, y, z'
loop_
 _atom_site_type_symbol
 _atom_site_label
 _atom_site_symmetry_multiplicity
 _atom_site_fract_x
 _atom_site_fract_y
 _atom_site_fract_z
 _atom_site_occupancy
  Cr  Cr0  1  0.182243  0.498961  0.615382  1
  Cr  Cr1  1  0.817757  0.998961  0.884618  1
  Cr  Cr2  1  0.817757  0.501039  0.384618  1
  Cr  Cr3  1  0.182243  0.001039  0.115382  1
  Te  Te4  1  0.356471  0.144989  0.825288  1
  Te  Te5  1  0.643529  0.644989  0.674712  1
  Te  Te6  1  0.643529  0.855011  0.174712  1
  Te  Te7  1  0.356471  0.355011  0.325288  1
  Te  Te8  1  0.827560  0.139878  0.586467  1
  Te  Te9  1  0.172440  0.639878  0.913533  1
  Te  Te10  1  0.172440  0.860122  0.413533  1
  Te  Te11  1  0.827560  0.360122  0.086467  1
  O  O12  1  0.341764  0.350598  0.513860  1
  O  O13  1  0.658236  0.850598  0.986140  1
  O  O14  1  0.658236  0.649402  0.486140  1
  O  O15  1  0.341764  0.149402  0.013860  1
  O  O16  1  0.937122  0.360296  0.550366  1
  O  O17  1  0.062878  0.860296  0.949634  1
  O  O18  1  0.062878  0.639704  0.449634  1
  O  O19  1  0.937122  0.139704  0.050366  1
  O  O20  1  0.030247  0.630947  0.736502  1
  O  O21  1  0.969753  0.130947  0.763498  1
  O  O22  1  0.969753  0.369053  0.263498  1
  O  O23  1  0.030247  0.869053  0.236502  1
  O  O24  1  0.374879  0.687537  0.654700  1
  O  O25  1  0.625121  0.187537  0.845300  1
  O  O26  1  0.625121  0.312463  0.345300  1
  O  O27  1  0.374879  0.812463  0.154700  1
  O  O28  1  0.295565  0.382591  0.791405  1
  O  O29  1  0.704435  0.882591  0.708595  1
  O  O30  1  0.704435  0.617409  0.208595  1
  O  O31  1  0.295565  0.117409  0.291405  1
  O  O32  1  0.000000  0.000000  0.500000  1
  O  O33  1  0.000000  0.500000  0.000000  1
