# generated using pymatgen
data_SiNi2(P2O7)2
_symmetry_space_group_name_H-M   'P 1'
_cell_length_a   8.88591951
_cell_length_b   8.88591951
_cell_length_c   12.34018376
_cell_angle_alpha   76.95620435
_cell_angle_beta   103.04379565
_cell_angle_gamma   147.49192565
_symmetry_Int_Tables_number   1
_chemical_formula_structural   SiNi2(P2O7)2
_chemical_formula_sum   'Si2 Ni4 P8 O28'
_cell_volume   508.97115341
_cell_formula_units_Z   2
loop_
 _symmetry_equiv_pos_site_id
 _symmetry_equiv_pos_as_xyz
  1  'x, y, z'
loop_
 _atom_site_type_symbol
 _atom_site_label
 _atom_site_symmetry_multiplicity
 _atom_site_fract_x
 _atom_site_fract_y
 _atom_site_fract_z
 _atom_site_occupancy
  Si  Si0  1  0.659344  0.659344  0.250000  1
  Si  Si1  1  0.340656  0.340656  0.750000  1
  Ni  Ni2  1  0.897703  0.402609  0.628996  1
  Ni  Ni3  1  0.402609  0.897703  0.871004  1
  Ni  Ni4  1  0.597391  0.102297  0.128996  1
  Ni  Ni5  1  0.102297  0.597391  0.371004  1
  P  P6  1  0.994293  0.741144  0.136457  1
  P  P7  1  0.198003  0.470533  0.083876  1
  P  P8  1  0.005707  0.258856  0.863543  1
  P  P9  1  0.470533  0.198003  0.416124  1
  P  P10  1  0.258856  0.005707  0.636457  1
  P  P11  1  0.529467  0.801997  0.583876  1
  P  P12  1  0.741144  0.994293  0.363543  1
  P  P13  1  0.801997  0.529467  0.916124  1
  O  O14  1  0.805639  0.896811  0.322265  1
  O  O15  1  0.623146  0.813037  0.481508  1
  O  O16  1  0.103189  0.194361  0.822265  1
  O  O17  1  0.698354  0.986499  0.879499  1
  O  O18  1  0.301646  0.013501  0.120501  1
  O  O19  1  0.467972  0.595368  0.667661  1
  O  O20  1  0.194361  0.103189  0.677735  1
  O  O21  1  0.497776  0.109161  0.707063  1
  O  O22  1  0.404632  0.532028  0.167661  1
  O  O23  1  0.890839  0.502224  0.207063  1
  O  O24  1  0.813037  0.623146  0.018492  1
  O  O25  1  0.917808  0.227839  0.131849  1
  O  O26  1  0.772161  0.082192  0.631849  1
  O  O27  1  0.013501  0.301646  0.379499  1
  O  O28  1  0.260987  0.670211  0.544415  1
  O  O29  1  0.227839  0.917808  0.368151  1
  O  O30  1  0.986499  0.698354  0.620501  1
  O  O31  1  0.329789  0.739013  0.044415  1
  O  O32  1  0.376854  0.186963  0.518492  1
  O  O33  1  0.082192  0.772161  0.868151  1
  O  O34  1  0.109161  0.497776  0.792937  1
  O  O35  1  0.739013  0.329789  0.455585  1
  O  O36  1  0.502224  0.890839  0.292937  1
  O  O37  1  0.595368  0.467972  0.832339  1
  O  O38  1  0.896811  0.805639  0.177735  1
  O  O39  1  0.186963  0.376854  0.981508  1
  O  O40  1  0.532028  0.404632  0.332339  1
  O  O41  1  0.670211  0.260987  0.955585  1
