# generated using pymatgen
data_NaLi3GeO4
_symmetry_space_group_name_H-M   'P 1'
_cell_length_a   10.23593085
_cell_length_b   10.23593085
_cell_length_c   10.23593085
_cell_angle_alpha   113.62647726
_cell_angle_beta   113.62647726
_cell_angle_gamma   101.44663141
_symmetry_Int_Tables_number   1
_chemical_formula_structural   NaLi3GeO4
_chemical_formula_sum   'Na8 Li24 Ge8 O32'
_cell_volume   813.67828677
_cell_formula_units_Z   8
loop_
 _symmetry_equiv_pos_site_id
 _symmetry_equiv_pos_as_xyz
  1  'x, y, z'
loop_
 _atom_site_type_symbol
 _atom_site_label
 _atom_site_symmetry_multiplicity
 _atom_site_fract_x
 _atom_site_fract_y
 _atom_site_fract_z
 _atom_site_occupancy
  Na  Na0  1  0.694100  0.206242  0.962293  1
  Na  Na1  1  0.055900  0.043758  0.537707  1
  Na  Na2  1  0.268193  0.305900  0.512142  1
  Na  Na3  1  0.243949  0.731807  0.037707  1
  Na  Na4  1  0.506051  0.518193  0.462293  1
  Na  Na5  1  0.956242  0.493949  0.012142  1
  Na  Na6  1  0.481807  0.944100  0.987858  1
  Na  Na7  1  0.793758  0.756051  0.487858  1
  Li  Li8  1  0.839921  0.475541  0.677778  1
  Li  Li9  1  0.802813  0.450323  0.364078  1
  Li  Li10  1  0.026471  0.717179  0.366603  1
  Li  Li11  1  0.399424  0.590132  0.866603  1
  Li  Li12  1  0.561265  0.197187  0.647510  1
  Li  Li13  1  0.340132  0.973529  0.690708  1
  Li  Li14  1  0.947187  0.799677  0.135922  1
  Li  Li15  1  0.524459  0.202237  0.364380  1
  Li  Li16  1  0.188735  0.052813  0.852490  1
  Li  Li17  1  0.910079  0.774459  0.822222  1
  Li  Li18  1  0.837857  0.160079  0.635620  1
  Li  Li19  1  0.282821  0.649424  0.309292  1
  Li  Li20  1  0.549677  0.913755  0.352490  1
  Li  Li21  1  0.797763  0.162143  0.322222  1
  Li  Li22  1  0.350576  0.659868  0.633397  1
  Li  Li23  1  0.200323  0.336245  0.147510  1
  Li  Li24  1  0.952237  0.087857  0.177778  1
  Li  Li25  1  0.086245  0.438735  0.635922  1
  Li  Li26  1  0.723529  0.532821  0.133397  1
  Li  Li27  1  0.225541  0.047763  0.135620  1
  Li  Li28  1  0.409868  0.276471  0.809292  1
  Li  Li29  1  0.912143  0.089921  0.864380  1
  Li  Li30  1  0.663755  0.811265  0.864078  1
  Li  Li31  1  0.467179  0.600576  0.190708  1
  Ge  Ge32  1  0.034324  0.391561  0.288548  1
  Ge  Ge33  1  0.495775  0.284324  0.142762  1
  Ge  Ge34  1  0.103013  0.745775  0.711452  1
  Ge  Ge35  1  0.715676  0.858439  0.211452  1
  Ge  Ge36  1  0.646987  0.504225  0.788548  1
  Ge  Ge37  1  0.254225  0.965676  0.357238  1
  Ge  Ge38  1  0.141561  0.353013  0.857238  1
  Ge  Ge39  1  0.608439  0.896987  0.642762  1
  O  O40  1  0.770489  0.860193  0.748136  1
  O  O41  1  0.513837  0.759645  0.422869  1
  O  O42  1  0.744612  0.946018  0.100400  1
  O  O43  1  0.601024  0.488876  0.231138  1
  O  O44  1  0.492262  0.880114  0.731138  1
  O  O45  1  0.238876  0.507738  0.387852  1
  O  O46  1  0.236163  0.490355  0.077131  1
  O  O47  1  0.257738  0.369886  0.768862  1
  O  O48  1  0.977647  0.229511  0.089704  1
  O  O49  1  0.511124  0.742262  0.112148  1
  O  O50  1  0.979511  0.389807  0.751864  1
  O  O51  1  0.413224  0.159032  0.922869  1
  O  O52  1  0.053982  0.154382  0.798594  1
  O  O53  1  0.845618  0.644212  0.899600  1
  O  O54  1  0.139807  0.887943  0.910296  1
  O  O55  1  0.630114  0.398976  0.887852  1
  O  O56  1  0.148976  0.761124  0.268862  1
  O  O57  1  0.005388  0.303982  0.399600  1
  O  O58  1  0.904382  0.605788  0.600400  1
  O  O59  1  0.909032  0.486163  0.245808  1
  O  O60  1  0.696018  0.095618  0.701406  1
  O  O61  1  0.637943  0.227647  0.248136  1
  O  O62  1  0.355788  0.255388  0.201406  1
  O  O63  1  0.610193  0.362057  0.589704  1
  O  O64  1  0.840968  0.763837  0.254192  1
  O  O65  1  0.119886  0.851024  0.612148  1
  O  O66  1  0.772353  0.020489  0.410296  1
  O  O67  1  0.240355  0.663224  0.754192  1
  O  O68  1  0.112057  0.022353  0.251864  1
  O  O69  1  0.509645  0.586776  0.745808  1
  O  O70  1  0.394212  0.994612  0.298594  1
  O  O71  1  0.336776  0.090968  0.577131  1
