# generated using pymatgen
data_NaH8SNO6
_symmetry_space_group_name_H-M   'P 1'
_cell_length_a   6.41816157
_cell_length_b   8.20977808
_cell_length_c   12.88561558
_cell_angle_alpha   90.00000000
_cell_angle_beta   90.00000000
_cell_angle_gamma   90.00000000
_symmetry_Int_Tables_number   1
_chemical_formula_structural   NaH8SNO6
_chemical_formula_sum   'Na4 H32 S4 N4 O24'
_cell_volume   678.96476072
_cell_formula_units_Z   4
loop_
 _symmetry_equiv_pos_site_id
 _symmetry_equiv_pos_as_xyz
  1  'x, y, z'
loop_
 _atom_site_type_symbol
 _atom_site_label
 _atom_site_symmetry_multiplicity
 _atom_site_fract_x
 _atom_site_fract_y
 _atom_site_fract_z
 _atom_site_occupancy
  Na  Na0  1  0.917776  0.265990  0.484586  1
  Na  Na1  1  0.417776  0.234010  0.515414  1
  Na  Na2  1  0.082224  0.765990  0.015414  1
  Na  Na3  1  0.582224  0.734010  0.984586  1
  H  H4  1  0.727990  0.894660  0.154969  1
  H  H5  1  0.227990  0.605340  0.845031  1
  H  H6  1  0.272010  0.394660  0.345031  1
  H  H7  1  0.772010  0.105340  0.654969  1
  H  H8  1  0.788258  0.717382  0.192254  1
  H  H9  1  0.288258  0.782618  0.807746  1
  H  H10  1  0.211742  0.217382  0.307746  1
  H  H11  1  0.711742  0.282618  0.692254  1
  H  H12  1  0.378621  0.593172  0.174474  1
  H  H13  1  0.878621  0.906828  0.825526  1
  H  H14  1  0.621379  0.093172  0.325526  1
  H  H15  1  0.121379  0.406828  0.674474  1
  H  H16  1  0.342772  0.466398  0.087983  1
  H  H17  1  0.842772  0.033602  0.912017  1
  H  H18  1  0.657228  0.966398  0.412017  1
  H  H19  1  0.157228  0.533602  0.587983  1
  H  H20  1  0.855612  0.408020  0.209151  1
  H  H21  1  0.355612  0.091980  0.790849  1
  H  H22  1  0.144388  0.908020  0.290849  1
  H  H23  1  0.644388  0.591980  0.709151  1
  H  H24  1  0.867369  0.382704  0.078191  1
  H  H25  1  0.367369  0.117296  0.921809  1
  H  H26  1  0.132631  0.882704  0.421809  1
  H  H27  1  0.632631  0.617296  0.578191  1
  H  H28  1  0.005629  0.256534  0.156518  1
  H  H29  1  0.505629  0.243466  0.843482  1
  H  H30  1  0.994371  0.756534  0.343482  1
  H  H31  1  0.494371  0.743466  0.656518  1
  H  H32  1  0.746479  0.240350  0.152969  1
  H  H33  1  0.246479  0.259650  0.847031  1
  H  H34  1  0.253521  0.740350  0.347031  1
  H  H35  1  0.753521  0.759650  0.652969  1
  S  S36  1  0.374689  0.093215  0.126478  1
  S  S37  1  0.874689  0.406785  0.873522  1
  S  S38  1  0.625311  0.593215  0.373522  1
  S  S39  1  0.125311  0.906785  0.626478  1
  N  N40  1  0.369647  0.176497  0.850843  1
  N  N41  1  0.869647  0.323503  0.149157  1
  N  N42  1  0.630353  0.676497  0.649157  1
  N  N43  1  0.130353  0.823503  0.350843  1
  O  O44  1  0.197075  0.079368  0.202092  1
  O  O45  1  0.697075  0.420632  0.797908  1
  O  O46  1  0.802925  0.579368  0.297908  1
  O  O47  1  0.302925  0.920632  0.702092  1
  O  O48  1  0.577449  0.072142  0.184222  1
  O  O49  1  0.077449  0.427858  0.815778  1
  O  O50  1  0.422551  0.572142  0.315778  1
  O  O51  1  0.922551  0.927858  0.684222  1
  O  O52  1  0.370716  0.256006  0.076958  1
  O  O53  1  0.870716  0.243994  0.923042  1
  O  O54  1  0.629284  0.756006  0.423042  1
  O  O55  1  0.129284  0.743994  0.576958  1
  O  O56  1  0.143946  0.034061  0.544735  1
  O  O57  1  0.643946  0.465939  0.455265  1
  O  O58  1  0.856054  0.534061  0.955265  1
  O  O59  1  0.356054  0.965939  0.044735  1
  O  O60  1  0.699067  0.206062  0.633216  1
  O  O61  1  0.199067  0.293938  0.366784  1
  O  O62  1  0.300933  0.706062  0.866784  1
  O  O63  1  0.800933  0.793938  0.133216  1
  O  O64  1  0.661340  0.085229  0.399347  1
  O  O65  1  0.161340  0.414771  0.600653  1
  O  O66  1  0.338660  0.585229  0.100653  1
  O  O67  1  0.838660  0.914771  0.899347  1
