# generated using pymatgen
data_Sm2(SeO3)3
_symmetry_space_group_name_H-M   'P 1'
_cell_length_a   7.07644810
_cell_length_b   8.02232183
_cell_length_c   9.21817641
_cell_angle_alpha   70.23532148
_cell_angle_beta   75.93468455
_cell_angle_gamma   64.12160855
_symmetry_Int_Tables_number   1
_chemical_formula_structural   Sm2(SeO3)3
_chemical_formula_sum   'Sm4 Se6 O18'
_cell_volume   440.27457109
_cell_formula_units_Z   2
loop_
 _symmetry_equiv_pos_site_id
 _symmetry_equiv_pos_as_xyz
  1  'x, y, z'
loop_
 _atom_site_type_symbol
 _atom_site_label
 _atom_site_symmetry_multiplicity
 _atom_site_fract_x
 _atom_site_fract_y
 _atom_site_fract_z
 _atom_site_occupancy
  Sm  Sm0  1  0.627170  0.350181  0.323749  1
  Sm  Sm1  1  0.372830  0.649819  0.676251  1
  Sm  Sm2  1  0.228204  0.311262  0.128265  1
  Sm  Sm3  1  0.771796  0.688738  0.871735  1
  Se  Se4  1  0.453630  0.175959  0.743823  1
  Se  Se5  1  0.190869  0.765605  0.035361  1
  Se  Se6  1  0.870896  0.780458  0.489687  1
  Se  Se7  1  0.809131  0.234395  0.964639  1
  Se  Se8  1  0.546370  0.824041  0.256177  1
  Se  Se9  1  0.129104  0.219542  0.510313  1
  O  O10  1  0.674786  0.018547  0.834709  1
  O  O11  1  0.325214  0.981453  0.165291  1
  O  O12  1  0.641201  0.784517  0.616992  1
  O  O13  1  0.358799  0.215483  0.383008  1
  O  O14  1  0.391121  0.785624  0.890190  1
  O  O15  1  0.320986  0.337137  0.856774  1
  O  O16  1  0.902842  0.343521  0.053700  1
  O  O17  1  0.539966  0.335718  0.592788  1
  O  O18  1  0.697608  0.439327  0.822690  1
  O  O19  1  0.097158  0.656479  0.946300  1
  O  O20  1  0.171585  0.985984  0.585095  1
  O  O21  1  0.030744  0.686235  0.641881  1
  O  O22  1  0.608879  0.214376  0.109810  1
  O  O23  1  0.679014  0.662863  0.143226  1
  O  O24  1  0.460034  0.664282  0.407212  1
  O  O25  1  0.302392  0.560673  0.177310  1
  O  O26  1  0.828415  0.014016  0.414905  1
  O  O27  1  0.969256  0.313765  0.358119  1
