# generated using pymatgen
data_Cd4P2I3
_symmetry_space_group_name_H-M   'P 1'
_cell_length_a   12.82355623
_cell_length_b   12.92772220
_cell_length_c   13.21954798
_cell_angle_alpha   90.00000000
_cell_angle_beta   90.00000000
_cell_angle_gamma   90.00000000
_symmetry_Int_Tables_number   1
_chemical_formula_structural   Cd4P2I3
_chemical_formula_sum   'Cd32 P16 I24'
_cell_volume   2191.52836962
_cell_formula_units_Z   8
loop_
 _symmetry_equiv_pos_site_id
 _symmetry_equiv_pos_as_xyz
  1  'x, y, z'
loop_
 _atom_site_type_symbol
 _atom_site_label
 _atom_site_symmetry_multiplicity
 _atom_site_fract_x
 _atom_site_fract_y
 _atom_site_fract_z
 _atom_site_occupancy
  Cd  Cd0  1  0.797475  0.423740  0.908916  1
  Cd  Cd1  1  0.797475  0.923740  0.591084  1
  Cd  Cd2  1  0.587064  0.208426  0.939193  1
  Cd  Cd3  1  0.594611  0.568812  0.017334  1
  Cd  Cd4  1  0.094611  0.931188  0.017334  1
  Cd  Cd5  1  0.912936  0.708426  0.060807  1
  Cd  Cd6  1  0.957522  0.429061  0.213986  1
  Cd  Cd7  1  0.957522  0.929061  0.286014  1
  Cd  Cd8  1  0.457522  0.070939  0.213986  1
  Cd  Cd9  1  0.042478  0.570939  0.786014  1
  Cd  Cd10  1  0.087064  0.291574  0.939193  1
  Cd  Cd11  1  0.042478  0.070939  0.713986  1
  Cd  Cd12  1  0.702525  0.923740  0.091084  1
  Cd  Cd13  1  0.542478  0.429061  0.713986  1
  Cd  Cd14  1  0.594611  0.068812  0.482666  1
  Cd  Cd15  1  0.457522  0.570939  0.286014  1
  Cd  Cd16  1  0.405389  0.431188  0.982666  1
  Cd  Cd17  1  0.912936  0.208426  0.439193  1
  Cd  Cd18  1  0.587064  0.708426  0.560807  1
  Cd  Cd19  1  0.905389  0.568812  0.517334  1
  Cd  Cd20  1  0.202525  0.576260  0.091084  1
  Cd  Cd21  1  0.094611  0.431188  0.482666  1
  Cd  Cd22  1  0.412936  0.791574  0.060807  1
  Cd  Cd23  1  0.702525  0.423740  0.408916  1
  Cd  Cd24  1  0.405389  0.931188  0.517334  1
  Cd  Cd25  1  0.412936  0.291574  0.439193  1
  Cd  Cd26  1  0.542478  0.929061  0.786014  1
  Cd  Cd27  1  0.905389  0.068812  0.982666  1
  Cd  Cd28  1  0.297475  0.076260  0.908916  1
  Cd  Cd29  1  0.202525  0.076260  0.408916  1
  Cd  Cd30  1  0.087064  0.791574  0.560807  1
  Cd  Cd31  1  0.297475  0.576260  0.591084  1
  P  P32  1  0.552216  0.547665  0.453448  1
  P  P33  1  0.095857  0.097875  0.896815  1
  P  P34  1  0.552216  0.047665  0.046552  1
  P  P35  1  0.904143  0.402125  0.396815  1
  P  P36  1  0.447784  0.452335  0.546552  1
  P  P37  1  0.595857  0.402125  0.896815  1
  P  P38  1  0.095857  0.597875  0.603185  1
  P  P39  1  0.595857  0.902125  0.603185  1
  P  P40  1  0.947784  0.047665  0.546552  1
  P  P41  1  0.404143  0.597875  0.103185  1
  P  P42  1  0.447784  0.952335  0.953448  1
  P  P43  1  0.404143  0.097875  0.396815  1
  P  P44  1  0.947784  0.547665  0.953448  1
  P  P45  1  0.052216  0.952335  0.453448  1
  P  P46  1  0.052216  0.452335  0.046552  1
  P  P47  1  0.904143  0.902125  0.103185  1
  I  I48  1  0.682393  0.252876  0.573447  1
  I  I49  1  0.247977  0.430422  0.321171  1
  I  I50  1  0.182393  0.247124  0.573447  1
  I  I51  1  0.252023  0.930422  0.678829  1
  I  I52  1  0.817607  0.752876  0.426553  1
  I  I53  1  0.061742  0.175085  0.256858  1
  I  I54  1  0.317607  0.247124  0.073447  1
  I  I55  1  0.747977  0.069578  0.321171  1
  I  I56  1  0.061742  0.675085  0.243142  1
  I  I57  1  0.561742  0.324915  0.256858  1
  I  I58  1  0.182393  0.747124  0.926553  1
  I  I59  1  0.938258  0.824915  0.743142  1
  I  I60  1  0.317607  0.747124  0.426553  1
  I  I61  1  0.938258  0.324915  0.756858  1
  I  I62  1  0.252023  0.430422  0.821171  1
  I  I63  1  0.752023  0.069578  0.821171  1
  I  I64  1  0.438258  0.175085  0.756858  1
  I  I65  1  0.817607  0.252876  0.073447  1
  I  I66  1  0.752023  0.569578  0.678829  1
  I  I67  1  0.438258  0.675085  0.743142  1
  I  I68  1  0.247977  0.930422  0.178829  1
  I  I69  1  0.682393  0.752876  0.926553  1
  I  I70  1  0.561742  0.824915  0.243142  1
  I  I71  1  0.747977  0.569578  0.178829  1
