# generated using pymatgen
data_FeSiP3O11
_symmetry_space_group_name_H-M   'P 1'
_cell_length_a   14.09918222
_cell_length_b   14.09918222
_cell_length_c   14.09918222
_cell_angle_alpha   34.90458739
_cell_angle_beta   34.90458739
_cell_angle_gamma   34.90458739
_symmetry_Int_Tables_number   1
_chemical_formula_structural   FeSiP3O11
_chemical_formula_sum   'Fe4 Si4 P12 O44'
_cell_volume   819.25236610
_cell_formula_units_Z   4
loop_
 _symmetry_equiv_pos_site_id
 _symmetry_equiv_pos_as_xyz
  1  'x, y, z'
loop_
 _atom_site_type_symbol
 _atom_site_label
 _atom_site_symmetry_multiplicity
 _atom_site_fract_x
 _atom_site_fract_y
 _atom_site_fract_z
 _atom_site_occupancy
  Fe  Fe0  1  0.841859  0.841859  0.841859  1
  Fe  Fe1  1  0.658141  0.658141  0.658141  1
  Fe  Fe2  1  0.158141  0.158141  0.158141  1
  Fe  Fe3  1  0.341859  0.341859  0.341859  1
  Si  Si4  1  0.960012  0.960012  0.960012  1
  Si  Si5  1  0.539988  0.539988  0.539988  1
  Si  Si6  1  0.039988  0.039988  0.039988  1
  Si  Si7  1  0.460012  0.460012  0.460012  1
  P  P8  1  0.213865  0.917680  0.508232  1
  P  P9  1  0.508232  0.213865  0.917680  1
  P  P10  1  0.917680  0.508232  0.213865  1
  P  P11  1  0.991768  0.582320  0.286135  1
  P  P12  1  0.286135  0.991768  0.582320  1
  P  P13  1  0.582320  0.286135  0.991768  1
  P  P14  1  0.786135  0.082320  0.491768  1
  P  P15  1  0.491768  0.786135  0.082320  1
  P  P16  1  0.082320  0.491768  0.786135  1
  P  P17  1  0.008232  0.417680  0.713865  1
  P  P18  1  0.713865  0.008232  0.417680  1
  P  P19  1  0.417680  0.713865  0.008232  1
  O  O20  1  0.787817  0.146069  0.906560  1
  O  O21  1  0.906560  0.787817  0.146069  1
  O  O22  1  0.146069  0.906560  0.787817  1
  O  O23  1  0.593440  0.353931  0.712183  1
  O  O24  1  0.712183  0.593440  0.353931  1
  O  O25  1  0.353931  0.712183  0.593440  1
  O  O26  1  0.212183  0.853931  0.093440  1
  O  O27  1  0.093440  0.212183  0.853931  1
  O  O28  1  0.853931  0.093440  0.212183  1
  O  O29  1  0.406560  0.646069  0.287817  1
  O  O30  1  0.287817  0.406560  0.646069  1
  O  O31  1  0.646069  0.287817  0.406560  1
  O  O32  1  0.017550  0.943816  0.654477  1
  O  O33  1  0.654477  0.017550  0.943816  1
  O  O34  1  0.943816  0.654477  0.017550  1
  O  O35  1  0.845523  0.556184  0.482450  1
  O  O36  1  0.482450  0.845523  0.556184  1
  O  O37  1  0.556184  0.482450  0.845523  1
  O  O38  1  0.982450  0.056184  0.345523  1
  O  O39  1  0.345523  0.982450  0.056184  1
  O  O40  1  0.056184  0.345523  0.982450  1
  O  O41  1  0.154477  0.443816  0.517550  1
  O  O42  1  0.517550  0.154477  0.443816  1
  O  O43  1  0.443816  0.517550  0.154477  1
  O  O44  1  0.725565  0.034326  0.673750  1
  O  O45  1  0.673750  0.725565  0.034326  1
  O  O46  1  0.034326  0.673750  0.725565  1
  O  O47  1  0.826250  0.465674  0.774435  1
  O  O48  1  0.774435  0.826250  0.465674  1
  O  O49  1  0.465674  0.774435  0.826250  1
  O  O50  1  0.274435  0.965674  0.326250  1
  O  O51  1  0.326250  0.274435  0.965674  1
  O  O52  1  0.965674  0.326250  0.274435  1
  O  O53  1  0.173750  0.534326  0.225565  1
  O  O54  1  0.225565  0.173750  0.534326  1
  O  O55  1  0.534326  0.225565  0.173750  1
  O  O56  1  0.462733  0.250000  0.037267  1
  O  O57  1  0.037267  0.462733  0.250000  1
  O  O58  1  0.250000  0.037267  0.462733  1
  O  O59  1  0.537267  0.750000  0.962733  1
  O  O60  1  0.962733  0.537267  0.750000  1
  O  O61  1  0.750000  0.962733  0.537267  1
  O  O62  1  0.000000  0.000000  0.000000  1
  O  O63  1  0.500000  0.500000  0.500000  1
