# generated using pymatgen
data_Co2PHO5
_symmetry_space_group_name_H-M   'P 1'
_cell_length_a   6.03704922
_cell_length_b   8.16475788
_cell_length_c   8.40594351
_cell_angle_alpha   90.00000000
_cell_angle_beta   90.00000000
_cell_angle_gamma   90.00000000
_symmetry_Int_Tables_number   1
_chemical_formula_structural   Co2PHO5
_chemical_formula_sum   'Co8 P4 H4 O20'
_cell_volume   414.33774142
_cell_formula_units_Z   4
loop_
 _symmetry_equiv_pos_site_id
 _symmetry_equiv_pos_as_xyz
  1  'x, y, z'
loop_
 _atom_site_type_symbol
 _atom_site_label
 _atom_site_symmetry_multiplicity
 _atom_site_fract_x
 _atom_site_fract_y
 _atom_site_fract_z
 _atom_site_occupancy
  Co  Co0  1  0.500000  0.361167  0.369619  1
  Co  Co1  1  0.500000  0.638833  0.630381  1
  Co  Co2  1  0.000000  0.861167  0.130381  1
  Co  Co3  1  0.000000  0.138833  0.869619  1
  Co  Co4  1  0.254870  0.500000  0.000000  1
  Co  Co5  1  0.245130  0.000000  0.500000  1
  Co  Co6  1  0.745130  0.500000  0.000000  1
  Co  Co7  1  0.754870  0.000000  0.500000  1
  P  P8  1  0.000000  0.248500  0.240766  1
  P  P9  1  0.000000  0.751500  0.759234  1
  P  P10  1  0.500000  0.748500  0.259234  1
  P  P11  1  0.500000  0.251500  0.740766  1
  H  H12  1  0.500000  0.273549  0.081684  1
  H  H13  1  0.500000  0.726451  0.918316  1
  H  H14  1  0.000000  0.773549  0.418316  1
  H  H15  1  0.000000  0.226451  0.581684  1
  O  O16  1  0.000000  0.109509  0.112991  1
  O  O17  1  0.000000  0.890491  0.887009  1
  O  O18  1  0.500000  0.609509  0.387009  1
  O  O19  1  0.500000  0.390491  0.612991  1
  O  O20  1  0.000000  0.413535  0.146802  1
  O  O21  1  0.000000  0.586465  0.853198  1
  O  O22  1  0.500000  0.913535  0.353198  1
  O  O23  1  0.500000  0.086465  0.646802  1
  O  O24  1  0.208741  0.233368  0.348466  1
  O  O25  1  0.208741  0.766632  0.651534  1
  O  O26  1  0.291259  0.733368  0.151534  1
  O  O27  1  0.291259  0.266632  0.848466  1
  O  O28  1  0.791259  0.766632  0.651534  1
  O  O29  1  0.791259  0.233368  0.348466  1
  O  O30  1  0.708741  0.266632  0.848466  1
  O  O31  1  0.708741  0.733368  0.151534  1
  O  O32  1  0.500000  0.384690  0.124439  1
  O  O33  1  0.500000  0.615310  0.875561  1
  O  O34  1  0.000000  0.884690  0.375561  1
  O  O35  1  0.000000  0.115310  0.624439  1
