# generated using pymatgen
data_Li4SiO4
_symmetry_space_group_name_H-M   'P 1'
_cell_length_a   11.64405079
_cell_length_b   6.12778766
_cell_length_c   16.83604297
_cell_angle_alpha   90.00000000
_cell_angle_beta   98.96993748
_cell_angle_gamma   90.00000000
_symmetry_Int_Tables_number   1
_chemical_formula_structural   Li4SiO4
_chemical_formula_sum   'Li56 Si14 O56'
_cell_volume   1186.59846260
_cell_formula_units_Z   14
loop_
 _symmetry_equiv_pos_site_id
 _symmetry_equiv_pos_as_xyz
  1  'x, y, z'
loop_
 _atom_site_type_symbol
 _atom_site_label
 _atom_site_symmetry_multiplicity
 _atom_site_fract_x
 _atom_site_fract_y
 _atom_site_fract_z
 _atom_site_occupancy
  Li  Li0  1  0.027430  0.250000  0.570174  1
  Li  Li1  1  0.476937  0.494323  0.882807  1
  Li  Li2  1  0.336686  0.006559  0.173167  1
  Li  Li3  1  0.762063  0.039259  0.401883  1
  Li  Li4  1  0.079327  0.985926  0.867143  1
  Li  Li5  1  0.873348  0.750000  0.288581  1
  Li  Li6  1  0.807055  0.530584  0.985114  1
  Li  Li7  1  0.725445  0.250000  0.140253  1
  Li  Li8  1  0.050847  0.029383  0.292902  1
  Li  Li9  1  0.192945  0.030584  0.014886  1
  Li  Li10  1  0.949153  0.970617  0.707098  1
  Li  Li11  1  0.383414  0.996353  0.408186  1
  Li  Li12  1  0.665880  0.534614  0.267597  1
  Li  Li13  1  0.994489  0.250000  0.989387  1
  Li  Li14  1  0.859931  0.250000  0.267583  1
  Li  Li15  1  0.274555  0.750000  0.859747  1
  Li  Li16  1  0.762063  0.460741  0.401883  1
  Li  Li17  1  0.616586  0.003647  0.591814  1
  Li  Li18  1  0.079327  0.514074  0.867143  1
  Li  Li19  1  0.812125  0.996788  0.545468  1
  Li  Li20  1  0.871351  0.250000  0.853535  1
  Li  Li21  1  0.237937  0.960741  0.598117  1
  Li  Li22  1  0.187875  0.496788  0.454532  1
  Li  Li23  1  0.383414  0.503647  0.408186  1
  Li  Li24  1  0.334120  0.034614  0.732403  1
  Li  Li25  1  0.410482  0.250000  0.016719  1
  Li  Li26  1  0.728064  0.750000  0.695837  1
  Li  Li27  1  0.050847  0.470617  0.292902  1
  Li  Li28  1  0.237937  0.539259  0.598117  1
  Li  Li29  1  0.616586  0.496353  0.591814  1
  Li  Li30  1  0.949153  0.529383  0.707098  1
  Li  Li31  1  0.663314  0.506559  0.826833  1
  Li  Li32  1  0.663314  0.993441  0.826833  1
  Li  Li33  1  0.476937  0.005677  0.882807  1
  Li  Li34  1  0.547180  0.250000  0.722632  1
  Li  Li35  1  0.126652  0.250000  0.711419  1
  Li  Li36  1  0.187875  0.003212  0.454532  1
  Li  Li37  1  0.920673  0.485926  0.132857  1
  Li  Li38  1  0.140069  0.750000  0.732417  1
  Li  Li39  1  0.271936  0.250000  0.304163  1
  Li  Li40  1  0.005511  0.750000  0.010613  1
  Li  Li41  1  0.972570  0.750000  0.429826  1
  Li  Li42  1  0.582732  0.250000  0.449889  1
  Li  Li43  1  0.334120  0.465386  0.732403  1
  Li  Li44  1  0.920673  0.014074  0.132857  1
  Li  Li45  1  0.417268  0.750000  0.550111  1
  Li  Li46  1  0.128649  0.750000  0.146465  1
  Li  Li47  1  0.523063  0.994323  0.117193  1
  Li  Li48  1  0.665880  0.965386  0.267597  1
  Li  Li49  1  0.452820  0.750000  0.277368  1
  Li  Li50  1  0.807055  0.969416  0.985114  1
  Li  Li51  1  0.336686  0.493441  0.173167  1
  Li  Li52  1  0.523063  0.505677  0.117193  1
  Li  Li53  1  0.192945  0.469416  0.014886  1
  Li  Li54  1  0.589518  0.750000  0.983281  1
  Li  Li55  1  0.812125  0.503212  0.545468  1
  Si  Si56  1  0.522727  0.250000  0.286125  1
  Si  Si57  1  0.247873  0.250000  0.862108  1
  Si  Si58  1  0.477273  0.750000  0.713875  1
  Si  Si59  1  0.615837  0.750000  0.428820  1
  Si  Si60  1  0.895433  0.750000  0.856400  1
  Si  Si61  1  0.341129  0.750000  0.006158  1
  Si  Si62  1  0.658871  0.250000  0.993842  1
  Si  Si63  1  0.752127  0.750000  0.137892  1
  Si  Si64  1  0.384163  0.250000  0.571180  1
  Si  Si65  1  0.104567  0.250000  0.143600  1
  Si  Si66  1  0.040120  0.750000  0.578813  1
  Si  Si67  1  0.798164  0.250000  0.707528  1
  Si  Si68  1  0.201836  0.750000  0.292472  1
  Si  Si69  1  0.959880  0.250000  0.421187  1
  O  O70  1  0.666270  0.250000  0.324192  1
  O  O71  1  0.091403  0.250000  0.470410  1
  O  O72  1  0.761899  0.750000  0.812620  1
  O  O73  1  0.717619  0.250000  0.779341  1
  O  O74  1  0.357599  0.525966  0.060513  1
  O  O75  1  0.696028  0.750000  0.352904  1
  O  O76  1  0.616492  0.750000  0.098494  1
  O  O77  1  0.655122  0.527738  0.481507  1
  O  O78  1  0.214751  0.469037  0.803770  1
  O  O79  1  0.785249  0.969037  0.196230  1
  O  O80  1  0.383508  0.250000  0.901506  1
  O  O81  1  0.927574  0.532016  0.916162  1
  O  O82  1  0.497991  0.527995  0.769970  1
  O  O83  1  0.007599  0.250000  0.206922  1
  O  O84  1  0.217592  0.975098  0.346250  1
  O  O85  1  0.992401  0.750000  0.793078  1
  O  O86  1  0.357599  0.974034  0.060513  1
  O  O87  1  0.937570  0.250000  0.753921  1
  O  O88  1  0.502009  0.027995  0.230030  1
  O  O89  1  0.444192  0.250000  0.359110  1
  O  O90  1  0.217592  0.524902  0.346250  1
  O  O91  1  0.132917  0.750000  0.514235  1
  O  O92  1  0.344878  0.472262  0.518493  1
  O  O93  1  0.069372  0.531442  0.638241  1
  O  O94  1  0.655122  0.972262  0.481507  1
  O  O95  1  0.238101  0.250000  0.187380  1
  O  O96  1  0.782408  0.024902  0.653750  1
  O  O97  1  0.069372  0.968558  0.638241  1
  O  O98  1  0.497991  0.972005  0.769970  1
  O  O99  1  0.930628  0.031442  0.361759  1
  O  O100  1  0.333730  0.750000  0.675808  1
  O  O101  1  0.502009  0.472005  0.230030  1
  O  O102  1  0.476567  0.750000  0.395019  1
  O  O103  1  0.785249  0.530963  0.196230  1
  O  O104  1  0.579009  0.250000  0.066286  1
  O  O105  1  0.072426  0.467984  0.083838  1
  O  O106  1  0.782408  0.475098  0.653750  1
  O  O107  1  0.303972  0.250000  0.647096  1
  O  O108  1  0.927574  0.967984  0.916162  1
  O  O109  1  0.642401  0.474034  0.939487  1
  O  O110  1  0.523433  0.250000  0.604981  1
  O  O111  1  0.282381  0.750000  0.220659  1
  O  O112  1  0.420991  0.750000  0.933714  1
  O  O113  1  0.867083  0.250000  0.485765  1
  O  O114  1  0.344878  0.027738  0.518493  1
  O  O115  1  0.844255  0.750000  0.070886  1
  O  O116  1  0.555808  0.750000  0.640890  1
  O  O117  1  0.155745  0.250000  0.929114  1
  O  O118  1  0.062430  0.750000  0.246079  1
  O  O119  1  0.908597  0.750000  0.529590  1
  O  O120  1  0.642401  0.025966  0.939487  1
  O  O121  1  0.930628  0.468558  0.361759  1
  O  O122  1  0.214751  0.030963  0.803770  1
  O  O123  1  0.200196  0.750000  0.960333  1
  O  O124  1  0.072426  0.032016  0.083838  1
  O  O125  1  0.799804  0.250000  0.039667  1
