# generated using pymatgen
data_OsOF5
_symmetry_space_group_name_H-M   'P 1'
_cell_length_a   5.16551066
_cell_length_b   8.88246860
_cell_length_c   9.68595095
_cell_angle_alpha   90.00000000
_cell_angle_beta   90.00000000
_cell_angle_gamma   90.00000000
_symmetry_Int_Tables_number   1
_chemical_formula_structural   OsOF5
_chemical_formula_sum   'Os4 O4 F20'
_cell_volume   444.41551119
_cell_formula_units_Z   4
loop_
 _symmetry_equiv_pos_site_id
 _symmetry_equiv_pos_as_xyz
  1  'x, y, z'
loop_
 _atom_site_type_symbol
 _atom_site_label
 _atom_site_symmetry_multiplicity
 _atom_site_fract_x
 _atom_site_fract_y
 _atom_site_fract_z
 _atom_site_occupancy
  Os  Os0  1  0.918380  0.166575  0.372470  1
  Os  Os1  1  0.418380  0.666575  0.127530  1
  Os  Os2  1  0.581620  0.166575  0.872470  1
  Os  Os3  1  0.081620  0.666575  0.627530  1
  O  O4  1  0.050503  0.028794  0.274165  1
  O  O5  1  0.949497  0.528794  0.725835  1
  O  O6  1  0.550503  0.528794  0.225835  1
  O  O7  1  0.449497  0.028794  0.774165  1
  F  F8  1  0.801992  0.678426  0.503689  1
  F  F9  1  0.939343  0.825448  0.731461  1
  F  F10  1  0.752654  0.035533  0.994760  1
  F  F11  1  0.439343  0.325448  0.768539  1
  F  F12  1  0.698008  0.678426  0.003689  1
  F  F13  1  0.272235  0.822673  0.017965  1
  F  F14  1  0.301992  0.178426  0.996311  1
  F  F15  1  0.727765  0.322673  0.982035  1
  F  F16  1  0.227765  0.822673  0.517965  1
  F  F17  1  0.772235  0.322673  0.482035  1
  F  F18  1  0.110907  0.681549  0.231069  1
  F  F19  1  0.247346  0.535533  0.005240  1
  F  F20  1  0.252654  0.535533  0.505240  1
  F  F21  1  0.198008  0.178426  0.496311  1
  F  F22  1  0.389093  0.681549  0.731069  1
  F  F23  1  0.060657  0.325448  0.268539  1
  F  F24  1  0.610907  0.181549  0.268931  1
  F  F25  1  0.560657  0.825448  0.231461  1
  F  F26  1  0.747346  0.035533  0.494760  1
  F  F27  1  0.889093  0.181549  0.768931  1
