# generated using pymatgen
data_NbCl5
_symmetry_space_group_name_H-M   'P 1'
_cell_length_a   8.44681017
_cell_length_b   10.75808049
_cell_length_c   11.96812903
_cell_angle_alpha   90.00000000
_cell_angle_beta   134.25980079
_cell_angle_gamma   90.00000000
_symmetry_Int_Tables_number   1
_chemical_formula_structural   NbCl5
_chemical_formula_sum   'Nb4 Cl20'
_cell_volume   778.89252241
_cell_formula_units_Z   4
loop_
 _symmetry_equiv_pos_site_id
 _symmetry_equiv_pos_as_xyz
  1  'x, y, z'
loop_
 _atom_site_type_symbol
 _atom_site_label
 _atom_site_symmetry_multiplicity
 _atom_site_fract_x
 _atom_site_fract_y
 _atom_site_fract_z
 _atom_site_occupancy
  Nb  Nb0  1  0.106519  0.134861  0.657549  1
  Nb  Nb1  1  0.893481  0.634861  0.842451  1
  Nb  Nb2  1  0.106519  0.365139  0.157549  1
  Nb  Nb3  1  0.893481  0.865139  0.342451  1
  Cl  Cl4  1  0.283385  0.382297  0.412613  1
  Cl  Cl5  1  0.906264  0.104642  0.368560  1
  Cl  Cl6  1  0.433412  0.379090  0.215840  1
  Cl  Cl7  1  0.566588  0.620910  0.784160  1
  Cl  Cl8  1  0.283385  0.117703  0.912613  1
  Cl  Cl9  1  0.716615  0.882297  0.087387  1
  Cl  Cl10  1  0.243327  0.614634  0.935114  1
  Cl  Cl11  1  0.756673  0.114634  0.564886  1
  Cl  Cl12  1  0.922995  0.654928  0.380199  1
  Cl  Cl13  1  0.093736  0.895358  0.631440  1
  Cl  Cl14  1  0.243327  0.885366  0.435114  1
  Cl  Cl15  1  0.566588  0.879090  0.284160  1
  Cl  Cl16  1  0.922995  0.845072  0.880199  1
  Cl  Cl17  1  0.433412  0.120910  0.715840  1
  Cl  Cl18  1  0.093736  0.604642  0.131440  1
  Cl  Cl19  1  0.906264  0.395358  0.868560  1
  Cl  Cl20  1  0.077005  0.345072  0.619801  1
  Cl  Cl21  1  0.756673  0.385366  0.064886  1
  Cl  Cl22  1  0.716615  0.617703  0.587387  1
  Cl  Cl23  1  0.077005  0.154928  0.119801  1
