# generated using pymatgen
data_AgNO2
_symmetry_space_group_name_H-M   'P 1'
_cell_length_a   4.51349884
_cell_length_b   4.51349884
_cell_length_c   4.51349884
_cell_angle_alpha   128.68851260
_cell_angle_beta   111.08632095
_cell_angle_gamma   90.86747788
_symmetry_Int_Tables_number   1
_chemical_formula_structural   AgNO2
_chemical_formula_sum   'Ag1 N1 O2'
_cell_volume   63.22293697
_cell_formula_units_Z   1
loop_
 _symmetry_equiv_pos_site_id
 _symmetry_equiv_pos_as_xyz
  1  'x, y, z'
loop_
 _atom_site_type_symbol
 _atom_site_label
 _atom_site_symmetry_multiplicity
 _atom_site_fract_x
 _atom_site_fract_y
 _atom_site_fract_z
 _atom_site_occupancy
  Ag  Ag0  1  0.956619  1.000000  0.956619  1
  N  N1  1  0.392882  1.000000  0.392882  1
  O  O2  1  0.356392  0.831142  0.525249  1
  O  O3  1  0.694107  0.168858  0.525249  1
