# generated using pymatgen
data_Tb3Si2Cl5O6
_symmetry_space_group_name_H-M   'P 1'
_cell_length_a   7.48273424
_cell_length_b   7.48273424
_cell_length_c   11.77357732
_cell_angle_alpha   80.62261826
_cell_angle_beta   99.37738174
_cell_angle_gamma   91.18599272
_symmetry_Int_Tables_number   1
_chemical_formula_structural   Tb3Si2Cl5O6
_chemical_formula_sum   'Tb6 Si4 Cl10 O12'
_cell_volume   641.70533081
_cell_formula_units_Z   2
loop_
 _symmetry_equiv_pos_site_id
 _symmetry_equiv_pos_as_xyz
  1  'x, y, z'
loop_
 _atom_site_type_symbol
 _atom_site_label
 _atom_site_symmetry_multiplicity
 _atom_site_fract_x
 _atom_site_fract_y
 _atom_site_fract_z
 _atom_site_occupancy
  Tb  Tb0  1  0.081832  0.416046  0.330400  1
  Tb  Tb1  1  0.918168  0.583954  0.669600  1
  Tb  Tb2  1  0.500000  0.000000  0.000000  1
  Tb  Tb3  1  0.583954  0.918168  0.330400  1
  Tb  Tb4  1  0.000000  0.500000  0.000000  1
  Tb  Tb5  1  0.416046  0.081832  0.669600  1
  Si  Si6  1  0.109799  0.182070  0.855928  1
  Si  Si7  1  0.890201  0.817930  0.144072  1
  Si  Si8  1  0.817930  0.890201  0.855928  1
  Si  Si9  1  0.182070  0.109799  0.144072  1
  Cl  Cl10  1  0.780654  0.219346  0.338729  1
  Cl  Cl11  1  0.685859  0.314141  0.998235  1
  Cl  Cl12  1  0.219346  0.780654  0.661271  1
  Cl  Cl13  1  0.883691  0.672571  0.420854  1
  Cl  Cl14  1  0.619162  0.380838  0.645966  1
  Cl  Cl15  1  0.116309  0.327429  0.579146  1
  Cl  Cl16  1  0.327429  0.116309  0.420854  1
  Cl  Cl17  1  0.314141  0.685859  0.001765  1
  Cl  Cl18  1  0.380838  0.619162  0.354034  1
  Cl  Cl19  1  0.672571  0.883691  0.579146  1
  O  O20  1  0.131235  0.306856  0.171929  1
  O  O21  1  0.868765  0.693144  0.828071  1
  O  O22  1  0.306856  0.131235  0.828071  1
  O  O23  1  0.047622  0.952378  0.193399  1
  O  O24  1  0.607431  0.956433  0.827981  1
  O  O25  1  0.693144  0.868765  0.171929  1
  O  O26  1  0.043567  0.392569  0.827981  1
  O  O27  1  0.143892  0.143892  0.000000  1
  O  O28  1  0.392569  0.043567  0.172019  1
  O  O29  1  0.956433  0.607431  0.172019  1
  O  O30  1  0.952378  0.047622  0.806601  1
  O  O31  1  0.856108  0.856108  0.000000  1
