# generated using pymatgen
data_MnSeO4
_symmetry_space_group_name_H-M   'P 1'
_cell_length_a   5.10781807
_cell_length_b   5.10781807
_cell_length_c   6.95602727
_cell_angle_alpha   90.00000000
_cell_angle_beta   90.00000000
_cell_angle_gamma   113.13056022
_symmetry_Int_Tables_number   1
_chemical_formula_structural   MnSeO4
_chemical_formula_sum   'Mn2 Se2 O8'
_cell_volume   166.89248985
_cell_formula_units_Z   2
loop_
 _symmetry_equiv_pos_site_id
 _symmetry_equiv_pos_as_xyz
  1  'x, y, z'
loop_
 _atom_site_type_symbol
 _atom_site_label
 _atom_site_symmetry_multiplicity
 _atom_site_fract_x
 _atom_site_fract_y
 _atom_site_fract_z
 _atom_site_occupancy
  Mn  Mn0  1  0.000000  0.000000  0.000000  1
  Mn  Mn1  1  0.000000  0.000000  0.500000  1
  Se  Se2  1  0.351506  0.648494  0.750000  1
  Se  Se3  1  0.648494  0.351506  0.250000  1
  O  O4  1  0.247011  0.752989  0.549235  1
  O  O5  1  0.752989  0.247011  0.450765  1
  O  O6  1  0.286534  0.224249  0.250000  1
  O  O7  1  0.713466  0.775751  0.750000  1
  O  O8  1  0.247011  0.752989  0.950765  1
  O  O9  1  0.752989  0.247011  0.049235  1
  O  O10  1  0.775751  0.713466  0.250000  1
  O  O11  1  0.224249  0.286534  0.750000  1
