# generated using pymatgen
data_Ba7B4S13
_symmetry_space_group_name_H-M   'P 1'
_cell_length_a   13.18921927
_cell_length_b   13.18921927
_cell_length_c   10.28688641
_cell_angle_alpha   89.98055041
_cell_angle_beta   90.01944959
_cell_angle_gamma   45.95183867
_symmetry_Int_Tables_number   1
_chemical_formula_structural   Ba7B4S13
_chemical_formula_sum   'Ba14 B8 S26'
_cell_volume   1286.18434515
_cell_formula_units_Z   2
loop_
 _symmetry_equiv_pos_site_id
 _symmetry_equiv_pos_as_xyz
  1  'x, y, z'
loop_
 _atom_site_type_symbol
 _atom_site_label
 _atom_site_symmetry_multiplicity
 _atom_site_fract_x
 _atom_site_fract_y
 _atom_site_fract_z
 _atom_site_occupancy
  Ba  Ba0  1  0.008447  0.008447  0.250000  1
  Ba  Ba1  1  0.991553  0.991553  0.750000  1
  Ba  Ba2  1  0.104785  0.546040  0.644182  1
  Ba  Ba3  1  0.497644  0.497644  0.750000  1
  Ba  Ba4  1  0.895215  0.453960  0.355818  1
  Ba  Ba5  1  0.502356  0.502356  0.250000  1
  Ba  Ba6  1  0.066031  0.277601  0.970192  1
  Ba  Ba7  1  0.277601  0.066031  0.529808  1
  Ba  Ba8  1  0.331395  0.331395  0.250000  1
  Ba  Ba9  1  0.933969  0.722399  0.029808  1
  Ba  Ba10  1  0.668605  0.668605  0.750000  1
  Ba  Ba11  1  0.722399  0.933969  0.470192  1
  Ba  Ba12  1  0.453960  0.895215  0.144182  1
  Ba  Ba13  1  0.546040  0.104785  0.855818  1
  B  B14  1  0.067833  0.708167  0.349917  1
  B  B15  1  0.716147  0.518151  0.067595  1
  B  B16  1  0.518151  0.716147  0.432405  1
  B  B17  1  0.283853  0.481849  0.932405  1
  B  B18  1  0.708167  0.067833  0.150083  1
  B  B19  1  0.291833  0.932167  0.849917  1
  B  B20  1  0.481849  0.283853  0.567595  1
  B  B21  1  0.932167  0.291833  0.650083  1
  S  S22  1  0.998704  0.624027  0.348005  1
  S  S23  1  0.624027  0.998704  0.151995  1
  S  S24  1  0.164821  0.681456  0.207282  1
  S  S25  1  0.374791  0.460307  0.502055  1
  S  S26  1  0.001296  0.375973  0.651995  1
  S  S27  1  0.625209  0.539693  0.497945  1
  S  S28  1  0.318544  0.835179  0.707282  1
  S  S29  1  0.795825  0.795825  0.750000  1
  S  S30  1  0.823527  0.024475  0.016491  1
  S  S31  1  0.975525  0.176473  0.516491  1
  S  S32  1  0.186937  0.651258  0.852748  1
  S  S33  1  0.375973  0.001296  0.848005  1
  S  S34  1  0.539693  0.625209  0.002055  1
  S  S35  1  0.681456  0.164821  0.292718  1
  S  S36  1  0.835179  0.318544  0.792718  1
  S  S37  1  0.024475  0.823527  0.483509  1
  S  S38  1  0.651258  0.186937  0.647252  1
  S  S39  1  0.204175  0.204175  0.250000  1
  S  S40  1  0.813063  0.348742  0.147252  1
  S  S41  1  0.207910  0.405177  0.938772  1
  S  S42  1  0.405177  0.207910  0.561228  1
  S  S43  1  0.594823  0.792090  0.438772  1
  S  S44  1  0.176473  0.975525  0.983509  1
  S  S45  1  0.348742  0.813063  0.352748  1
  S  S46  1  0.792090  0.594823  0.061228  1
  S  S47  1  0.460307  0.374791  0.997945  1
