# generated using pymatgen
data_Te3I(OF5)3
_symmetry_space_group_name_H-M   'P 1'
_cell_length_a   10.68153416
_cell_length_b   10.01522236
_cell_length_c   14.90210833
_cell_angle_alpha   90.00000000
_cell_angle_beta   91.85885735
_cell_angle_gamma   90.00000000
_symmetry_Int_Tables_number   1
_chemical_formula_structural   Te3I(OF5)3
_chemical_formula_sum   'Te12 I4 O12 F60'
_cell_volume   1593.35792730
_cell_formula_units_Z   4
loop_
 _symmetry_equiv_pos_site_id
 _symmetry_equiv_pos_as_xyz
  1  'x, y, z'
loop_
 _atom_site_type_symbol
 _atom_site_label
 _atom_site_symmetry_multiplicity
 _atom_site_fract_x
 _atom_site_fract_y
 _atom_site_fract_z
 _atom_site_occupancy
  Te  Te0  1  0.315260  0.280050  0.445773  1
  Te  Te1  1  0.184740  0.780050  0.554227  1
  Te  Te2  1  0.602410  0.157932  0.789942  1
  Te  Te3  1  0.625787  0.641897  0.886374  1
  Te  Te4  1  0.684740  0.719950  0.554227  1
  Te  Te5  1  0.397590  0.842068  0.210058  1
  Te  Te6  1  0.897590  0.657932  0.210058  1
  Te  Te7  1  0.874213  0.141897  0.113626  1
  Te  Te8  1  0.374213  0.358103  0.113626  1
  Te  Te9  1  0.815260  0.219950  0.445773  1
  Te  Te10  1  0.125787  0.858103  0.886374  1
  Te  Te11  1  0.102410  0.342068  0.789942  1
  I  I12  1  0.535998  0.474135  0.691519  1
  I  I13  1  0.035998  0.025865  0.691519  1
  I  I14  1  0.964002  0.974135  0.308481  1
  I  I15  1  0.464002  0.525865  0.308481  1
  O  O16  1  0.998911  0.187999  0.771387  1
  O  O17  1  0.663271  0.534402  0.779511  1
  O  O18  1  0.551885  0.657690  0.624342  1
  O  O19  1  0.163271  0.965598  0.779511  1
  O  O20  1  0.336729  0.465598  0.220489  1
  O  O21  1  0.948115  0.157690  0.375658  1
  O  O22  1  0.051885  0.842310  0.624342  1
  O  O23  1  0.836729  0.034402  0.220489  1
  O  O24  1  0.501089  0.687999  0.228613  1
  O  O25  1  0.448115  0.342310  0.375658  1
  O  O26  1  0.498911  0.312001  0.771387  1
  O  O27  1  0.001089  0.812001  0.228613  1
  F  F28  1  0.538176  0.074135  0.685401  1
  F  F29  1  0.582401  0.856228  0.507071  1
  F  F30  1  0.865933  0.108905  0.545169  1
  F  F31  1  0.703910  0.084835  0.406247  1
  F  F32  1  0.747398  0.835140  0.644511  1
  F  F33  1  0.523514  0.452691  0.096538  1
  F  F34  1  0.705261  0.008791  0.809580  1
  F  F35  1  0.522260  0.923500  0.143616  1
  F  F36  1  0.535518  0.765933  0.815469  1
  F  F37  1  0.215148  0.981644  0.957163  1
  F  F38  1  0.674085  0.230886  0.895645  1
  F  F39  1  0.725494  0.234782  0.131649  1
  F  F40  1  0.205261  0.491209  0.809580  1
  F  F41  1  0.134067  0.891095  0.454831  1
  F  F42  1  0.961824  0.574135  0.314599  1
  F  F43  1  0.825915  0.730886  0.104355  1
  F  F44  1  0.023514  0.047309  0.096538  1
  F  F45  1  0.794739  0.508791  0.190420  1
  F  F46  1  0.812211  0.782836  0.481385  1
  F  F47  1  0.715148  0.518356  0.957163  1
  F  F48  1  0.917599  0.356228  0.492929  1
  F  F49  1  0.247398  0.664860  0.644511  1
  F  F50  1  0.904577  0.244544  0.012583  1
  F  F51  1  0.774506  0.734782  0.868351  1
  F  F52  1  0.082401  0.643772  0.507071  1
  F  F53  1  0.796090  0.584835  0.593753  1
  F  F54  1  0.274506  0.765218  0.868351  1
  F  F55  1  0.595423  0.744544  0.987417  1
  F  F56  1  0.752602  0.335140  0.355489  1
  F  F57  1  0.732680  0.231709  0.722601  1
  F  F58  1  0.252602  0.164860  0.355489  1
  F  F59  1  0.964482  0.265933  0.184531  1
  F  F60  1  0.365933  0.391095  0.545169  1
  F  F61  1  0.038176  0.425865  0.685401  1
  F  F62  1  0.404577  0.255456  0.012583  1
  F  F63  1  0.476486  0.547309  0.903462  1
  F  F64  1  0.294739  0.991209  0.190420  1
  F  F65  1  0.417599  0.143772  0.492929  1
  F  F66  1  0.035518  0.734067  0.815469  1
  F  F67  1  0.784852  0.018356  0.042837  1
  F  F68  1  0.296090  0.915165  0.593753  1
  F  F69  1  0.187789  0.217164  0.518615  1
  F  F70  1  0.477740  0.076500  0.856384  1
  F  F71  1  0.687789  0.282836  0.518615  1
  F  F72  1  0.977740  0.423500  0.856384  1
  F  F73  1  0.267320  0.768291  0.277399  1
  F  F74  1  0.312211  0.717164  0.481385  1
  F  F75  1  0.464482  0.234067  0.184531  1
  F  F76  1  0.325915  0.769114  0.104355  1
  F  F77  1  0.976486  0.952691  0.903462  1
  F  F78  1  0.203910  0.415165  0.406247  1
  F  F79  1  0.767320  0.731709  0.277399  1
  F  F80  1  0.225494  0.265218  0.131649  1
  F  F81  1  0.174085  0.269114  0.895645  1
  F  F82  1  0.461824  0.925865  0.314599  1
  F  F83  1  0.284852  0.481644  0.042837  1
  F  F84  1  0.095423  0.755456  0.987417  1
  F  F85  1  0.022260  0.576500  0.143616  1
  F  F86  1  0.232680  0.268291  0.722601  1
  F  F87  1  0.634067  0.608905  0.454831  1
