# generated using pymatgen
data_CaGaBO4
_symmetry_space_group_name_H-M   'P 1'
_cell_length_a   8.84907367
_cell_length_b   8.84907367
_cell_length_c   5.90388177
_cell_angle_alpha   90.00000000
_cell_angle_beta   90.00000000
_cell_angle_gamma   122.66408941
_symmetry_Int_Tables_number   1
_chemical_formula_structural   CaGaBO4
_chemical_formula_sum   'Ca4 Ga4 B4 O16'
_cell_volume   389.19529821
_cell_formula_units_Z   4
loop_
 _symmetry_equiv_pos_site_id
 _symmetry_equiv_pos_as_xyz
  1  'x, y, z'
loop_
 _atom_site_type_symbol
 _atom_site_label
 _atom_site_symmetry_multiplicity
 _atom_site_fract_x
 _atom_site_fract_y
 _atom_site_fract_z
 _atom_site_occupancy
  Ca  Ca0  1  0.267889  0.452024  0.897672  1
  Ca  Ca1  1  0.547976  0.732111  0.397672  1
  Ca  Ca2  1  0.732111  0.547976  0.897672  1
  Ca  Ca3  1  0.452024  0.267889  0.397672  1
  Ga  Ga4  1  0.813167  0.216820  0.625505  1
  Ga  Ga5  1  0.216820  0.813167  0.125505  1
  Ga  Ga6  1  0.783180  0.186833  0.125505  1
  Ga  Ga7  1  0.186833  0.783180  0.625505  1
  B  B8  1  0.654273  0.865956  0.860194  1
  B  B9  1  0.134044  0.345727  0.360194  1
  B  B10  1  0.345727  0.134044  0.860194  1
  B  B11  1  0.865956  0.654273  0.360194  1
  O  O12  1  0.029409  0.284111  0.165060  1
  O  O13  1  0.315819  0.429869  0.328851  1
  O  O14  1  0.231028  0.694800  0.879640  1
  O  O15  1  0.429869  0.315819  0.828851  1
  O  O16  1  0.684181  0.570131  0.328851  1
  O  O17  1  0.676781  0.938220  0.077078  1
  O  O18  1  0.305200  0.768972  0.379640  1
  O  O19  1  0.694800  0.231028  0.379640  1
  O  O20  1  0.061780  0.323219  0.577078  1
  O  O21  1  0.715889  0.970591  0.665060  1
  O  O22  1  0.323219  0.061780  0.077078  1
  O  O23  1  0.768972  0.305200  0.879640  1
  O  O24  1  0.284111  0.029409  0.665060  1
  O  O25  1  0.970591  0.715889  0.165060  1
  O  O26  1  0.570131  0.684181  0.828851  1
  O  O27  1  0.938220  0.676781  0.577078  1
