# generated using pymatgen
data_K6Ge2O7
_symmetry_space_group_name_H-M   'P 1'
_cell_length_a   6.62785974
_cell_length_b   9.20850124
_cell_length_c   11.34519849
_cell_angle_alpha   90.00000000
_cell_angle_beta   124.05199285
_cell_angle_gamma   90.00000000
_symmetry_Int_Tables_number   1
_chemical_formula_structural   K6Ge2O7
_chemical_formula_sum   'K12 Ge4 O14'
_cell_volume   573.69688088
_cell_formula_units_Z   2
loop_
 _symmetry_equiv_pos_site_id
 _symmetry_equiv_pos_as_xyz
  1  'x, y, z'
loop_
 _atom_site_type_symbol
 _atom_site_label
 _atom_site_symmetry_multiplicity
 _atom_site_fract_x
 _atom_site_fract_y
 _atom_site_fract_z
 _atom_site_occupancy
  K  K0  1  0.403714  0.540796  0.781375  1
  K  K1  1  0.599198  0.039618  0.725600  1
  K  K2  1  0.953172  0.897859  0.079185  1
  K  K3  1  0.953172  0.102141  0.579185  1
  K  K4  1  0.791176  0.722407  0.544048  1
  K  K5  1  0.791176  0.277593  0.044048  1
  K  K6  1  0.210212  0.778367  0.463075  1
  K  K7  1  0.210212  0.221633  0.963075  1
  K  K8  1  0.050777  0.599889  0.929079  1
  K  K9  1  0.050777  0.400111  0.429079  1
  K  K10  1  0.599198  0.960382  0.225600  1
  K  K11  1  0.403714  0.459204  0.281375  1
  Ge  Ge12  1  0.688574  0.393951  0.633915  1
  Ge  Ge13  1  0.315775  0.892458  0.873488  1
  Ge  Ge14  1  0.315775  0.107542  0.373488  1
  Ge  Ge15  1  0.688574  0.606049  0.133915  1
  O  O16  1  0.754417  0.665048  0.300269  1
  O  O17  1  0.491992  0.546602  0.569264  1
  O  O18  1  0.508804  0.747572  0.999457  1
  O  O19  1  0.508804  0.252428  0.499457  1
  O  O20  1  0.509958  0.046158  0.939893  1
  O  O21  1  0.509958  0.953842  0.439893  1
  O  O22  1  0.057131  0.909814  0.881424  1
  O  O23  1  0.057131  0.090186  0.381424  1
  O  O24  1  0.242124  0.840822  0.703676  1
  O  O25  1  0.242124  0.159178  0.203676  1
  O  O26  1  0.491992  0.453398  0.069264  1
  O  O27  1  0.952777  0.418138  0.632653  1
  O  O28  1  0.754417  0.334952  0.800269  1
  O  O29  1  0.952777  0.581862  0.132653  1
