# generated using pymatgen
data_ReSb(OF4)2
_symmetry_space_group_name_H-M   'P 1'
_cell_length_a   5.76213252
_cell_length_b   10.41041889
_cell_length_c   12.92396654
_cell_angle_alpha   90.00000000
_cell_angle_beta   99.72989679
_cell_angle_gamma   90.00000000
_symmetry_Int_Tables_number   1
_chemical_formula_structural   ReSb(OF4)2
_chemical_formula_sum   'Re4 Sb4 O8 F32'
_cell_volume   764.10802344
_cell_formula_units_Z   4
loop_
 _symmetry_equiv_pos_site_id
 _symmetry_equiv_pos_as_xyz
  1  'x, y, z'
loop_
 _atom_site_type_symbol
 _atom_site_label
 _atom_site_symmetry_multiplicity
 _atom_site_fract_x
 _atom_site_fract_y
 _atom_site_fract_z
 _atom_site_occupancy
  Re  Re0  1  0.666538  0.739422  0.785596  1
  Re  Re1  1  0.333462  0.239422  0.714404  1
  Re  Re2  1  0.333462  0.260578  0.214404  1
  Re  Re3  1  0.666538  0.760578  0.285596  1
  Sb  Sb4  1  0.000000  0.000000  0.500000  1
  Sb  Sb5  1  0.000000  0.500000  0.500000  1
  Sb  Sb6  1  0.000000  0.500000  0.000000  1
  Sb  Sb7  1  0.000000  0.000000  0.000000  1
  O  O8  1  0.523277  0.599236  0.752135  1
  O  O9  1  0.406935  0.330163  0.824016  1
  O  O10  1  0.593065  0.830163  0.675984  1
  O  O11  1  0.476723  0.400764  0.247865  1
  O  O12  1  0.406935  0.169837  0.324016  1
  O  O13  1  0.593065  0.669837  0.175984  1
  O  O14  1  0.476723  0.099236  0.747865  1
  O  O15  1  0.523277  0.900764  0.252135  1
  F  F16  1  0.810034  0.846200  0.444253  1
  F  F17  1  0.271280  0.925954  0.460276  1
  F  F18  1  0.808222  0.140441  0.946593  1
  F  F19  1  0.271280  0.574046  0.960276  1
  F  F20  1  0.884656  0.600089  0.368702  1
  F  F21  1  0.926864  0.078917  0.365989  1
  F  F22  1  0.467860  0.690065  0.368967  1
  F  F23  1  0.115344  0.399911  0.631298  1
  F  F24  1  0.189966  0.346200  0.055747  1
  F  F25  1  0.926864  0.421083  0.865989  1
  F  F26  1  0.970528  0.806253  0.270624  1
  F  F27  1  0.029472  0.306253  0.229376  1
  F  F28  1  0.970528  0.693747  0.770624  1
  F  F29  1  0.808222  0.359559  0.446593  1
  F  F30  1  0.728720  0.425954  0.039724  1
  F  F31  1  0.753013  0.933185  0.063918  1
  F  F32  1  0.115344  0.100089  0.131298  1
  F  F33  1  0.532140  0.309935  0.631033  1
  F  F34  1  0.246987  0.066815  0.936082  1
  F  F35  1  0.029472  0.193747  0.729376  1
  F  F36  1  0.191778  0.640441  0.553407  1
  F  F37  1  0.753013  0.566815  0.563918  1
  F  F38  1  0.073136  0.578917  0.134011  1
  F  F39  1  0.246987  0.433185  0.436082  1
  F  F40  1  0.073136  0.921083  0.634011  1
  F  F41  1  0.467860  0.809935  0.868967  1
  F  F42  1  0.532140  0.190065  0.131033  1
  F  F43  1  0.810034  0.653800  0.944253  1
  F  F44  1  0.884656  0.899911  0.868702  1
  F  F45  1  0.191778  0.859559  0.053407  1
  F  F46  1  0.189966  0.153800  0.555747  1
  F  F47  1  0.728720  0.074046  0.539724  1
