# generated using pymatgen
data_Na3Nd(BO3)2
_symmetry_space_group_name_H-M   'P 1'
_cell_length_a   6.67164605
_cell_length_b   8.88159684
_cell_length_c   12.18936172
_cell_angle_alpha   90.00000000
_cell_angle_beta   122.22254364
_cell_angle_gamma   90.00000000
_symmetry_Int_Tables_number   1
_chemical_formula_structural   Na3Nd(BO3)2
_chemical_formula_sum   'Na12 Nd4 B8 O24'
_cell_volume   611.03611125
_cell_formula_units_Z   4
loop_
 _symmetry_equiv_pos_site_id
 _symmetry_equiv_pos_as_xyz
  1  'x, y, z'
loop_
 _atom_site_type_symbol
 _atom_site_label
 _atom_site_symmetry_multiplicity
 _atom_site_fract_x
 _atom_site_fract_y
 _atom_site_fract_z
 _atom_site_occupancy
  Na  Na0  1  0.418651  0.812194  0.397313  1
  Na  Na1  1  0.581349  0.312194  0.102687  1
  Na  Na2  1  0.388537  0.563152  0.606830  1
  Na  Na3  1  0.819174  0.736426  0.342426  1
  Na  Na4  1  0.611463  0.436848  0.393170  1
  Na  Na5  1  0.418651  0.687806  0.897313  1
  Na  Na6  1  0.180826  0.263574  0.657574  1
  Na  Na7  1  0.581349  0.187806  0.602687  1
  Na  Na8  1  0.180826  0.236426  0.157574  1
  Na  Na9  1  0.611463  0.063152  0.893170  1
  Na  Na10  1  0.388537  0.936848  0.106830  1
  Na  Na11  1  0.819174  0.763574  0.842426  1
  Nd  Nd12  1  0.013204  0.114403  0.354108  1
  Nd  Nd13  1  0.013204  0.385597  0.854108  1
  Nd  Nd14  1  0.986796  0.885597  0.645892  1
  Nd  Nd15  1  0.986796  0.614403  0.145892  1
  B  B16  1  0.870319  0.568401  0.625581  1
  B  B17  1  0.582497  0.098823  0.361341  1
  B  B18  1  0.129681  0.068401  0.874419  1
  B  B19  1  0.870319  0.931599  0.125581  1
  B  B20  1  0.582497  0.401177  0.861341  1
  B  B21  1  0.417503  0.598823  0.138659  1
  B  B22  1  0.129681  0.431599  0.374419  1
  B  B23  1  0.417503  0.901177  0.638659  1
  O  O24  1  0.622093  0.211740  0.295329  1
  O  O25  1  0.385513  0.101121  0.369656  1
  O  O26  1  0.821866  0.653075  0.518663  1
  O  O27  1  0.199204  0.919502  0.882975  1
  O  O28  1  0.614487  0.601121  0.130344  1
  O  O29  1  0.385513  0.398879  0.869656  1
  O  O30  1  0.199204  0.580498  0.382975  1
  O  O31  1  0.009188  0.136526  0.751554  1
  O  O32  1  0.009188  0.363474  0.251554  1
  O  O33  1  0.750183  0.518314  0.915327  1
  O  O34  1  0.990812  0.636526  0.748446  1
  O  O35  1  0.800796  0.419502  0.617025  1
  O  O36  1  0.614487  0.898879  0.630344  1
  O  O37  1  0.821866  0.846925  0.018663  1
  O  O38  1  0.990812  0.863474  0.248446  1
  O  O39  1  0.377907  0.788260  0.704671  1
  O  O40  1  0.178134  0.153075  0.981337  1
  O  O41  1  0.800796  0.080498  0.117025  1
  O  O42  1  0.249817  0.018314  0.584673  1
  O  O43  1  0.249817  0.481686  0.084673  1
  O  O44  1  0.377907  0.711740  0.204671  1
  O  O45  1  0.750183  0.981686  0.415327  1
  O  O46  1  0.622093  0.288260  0.795329  1
  O  O47  1  0.178134  0.346925  0.481337  1
