# generated using pymatgen
data_Ti6Tl5AgSe27
_symmetry_space_group_name_H-M   'P 1'
_cell_length_a   13.40680717
_cell_length_b   13.40680717
_cell_length_c   13.99532253
_cell_angle_alpha   90.00000000
_cell_angle_beta   90.00000000
_cell_angle_gamma   120.00000000
_symmetry_Int_Tables_number   1
_chemical_formula_structural   Ti6Tl5AgSe27
_chemical_formula_sum   'Ti12 Tl10 Ag2 Se54'
_cell_volume   2178.53363297
_cell_formula_units_Z   2
loop_
 _symmetry_equiv_pos_site_id
 _symmetry_equiv_pos_as_xyz
  1  'x, y, z'
loop_
 _atom_site_type_symbol
 _atom_site_label
 _atom_site_symmetry_multiplicity
 _atom_site_fract_x
 _atom_site_fract_y
 _atom_site_fract_z
 _atom_site_occupancy
  Ti  Ti0  1  0.984504  0.334462  0.896092  1
  Ti  Ti1  1  0.673186  0.660855  0.636256  1
  Ti  Ti2  1  0.349959  0.015496  0.896092  1
  Ti  Ti3  1  0.339145  0.012331  0.636256  1
  Ti  Ti4  1  0.326814  0.987669  0.136256  1
  Ti  Ti5  1  0.665538  0.650041  0.896092  1
  Ti  Ti6  1  0.015496  0.349959  0.396092  1
  Ti  Ti7  1  0.012331  0.339145  0.136256  1
  Ti  Ti8  1  0.987669  0.326814  0.636256  1
  Ti  Ti9  1  0.660855  0.673186  0.136256  1
  Ti  Ti10  1  0.650041  0.665538  0.396092  1
  Ti  Ti11  1  0.334462  0.984504  0.396092  1
  Tl  Tl12  1  0.666667  0.333333  0.566800  1
  Tl  Tl13  1  0.937792  0.630139  0.766567  1
  Tl  Tl14  1  0.333333  0.666667  0.433420  1
  Tl  Tl15  1  0.307653  0.369861  0.266567  1
  Tl  Tl16  1  0.666667  0.333333  0.933420  1
  Tl  Tl17  1  0.692347  0.062208  0.766567  1
  Tl  Tl18  1  0.630139  0.937792  0.266567  1
  Tl  Tl19  1  0.333333  0.666667  0.066800  1
  Tl  Tl20  1  0.062208  0.692347  0.266567  1
  Tl  Tl21  1  0.369861  0.307653  0.766567  1
  Ag  Ag22  1  0.000000  0.000000  0.011857  1
  Ag  Ag23  1  0.000000  0.000000  0.511857  1
  Se  Se24  1  0.550442  0.128742  0.400564  1
  Se  Se25  1  0.879521  0.204259  0.265922  1
  Se  Se26  1  0.109025  0.897986  0.121983  1
  Se  Se27  1  0.840555  0.188636  0.012481  1
  Se  Se28  1  0.324738  0.120479  0.265922  1
  Se  Se29  1  0.102014  0.211039  0.121983  1
  Se  Se30  1  0.788961  0.890975  0.121983  1
  Se  Se31  1  0.120479  0.324738  0.765922  1
  Se  Se32  1  0.795506  0.633088  0.511637  1
  Se  Se33  1  0.341285  0.859130  0.262677  1
  Se  Se34  1  0.501683  0.188739  0.178614  1
  Se  Se35  1  0.159445  0.348080  0.512481  1
  Se  Se36  1  0.651920  0.811364  0.512481  1
  Se  Se37  1  0.517845  0.658715  0.262677  1
  Se  Se38  1  0.081680  0.198588  0.391418  1
  Se  Se39  1  0.188636  0.840555  0.512481  1
  Se  Se40  1  0.116908  0.918320  0.391418  1
  Se  Se41  1  0.633088  0.795506  0.011637  1
  Se  Se42  1  0.188739  0.501683  0.678614  1
  Se  Se43  1  0.449558  0.578300  0.900564  1
  Se  Se44  1  0.017977  0.497757  0.521103  1
  Se  Se45  1  0.897986  0.109025  0.621983  1
  Se  Se46  1  0.795741  0.675262  0.265922  1
  Se  Se47  1  0.128742  0.550442  0.900564  1
  Se  Se48  1  0.890975  0.788961  0.621983  1
  Se  Se49  1  0.312944  0.811261  0.678614  1
  Se  Se50  1  0.675262  0.795741  0.765922  1
  Se  Se51  1  0.348080  0.159445  0.012481  1
  Se  Se52  1  0.198588  0.081680  0.891418  1
  Se  Se53  1  0.658715  0.517845  0.762677  1
  Se  Se54  1  0.498317  0.687056  0.678614  1
  Se  Se55  1  0.883092  0.801412  0.891418  1
  Se  Se56  1  0.211039  0.102014  0.621983  1
  Se  Se57  1  0.162418  0.366912  0.011637  1
  Se  Se58  1  0.811261  0.312944  0.178614  1
  Se  Se59  1  0.871258  0.421700  0.400564  1
  Se  Se60  1  0.482155  0.140870  0.762677  1
  Se  Se61  1  0.502243  0.520220  0.521103  1
  Se  Se62  1  0.982023  0.479780  0.021103  1
  Se  Se63  1  0.204259  0.879521  0.765922  1
  Se  Se64  1  0.421700  0.871258  0.900564  1
  Se  Se65  1  0.204494  0.837582  0.011637  1
  Se  Se66  1  0.497757  0.017977  0.021103  1
  Se  Se67  1  0.578300  0.449558  0.400564  1
  Se  Se68  1  0.520220  0.502243  0.021103  1
  Se  Se69  1  0.837582  0.204494  0.511637  1
  Se  Se70  1  0.687056  0.498317  0.178614  1
  Se  Se71  1  0.366912  0.162418  0.511637  1
  Se  Se72  1  0.918320  0.116908  0.891418  1
  Se  Se73  1  0.859130  0.341285  0.762677  1
  Se  Se74  1  0.140870  0.482155  0.262677  1
  Se  Se75  1  0.479780  0.982023  0.521103  1
  Se  Se76  1  0.811364  0.651920  0.012481  1
  Se  Se77  1  0.801412  0.883092  0.391418  1
