# generated using pymatgen
data_Sr3Mg(SiO4)2
_symmetry_space_group_name_H-M   'P 1'
_cell_length_a   5.52594179
_cell_length_b   5.52594179
_cell_length_c   14.03528137
_cell_angle_alpha   89.22144197
_cell_angle_beta   90.77855803
_cell_angle_gamma   120.17407324
_symmetry_Int_Tables_number   1
_chemical_formula_structural   Sr3Mg(SiO4)2
_chemical_formula_sum   'Sr6 Mg2 Si4 O16'
_cell_volume   370.46444723
_cell_formula_units_Z   2
loop_
 _symmetry_equiv_pos_site_id
 _symmetry_equiv_pos_as_xyz
  1  'x, y, z'
loop_
 _atom_site_type_symbol
 _atom_site_label
 _atom_site_symmetry_multiplicity
 _atom_site_fract_x
 _atom_site_fract_y
 _atom_site_fract_z
 _atom_site_occupancy
  Sr  Sr0  1  0.058586  0.058586  0.750000  1
  Sr  Sr1  1  0.941414  0.941414  0.250000  1
  Sr  Sr2  1  0.316369  0.657056  0.411770  1
  Sr  Sr3  1  0.657056  0.316369  0.088230  1
  Sr  Sr4  1  0.683631  0.342944  0.588230  1
  Sr  Sr5  1  0.342944  0.683631  0.911770  1
  Mg  Mg6  1  0.000000  0.000000  0.500000  1
  Mg  Mg7  1  0.000000  0.000000  0.000000  1
  Si  Si8  1  0.354671  0.672952  0.634576  1
  Si  Si9  1  0.672952  0.354671  0.865424  1
  Si  Si10  1  0.645329  0.327048  0.365424  1
  Si  Si11  1  0.327048  0.645329  0.134576  1
  O  O12  1  0.220042  0.370351  0.576343  1
  O  O13  1  0.370351  0.220042  0.923657  1
  O  O14  1  0.847017  0.216333  0.917569  1
  O  O15  1  0.216333  0.847017  0.582431  1
  O  O16  1  0.262096  0.598846  0.745090  1
  O  O17  1  0.598846  0.262096  0.754910  1
  O  O18  1  0.783667  0.152983  0.417569  1
  O  O19  1  0.152983  0.783667  0.082431  1
  O  O20  1  0.737904  0.401154  0.254910  1
  O  O21  1  0.401154  0.737904  0.245090  1
  O  O22  1  0.312563  0.153778  0.386602  1
  O  O23  1  0.153778  0.312563  0.113398  1
  O  O24  1  0.779958  0.629649  0.423657  1
  O  O25  1  0.629649  0.779958  0.076343  1
  O  O26  1  0.687437  0.846222  0.613398  1
  O  O27  1  0.846222  0.687437  0.886602  1
