# generated using pymatgen
data_Cd2BiAsO6
_symmetry_space_group_name_H-M   'P 1'
_cell_length_a   7.52959599
_cell_length_b   7.52959599
_cell_length_c   5.52824657
_cell_angle_alpha   90.00000000
_cell_angle_beta   90.00000000
_cell_angle_gamma   108.13012796
_symmetry_Int_Tables_number   1
_chemical_formula_structural   Cd2BiAsO6
_chemical_formula_sum   'Cd4 Bi2 As2 O12'
_cell_volume   297.86217383
_cell_formula_units_Z   2
loop_
 _symmetry_equiv_pos_site_id
 _symmetry_equiv_pos_as_xyz
  1  'x, y, z'
loop_
 _atom_site_type_symbol
 _atom_site_label
 _atom_site_symmetry_multiplicity
 _atom_site_fract_x
 _atom_site_fract_y
 _atom_site_fract_z
 _atom_site_occupancy
  Cd  Cd0  1  0.801751  0.593060  0.613559  1
  Cd  Cd1  1  0.406940  0.198249  0.613559  1
  Cd  Cd2  1  0.198249  0.406940  0.113559  1
  Cd  Cd3  1  0.593060  0.801751  0.113559  1
  Bi  Bi4  1  0.906452  0.093548  0.608009  1
  Bi  Bi5  1  0.093548  0.906452  0.108009  1
  As  As6  1  0.316577  0.683423  0.653773  1
  As  As7  1  0.683423  0.316577  0.153773  1
  O  O8  1  0.848328  0.843302  0.367700  1
  O  O9  1  0.413581  0.907261  0.764025  1
  O  O10  1  0.843302  0.848328  0.867700  1
  O  O11  1  0.156698  0.151672  0.367700  1
  O  O12  1  0.151672  0.156698  0.867700  1
  O  O13  1  0.556704  0.443296  0.297530  1
  O  O14  1  0.319694  0.680306  0.338710  1
  O  O15  1  0.586419  0.092739  0.264025  1
  O  O16  1  0.907261  0.413581  0.264025  1
  O  O17  1  0.443296  0.556704  0.797530  1
  O  O18  1  0.680306  0.319694  0.838710  1
  O  O19  1  0.092739  0.586419  0.764025  1
