# generated using pymatgen
data_CrHg5O6
_symmetry_space_group_name_H-M   'P 1'
_cell_length_a   8.28347452
_cell_length_b   8.28347452
_cell_length_c   6.84986441
_cell_angle_alpha   84.47935923
_cell_angle_beta   95.52064077
_cell_angle_gamma   88.20165675
_symmetry_Int_Tables_number   1
_chemical_formula_structural   CrHg5O6
_chemical_formula_sum   'Cr2 Hg10 O12'
_cell_volume   465.26801153
_cell_formula_units_Z   2
loop_
 _symmetry_equiv_pos_site_id
 _symmetry_equiv_pos_as_xyz
  1  'x, y, z'
loop_
 _atom_site_type_symbol
 _atom_site_label
 _atom_site_symmetry_multiplicity
 _atom_site_fract_x
 _atom_site_fract_y
 _atom_site_fract_z
 _atom_site_occupancy
  Cr  Cr0  1  0.317072  0.317072  0.250000  1
  Cr  Cr1  1  0.682928  0.682928  0.750000  1
  Hg  Hg2  1  0.350593  0.797362  0.302604  1
  Hg  Hg3  1  0.797362  0.350593  0.197396  1
  Hg  Hg4  1  0.649407  0.202638  0.697396  1
  Hg  Hg5  1  0.202638  0.649407  0.802604  1
  Hg  Hg6  1  0.934104  0.614716  0.289862  1
  Hg  Hg7  1  0.385284  0.065896  0.789862  1
  Hg  Hg8  1  0.065896  0.385284  0.710138  1
  Hg  Hg9  1  0.614716  0.934104  0.210138  1
  Hg  Hg10  1  0.000000  0.000000  0.000000  1
  Hg  Hg11  1  0.000000  1.000000  0.500000  1
  O  O12  1  0.276899  0.517766  0.207074  1
  O  O13  1  0.517766  0.276899  0.292926  1
  O  O14  1  0.723101  0.482234  0.792926  1
  O  O15  1  0.482234  0.723101  0.707074  1
  O  O16  1  0.241028  0.228806  0.052743  1
  O  O17  1  0.228806  0.241028  0.447257  1
  O  O18  1  0.758972  0.771194  0.947257  1
  O  O19  1  0.771194  0.758972  0.552743  1
  O  O20  1  0.811754  0.091362  0.145763  1
  O  O21  1  0.091362  0.811754  0.354237  1
  O  O22  1  0.188246  0.908638  0.854237  1
  O  O23  1  0.908638  0.188246  0.645763  1
