# generated using pymatgen
data_Cs2Na(C2N3)3
_symmetry_space_group_name_H-M   'P 1'
_cell_length_a   7.24003298
_cell_length_b   7.24003298
_cell_length_c   14.84982774
_cell_angle_alpha   90.00000000
_cell_angle_beta   90.00000000
_cell_angle_gamma   120.00000000
_symmetry_Int_Tables_number   1
_chemical_formula_structural   Cs2Na(C2N3)3
_chemical_formula_sum   'Cs4 Na2 C12 N18'
_cell_volume   674.11367364
_cell_formula_units_Z   2
loop_
 _symmetry_equiv_pos_site_id
 _symmetry_equiv_pos_as_xyz
  1  'x, y, z'
loop_
 _atom_site_type_symbol
 _atom_site_label
 _atom_site_symmetry_multiplicity
 _atom_site_fract_x
 _atom_site_fract_y
 _atom_site_fract_z
 _atom_site_occupancy
  Cs  Cs0  1  0.333333  0.666667  0.069546  1
  Cs  Cs1  1  0.666667  0.333333  0.930454  1
  Cs  Cs2  1  0.333333  0.666667  0.430454  1
  Cs  Cs3  1  0.666667  0.333333  0.569546  1
  Na  Na4  1  0.000000  0.000000  0.000000  1
  Na  Na5  1  0.000000  0.000000  0.500000  1
  C  C6  1  0.857722  0.197706  0.327568  1
  C  C7  1  0.857722  0.197706  0.172432  1
  C  C8  1  0.660016  0.857722  0.827568  1
  C  C9  1  0.339984  0.142278  0.327568  1
  C  C10  1  0.142278  0.802294  0.672432  1
  C  C11  1  0.142278  0.802294  0.827568  1
  C  C12  1  0.660016  0.857722  0.672432  1
  C  C13  1  0.802294  0.660016  0.327568  1
  C  C14  1  0.802294  0.660016  0.172432  1
  C  C15  1  0.197706  0.339984  0.672432  1
  C  C16  1  0.339984  0.142278  0.172432  1
  C  C17  1  0.197706  0.339984  0.827568  1
  N  N18  1  0.865745  0.672609  0.402088  1
  N  N19  1  0.327391  0.193136  0.402088  1
  N  N20  1  0.712814  0.644015  0.250000  1
  N  N21  1  0.806864  0.134255  0.402088  1
  N  N22  1  0.672609  0.806864  0.597912  1
  N  N23  1  0.672609  0.806864  0.902088  1
  N  N24  1  0.287186  0.355985  0.750000  1
  N  N25  1  0.134255  0.327391  0.902088  1
  N  N26  1  0.193136  0.865745  0.902088  1
  N  N27  1  0.193136  0.865745  0.597912  1
  N  N28  1  0.068799  0.712814  0.750000  1
  N  N29  1  0.134255  0.327391  0.597912  1
  N  N30  1  0.644015  0.931201  0.750000  1
  N  N31  1  0.806864  0.134255  0.097912  1
  N  N32  1  0.355985  0.068799  0.250000  1
  N  N33  1  0.327391  0.193136  0.097912  1
  N  N34  1  0.931201  0.287186  0.250000  1
  N  N35  1  0.865745  0.672609  0.097912  1
