# generated using pymatgen
data_Co7P6(HO6)4
_symmetry_space_group_name_H-M   'P 1'
_cell_length_a   6.53596123
_cell_length_b   7.93098885
_cell_length_c   9.60072705
_cell_angle_alpha   104.47928330
_cell_angle_beta   108.95626121
_cell_angle_gamma   101.37810703
_symmetry_Int_Tables_number   1
_chemical_formula_structural   Co7P6(HO6)4
_chemical_formula_sum   'Co7 P6 H4 O24'
_cell_volume   434.14126702
_cell_formula_units_Z   1
loop_
 _symmetry_equiv_pos_site_id
 _symmetry_equiv_pos_as_xyz
  1  'x, y, z'
loop_
 _atom_site_type_symbol
 _atom_site_label
 _atom_site_symmetry_multiplicity
 _atom_site_fract_x
 _atom_site_fract_y
 _atom_site_fract_z
 _atom_site_occupancy
  Co  Co0  1  0.050921  0.712847  0.513922  1
  Co  Co1  1  0.949079  0.287153  0.486078  1
  Co  Co2  1  0.289281  0.811062  0.286892  1
  Co  Co3  1  0.710719  0.188938  0.713108  1
  Co  Co4  1  0.387941  0.458580  0.108748  1
  Co  Co5  1  0.612059  0.541420  0.891252  1
  Co  Co6  1  0.000000  0.000000  0.000000  1
  P  P7  1  0.223754  0.145493  0.778594  1
  P  P8  1  0.776246  0.854507  0.221406  1
  P  P9  1  0.413996  0.232608  0.372498  1
  P  P10  1  0.586004  0.767392  0.627502  1
  P  P11  1  0.083612  0.580173  0.826183  1
  P  P12  1  0.916388  0.419827  0.173817  1
  H  H13  1  0.825361  0.126980  0.191731  1
  H  H14  1  0.174639  0.873020  0.808269  1
  H  H15  1  0.373832  0.421316  0.563162  1
  H  H16  1  0.626168  0.578684  0.436838  1
  O  O17  1  0.202985  0.933340  0.725061  1
  O  O18  1  0.797015  0.066660  0.274939  1
  O  O19  1  0.222211  0.186970  0.945962  1
  O  O20  1  0.777789  0.813030  0.054038  1
  O  O21  1  0.376263  0.792103  0.509563  1
  O  O22  1  0.623737  0.207897  0.490437  1
  O  O23  1  0.984998  0.827261  0.335797  1
  O  O24  1  0.015002  0.172739  0.664203  1
  O  O25  1  0.127606  0.540994  0.165016  1
  O  O26  1  0.735622  0.949716  0.759612  1
  O  O27  1  0.264378  0.050284  0.240388  1
  O  O28  1  0.699237  0.463212  0.087857  1
  O  O29  1  0.300763  0.536788  0.912143  1
  O  O30  1  0.724129  0.703088  0.523113  1
  O  O31  1  0.275871  0.296912  0.476887  1
  O  O32  1  0.519164  0.613517  0.688658  1
  O  O33  1  0.480836  0.386483  0.311342  1
  O  O34  1  0.552363  0.754452  0.226826  1
  O  O35  1  0.447637  0.245548  0.773174  1
  O  O36  1  0.947635  0.456954  0.347457  1
  O  O37  1  0.052365  0.543046  0.652543  1
  O  O38  1  0.892731  0.214757  0.099249  1
  O  O39  1  0.107269  0.785243  0.900751  1
  O  O40  1  0.872394  0.459006  0.834984  1
