# generated using pymatgen
data_OsO4
_symmetry_space_group_name_H-M   'P 1'
_cell_length_a   5.24507832
_cell_length_b   5.24507832
_cell_length_c   4.92671384
_cell_angle_alpha   64.28770009
_cell_angle_beta   115.71229991
_cell_angle_gamma   125.62914714
_symmetry_Int_Tables_number   1
_chemical_formula_structural   OsO4
_chemical_formula_sum   'Os1 O4'
_cell_volume   96.17422244
_cell_formula_units_Z   1
loop_
 _symmetry_equiv_pos_site_id
 _symmetry_equiv_pos_as_xyz
  1  'x, y, z'
loop_
 _atom_site_type_symbol
 _atom_site_label
 _atom_site_symmetry_multiplicity
 _atom_site_fract_x
 _atom_site_fract_y
 _atom_site_fract_z
 _atom_site_occupancy
  Os  Os0  1  0.000389  0.000389  0.000000  1
  O  O1  1  0.920217  0.662834  0.929615  1
  O  O2  1  0.321744  0.094399  0.319782  1
  O  O3  1  0.662834  0.920217  0.070385  1
  O  O4  1  0.094399  0.321744  0.680218  1
