# generated using pymatgen
data_CsCuO
_symmetry_space_group_name_H-M   'P 1'
_cell_length_a   6.00231534
_cell_length_b   6.00231534
_cell_length_c   5.04687024
_cell_angle_alpha   90.00000000
_cell_angle_beta   90.00000000
_cell_angle_gamma   118.96231370
_symmetry_Int_Tables_number   1
_chemical_formula_structural   CsCuO
_chemical_formula_sum   'Cs2 Cu2 O2'
_cell_volume   159.08793054
_cell_formula_units_Z   2
loop_
 _symmetry_equiv_pos_site_id
 _symmetry_equiv_pos_as_xyz
  1  'x, y, z'
loop_
 _atom_site_type_symbol
 _atom_site_label
 _atom_site_symmetry_multiplicity
 _atom_site_fract_x
 _atom_site_fract_y
 _atom_site_fract_z
 _atom_site_occupancy
  Cs  Cs0  1  0.179460  0.820540  0.250000  1
  Cs  Cs1  1  0.820540  0.179460  0.750000  1
  Cu  Cu2  1  0.500000  0.500000  0.000000  1
  Cu  Cu3  1  0.500000  0.500000  0.500000  1
  O  O4  1  0.629576  0.370424  0.250000  1
  O  O5  1  0.370424  0.629576  0.750000  1
