# generated using pymatgen
data_RbTeF5
_symmetry_space_group_name_H-M   'P 1'
_cell_length_a   6.38456308
_cell_length_b   11.74297257
_cell_length_c   14.29783245
_cell_angle_alpha   90.00000000
_cell_angle_beta   90.00000000
_cell_angle_gamma   90.00000000
_symmetry_Int_Tables_number   1
_chemical_formula_structural   RbTeF5
_chemical_formula_sum   'Rb8 Te8 F40'
_cell_volume   1071.96210306
_cell_formula_units_Z   8
loop_
 _symmetry_equiv_pos_site_id
 _symmetry_equiv_pos_as_xyz
  1  'x, y, z'
loop_
 _atom_site_type_symbol
 _atom_site_label
 _atom_site_symmetry_multiplicity
 _atom_site_fract_x
 _atom_site_fract_y
 _atom_site_fract_z
 _atom_site_occupancy
  Rb  Rb0  1  0.750000  0.506373  0.096867  1
  Rb  Rb1  1  0.250000  0.661804  0.600148  1
  Rb  Rb2  1  0.750000  0.161804  0.899852  1
  Rb  Rb3  1  0.750000  0.993627  0.596867  1
  Rb  Rb4  1  0.250000  0.838196  0.100148  1
  Rb  Rb5  1  0.250000  0.493627  0.903133  1
  Rb  Rb6  1  0.750000  0.338196  0.399852  1
  Rb  Rb7  1  0.250000  0.006373  0.403133  1
  Te  Te8  1  0.750000  0.785551  0.924155  1
  Te  Te9  1  0.750000  0.714449  0.424155  1
  Te  Te10  1  0.250000  0.214449  0.075845  1
  Te  Te11  1  0.250000  0.285551  0.575845  1
  Te  Te12  1  0.750000  0.038110  0.241359  1
  Te  Te13  1  0.250000  0.538110  0.258641  1
  Te  Te14  1  0.250000  0.961890  0.758641  1
  Te  Te15  1  0.750000  0.461890  0.741359  1
  F  F16  1  0.750000  0.016750  0.376009  1
  F  F17  1  0.966906  0.909133  0.921187  1
  F  F18  1  0.750000  0.483250  0.876009  1
  F  F19  1  0.523901  0.581417  0.753954  1
  F  F20  1  0.476099  0.081417  0.746046  1
  F  F21  1  0.025142  0.179810  0.526003  1
  F  F22  1  0.750000  0.672598  0.554005  1
  F  F23  1  0.474858  0.320190  0.026003  1
  F  F24  1  0.250000  0.172598  0.945995  1
  F  F25  1  0.025142  0.320190  0.026003  1
  F  F26  1  0.750000  0.827402  0.054005  1
  F  F27  1  0.023901  0.418583  0.246046  1
  F  F28  1  0.523901  0.918583  0.253954  1
  F  F29  1  0.476099  0.418583  0.246046  1
  F  F30  1  0.966906  0.590867  0.421187  1
  F  F31  1  0.033094  0.409133  0.578813  1
  F  F32  1  0.974858  0.820190  0.473997  1
  F  F33  1  0.023901  0.081417  0.746046  1
  F  F34  1  0.533094  0.590867  0.421187  1
  F  F35  1  0.033644  0.846481  0.720941  1
  F  F36  1  0.250000  0.516750  0.123991  1
  F  F37  1  0.250000  0.983250  0.623991  1
  F  F38  1  0.525142  0.820190  0.473997  1
  F  F39  1  0.533094  0.909133  0.921187  1
  F  F40  1  0.966356  0.153519  0.279059  1
  F  F41  1  0.974858  0.679810  0.973997  1
  F  F42  1  0.525142  0.679810  0.973997  1
  F  F43  1  0.976099  0.581417  0.753954  1
  F  F44  1  0.533644  0.153519  0.279059  1
  F  F45  1  0.976099  0.918583  0.253954  1
  F  F46  1  0.466356  0.846481  0.720941  1
  F  F47  1  0.533644  0.346481  0.779059  1
  F  F48  1  0.033644  0.653519  0.220941  1
  F  F49  1  0.033094  0.090867  0.078813  1
  F  F50  1  0.474858  0.179810  0.526003  1
  F  F51  1  0.250000  0.327402  0.445995  1
  F  F52  1  0.466906  0.409133  0.578813  1
  F  F53  1  0.466906  0.090867  0.078813  1
  F  F54  1  0.966356  0.346481  0.779059  1
  F  F55  1  0.466356  0.653519  0.220941  1
