# generated using pymatgen
data_Pr3CuSnS7
_symmetry_space_group_name_H-M   'P 1'
_cell_length_a   10.22764471
_cell_length_b   10.22764471
_cell_length_c   6.14173146
_cell_angle_alpha   90.00000000
_cell_angle_beta   90.00000000
_cell_angle_gamma   120.00000000
_symmetry_Int_Tables_number   1
_chemical_formula_structural   Pr3CuSnS7
_chemical_formula_sum   'Pr6 Cu2 Sn2 S14'
_cell_volume   556.38155158
_cell_formula_units_Z   2
loop_
 _symmetry_equiv_pos_site_id
 _symmetry_equiv_pos_as_xyz
  1  'x, y, z'
loop_
 _atom_site_type_symbol
 _atom_site_label
 _atom_site_symmetry_multiplicity
 _atom_site_fract_x
 _atom_site_fract_y
 _atom_site_fract_z
 _atom_site_occupancy
  Pr  Pr0  1  0.781924  0.642622  0.264819  1
  Pr  Pr1  1  0.860698  0.218076  0.264819  1
  Pr  Pr2  1  0.139302  0.781924  0.764819  1
  Pr  Pr3  1  0.357378  0.139302  0.264819  1
  Pr  Pr4  1  0.642622  0.860698  0.764819  1
  Pr  Pr5  1  0.218076  0.357378  0.764819  1
  Cu  Cu6  1  0.000000  0.000000  0.710517  1
  Cu  Cu7  1  0.000000  0.000000  0.210517  1
  Sn  Sn8  1  0.666667  0.333333  0.836600  1
  Sn  Sn9  1  0.333333  0.666667  0.336600  1
  S  S10  1  0.101146  0.847527  0.225203  1
  S  S11  1  0.570821  0.088337  0.006695  1
  S  S12  1  0.482485  0.570821  0.506695  1
  S  S13  1  0.666667  0.333333  0.448934  1
  S  S14  1  0.847527  0.746381  0.725203  1
  S  S15  1  0.911663  0.482485  0.006695  1
  S  S16  1  0.253619  0.101146  0.725203  1
  S  S17  1  0.746381  0.898854  0.225203  1
  S  S18  1  0.898854  0.152473  0.725203  1
  S  S19  1  0.333333  0.666667  0.948934  1
  S  S20  1  0.152473  0.253619  0.225203  1
  S  S21  1  0.088337  0.517515  0.506695  1
  S  S22  1  0.429179  0.911663  0.506695  1
  S  S23  1  0.517515  0.429179  0.006695  1
