# generated using pymatgen
data_Na4Zr2Ti(CO4)4
_symmetry_space_group_name_H-M   'P 1'
_cell_length_a   6.15794267
_cell_length_b   6.15794267
_cell_length_c   18.19713104
_cell_angle_alpha   86.59703861
_cell_angle_beta   93.40296139
_cell_angle_gamma   113.74516618
_symmetry_Int_Tables_number   1
_chemical_formula_structural   Na4Zr2Ti(CO4)4
_chemical_formula_sum   'Na8 Zr4 Ti2 C8 O32'
_cell_volume   630.03631021
_cell_formula_units_Z   2
loop_
 _symmetry_equiv_pos_site_id
 _symmetry_equiv_pos_as_xyz
  1  'x, y, z'
loop_
 _atom_site_type_symbol
 _atom_site_label
 _atom_site_symmetry_multiplicity
 _atom_site_fract_x
 _atom_site_fract_y
 _atom_site_fract_z
 _atom_site_occupancy
  Na  Na0  1  0.337576  0.543081  0.918308  1
  Na  Na1  1  0.785226  0.041368  0.933716  1
  Na  Na2  1  0.456919  0.662424  0.418308  1
  Na  Na3  1  0.662424  0.456919  0.081692  1
  Na  Na4  1  0.214774  0.958632  0.066284  1
  Na  Na5  1  0.543081  0.337576  0.581692  1
  Na  Na6  1  0.041368  0.785226  0.566284  1
  Na  Na7  1  0.958632  0.214774  0.433716  1
  Zr  Zr8  1  0.380244  0.995631  0.747770  1
  Zr  Zr9  1  0.995631  0.380244  0.752230  1
  Zr  Zr10  1  0.004369  0.619756  0.247770  1
  Zr  Zr11  1  0.619756  0.004369  0.252230  1
  Ti  Ti12  1  0.307427  0.307427  0.250000  1
  Ti  Ti13  1  0.692573  0.692573  0.750000  1
  C  C14  1  0.929581  0.740333  0.383410  1
  C  C15  1  0.259667  0.070419  0.883410  1
  C  C16  1  0.498152  0.797868  0.600516  1
  C  C17  1  0.740333  0.929581  0.116590  1
  C  C18  1  0.501848  0.202132  0.399484  1
  C  C19  1  0.202132  0.501848  0.100516  1
  C  C20  1  0.797868  0.498152  0.899484  1
  C  C21  1  0.070419  0.259667  0.616590  1
  O  O22  1  0.275850  0.585897  0.037536  1
  O  O23  1  0.612294  0.051647  0.127273  1
  O  O24  1  0.387706  0.948353  0.872727  1
  O  O25  1  0.192585  0.095378  0.945016  1
  O  O26  1  0.830072  0.788217  0.321634  1
  O  O27  1  0.211783  0.169928  0.821634  1
  O  O28  1  0.345710  0.270313  0.364613  1
  O  O29  1  0.632270  0.361203  0.739932  1
  O  O30  1  0.724150  0.414103  0.962464  1
  O  O31  1  0.729687  0.654290  0.864613  1
  O  O32  1  0.574744  0.057236  0.367512  1
  O  O33  1  0.257152  0.984904  0.237120  1
  O  O34  1  0.270313  0.345710  0.135387  1
  O  O35  1  0.095378  0.192585  0.554984  1
  O  O36  1  0.414103  0.724150  0.537536  1
  O  O37  1  0.057236  0.574744  0.132488  1
  O  O38  1  0.654290  0.729687  0.635387  1
  O  O39  1  0.742848  0.015096  0.762880  1
  O  O40  1  0.425256  0.942764  0.632488  1
  O  O41  1  0.807415  0.904622  0.054984  1
  O  O42  1  0.788217  0.830072  0.178366  1
  O  O43  1  0.984904  0.257152  0.262880  1
  O  O44  1  0.942764  0.425256  0.867512  1
  O  O45  1  0.361203  0.632270  0.760068  1
  O  O46  1  0.948353  0.387706  0.627273  1
  O  O47  1  0.638797  0.367730  0.239932  1
  O  O48  1  0.367730  0.638797  0.260068  1
  O  O49  1  0.169928  0.211783  0.678366  1
  O  O50  1  0.585897  0.275850  0.462464  1
  O  O51  1  0.015096  0.742848  0.737120  1
  O  O52  1  0.904622  0.807415  0.445016  1
  O  O53  1  0.051647  0.612294  0.372727  1
