# generated using pymatgen
data_Pr4(GeS4)3
_symmetry_space_group_name_H-M   'P 1'
_cell_length_a   11.61100616
_cell_length_b   11.61100616
_cell_length_c   11.61100616
_cell_angle_alpha   114.79227498
_cell_angle_beta   114.79227498
_cell_angle_gamma   114.79227498
_symmetry_Int_Tables_number   1
_chemical_formula_structural   Pr4(GeS4)3
_chemical_formula_sum   'Pr8 Ge6 S24'
_cell_volume   892.41061101
_cell_formula_units_Z   2
loop_
 _symmetry_equiv_pos_site_id
 _symmetry_equiv_pos_as_xyz
  1  'x, y, z'
loop_
 _atom_site_type_symbol
 _atom_site_label
 _atom_site_symmetry_multiplicity
 _atom_site_fract_x
 _atom_site_fract_y
 _atom_site_fract_z
 _atom_site_occupancy
  Pr  Pr0  1  0.995705  0.995705  0.995705  1
  Pr  Pr1  1  0.495705  0.495705  0.495705  1
  Pr  Pr2  1  0.208069  0.971634  0.431792  1
  Pr  Pr3  1  0.971634  0.431792  0.208069  1
  Pr  Pr4  1  0.431792  0.208069  0.971634  1
  Pr  Pr5  1  0.931792  0.471634  0.708069  1
  Pr  Pr6  1  0.471634  0.708069  0.931792  1
  Pr  Pr7  1  0.708069  0.931792  0.471634  1
  Ge  Ge8  1  0.352536  0.965166  0.140487  1
  Ge  Ge9  1  0.965166  0.140487  0.352536  1
  Ge  Ge10  1  0.140487  0.352536  0.965166  1
  Ge  Ge11  1  0.640487  0.465166  0.852536  1
  Ge  Ge12  1  0.465166  0.852536  0.640487  1
  Ge  Ge13  1  0.852536  0.640487  0.465166  1
  S  S14  1  0.311016  0.779488  0.383849  1
  S  S15  1  0.779488  0.383849  0.311016  1
  S  S16  1  0.383849  0.311016  0.779488  1
  S  S17  1  0.883849  0.279488  0.811016  1
  S  S18  1  0.279488  0.811016  0.883849  1
  S  S19  1  0.811016  0.883849  0.279488  1
  S  S20  1  0.369334  0.183827  0.183705  1
  S  S21  1  0.183827  0.183705  0.369334  1
  S  S22  1  0.183705  0.369334  0.183827  1
  S  S23  1  0.683705  0.683827  0.869334  1
  S  S24  1  0.683827  0.869334  0.683705  1
  S  S25  1  0.869334  0.683705  0.683827  1
  S  S26  1  0.110112  0.793448  0.082734  1
  S  S27  1  0.793448  0.082734  0.110112  1
  S  S28  1  0.082734  0.110112  0.793448  1
  S  S29  1  0.582734  0.293448  0.610112  1
  S  S30  1  0.293448  0.610112  0.582734  1
  S  S31  1  0.610112  0.582734  0.293448  1
  S  S32  1  0.582307  0.126684  0.849605  1
  S  S33  1  0.126684  0.849605  0.582307  1
  S  S34  1  0.849605  0.582307  0.126684  1
  S  S35  1  0.349605  0.626684  0.082307  1
  S  S36  1  0.626684  0.082307  0.349605  1
  S  S37  1  0.082307  0.349605  0.626684  1
