# generated using pymatgen
data_InTeCl
_symmetry_space_group_name_H-M   'P 1'
_cell_length_a   7.34328530
_cell_length_b   14.38464098
_cell_length_c   7.77167200
_cell_angle_alpha   90.00000000
_cell_angle_beta   92.80408455
_cell_angle_gamma   90.00000000
_symmetry_Int_Tables_number   1
_chemical_formula_structural   InTeCl
_chemical_formula_sum   'In8 Te8 Cl8'
_cell_volume   819.94284274
_cell_formula_units_Z   8
loop_
 _symmetry_equiv_pos_site_id
 _symmetry_equiv_pos_as_xyz
  1  'x, y, z'
loop_
 _atom_site_type_symbol
 _atom_site_label
 _atom_site_symmetry_multiplicity
 _atom_site_fract_x
 _atom_site_fract_y
 _atom_site_fract_z
 _atom_site_occupancy
  In  In0  1  0.370146  0.976881  0.202363  1
  In  In1  1  0.129854  0.476881  0.797637  1
  In  In2  1  0.629854  0.023119  0.797637  1
  In  In3  1  0.870146  0.523119  0.202363  1
  In  In4  1  0.375250  0.688798  0.181099  1
  In  In5  1  0.124750  0.188798  0.818901  1
  In  In6  1  0.624750  0.311202  0.818901  1
  In  In7  1  0.875250  0.811202  0.181099  1
  Te  Te8  1  0.245473  0.001602  0.846495  1
  Te  Te9  1  0.254527  0.501602  0.153505  1
  Te  Te10  1  0.754527  0.998398  0.153505  1
  Te  Te11  1  0.745473  0.498398  0.846495  1
  Te  Te12  1  0.221374  0.827706  0.386415  1
  Te  Te13  1  0.278626  0.327706  0.613585  1
  Te  Te14  1  0.778626  0.172294  0.613585  1
  Te  Te15  1  0.721374  0.672294  0.386415  1
  Cl  Cl16  1  0.510802  0.764253  0.938039  1
  Cl  Cl17  1  0.989198  0.264253  0.061961  1
  Cl  Cl18  1  0.489198  0.235747  0.061961  1
  Cl  Cl19  1  0.010802  0.735747  0.938039  1
  Cl  Cl20  1  0.224707  0.600664  0.609591  1
  Cl  Cl21  1  0.275293  0.100664  0.390409  1
  Cl  Cl22  1  0.775293  0.399336  0.390409  1
  Cl  Cl23  1  0.724707  0.899336  0.609591  1
