# generated using pymatgen
data_Na2Er2B2O7
_symmetry_space_group_name_H-M   'P 1'
_cell_length_a   10.26998332
_cell_length_b   6.22533788
_cell_length_c   10.62234178
_cell_angle_alpha   90.00000000
_cell_angle_beta   117.73331453
_cell_angle_gamma   90.00000000
_symmetry_Int_Tables_number   1
_chemical_formula_structural   Na2Er2B2O7
_chemical_formula_sum   'Na8 Er8 B8 O28'
_cell_volume   601.11374442
_cell_formula_units_Z   4
loop_
 _symmetry_equiv_pos_site_id
 _symmetry_equiv_pos_as_xyz
  1  'x, y, z'
loop_
 _atom_site_type_symbol
 _atom_site_label
 _atom_site_symmetry_multiplicity
 _atom_site_fract_x
 _atom_site_fract_y
 _atom_site_fract_z
 _atom_site_occupancy
  Na  Na0  1  0.763639  0.556774  0.524128  1
  Na  Na1  1  0.263639  0.943226  0.524128  1
  Na  Na2  1  0.547954  0.240843  0.611585  1
  Na  Na3  1  0.452046  0.759157  0.388415  1
  Na  Na4  1  0.236361  0.443226  0.475872  1
  Na  Na5  1  0.952046  0.740843  0.388415  1
  Na  Na6  1  0.736361  0.056774  0.475872  1
  Na  Na7  1  0.047954  0.259157  0.611585  1
  Er  Er8  1  0.183803  0.459371  0.985313  1
  Er  Er9  1  0.316197  0.959371  0.014687  1
  Er  Er10  1  0.584841  0.417938  0.180845  1
  Er  Er11  1  0.915159  0.917938  0.819155  1
  Er  Er12  1  0.816197  0.540629  0.014687  1
  Er  Er13  1  0.683803  0.040629  0.985313  1
  Er  Er14  1  0.415159  0.582062  0.819155  1
  Er  Er15  1  0.084841  0.082062  0.180845  1
  B  B16  1  0.352311  0.153268  0.794314  1
  B  B17  1  0.917415  0.251566  0.313086  1
  B  B18  1  0.417415  0.248434  0.313086  1
  B  B19  1  0.582585  0.751566  0.686914  1
  B  B20  1  0.147689  0.653268  0.205686  1
  B  B21  1  0.647689  0.846732  0.205686  1
  B  B22  1  0.852311  0.346732  0.794314  1
  B  B23  1  0.082585  0.748434  0.686914  1
  O  O24  1  0.271342  0.257204  0.852567  1
  O  O25  1  0.446052  0.663003  0.604042  1
  O  O26  1  0.866135  0.251626  0.685657  1
  O  O27  1  0.228658  0.757204  0.147433  1
  O  O28  1  0.633865  0.751626  0.314343  1
  O  O29  1  0.946052  0.836997  0.604042  1
  O  O30  1  0.132964  0.763457  0.835771  1
  O  O31  1  0.133865  0.748374  0.314343  1
  O  O32  1  0.832816  0.351705  0.364650  1
  O  O33  1  0.632964  0.736543  0.835771  1
  O  O34  1  0.914174  0.543965  0.852861  1
  O  O35  1  0.414174  0.956035  0.852861  1
  O  O36  1  0.667184  0.851705  0.635350  1
  O  O37  1  0.332816  0.148295  0.364650  1
  O  O38  1  0.597084  0.375345  0.974441  1
  O  O39  1  0.366135  0.248374  0.685657  1
  O  O40  1  0.053948  0.163003  0.395958  1
  O  O41  1  0.367036  0.263457  0.164229  1
  O  O42  1  0.097084  0.124655  0.974441  1
  O  O43  1  0.085826  0.456035  0.147139  1
  O  O44  1  0.728658  0.742796  0.147433  1
  O  O45  1  0.867036  0.236543  0.164229  1
  O  O46  1  0.585826  0.043965  0.147139  1
  O  O47  1  0.167184  0.648295  0.635350  1
  O  O48  1  0.553948  0.336997  0.395958  1
  O  O49  1  0.902916  0.875345  0.025559  1
  O  O50  1  0.402916  0.624655  0.025559  1
  O  O51  1  0.771342  0.242796  0.852567  1
