# generated using pymatgen
data_CaS2(ClO3)2
_symmetry_space_group_name_H-M   'P 1'
_cell_length_a   9.38964682
_cell_length_b   10.44626428
_cell_length_c   17.63812564
_cell_angle_alpha   90.00000000
_cell_angle_beta   90.00000000
_cell_angle_gamma   90.00000000
_symmetry_Int_Tables_number   1
_chemical_formula_structural   CaS2(ClO3)2
_chemical_formula_sum   'Ca8 S16 Cl16 O48'
_cell_volume   1730.06610577
_cell_formula_units_Z   8
loop_
 _symmetry_equiv_pos_site_id
 _symmetry_equiv_pos_as_xyz
  1  'x, y, z'
loop_
 _atom_site_type_symbol
 _atom_site_label
 _atom_site_symmetry_multiplicity
 _atom_site_fract_x
 _atom_site_fract_y
 _atom_site_fract_z
 _atom_site_occupancy
  Ca  Ca0  1  0.639019  0.401947  0.371618  1
  Ca  Ca1  1  0.860981  0.901947  0.628382  1
  Ca  Ca2  1  0.639019  0.901947  0.128382  1
  Ca  Ca3  1  0.139019  0.098053  0.371618  1
  Ca  Ca4  1  0.360981  0.598053  0.628382  1
  Ca  Ca5  1  0.139019  0.598053  0.128382  1
  Ca  Ca6  1  0.860981  0.401947  0.871618  1
  Ca  Ca7  1  0.360981  0.098053  0.871618  1
  S  S8  1  0.031918  0.649603  0.746419  1
  S  S9  1  0.221519  0.387210  0.969076  1
  S  S10  1  0.968082  0.350397  0.253581  1
  S  S11  1  0.468082  0.149603  0.253581  1
  S  S12  1  0.278481  0.387210  0.469076  1
  S  S13  1  0.221519  0.887210  0.530924  1
  S  S14  1  0.968082  0.850397  0.246419  1
  S  S15  1  0.468082  0.649603  0.246419  1
  S  S16  1  0.031918  0.149603  0.753581  1
  S  S17  1  0.778481  0.112790  0.469076  1
  S  S18  1  0.721519  0.612790  0.530924  1
  S  S19  1  0.278481  0.887210  0.030924  1
  S  S20  1  0.531918  0.350397  0.753581  1
  S  S21  1  0.531918  0.850397  0.746419  1
  S  S22  1  0.721519  0.112790  0.969076  1
  S  S23  1  0.778481  0.612790  0.030924  1
  Cl  Cl24  1  0.858262  0.487766  0.583625  1
  Cl  Cl25  1  0.380853  0.256979  0.167926  1
  Cl  Cl26  1  0.358262  0.012234  0.583625  1
  Cl  Cl27  1  0.619147  0.243021  0.667926  1
  Cl  Cl28  1  0.880853  0.743021  0.332074  1
  Cl  Cl29  1  0.619147  0.743021  0.832074  1
  Cl  Cl30  1  0.119147  0.256979  0.667926  1
  Cl  Cl31  1  0.119147  0.756979  0.832074  1
  Cl  Cl32  1  0.880853  0.243021  0.167926  1
  Cl  Cl33  1  0.141738  0.012234  0.083625  1
  Cl  Cl34  1  0.641738  0.987766  0.416375  1
  Cl  Cl35  1  0.858262  0.987766  0.916375  1
  Cl  Cl36  1  0.141738  0.512234  0.416375  1
  Cl  Cl37  1  0.358262  0.512234  0.916375  1
  Cl  Cl38  1  0.641738  0.487766  0.083625  1
  Cl  Cl39  1  0.380853  0.756979  0.332074  1
  O  O40  1  0.785331  0.238867  0.958674  1
  O  O41  1  0.562256  0.237446  0.293392  1
  O  O42  1  0.956760  0.546734  0.784941  1
  O  O43  1  0.280013  0.429843  0.548005  1
  O  O44  1  0.085621  0.903761  0.569514  1
  O  O45  1  0.719987  0.570157  0.451995  1
  O  O46  1  0.543240  0.046734  0.215059  1
  O  O47  1  0.914379  0.596239  0.069514  1
  O  O48  1  0.085621  0.403761  0.930486  1
  O  O49  1  0.847824  0.394221  0.298920  1
  O  O50  1  0.285331  0.761133  0.541326  1
  O  O51  1  0.543240  0.546734  0.284941  1
  O  O52  1  0.780013  0.570157  0.951995  1
  O  O53  1  0.414379  0.403761  0.430486  1
  O  O54  1  0.956760  0.046734  0.715059  1
  O  O55  1  0.562256  0.737446  0.206608  1
  O  O56  1  0.585621  0.096239  0.930486  1
  O  O57  1  0.152176  0.605779  0.701080  1
  O  O58  1  0.043240  0.453266  0.215059  1
  O  O59  1  0.714669  0.738867  0.041326  1
  O  O60  1  0.152176  0.105779  0.798920  1
  O  O61  1  0.285331  0.261133  0.958674  1
  O  O62  1  0.347824  0.605779  0.201080  1
  O  O63  1  0.785331  0.738867  0.541326  1
  O  O64  1  0.914379  0.096239  0.430486  1
  O  O65  1  0.437744  0.762554  0.706608  1
  O  O66  1  0.062256  0.262554  0.293392  1
  O  O67  1  0.414379  0.903761  0.069514  1
  O  O68  1  0.219987  0.929843  0.451995  1
  O  O69  1  0.437744  0.262554  0.793392  1
  O  O70  1  0.219987  0.429843  0.048005  1
  O  O71  1  0.585621  0.596239  0.569514  1
  O  O72  1  0.714669  0.238867  0.458674  1
  O  O73  1  0.280013  0.929843  0.951995  1
  O  O74  1  0.456760  0.953266  0.784941  1
  O  O75  1  0.214669  0.261133  0.458674  1
  O  O76  1  0.652176  0.394221  0.798920  1
  O  O77  1  0.062256  0.762554  0.206608  1
  O  O78  1  0.043240  0.953266  0.284941  1
  O  O79  1  0.719987  0.070157  0.048005  1
  O  O80  1  0.214669  0.761133  0.041326  1
  O  O81  1  0.652176  0.894221  0.701080  1
  O  O82  1  0.937744  0.237446  0.793392  1
  O  O83  1  0.937744  0.737446  0.706608  1
  O  O84  1  0.847824  0.894221  0.201080  1
  O  O85  1  0.456760  0.453266  0.715059  1
  O  O86  1  0.780013  0.070157  0.548005  1
  O  O87  1  0.347824  0.105779  0.298920  1
