# generated using pymatgen
data_K3Sm(BO3)2
_symmetry_space_group_name_H-M   'P 1'
_cell_length_a   7.19956745
_cell_length_b   9.08999309
_cell_length_c   11.28572953
_cell_angle_alpha   90.00000000
_cell_angle_beta   90.00000000
_cell_angle_gamma   90.00000000
_symmetry_Int_Tables_number   1
_chemical_formula_structural   K3Sm(BO3)2
_chemical_formula_sum   'K12 Sm4 B8 O24'
_cell_volume   738.58349070
_cell_formula_units_Z   4
loop_
 _symmetry_equiv_pos_site_id
 _symmetry_equiv_pos_as_xyz
  1  'x, y, z'
loop_
 _atom_site_type_symbol
 _atom_site_label
 _atom_site_symmetry_multiplicity
 _atom_site_fract_x
 _atom_site_fract_y
 _atom_site_fract_z
 _atom_site_occupancy
  K  K0  1  0.503583  0.300927  0.402998  1
  K  K1  1  0.250000  0.060875  0.630390  1
  K  K2  1  0.250000  0.560875  0.869610  1
  K  K3  1  0.750000  0.439125  0.130390  1
  K  K4  1  0.003583  0.699073  0.597002  1
  K  K5  1  0.496417  0.699073  0.597002  1
  K  K6  1  0.996417  0.800927  0.097002  1
  K  K7  1  0.750000  0.939125  0.369610  1
  K  K8  1  0.503583  0.800927  0.097002  1
  K  K9  1  0.996417  0.300927  0.402998  1
  K  K10  1  0.003583  0.199073  0.902998  1
  K  K11  1  0.496417  0.199073  0.902998  1
  Sm  Sm12  1  0.250000  0.126176  0.168861  1
  Sm  Sm13  1  0.750000  0.373824  0.668861  1
  Sm  Sm14  1  0.750000  0.873824  0.831139  1
  Sm  Sm15  1  0.250000  0.626176  0.331139  1
  B  B16  1  0.250000  0.937468  0.373473  1
  B  B17  1  0.750000  0.588745  0.383967  1
  B  B18  1  0.250000  0.437468  0.126527  1
  B  B19  1  0.250000  0.411255  0.616033  1
  B  B20  1  0.250000  0.911255  0.883967  1
  B  B21  1  0.750000  0.088745  0.116033  1
  B  B22  1  0.750000  0.562532  0.873473  1
  B  B23  1  0.750000  0.062532  0.626527  1
  O  O24  1  0.750000  0.660882  0.966401  1
  O  O25  1  0.581415  0.627858  0.330841  1
  O  O26  1  0.250000  0.588514  0.115927  1
  O  O27  1  0.750000  0.160882  0.533599  1
  O  O28  1  0.418585  0.372142  0.669159  1
  O  O29  1  0.750000  0.008444  0.010143  1
  O  O30  1  0.250000  0.491556  0.510143  1
  O  O31  1  0.750000  0.508444  0.489857  1
  O  O32  1  0.081415  0.872142  0.830841  1
  O  O33  1  0.250000  0.339118  0.033599  1
  O  O34  1  0.250000  0.991556  0.989857  1
  O  O35  1  0.750000  0.411486  0.884073  1
  O  O36  1  0.418585  0.872142  0.830841  1
  O  O37  1  0.250000  0.088514  0.384073  1
  O  O38  1  0.250000  0.878369  0.257602  1
  O  O39  1  0.250000  0.378369  0.242398  1
  O  O40  1  0.750000  0.911486  0.615927  1
  O  O41  1  0.918585  0.627858  0.330841  1
  O  O42  1  0.250000  0.839118  0.466401  1
  O  O43  1  0.750000  0.621631  0.757602  1
  O  O44  1  0.918585  0.127858  0.169159  1
  O  O45  1  0.081415  0.372142  0.669159  1
  O  O46  1  0.581415  0.127858  0.169159  1
  O  O47  1  0.750000  0.121631  0.742398  1
