# generated using pymatgen
data_LiScGeO4
_symmetry_space_group_name_H-M   'P 1'
_cell_length_a   5.02410602
_cell_length_b   6.05707843
_cell_length_c   10.77110809
_cell_angle_alpha   90.00000000
_cell_angle_beta   90.00000000
_cell_angle_gamma   90.00000000
_symmetry_Int_Tables_number   1
_chemical_formula_structural   LiScGeO4
_chemical_formula_sum   'Li4 Sc4 Ge4 O16'
_cell_volume   327.77994401
_cell_formula_units_Z   4
loop_
 _symmetry_equiv_pos_site_id
 _symmetry_equiv_pos_as_xyz
  1  'x, y, z'
loop_
 _atom_site_type_symbol
 _atom_site_label
 _atom_site_symmetry_multiplicity
 _atom_site_fract_x
 _atom_site_fract_y
 _atom_site_fract_z
 _atom_site_occupancy
  Li  Li0  1  0.000000  0.000000  0.000000  1
  Li  Li1  1  0.500000  0.000000  0.500000  1
  Li  Li2  1  0.000000  0.500000  0.000000  1
  Li  Li3  1  0.500000  0.500000  0.500000  1
  Sc  Sc4  1  0.996241  0.750000  0.271845  1
  Sc  Sc5  1  0.496241  0.250000  0.228155  1
  Sc  Sc6  1  0.003759  0.250000  0.728155  1
  Sc  Sc7  1  0.503759  0.750000  0.771845  1
  Ge  Ge8  1  0.550307  0.750000  0.090068  1
  Ge  Ge9  1  0.050307  0.250000  0.409932  1
  Ge  Ge10  1  0.449693  0.250000  0.909932  1
  Ge  Ge11  1  0.949693  0.750000  0.590068  1
  O  O12  1  0.203629  0.750000  0.097150  1
  O  O13  1  0.703629  0.250000  0.402850  1
  O  O14  1  0.796371  0.250000  0.902850  1
  O  O15  1  0.296371  0.750000  0.597150  1
  O  O16  1  0.800474  0.750000  0.441879  1
  O  O17  1  0.300474  0.250000  0.058121  1
  O  O18  1  0.199526  0.250000  0.558121  1
  O  O19  1  0.699526  0.750000  0.941879  1
  O  O20  1  0.714938  0.970234  0.173121  1
  O  O21  1  0.214938  0.029766  0.326879  1
  O  O22  1  0.285062  0.470234  0.826879  1
  O  O23  1  0.785062  0.529766  0.673121  1
  O  O24  1  0.285062  0.029766  0.826879  1
  O  O25  1  0.785062  0.970234  0.673121  1
  O  O26  1  0.714938  0.529766  0.173121  1
  O  O27  1  0.214938  0.470234  0.326879  1
