# generated using pymatgen
data_Y4Al2O9
_symmetry_space_group_name_H-M   'P 1'
_cell_length_a   7.43685916
_cell_length_b   10.56075760
_cell_length_c   11.26096086
_cell_angle_alpha   90.00000000
_cell_angle_beta   108.47961786
_cell_angle_gamma   90.00000000
_symmetry_Int_Tables_number   1
_chemical_formula_structural   Y4Al2O9
_chemical_formula_sum   'Y16 Al8 O36'
_cell_volume   838.81913060
_cell_formula_units_Z   4
loop_
 _symmetry_equiv_pos_site_id
 _symmetry_equiv_pos_as_xyz
  1  'x, y, z'
loop_
 _atom_site_type_symbol
 _atom_site_label
 _atom_site_symmetry_multiplicity
 _atom_site_fract_x
 _atom_site_fract_y
 _atom_site_fract_z
 _atom_site_occupancy
  Y  Y0  1  0.161382  0.621985  0.083028  1
  Y  Y1  1  0.838618  0.121985  0.416972  1
  Y  Y2  1  0.838618  0.378015  0.916972  1
  Y  Y3  1  0.161382  0.878015  0.583028  1
  Y  Y4  1  0.660174  0.627038  0.061488  1
  Y  Y5  1  0.339826  0.127038  0.438512  1
  Y  Y6  1  0.339826  0.372962  0.938512  1
  Y  Y7  1  0.660174  0.872962  0.561488  1
  Y  Y8  1  0.977269  0.596072  0.694439  1
  Y  Y9  1  0.022731  0.096072  0.805561  1
  Y  Y10  1  0.022731  0.403928  0.305561  1
  Y  Y11  1  0.977269  0.903928  0.194439  1
  Y  Y12  1  0.476737  0.609702  0.714674  1
  Y  Y13  1  0.523263  0.109702  0.785326  1
  Y  Y14  1  0.523263  0.390298  0.285326  1
  Y  Y15  1  0.476737  0.890298  0.214674  1
  Al  Al16  1  0.346094  0.676677  0.385897  1
  Al  Al17  1  0.653906  0.176677  0.114103  1
  Al  Al18  1  0.653906  0.323323  0.614103  1
  Al  Al19  1  0.346094  0.823323  0.885897  1
  Al  Al20  1  0.782484  0.678941  0.372011  1
  Al  Al21  1  0.217516  0.178941  0.127989  1
  Al  Al22  1  0.217516  0.321059  0.627989  1
  Al  Al23  1  0.782484  0.821059  0.872011  1
  O  O24  1  0.435459  0.508089  0.107859  1
  O  O25  1  0.564541  0.008089  0.392141  1
  O  O26  1  0.564541  0.491911  0.892141  1
  O  O27  1  0.435459  0.991911  0.607859  1
  O  O28  1  0.922614  0.494276  0.106755  1
  O  O29  1  0.077386  0.994276  0.393245  1
  O  O30  1  0.077386  0.505724  0.893245  1
  O  O31  1  0.922614  0.005724  0.606755  1
  O  O32  1  0.304907  0.516961  0.340464  1
  O  O33  1  0.695093  0.016961  0.159536  1
  O  O34  1  0.695093  0.483039  0.659536  1
  O  O35  1  0.304907  0.983039  0.840464  1
  O  O36  1  0.362443  0.729986  0.537458  1
  O  O37  1  0.637557  0.229986  0.962542  1
  O  O38  1  0.787936  0.516223  0.346108  1
  O  O39  1  0.637557  0.270014  0.462542  1
  O  O40  1  0.566426  0.739495  0.383557  1
  O  O41  1  0.433574  0.239495  0.116443  1
  O  O42  1  0.433574  0.260505  0.616443  1
  O  O43  1  0.566426  0.760505  0.883557  1
  O  O44  1  0.926343  0.733379  0.518749  1
  O  O45  1  0.073657  0.233379  0.981251  1
  O  O46  1  0.073657  0.266621  0.481251  1
  O  O47  1  0.926343  0.766621  0.018749  1
  O  O48  1  0.209874  0.761738  0.252561  1
  O  O49  1  0.790126  0.261738  0.247439  1
  O  O50  1  0.790126  0.238262  0.747439  1
  O  O51  1  0.209874  0.738262  0.752561  1
  O  O52  1  0.769408  0.760304  0.231322  1
  O  O53  1  0.230592  0.260304  0.268678  1
  O  O54  1  0.230592  0.239696  0.768678  1
  O  O55  1  0.769408  0.739696  0.731322  1
  O  O56  1  0.787936  0.983777  0.846108  1
  O  O57  1  0.212064  0.483777  0.653892  1
  O  O58  1  0.212064  0.016223  0.153892  1
  O  O59  1  0.362443  0.770014  0.037458  1
