# generated using pymatgen
data_TlRe3(S2Cl)2
_symmetry_space_group_name_H-M   'P 1'
_cell_length_a   6.43635735
_cell_length_b   9.19845163
_cell_length_c   17.18914179
_cell_angle_alpha   95.95395476
_cell_angle_beta   92.65757363
_cell_angle_gamma   96.05123041
_symmetry_Int_Tables_number   1
_chemical_formula_structural   TlRe3(S2Cl)2
_chemical_formula_sum   'Tl4 Re12 S16 Cl8'
_cell_volume   1004.85463731
_cell_formula_units_Z   4
loop_
 _symmetry_equiv_pos_site_id
 _symmetry_equiv_pos_as_xyz
  1  'x, y, z'
loop_
 _atom_site_type_symbol
 _atom_site_label
 _atom_site_symmetry_multiplicity
 _atom_site_fract_x
 _atom_site_fract_y
 _atom_site_fract_z
 _atom_site_occupancy
  Tl  Tl0  1  0.534134  0.491009  0.844419  1
  Tl  Tl1  1  0.041355  0.988422  0.332099  1
  Tl  Tl2  1  0.958645  0.011578  0.667901  1
  Tl  Tl3  1  0.465866  0.508991  0.155581  1
  Re  Re4  1  0.224868  0.474994  0.461571  1
  Re  Re5  1  0.422630  0.409550  0.588050  1
  Re  Re6  1  0.723763  0.927010  0.004128  1
  Re  Re7  1  0.070542  0.897742  0.083819  1
  Re  Re8  1  0.929458  0.102258  0.916181  1
  Re  Re9  1  0.540350  0.316410  0.449353  1
  Re  Re10  1  0.775132  0.525006  0.538429  1
  Re  Re11  1  0.276237  0.072990  0.995872  1
  Re  Re12  1  0.459650  0.683590  0.550647  1
  Re  Re13  1  0.040659  0.839375  0.928798  1
  Re  Re14  1  0.959341  0.160625  0.071202  1
  Re  Re15  1  0.577370  0.590450  0.411950  1
  S  S16  1  0.229021  0.015112  0.855092  1
  S  S17  1  0.156009  0.309150  0.983954  1
  S  S18  1  0.770979  0.984888  0.144908  1
  S  S19  1  0.646990  0.186916  0.991297  1
  S  S20  1  0.353010  0.813084  0.008703  1
  S  S21  1  0.142607  0.565911  0.598140  1
  S  S22  1  0.283626  0.122304  0.137008  1
  S  S23  1  0.279593  0.725130  0.429755  1
  S  S24  1  0.857393  0.434089  0.401860  1
  S  S25  1  0.716374  0.877696  0.862992  1
  S  S26  1  0.648301  0.609214  0.663022  1
  S  S27  1  0.351699  0.390786  0.336978  1
  S  S28  1  0.843991  0.690850  0.016046  1
  S  S29  1  0.210765  0.227109  0.497945  1
  S  S30  1  0.720407  0.274870  0.570245  1
  S  S31  1  0.789235  0.772891  0.502055  1
  Cl  Cl32  1  0.834082  0.233455  0.807112  1
  Cl  Cl33  1  0.582427  0.078670  0.381944  1
  Cl  Cl34  1  0.088014  0.632079  0.835630  1
  Cl  Cl35  1  0.417573  0.921330  0.618056  1
  Cl  Cl36  1  0.680558  0.707769  0.297226  1
  Cl  Cl37  1  0.911986  0.367921  0.164370  1
  Cl  Cl38  1  0.319442  0.292231  0.702774  1
  Cl  Cl39  1  0.165918  0.766545  0.192888  1
