# generated using pymatgen
data_BTe3(OF5)3
_symmetry_space_group_name_H-M   'P 1'
_cell_length_a   9.39613353
_cell_length_b   9.39613353
_cell_length_c   9.45257355
_cell_angle_alpha   90.00000000
_cell_angle_beta   90.00000000
_cell_angle_gamma   120.00000000
_symmetry_Int_Tables_number   1
_chemical_formula_structural   BTe3(OF5)3
_chemical_formula_sum   'B2 Te6 O6 F30'
_cell_volume   722.73495038
_cell_formula_units_Z   2
loop_
 _symmetry_equiv_pos_site_id
 _symmetry_equiv_pos_as_xyz
  1  'x, y, z'
loop_
 _atom_site_type_symbol
 _atom_site_label
 _atom_site_symmetry_multiplicity
 _atom_site_fract_x
 _atom_site_fract_y
 _atom_site_fract_z
 _atom_site_occupancy
  B  B0  1  0.666667  0.333333  0.750000  1
  B  B1  1  0.333333  0.666667  0.250000  1
  Te  Te2  1  0.643209  0.998390  0.250000  1
  Te  Te3  1  0.644819  0.643209  0.750000  1
  Te  Te4  1  0.998390  0.355181  0.750000  1
  Te  Te5  1  0.355181  0.356791  0.250000  1
  Te  Te6  1  0.356791  0.001610  0.750000  1
  Te  Te7  1  0.001610  0.644819  0.250000  1
  O  O8  1  0.586943  0.163809  0.750000  1
  O  O9  1  0.413057  0.836191  0.250000  1
  O  O10  1  0.163809  0.576866  0.250000  1
  O  O11  1  0.836191  0.423134  0.750000  1
  O  O12  1  0.423134  0.586943  0.250000  1
  O  O13  1  0.576866  0.413057  0.750000  1
  F  F14  1  0.198642  0.309288  0.108266  1
  F  F15  1  0.889354  0.198642  0.608266  1
  F  F16  1  0.115302  0.513525  0.888091  1
  F  F17  1  0.601777  0.115302  0.111909  1
  F  F18  1  0.398223  0.884698  0.888091  1
  F  F19  1  0.690712  0.889354  0.108266  1
  F  F20  1  0.115302  0.513525  0.611909  1
  F  F21  1  0.837600  0.701619  0.250000  1
  F  F22  1  0.601777  0.115302  0.388091  1
  F  F23  1  0.486475  0.601777  0.611909  1
  F  F24  1  0.135980  0.837600  0.750000  1
  F  F25  1  0.298381  0.135980  0.250000  1
  F  F26  1  0.513525  0.398223  0.388091  1
  F  F27  1  0.701619  0.864020  0.750000  1
  F  F28  1  0.309288  0.110646  0.608266  1
  F  F29  1  0.801358  0.690712  0.608266  1
  F  F30  1  0.801358  0.690712  0.891734  1
  F  F31  1  0.309288  0.110646  0.891734  1
  F  F32  1  0.198642  0.309288  0.391734  1
  F  F33  1  0.110646  0.801358  0.108266  1
  F  F34  1  0.110646  0.801358  0.391734  1
  F  F35  1  0.864020  0.162400  0.250000  1
  F  F36  1  0.486475  0.601777  0.888091  1
  F  F37  1  0.398223  0.884698  0.611909  1
  F  F38  1  0.162400  0.298381  0.750000  1
  F  F39  1  0.690712  0.889354  0.391734  1
  F  F40  1  0.884698  0.486475  0.111909  1
  F  F41  1  0.884698  0.486475  0.388091  1
  F  F42  1  0.513525  0.398223  0.111909  1
  F  F43  1  0.889354  0.198642  0.891734  1
