# generated using pymatgen
data_Ba2Zr6BCl17
_symmetry_space_group_name_H-M   'P 1'
_cell_length_a   9.73951750
_cell_length_b   9.73951750
_cell_length_c   9.73951750
_cell_angle_alpha   105.29661112
_cell_angle_beta   105.29661112
_cell_angle_gamma   118.18811881
_symmetry_Int_Tables_number   1
_chemical_formula_structural   Ba2Zr6BCl17
_chemical_formula_sum   'Ba2 Zr6 B1 Cl17'
_cell_volume   698.68152986
_cell_formula_units_Z   1
loop_
 _symmetry_equiv_pos_site_id
 _symmetry_equiv_pos_as_xyz
  1  'x, y, z'
loop_
 _atom_site_type_symbol
 _atom_site_label
 _atom_site_symmetry_multiplicity
 _atom_site_fract_x
 _atom_site_fract_y
 _atom_site_fract_z
 _atom_site_occupancy
  Ba  Ba0  1  0.250000  0.750000  0.500000  1
  Ba  Ba1  1  0.750000  0.250000  0.500000  1
  Zr  Zr2  1  0.766594  0.766594  0.000000  1
  Zr  Zr3  1  0.233406  0.233406  0.000000  1
  Zr  Zr4  1  0.067296  0.183565  0.250862  1
  Zr  Zr5  1  0.183565  0.932704  0.116269  1
  Zr  Zr6  1  0.932704  0.816435  0.749138  1
  Zr  Zr7  1  0.816435  0.067296  0.883731  1
  B  B8  1  0.000000  0.000000  0.000000  1
  Cl  Cl9  1  0.721834  0.871225  0.593059  1
  Cl  Cl10  1  0.871225  0.278166  0.149391  1
  Cl  Cl11  1  0.595060  0.130681  0.725741  1
  Cl  Cl12  1  0.179287  0.049447  0.719868  1
  Cl  Cl13  1  0.404940  0.869319  0.274259  1
  Cl  Cl14  1  0.820713  0.950553  0.280132  1
  Cl  Cl15  1  0.049447  0.329578  0.870160  1
  Cl  Cl16  1  0.130681  0.404940  0.535621  1
  Cl  Cl17  1  0.869319  0.595060  0.464379  1
  Cl  Cl18  1  0.278166  0.128775  0.406941  1
  Cl  Cl19  1  0.540581  0.820713  0.870160  1
  Cl  Cl20  1  0.329578  0.459419  0.280132  1
  Cl  Cl21  1  0.128775  0.721834  0.850609  1
  Cl  Cl22  1  0.500000  0.500000  0.000000  1
  Cl  Cl23  1  0.950553  0.670422  0.129840  1
  Cl  Cl24  1  0.670422  0.540581  0.719868  1
  Cl  Cl25  1  0.459419  0.179287  0.129840  1
