# generated using pymatgen
data_NaP2H5O8
_symmetry_space_group_name_H-M   'P 1'
_cell_length_a   8.68703371
_cell_length_b   7.82523017
_cell_length_c   10.50566577
_cell_angle_alpha   90.00000000
_cell_angle_beta   90.19877575
_cell_angle_gamma   90.00000000
_symmetry_Int_Tables_number   1
_chemical_formula_structural   NaP2H5O8
_chemical_formula_sum   'Na4 P8 H20 O32'
_cell_volume   714.15025190
_cell_formula_units_Z   4
loop_
 _symmetry_equiv_pos_site_id
 _symmetry_equiv_pos_as_xyz
  1  'x, y, z'
loop_
 _atom_site_type_symbol
 _atom_site_label
 _atom_site_symmetry_multiplicity
 _atom_site_fract_x
 _atom_site_fract_y
 _atom_site_fract_z
 _atom_site_occupancy
  Na  Na0  1  0.221076  0.587842  0.337755  1
  Na  Na1  1  0.778924  0.087842  0.162245  1
  Na  Na2  1  0.778924  0.412158  0.662245  1
  Na  Na3  1  0.221076  0.912158  0.837755  1
  P  P4  1  0.414157  0.012856  0.307603  1
  P  P5  1  0.585843  0.512856  0.192397  1
  P  P6  1  0.585843  0.987144  0.692397  1
  P  P7  1  0.414157  0.487144  0.807603  1
  P  P8  1  0.039127  0.740130  0.071237  1
  P  P9  1  0.960873  0.240130  0.428763  1
  P  P10  1  0.960873  0.259870  0.928763  1
  P  P11  1  0.039127  0.759870  0.571237  1
  H  H12  1  0.440135  0.847346  0.478926  1
  H  H13  1  0.559865  0.347346  0.021074  1
  H  H14  1  0.559865  0.152654  0.521074  1
  H  H15  1  0.440135  0.652654  0.978926  1
  H  H16  1  0.522719  0.836771  0.165206  1
  H  H17  1  0.477281  0.336771  0.334794  1
  H  H18  1  0.477281  0.163229  0.834794  1
  H  H19  1  0.522719  0.663229  0.665206  1
  H  H20  1  0.191280  0.963572  0.143184  1
  H  H21  1  0.808720  0.463572  0.356816  1
  H  H22  1  0.808720  0.036428  0.856816  1
  H  H23  1  0.191280  0.536428  0.643184  1
  H  H24  1  0.832069  0.706816  0.189572  1
  H  H25  1  0.167931  0.206816  0.310428  1
  H  H26  1  0.167931  0.293184  0.810428  1
  H  H27  1  0.832069  0.793184  0.689572  1
  H  H28  1  0.959530  0.596395  0.900157  1
  H  H29  1  0.040470  0.096395  0.599843  1
  H  H30  1  0.040470  0.403605  0.099843  1
  H  H31  1  0.959530  0.903605  0.400157  1
  O  O32  1  0.485297  0.156925  0.385977  1
  O  O33  1  0.514703  0.656925  0.114023  1
  O  O34  1  0.514703  0.843075  0.614023  1
  O  O35  1  0.485297  0.343075  0.885977  1
  O  O36  1  0.260183  0.062060  0.245992  1
  O  O37  1  0.739817  0.562060  0.254008  1
  O  O38  1  0.739817  0.937940  0.754008  1
  O  O39  1  0.260183  0.437940  0.745992  1
  O  O40  1  0.386124  0.847656  0.391920  1
  O  O41  1  0.613876  0.347656  0.108080  1
  O  O42  1  0.613876  0.152344  0.608080  1
  O  O43  1  0.386124  0.652344  0.891920  1
  O  O44  1  0.533384  0.959974  0.200617  1
  O  O45  1  0.466616  0.459974  0.299383  1
  O  O46  1  0.466616  0.040026  0.799383  1
  O  O47  1  0.533384  0.540026  0.700617  1
  O  O48  1  0.103787  0.582808  0.135306  1
  O  O49  1  0.896213  0.082808  0.364694  1
  O  O50  1  0.896213  0.417192  0.864694  1
  O  O51  1  0.103787  0.917192  0.635306  1
  O  O52  1  0.150119  0.896687  0.062874  1
  O  O53  1  0.849881  0.396687  0.437126  1
  O  O54  1  0.849881  0.103313  0.937126  1
  O  O55  1  0.150119  0.603313  0.562874  1
  O  O56  1  0.889078  0.803574  0.142019  1
  O  O57  1  0.110922  0.303574  0.357981  1
  O  O58  1  0.110922  0.196426  0.857981  1
  O  O59  1  0.889078  0.696426  0.642019  1
  O  O60  1  0.003446  0.713969  0.925455  1
  O  O61  1  0.996554  0.213969  0.574545  1
  O  O62  1  0.996554  0.286031  0.074545  1
  O  O63  1  0.003446  0.786031  0.425455  1
