# generated using pymatgen
data_Na2CdSnS4
_symmetry_space_group_name_H-M   'P 1'
_cell_length_a   6.91518615
_cell_length_b   6.91518615
_cell_length_c   6.46666496
_cell_angle_alpha   63.22118399
_cell_angle_beta   116.77881601
_cell_angle_gamma   81.23415501
_symmetry_Int_Tables_number   1
_chemical_formula_structural   Na2CdSnS4
_chemical_formula_sum   'Na2 Cd1 Sn1 S4'
_cell_volume   220.60335241
_cell_formula_units_Z   1
loop_
 _symmetry_equiv_pos_site_id
 _symmetry_equiv_pos_as_xyz
  1  'x, y, z'
loop_
 _atom_site_type_symbol
 _atom_site_label
 _atom_site_symmetry_multiplicity
 _atom_site_fract_x
 _atom_site_fract_y
 _atom_site_fract_z
 _atom_site_occupancy
  Na  Na0  1  0.523980  0.523980  0.000000  1
  Na  Na1  1  0.777702  0.777702  0.500000  1
  Cd  Cd2  1  0.011244  0.011244  0.000000  1
  Sn  Sn3  1  0.261340  0.261340  0.500000  1
  S  S4  1  0.924135  0.347225  0.528051  1
  S  S5  1  0.613265  0.154060  0.940346  1
  S  S6  1  0.154060  0.613265  0.059654  1
  S  S7  1  0.347225  0.924135  0.471949  1
