# generated using pymatgen
data_In2TeO6
_symmetry_space_group_name_H-M   'P 1'
_cell_length_a   9.05660845
_cell_length_b   9.05660845
_cell_length_c   4.90079495
_cell_angle_alpha   90.00000000
_cell_angle_beta   90.00000000
_cell_angle_gamma   120.00000000
_symmetry_Int_Tables_number   1
_chemical_formula_structural   In2TeO6
_chemical_formula_sum   'In6 Te3 O18'
_cell_volume   348.11949702
_cell_formula_units_Z   3
loop_
 _symmetry_equiv_pos_site_id
 _symmetry_equiv_pos_as_xyz
  1  'x, y, z'
loop_
 _atom_site_type_symbol
 _atom_site_label
 _atom_site_symmetry_multiplicity
 _atom_site_fract_x
 _atom_site_fract_y
 _atom_site_fract_z
 _atom_site_occupancy
  In  In0  1  0.632120  0.000000  0.000000  1
  In  In1  1  0.000000  0.632120  0.000000  1
  In  In2  1  0.367880  0.367880  0.000000  1
  In  In3  1  0.294936  0.000000  0.500000  1
  In  In4  1  0.000000  0.294936  0.500000  1
  In  In5  1  0.705064  0.705064  0.500000  1
  Te  Te6  1  0.000000  0.000000  0.000000  1
  Te  Te7  1  0.333333  0.666667  0.513551  1
  Te  Te8  1  0.666667  0.333333  0.486449  1
  O  O9  1  0.086519  0.880650  0.780039  1
  O  O10  1  0.119350  0.205869  0.780039  1
  O  O11  1  0.794131  0.913481  0.780039  1
  O  O12  1  0.205869  0.119350  0.219961  1
  O  O13  1  0.913481  0.794131  0.219961  1
  O  O14  1  0.880650  0.086519  0.219961  1
  O  O15  1  0.461039  0.589651  0.737801  1
  O  O16  1  0.410349  0.871387  0.737801  1
  O  O17  1  0.128613  0.538961  0.737801  1
  O  O18  1  0.871387  0.410349  0.262199  1
  O  O19  1  0.538961  0.128613  0.262199  1
  O  O20  1  0.589651  0.461039  0.262199  1
  O  O21  1  0.220414  0.760344  0.289505  1
  O  O22  1  0.239656  0.460070  0.289505  1
  O  O23  1  0.539930  0.779586  0.289505  1
  O  O24  1  0.460070  0.239656  0.710495  1
  O  O25  1  0.779586  0.539930  0.710495  1
  O  O26  1  0.760344  0.220414  0.710495  1
