# generated using pymatgen
data_PbWO4
_symmetry_space_group_name_H-M   'P 1'
_cell_length_a   5.68693192
_cell_length_b   5.10797540
_cell_length_c   13.95338653
_cell_angle_alpha   90.00000000
_cell_angle_beta   109.44503995
_cell_angle_gamma   90.00000000
_symmetry_Int_Tables_number   1
_chemical_formula_structural   PbWO4
_chemical_formula_sum   'Pb4 W4 O16'
_cell_volume   382.20846431
_cell_formula_units_Z   4
loop_
 _symmetry_equiv_pos_site_id
 _symmetry_equiv_pos_as_xyz
  1  'x, y, z'
loop_
 _atom_site_type_symbol
 _atom_site_label
 _atom_site_symmetry_multiplicity
 _atom_site_fract_x
 _atom_site_fract_y
 _atom_site_fract_z
 _atom_site_occupancy
  Pb  Pb0  1  0.826494  0.206877  0.845725  1
  Pb  Pb1  1  0.173506  0.706877  0.654275  1
  Pb  Pb2  1  0.173506  0.793123  0.154275  1
  Pb  Pb3  1  0.826494  0.293123  0.345725  1
  W  W4  1  0.394038  0.750054  0.925002  1
  W  W5  1  0.605962  0.250054  0.574998  1
  W  W6  1  0.605962  0.249946  0.074998  1
  W  W7  1  0.394038  0.749946  0.425002  1
  O  O8  1  0.271285  0.050073  0.977595  1
  O  O9  1  0.728715  0.550073  0.522405  1
  O  O10  1  0.728715  0.949927  0.022405  1
  O  O11  1  0.271285  0.449927  0.477595  1
  O  O12  1  0.610714  0.439208  0.941099  1
  O  O13  1  0.389286  0.939208  0.558901  1
  O  O14  1  0.389286  0.560792  0.058901  1
  O  O15  1  0.610714  0.060792  0.441099  1
  O  O16  1  0.092607  0.618411  0.848081  1
  O  O17  1  0.907393  0.118411  0.651919  1
  O  O18  1  0.907393  0.381589  0.151919  1
  O  O19  1  0.092607  0.881589  0.348081  1
  O  O20  1  0.470509  0.886203  0.815863  1
  O  O21  1  0.529491  0.386203  0.684137  1
  O  O22  1  0.529491  0.113797  0.184137  1
  O  O23  1  0.470509  0.613797  0.315863  1
