# generated using pymatgen
data_LiMn6PO12
_symmetry_space_group_name_H-M   'P 1'
_cell_length_a   11.65993426
_cell_length_b   11.65993426
_cell_length_c   11.65993426
_cell_angle_alpha   131.74325385
_cell_angle_beta   131.74325385
_cell_angle_gamma   70.63483302
_symmetry_Int_Tables_number   1
_chemical_formula_structural   LiMn6PO12
_chemical_formula_sum   'Li4 Mn24 P4 O48'
_cell_volume   864.57496966
_cell_formula_units_Z   4
loop_
 _symmetry_equiv_pos_site_id
 _symmetry_equiv_pos_as_xyz
  1  'x, y, z'
loop_
 _atom_site_type_symbol
 _atom_site_label
 _atom_site_symmetry_multiplicity
 _atom_site_fract_x
 _atom_site_fract_y
 _atom_site_fract_z
 _atom_site_occupancy
  Li  Li0  1  0.500000  0.000000  0.500000  1
  Li  Li1  1  0.750000  0.750000  0.000000  1
  Li  Li2  1  0.000000  0.500000  0.500000  1
  Li  Li3  1  0.250000  0.250000  0.000000  1
  Mn  Mn4  1  0.875000  0.625000  0.750000  1
  Mn  Mn5  1  0.875000  0.125000  0.250000  1
  Mn  Mn6  1  0.233451  0.733451  0.966902  1
  Mn  Mn7  1  0.125000  0.850096  0.225096  1
  Mn  Mn8  1  0.375000  0.125000  0.250000  1
  Mn  Mn9  1  0.125000  0.350096  0.725096  1
  Mn  Mn10  1  0.375000  0.625000  0.750000  1
  Mn  Mn11  1  0.266549  0.233451  0.500000  1
  Mn  Mn12  1  0.600096  0.875000  0.225096  1
  Mn  Mn13  1  0.375000  0.625000  0.250000  1
  Mn  Mn14  1  0.375000  0.125000  0.750000  1
  Mn  Mn15  1  0.649904  0.375000  0.774904  1
  Mn  Mn16  1  0.983451  0.983451  0.466902  1
  Mn  Mn17  1  0.733451  0.766549  0.500000  1
  Mn  Mn18  1  0.875000  0.125000  0.750000  1
  Mn  Mn19  1  0.625000  0.899904  0.774904  1
  Mn  Mn20  1  0.875000  0.625000  0.250000  1
  Mn  Mn21  1  0.625000  0.399904  0.274904  1
  Mn  Mn22  1  0.016549  0.483451  0.000000  1
  Mn  Mn23  1  0.766549  0.266549  0.033098  1
  Mn  Mn24  1  0.100096  0.875000  0.725096  1
  Mn  Mn25  1  0.149904  0.375000  0.274904  1
  Mn  Mn26  1  0.483451  0.016549  0.000000  1
  Mn  Mn27  1  0.516549  0.516549  0.533098  1
  P  P28  1  0.500000  0.500000  0.000000  1
  P  P29  1  0.750000  0.250000  0.500000  1
  P  P30  1  0.000000  0.000000  0.000000  1
  P  P31  1  0.250000  0.750000  0.500000  1
  O  O32  1  0.038591  0.852429  0.983857  1
  O  O33  1  0.066576  0.544125  0.757782  1
  O  O34  1  0.077991  0.260274  0.476544  1
  O  O35  1  0.510274  0.827991  0.976544  1
  O  O36  1  0.398553  0.922009  0.182283  1
  O  O37  1  0.283730  0.760274  0.182283  1
  O  O38  1  0.286342  0.044125  0.477548  1
  O  O39  1  0.455875  0.213658  0.522452  1
  O  O40  1  0.558794  0.536342  0.742218  1
  O  O41  1  0.445266  0.631428  0.983857  1
  O  O42  1  0.602429  0.118572  0.313838  1
  O  O43  1  0.368572  0.352429  0.813838  1
  O  O44  1  0.538591  0.554734  0.186162  1
  O  O45  1  0.881428  0.195266  0.483857  1
  O  O46  1  0.804734  0.288591  0.686162  1
  O  O47  1  0.647571  0.461409  0.016143  1
  O  O48  1  0.794125  0.816576  0.257782  1
  O  O49  1  0.691206  0.933424  0.477548  1
  O  O50  1  0.963658  0.941206  0.257782  1
  O  O51  1  0.566576  0.808794  0.522452  1
  O  O52  1  0.577991  0.101447  0.817717  1
  O  O53  1  0.966270  0.648553  0.976544  1
  O  O54  1  0.739726  0.216270  0.817717  1
  O  O55  1  0.851447  0.533730  0.023456  1
  O  O56  1  0.010274  0.033730  0.682283  1
  O  O57  1  0.898553  0.716270  0.476544  1
  O  O58  1  0.783730  0.601447  0.523456  1
  O  O59  1  0.172009  0.148553  0.682283  1
  O  O60  1  0.786342  0.308794  0.242218  1
  O  O61  1  0.183424  0.441206  0.977548  1
  O  O62  1  0.058794  0.316576  0.022452  1
  O  O63  1  0.955875  0.433424  0.242218  1
  O  O64  1  0.102429  0.788591  0.483857  1
  O  O65  1  0.945266  0.961409  0.813838  1
  O  O66  1  0.868572  0.054734  0.016143  1
  O  O67  1  0.211409  0.695266  0.313838  1
  O  O68  1  0.381428  0.897571  0.686162  1
  O  O69  1  0.147571  0.131428  0.186162  1
  O  O70  1  0.304734  0.618572  0.516143  1
  O  O71  1  0.294125  0.036342  0.977548  1
  O  O72  1  0.191206  0.713658  0.757782  1
  O  O73  1  0.463658  0.205875  0.022452  1
  O  O74  1  0.466270  0.489726  0.317717  1
  O  O75  1  0.351447  0.327991  0.317717  1
  O  O76  1  0.239726  0.422009  0.523456  1
  O  O77  1  0.672009  0.989726  0.023456  1
  O  O78  1  0.683424  0.705875  0.742218  1
  O  O79  1  0.711409  0.397571  0.516143  1
