# generated using pymatgen
data_Rb6Si10O23
_symmetry_space_group_name_H-M   'P 1'
_cell_length_a   9.59921505
_cell_length_b   9.59921505
_cell_length_c   8.24272392
_cell_angle_alpha   90.00000000
_cell_angle_beta   90.00000000
_cell_angle_gamma   120.79901009
_symmetry_Int_Tables_number   1
_chemical_formula_structural   Rb6Si10O23
_chemical_formula_sum   'Rb6 Si10 O23'
_cell_volume   652.40841984
_cell_formula_units_Z   1
loop_
 _symmetry_equiv_pos_site_id
 _symmetry_equiv_pos_as_xyz
  1  'x, y, z'
loop_
 _atom_site_type_symbol
 _atom_site_label
 _atom_site_symmetry_multiplicity
 _atom_site_fract_x
 _atom_site_fract_y
 _atom_site_fract_z
 _atom_site_occupancy
  Rb  Rb0  1  0.016901  0.261739  0.500000  1
  Rb  Rb1  1  0.781519  0.781519  0.500000  1
  Rb  Rb2  1  0.261739  0.016901  0.500000  1
  Rb  Rb3  1  0.774019  0.774019  0.000000  1
  Rb  Rb4  1  0.018645  0.255948  0.000000  1
  Rb  Rb5  1  0.255948  0.018645  0.000000  1
  Si  Si6  1  0.417006  0.417006  0.695898  1
  Si  Si7  1  0.699035  0.359098  0.188292  1
  Si  Si8  1  0.627563  0.027679  0.691192  1
  Si  Si9  1  0.027679  0.627563  0.691192  1
  Si  Si10  1  0.359098  0.699035  0.811707  1
  Si  Si11  1  0.417006  0.417006  0.304102  1
  Si  Si12  1  0.699035  0.359098  0.811707  1
  Si  Si13  1  0.027679  0.627563  0.308808  1
  Si  Si14  1  0.627563  0.027679  0.308808  1
  Si  Si15  1  0.359098  0.699035  0.188292  1
  O  O16  1  0.442971  0.861844  0.299746  1
  O  O17  1  0.433527  0.584881  0.227197  1
  O  O18  1  0.433527  0.584881  0.772803  1
  O  O19  1  0.597589  0.163058  0.211775  1
  O  O20  1  0.597589  0.163058  0.788225  1
  O  O21  1  0.253688  0.253688  0.735439  1
  O  O22  1  0.774264  0.010458  0.752793  1
  O  O23  1  0.442971  0.861844  0.700254  1
  O  O24  1  0.584881  0.433527  0.772803  1
  O  O25  1  0.163058  0.597589  0.788225  1
  O  O26  1  0.644134  0.085599  0.500000  1
  O  O27  1  0.457661  0.457661  0.500000  1
  O  O28  1  0.584881  0.433527  0.227197  1
  O  O29  1  0.861844  0.442971  0.299746  1
  O  O30  1  0.253688  0.253688  0.264561  1
  O  O31  1  0.010458  0.774264  0.752793  1
  O  O32  1  0.010458  0.774264  0.247207  1
  O  O33  1  0.401467  0.760523  0.000000  1
  O  O34  1  0.861844  0.442971  0.700254  1
  O  O35  1  0.774264  0.010458  0.247207  1
  O  O36  1  0.085599  0.644134  0.500000  1
  O  O37  1  0.760523  0.401467  0.000000  1
  O  O38  1  0.163058  0.597589  0.211775  1
