# generated using pymatgen
data_LiV3(TeO6)2
_symmetry_space_group_name_H-M   'P 1'
_cell_length_a   6.30189388
_cell_length_b   7.24644161
_cell_length_c   10.80606901
_cell_angle_alpha   91.42454148
_cell_angle_beta   93.23646385
_cell_angle_gamma   104.89916348
_symmetry_Int_Tables_number   1
_chemical_formula_structural   LiV3(TeO6)2
_chemical_formula_sum   'Li2 V6 Te4 O24'
_cell_volume   475.72531667
_cell_formula_units_Z   2
loop_
 _symmetry_equiv_pos_site_id
 _symmetry_equiv_pos_as_xyz
  1  'x, y, z'
loop_
 _atom_site_type_symbol
 _atom_site_label
 _atom_site_symmetry_multiplicity
 _atom_site_fract_x
 _atom_site_fract_y
 _atom_site_fract_z
 _atom_site_occupancy
  Li  Li0  1  0.789888  0.774696  0.109034  1
  Li  Li1  1  0.210112  0.225304  0.890966  1
  V  V2  1  0.381948  0.805955  0.578609  1
  V  V3  1  0.618803  0.229235  0.084160  1
  V  V4  1  0.381197  0.770765  0.915840  1
  V  V5  1  0.659305  0.211152  0.754781  1
  V  V6  1  0.618052  0.194045  0.421391  1
  V  V7  1  0.340695  0.788848  0.245219  1
  Te  Te8  1  0.166526  0.215412  0.592294  1
  Te  Te9  1  0.857703  0.817230  0.787877  1
  Te  Te10  1  0.833474  0.784588  0.407706  1
  Te  Te11  1  0.142297  0.182770  0.212123  1
  O  O12  1  0.091671  0.905638  0.214382  1
  O  O13  1  0.481918  0.842898  0.745823  1
  O  O14  1  0.379485  0.881395  0.408307  1
  O  O15  1  0.299862  0.223151  0.065403  1
  O  O16  1  0.700138  0.776849  0.934597  1
  O  O17  1  0.209716  0.593566  0.575412  1
  O  O18  1  0.181543  0.572218  0.243936  1
  O  O19  1  0.790284  0.406434  0.424588  1
  O  O20  1  0.853136  0.058390  0.405236  1
  O  O21  1  0.146864  0.941610  0.594764  1
  O  O22  1  0.267262  0.542342  0.905172  1
  O  O23  1  0.908329  0.094362  0.785618  1
  O  O24  1  0.518082  0.157102  0.254177  1
  O  O25  1  0.818457  0.427782  0.756064  1
  O  O26  1  0.620515  0.118605  0.591693  1
  O  O27  1  0.732738  0.457658  0.094828  1
  O  O28  1  0.625773  0.730952  0.267014  1
  O  O29  1  0.415238  0.838859  0.080882  1
  O  O30  1  0.857736  0.126431  0.117300  1
  O  O31  1  0.142264  0.873569  0.882700  1
  O  O32  1  0.374227  0.269048  0.732986  1
  O  O33  1  0.355471  0.265730  0.457632  1
  O  O34  1  0.644529  0.734270  0.542368  1
  O  O35  1  0.584762  0.161141  0.919118  1
