# generated using pymatgen
data_Cs2Ga2B2O7
_symmetry_space_group_name_H-M   'P 1'
_cell_length_a   9.02223166
_cell_length_b   8.14366188
_cell_length_c   12.40552480
_cell_angle_alpha   90.00000000
_cell_angle_beta   103.92016111
_cell_angle_gamma   90.00000000
_symmetry_Int_Tables_number   1
_chemical_formula_structural   Cs2Ga2B2O7
_chemical_formula_sum   'Cs8 Ga8 B8 O28'
_cell_volume   884.71502963
_cell_formula_units_Z   4
loop_
 _symmetry_equiv_pos_site_id
 _symmetry_equiv_pos_as_xyz
  1  'x, y, z'
loop_
 _atom_site_type_symbol
 _atom_site_label
 _atom_site_symmetry_multiplicity
 _atom_site_fract_x
 _atom_site_fract_y
 _atom_site_fract_z
 _atom_site_occupancy
  Cs  Cs0  1  0.534220  0.623614  0.131050  1
  Cs  Cs1  1  0.932474  0.379303  0.347148  1
  Cs  Cs2  1  0.932474  0.120697  0.847148  1
  Cs  Cs3  1  0.534220  0.876386  0.631050  1
  Cs  Cs4  1  0.067526  0.620697  0.652852  1
  Cs  Cs5  1  0.465780  0.376386  0.868950  1
  Cs  Cs6  1  0.067526  0.879303  0.152852  1
  Cs  Cs7  1  0.465780  0.123614  0.368950  1
  Ga  Ga8  1  0.160639  0.110957  0.613132  1
  Ga  Ga9  1  0.839361  0.610957  0.886868  1
  Ga  Ga10  1  0.685989  0.436167  0.630603  1
  Ga  Ga11  1  0.314011  0.563833  0.369397  1
  Ga  Ga12  1  0.160639  0.389043  0.113132  1
  Ga  Ga13  1  0.685989  0.063833  0.130603  1
  Ga  Ga14  1  0.839361  0.889043  0.386868  1
  Ga  Ga15  1  0.314011  0.936167  0.869397  1
  B  B16  1  0.169061  0.643407  0.936349  1
  B  B17  1  0.169061  0.856593  0.436349  1
  B  B18  1  0.647808  0.609489  0.422130  1
  B  B19  1  0.830939  0.356593  0.063651  1
  B  B20  1  0.830939  0.143407  0.563651  1
  B  B21  1  0.352192  0.390511  0.577870  1
  B  B22  1  0.352192  0.109489  0.077870  1
  B  B23  1  0.647808  0.890511  0.922130  1
  O  O24  1  0.481629  0.482877  0.623287  1
  O  O25  1  0.972466  0.219288  0.592833  1
  O  O26  1  0.704368  0.217565  0.588690  1
  O  O27  1  0.807166  0.991188  0.513504  1
  O  O28  1  0.308901  0.273445  0.644968  1
  O  O29  1  0.192834  0.491188  0.986496  1
  O  O30  1  0.260643  0.421099  0.472955  1
  O  O31  1  0.972466  0.280712  0.092833  1
  O  O32  1  0.811666  0.467727  0.769321  1
  O  O33  1  0.518371  0.517123  0.376713  1
  O  O34  1  0.481629  0.017123  0.123287  1
  O  O35  1  0.192834  0.008812  0.486496  1
  O  O36  1  0.260643  0.078901  0.972955  1
  O  O37  1  0.739357  0.578901  0.527045  1
  O  O38  1  0.807166  0.508812  0.013504  1
  O  O39  1  0.027534  0.780712  0.407167  1
  O  O40  1  0.308901  0.226555  0.144968  1
  O  O41  1  0.188334  0.532273  0.230679  1
  O  O42  1  0.518371  0.982877  0.876713  1
  O  O43  1  0.739357  0.921099  0.027045  1
  O  O44  1  0.027534  0.719288  0.907167  1
  O  O45  1  0.188334  0.967727  0.730679  1
  O  O46  1  0.295632  0.782435  0.411310  1
  O  O47  1  0.811666  0.032273  0.269321  1
  O  O48  1  0.704368  0.282435  0.088690  1
  O  O49  1  0.295632  0.717565  0.911310  1
  O  O50  1  0.691099  0.773445  0.855032  1
  O  O51  1  0.691099  0.726555  0.355032  1
