# generated using pymatgen
data_Bi2Au5F21
_symmetry_space_group_name_H-M   'P 1'
_cell_length_a   8.40960531
_cell_length_b   8.40960531
_cell_length_c   26.15705512
_cell_angle_alpha   90.00000000
_cell_angle_beta   90.00000000
_cell_angle_gamma   90.00000000
_symmetry_Int_Tables_number   1
_chemical_formula_structural   Bi2Au5F21
_chemical_formula_sum   'Bi8 Au20 F84'
_cell_volume   1849.86516584
_cell_formula_units_Z   4
loop_
 _symmetry_equiv_pos_site_id
 _symmetry_equiv_pos_as_xyz
  1  'x, y, z'
loop_
 _atom_site_type_symbol
 _atom_site_label
 _atom_site_symmetry_multiplicity
 _atom_site_fract_x
 _atom_site_fract_y
 _atom_site_fract_z
 _atom_site_occupancy
  Bi  Bi0  1  0.057103  0.571254  0.752096  1
  Bi  Bi1  1  0.071254  0.442897  0.502096  1
  Bi  Bi2  1  0.428746  0.942897  0.747904  1
  Bi  Bi3  1  0.442897  0.071254  0.497904  1
  Bi  Bi4  1  0.942897  0.428746  0.252096  1
  Bi  Bi5  1  0.928746  0.557103  0.002096  1
  Bi  Bi6  1  0.557103  0.928746  0.997904  1
  Bi  Bi7  1  0.571254  0.057103  0.247904  1
  Au  Au8  1  0.821254  0.207703  0.111041  1
  Au  Au9  1  0.410921  0.355446  0.843280  1
  Au  Au10  1  0.355446  0.410921  0.156720  1
  Au  Au11  1  0.292297  0.321254  0.361041  1
  Au  Au12  1  0.941905  0.058095  0.750000  1
  Au  Au13  1  0.441905  0.441905  0.000000  1
  Au  Au14  1  0.707703  0.678746  0.861041  1
  Au  Au15  1  0.321254  0.292297  0.638959  1
  Au  Au16  1  0.089079  0.855446  0.406720  1
  Au  Au17  1  0.910921  0.144554  0.906720  1
  Au  Au18  1  0.792297  0.178746  0.388959  1
  Au  Au19  1  0.207703  0.821254  0.888959  1
  Au  Au20  1  0.058095  0.941905  0.250000  1
  Au  Au21  1  0.178746  0.792297  0.611041  1
  Au  Au22  1  0.644554  0.589079  0.656720  1
  Au  Au23  1  0.589079  0.644554  0.343280  1
  Au  Au24  1  0.678746  0.707703  0.138959  1
  Au  Au25  1  0.558095  0.558095  0.500000  1
  Au  Au26  1  0.855446  0.089079  0.593280  1
  Au  Au27  1  0.144554  0.910921  0.093280  1
  F  F28  1  0.558963  0.791079  0.498158  1
  F  F29  1  0.906664  0.802398  0.365105  1
  F  F30  1  0.365757  0.527497  0.891109  1
  F  F31  1  0.413325  0.224739  0.200221  1
  F  F32  1  0.941037  0.291079  0.751842  1
  F  F33  1  0.093336  0.197602  0.865105  1
  F  F34  1  0.684100  0.032257  0.544804  1
  F  F35  1  0.302398  0.593336  0.115105  1
  F  F36  1  0.322277  0.932528  0.833931  1
  F  F37  1  0.184100  0.467743  0.205196  1
  F  F38  1  0.815900  0.532257  0.705196  1
  F  F39  1  0.821510  0.544885  0.810852  1
  F  F40  1  0.410097  0.222726  0.303765  1
  F  F41  1  0.935540  0.821908  0.751169  1
  F  F42  1  0.634243  0.472503  0.391109  1
  F  F43  1  0.208921  0.441037  0.001842  1
  F  F44  1  0.914728  0.306616  0.339151  1
  F  F45  1  0.032257  0.684100  0.455196  1
  F  F46  1  0.275261  0.913325  0.450221  1
  F  F47  1  0.719666  0.280334  0.250000  1
  F  F48  1  0.432528  0.177723  0.583931  1
  F  F49  1  0.567472  0.822277  0.083931  1
  F  F50  1  0.967743  0.315900  0.955196  1
  F  F51  1  0.585272  0.806616  0.910849  1
  F  F52  1  0.697602  0.406664  0.615105  1
  F  F53  1  0.472503  0.634243  0.608891  1
  F  F54  1  0.722726  0.089903  0.053765  1
  F  F55  1  0.791079  0.558963  0.501842  1
  F  F56  1  0.802398  0.906664  0.634895  1
  F  F57  1  0.193384  0.414728  0.589151  1
  F  F58  1  0.678092  0.435540  0.001169  1
  F  F59  1  0.910097  0.277274  0.446235  1
  F  F60  1  0.821908  0.935540  0.248831  1
  F  F61  1  0.589903  0.777274  0.803765  1
  F  F62  1  0.306616  0.914728  0.660849  1
  F  F63  1  0.177723  0.432528  0.416069  1
  F  F64  1  0.321510  0.955115  0.939148  1
  F  F65  1  0.224739  0.413325  0.799779  1
  F  F66  1  0.586675  0.775261  0.700221  1
  F  F67  1  0.455115  0.178490  0.689148  1
  F  F68  1  0.027497  0.134243  0.641109  1
  F  F69  1  0.544885  0.821510  0.189148  1
  F  F70  1  0.678490  0.044885  0.439148  1
  F  F71  1  0.044885  0.678490  0.560852  1
  F  F72  1  0.932528  0.322277  0.166069  1
  F  F73  1  0.822277  0.567472  0.916069  1
  F  F74  1  0.089903  0.722726  0.946235  1
  F  F75  1  0.467743  0.184100  0.794804  1
  F  F76  1  0.972503  0.865757  0.141109  1
  F  F77  1  0.913325  0.275261  0.549779  1
  F  F78  1  0.058963  0.708921  0.251842  1
  F  F79  1  0.086675  0.724739  0.049779  1
  F  F80  1  0.134243  0.027497  0.358891  1
  F  F81  1  0.532257  0.815900  0.294804  1
  F  F82  1  0.955115  0.321510  0.060852  1
  F  F83  1  0.527497  0.365757  0.108891  1
  F  F84  1  0.724739  0.086675  0.950221  1
  F  F85  1  0.291079  0.941037  0.248158  1
  F  F86  1  0.593336  0.302398  0.884895  1
  F  F87  1  0.441037  0.208921  0.998158  1
  F  F88  1  0.178092  0.064460  0.748831  1
  F  F89  1  0.435540  0.678092  0.998831  1
  F  F90  1  0.865757  0.972503  0.858891  1
  F  F91  1  0.178490  0.455115  0.310852  1
  F  F92  1  0.280334  0.719666  0.750000  1
  F  F93  1  0.406664  0.697602  0.384895  1
  F  F94  1  0.414728  0.193384  0.410849  1
  F  F95  1  0.219666  0.219666  0.500000  1
  F  F96  1  0.780334  0.780334  0.000000  1
  F  F97  1  0.222726  0.410097  0.696235  1
  F  F98  1  0.677723  0.067472  0.333931  1
  F  F99  1  0.564460  0.321908  0.498831  1
  F  F100  1  0.085272  0.693384  0.839151  1
  F  F101  1  0.806616  0.585272  0.089151  1
  F  F102  1  0.708921  0.058963  0.748158  1
  F  F103  1  0.315900  0.967743  0.044804  1
  F  F104  1  0.067472  0.677723  0.666069  1
  F  F105  1  0.321908  0.564460  0.501169  1
  F  F106  1  0.197602  0.093336  0.134895  1
  F  F107  1  0.693384  0.085272  0.160849  1
  F  F108  1  0.064460  0.178092  0.251169  1
  F  F109  1  0.775261  0.586675  0.299779  1
  F  F110  1  0.777274  0.589903  0.196235  1
  F  F111  1  0.277274  0.910097  0.553765  1
