# generated using pymatgen
data_WSBr4
_symmetry_space_group_name_H-M   'P 1'
_cell_length_a   10.45984478
_cell_length_b   6.48174893
_cell_length_c   13.65462467
_cell_angle_alpha   90.00000000
_cell_angle_beta   110.64093764
_cell_angle_gamma   90.00000000
_symmetry_Int_Tables_number   1
_chemical_formula_structural   WSBr4
_chemical_formula_sum   'W4 S4 Br16'
_cell_volume   866.33113299
_cell_formula_units_Z   4
loop_
 _symmetry_equiv_pos_site_id
 _symmetry_equiv_pos_as_xyz
  1  'x, y, z'
loop_
 _atom_site_type_symbol
 _atom_site_label
 _atom_site_symmetry_multiplicity
 _atom_site_fract_x
 _atom_site_fract_y
 _atom_site_fract_z
 _atom_site_occupancy
  W  W0  1  0.762137  0.932595  0.957821  1
  W  W1  1  0.237863  0.067405  0.042179  1
  W  W2  1  0.237863  0.432595  0.542179  1
  W  W3  1  0.762137  0.567405  0.457821  1
  S  S4  1  0.386393  0.263531  0.021651  1
  S  S5  1  0.386393  0.236469  0.521651  1
  S  S6  1  0.613607  0.763531  0.478349  1
  S  S7  1  0.613607  0.736469  0.978349  1
  Br  Br8  1  0.803395  0.721344  0.306940  1
  Br  Br9  1  0.200592  0.809876  0.901631  1
  Br  Br10  1  0.024024  0.238782  0.928606  1
  Br  Br11  1  0.803395  0.778656  0.806940  1
  Br  Br12  1  0.624132  0.198208  0.836074  1
  Br  Br13  1  0.375868  0.698208  0.663926  1
  Br  Br14  1  0.975976  0.761218  0.071394  1
  Br  Br15  1  0.024024  0.261218  0.428606  1
  Br  Br16  1  0.200592  0.690124  0.401631  1
  Br  Br17  1  0.196605  0.221344  0.193060  1
  Br  Br18  1  0.624132  0.301792  0.336074  1
  Br  Br19  1  0.196605  0.278656  0.693060  1
  Br  Br20  1  0.799408  0.190124  0.098369  1
  Br  Br21  1  0.799408  0.309876  0.598369  1
  Br  Br22  1  0.375868  0.801792  0.163926  1
  Br  Br23  1  0.975976  0.738782  0.571394  1
