# generated using pymatgen
data_K3Sm(AsS4)2
_symmetry_space_group_name_H-M   'P 1'
_cell_length_a   10.97742030
_cell_length_b   10.97742030
_cell_length_c   9.06354008
_cell_angle_alpha   77.10080243
_cell_angle_beta   102.89919757
_cell_angle_gamma   57.61559161
_symmetry_Int_Tables_number   1
_chemical_formula_structural   K3Sm(AsS4)2
_chemical_formula_sum   'K6 Sm2 As4 S16'
_cell_volume   817.38218745
_cell_formula_units_Z   2
loop_
 _symmetry_equiv_pos_site_id
 _symmetry_equiv_pos_as_xyz
  1  'x, y, z'
loop_
 _atom_site_type_symbol
 _atom_site_label
 _atom_site_symmetry_multiplicity
 _atom_site_fract_x
 _atom_site_fract_y
 _atom_site_fract_z
 _atom_site_occupancy
  K  K0  1  0.004675  0.004675  0.750000  1
  K  K1  1  0.739310  0.739310  0.250000  1
  K  K2  1  0.500000  0.500000  0.500000  1
  K  K3  1  0.260690  0.260690  0.750000  1
  K  K4  1  0.995325  0.995325  0.250000  1
  K  K5  1  0.500000  0.500000  0.000000  1
  Sm  Sm6  1  0.242841  0.242841  0.250000  1
  Sm  Sm7  1  0.757159  0.757159  0.750000  1
  As  As8  1  0.657166  0.094185  0.397189  1
  As  As9  1  0.905815  0.342834  0.897189  1
  As  As10  1  0.094185  0.657166  0.102811  1
  As  As11  1  0.342834  0.905815  0.602811  1
  S  S12  1  0.239498  0.733569  0.127982  1
  S  S13  1  0.132927  0.157207  0.479169  1
  S  S14  1  0.140581  0.503319  0.344433  1
  S  S15  1  0.266431  0.760502  0.627982  1
  S  S16  1  0.842793  0.867073  0.979169  1
  S  S17  1  0.496681  0.859419  0.844433  1
  S  S18  1  0.125434  0.529014  0.941981  1
  S  S19  1  0.470986  0.874566  0.441981  1
  S  S20  1  0.859419  0.496681  0.655567  1
  S  S21  1  0.874566  0.470986  0.058019  1
  S  S22  1  0.529014  0.125434  0.558019  1
  S  S23  1  0.503319  0.140581  0.155567  1
  S  S24  1  0.760502  0.266431  0.872018  1
  S  S25  1  0.733569  0.239498  0.372018  1
  S  S26  1  0.157207  0.132927  0.020831  1
  S  S27  1  0.867073  0.842793  0.520831  1
