# generated using pymatgen
data_Ba2CaMgAl2F14
_symmetry_space_group_name_H-M   'P 1'
_cell_length_a   7.38764403
_cell_length_b   7.38764403
_cell_length_c   14.81682499
_cell_angle_alpha   88.20076740
_cell_angle_beta   91.79923260
_cell_angle_gamma   138.09089654
_symmetry_Int_Tables_number   1
_chemical_formula_structural   Ba2CaMgAl2F14
_chemical_formula_sum   'Ba4 Ca2 Mg2 Al4 F28'
_cell_volume   539.84111426
_cell_formula_units_Z   2
loop_
 _symmetry_equiv_pos_site_id
 _symmetry_equiv_pos_as_xyz
  1  'x, y, z'
loop_
 _atom_site_type_symbol
 _atom_site_label
 _atom_site_symmetry_multiplicity
 _atom_site_fract_x
 _atom_site_fract_y
 _atom_site_fract_z
 _atom_site_occupancy
  Ba  Ba0  1  0.231754  0.849172  0.118032  1
  Ba  Ba1  1  0.849172  0.231754  0.381968  1
  Ba  Ba2  1  0.768246  0.150828  0.881968  1
  Ba  Ba3  1  0.150828  0.768246  0.618032  1
  Ca  Ca4  1  0.560597  0.560597  0.250000  1
  Ca  Ca5  1  0.439403  0.439403  0.750000  1
  Mg  Mg6  1  0.500000  0.500000  0.500000  1
  Mg  Mg7  1  0.500000  0.500000  0.000000  1
  Al  Al8  1  0.121270  0.889051  0.378256  1
  Al  Al9  1  0.889051  0.121270  0.121744  1
  Al  Al10  1  0.878730  0.110949  0.621744  1
  Al  Al11  1  0.110949  0.878730  0.878256  1
  F  F12  1  0.282940  0.802808  0.421097  1
  F  F13  1  0.802808  0.282940  0.078903  1
  F  F14  1  0.717060  0.197192  0.578903  1
  F  F15  1  0.197192  0.717060  0.921097  1
  F  F16  1  0.733177  0.890136  0.524274  1
  F  F17  1  0.890136  0.733177  0.975726  1
  F  F18  1  0.266823  0.109864  0.475726  1
  F  F19  1  0.109864  0.266823  0.024274  1
  F  F20  1  0.399936  0.174075  0.949450  1
  F  F21  1  0.174075  0.399936  0.550550  1
  F  F22  1  0.600064  0.825925  0.050550  1
  F  F23  1  0.825925  0.600064  0.449450  1
  F  F24  1  0.930777  0.943759  0.341166  1
  F  F25  1  0.943759  0.930777  0.158834  1
  F  F26  1  0.069223  0.056241  0.658834  1
  F  F27  1  0.056241  0.069223  0.841166  1
  F  F28  1  0.357720  0.038804  0.784991  1
  F  F29  1  0.038804  0.357720  0.715009  1
  F  F30  1  0.642280  0.961196  0.215009  1
  F  F31  1  0.961196  0.642280  0.284991  1
  F  F32  1  0.594012  0.846548  0.694496  1
  F  F33  1  0.846548  0.594012  0.805504  1
  F  F34  1  0.405988  0.153452  0.305504  1
  F  F35  1  0.153452  0.405988  0.194496  1
  F  F36  1  0.512114  0.380995  0.119261  1
  F  F37  1  0.380995  0.512114  0.380739  1
  F  F38  1  0.487886  0.619005  0.880739  1
  F  F39  1  0.619005  0.487886  0.619261  1
