# generated using pymatgen
data_YPO4
_symmetry_space_group_name_H-M   'P 1'
_cell_length_a   5.79590301
_cell_length_b   5.79590301
_cell_length_c   5.79590301
_cell_angle_alpha   105.92383128
_cell_angle_beta   105.92383128
_cell_angle_gamma   116.82593778
_symmetry_Int_Tables_number   1
_chemical_formula_structural   YPO4
_chemical_formula_sum   'Y2 P2 O8'
_cell_volume   148.00445364
_cell_formula_units_Z   2
loop_
 _symmetry_equiv_pos_site_id
 _symmetry_equiv_pos_as_xyz
  1  'x, y, z'
loop_
 _atom_site_type_symbol
 _atom_site_label
 _atom_site_symmetry_multiplicity
 _atom_site_fract_x
 _atom_site_fract_y
 _atom_site_fract_z
 _atom_site_occupancy
  Y  Y0  1  0.000000  0.000000  0.000000  1
  Y  Y1  1  0.250000  0.750000  0.500000  1
  P  P2  1  0.750000  0.250000  0.500000  1
  P  P3  1  0.500000  0.500000  0.000000  1
  O  O4  1  0.485935  0.659884  0.826052  1
  O  O5  1  0.909884  0.583832  0.673948  1
  O  O6  1  0.909884  0.235935  0.326052  1
  O  O7  1  0.833832  0.659884  0.173948  1
  O  O8  1  0.340116  0.166168  0.826052  1
  O  O9  1  0.764065  0.090116  0.673948  1
  O  O10  1  0.416168  0.090116  0.326052  1
  O  O11  1  0.340116  0.514065  0.173948  1
