# generated using pymatgen
data_Cs2Te13
_symmetry_space_group_name_H-M   'P 1'
_cell_length_a   7.39533511
_cell_length_b   14.11112003
_cell_length_c   23.45118069
_cell_angle_alpha   90.00000000
_cell_angle_beta   90.00000000
_cell_angle_gamma   90.00000000
_symmetry_Int_Tables_number   1
_chemical_formula_structural   Cs2Te13
_chemical_formula_sum   'Cs8 Te52'
_cell_volume   2447.28223244
_cell_formula_units_Z   4
loop_
 _symmetry_equiv_pos_site_id
 _symmetry_equiv_pos_as_xyz
  1  'x, y, z'
loop_
 _atom_site_type_symbol
 _atom_site_label
 _atom_site_symmetry_multiplicity
 _atom_site_fract_x
 _atom_site_fract_y
 _atom_site_fract_z
 _atom_site_occupancy
  Cs  Cs0  1  0.885511  0.250000  0.500000  1
  Cs  Cs1  1  0.114489  0.750000  0.000000  1
  Cs  Cs2  1  0.114489  0.750000  0.500000  1
  Cs  Cs3  1  0.885511  0.250000  0.000000  1
  Cs  Cs4  1  0.642981  0.525796  0.250000  1
  Cs  Cs5  1  0.642981  0.974204  0.750000  1
  Cs  Cs6  1  0.357019  0.025796  0.250000  1
  Cs  Cs7  1  0.357019  0.474204  0.750000  1
  Te  Te8  1  0.296028  0.095966  0.452060  1
  Te  Te9  1  0.296028  0.404034  0.547940  1
  Te  Te10  1  0.703972  0.595966  0.047940  1
  Te  Te11  1  0.703972  0.904034  0.952060  1
  Te  Te12  1  0.703972  0.904034  0.547940  1
  Te  Te13  1  0.703972  0.595966  0.452060  1
  Te  Te14  1  0.296028  0.404034  0.952060  1
  Te  Te15  1  0.296028  0.095966  0.047940  1
  Te  Te16  1  0.065236  0.965719  0.397813  1
  Te  Te17  1  0.065236  0.534281  0.602187  1
  Te  Te18  1  0.934764  0.465719  0.102187  1
  Te  Te19  1  0.934764  0.034281  0.897813  1
  Te  Te20  1  0.934764  0.034281  0.602187  1
  Te  Te21  1  0.934764  0.465719  0.397813  1
  Te  Te22  1  0.065236  0.534281  0.897813  1
  Te  Te23  1  0.065236  0.965719  0.102187  1
  Te  Te24  1  0.692866  0.028108  0.428903  1
  Te  Te25  1  0.692866  0.471892  0.571097  1
  Te  Te26  1  0.307134  0.528108  0.071097  1
  Te  Te27  1  0.307134  0.971892  0.928903  1
  Te  Te28  1  0.307134  0.971892  0.571097  1
  Te  Te29  1  0.307134  0.528108  0.428903  1
  Te  Te30  1  0.692866  0.471892  0.928903  1
  Te  Te31  1  0.692866  0.028108  0.071097  1
  Te  Te32  1  0.741535  0.167167  0.335401  1
  Te  Te33  1  0.741535  0.332833  0.664599  1
  Te  Te34  1  0.258465  0.667167  0.164599  1
  Te  Te35  1  0.258465  0.832833  0.835401  1
  Te  Te36  1  0.258465  0.832833  0.664599  1
  Te  Te37  1  0.258465  0.667167  0.335401  1
  Te  Te38  1  0.741535  0.332833  0.835401  1
  Te  Te39  1  0.741535  0.167167  0.164599  1
  Te  Te40  1  0.545383  0.324923  0.372493  1
  Te  Te41  1  0.545383  0.175077  0.627507  1
  Te  Te42  1  0.454617  0.824923  0.127507  1
  Te  Te43  1  0.454617  0.675077  0.872493  1
  Te  Te44  1  0.454617  0.675077  0.627507  1
  Te  Te45  1  0.454617  0.824923  0.372493  1
  Te  Te46  1  0.545383  0.175077  0.872493  1
  Te  Te47  1  0.545383  0.324923  0.127507  1
  Te  Te48  1  0.189066  0.261228  0.345228  1
  Te  Te49  1  0.189066  0.238772  0.654772  1
  Te  Te50  1  0.810934  0.761228  0.154772  1
  Te  Te51  1  0.810934  0.738772  0.845228  1
  Te  Te52  1  0.810934  0.738772  0.654772  1
  Te  Te53  1  0.810934  0.761228  0.345228  1
  Te  Te54  1  0.189066  0.238772  0.845228  1
  Te  Te55  1  0.189066  0.261228  0.154772  1
  Te  Te56  1  0.110496  0.377451  0.250000  1
  Te  Te57  1  0.110496  0.122549  0.750000  1
  Te  Te58  1  0.889504  0.877451  0.250000  1
  Te  Te59  1  0.889504  0.622549  0.750000  1
