# generated using pymatgen
data_B2Pb6SO12
_symmetry_space_group_name_H-M   'P 1'
_cell_length_a   6.59568527
_cell_length_b   11.93821420
_cell_length_c   18.30832155
_cell_angle_alpha   90.00000000
_cell_angle_beta   90.00000000
_cell_angle_gamma   90.00000000
_symmetry_Int_Tables_number   1
_chemical_formula_structural   B2Pb6SO12
_chemical_formula_sum   'B8 Pb24 S4 O48'
_cell_volume   1441.61011965
_cell_formula_units_Z   4
loop_
 _symmetry_equiv_pos_site_id
 _symmetry_equiv_pos_as_xyz
  1  'x, y, z'
loop_
 _atom_site_type_symbol
 _atom_site_label
 _atom_site_symmetry_multiplicity
 _atom_site_fract_x
 _atom_site_fract_y
 _atom_site_fract_z
 _atom_site_occupancy
  B  B0  1  0.921131  0.503291  0.246166  1
  B  B1  1  0.078869  0.003291  0.753834  1
  B  B2  1  0.578869  0.003291  0.746166  1
  B  B3  1  0.078869  0.496709  0.753834  1
  B  B4  1  0.421131  0.996709  0.253834  1
  B  B5  1  0.421131  0.503291  0.253834  1
  B  B6  1  0.921131  0.996709  0.246166  1
  B  B7  1  0.578869  0.496709  0.746166  1
  Pb  Pb8  1  0.355596  0.407397  0.894760  1
  Pb  Pb9  1  0.596295  0.750000  0.299374  1
  Pb  Pb10  1  0.168147  0.405001  0.106280  1
  Pb  Pb11  1  0.644404  0.592603  0.105240  1
  Pb  Pb12  1  0.144404  0.592603  0.394760  1
  Pb  Pb13  1  0.774929  0.750000  0.709405  1
  Pb  Pb14  1  0.096295  0.750000  0.200626  1
  Pb  Pb15  1  0.274929  0.750000  0.790595  1
  Pb  Pb16  1  0.331853  0.905001  0.606280  1
  Pb  Pb17  1  0.725071  0.250000  0.209405  1
  Pb  Pb18  1  0.168147  0.094999  0.106280  1
  Pb  Pb19  1  0.668147  0.094999  0.393720  1
  Pb  Pb20  1  0.831853  0.594999  0.893720  1
  Pb  Pb21  1  0.855596  0.407397  0.605240  1
  Pb  Pb22  1  0.403705  0.250000  0.700626  1
  Pb  Pb23  1  0.355596  0.092603  0.894760  1
  Pb  Pb24  1  0.903705  0.250000  0.799374  1
  Pb  Pb25  1  0.855596  0.092603  0.605240  1
  Pb  Pb26  1  0.225071  0.250000  0.290595  1
  Pb  Pb27  1  0.144404  0.907397  0.394760  1
  Pb  Pb28  1  0.644404  0.907397  0.105240  1
  Pb  Pb29  1  0.331853  0.594999  0.606280  1
  Pb  Pb30  1  0.831853  0.905001  0.893720  1
  Pb  Pb31  1  0.668147  0.405001  0.393720  1
  S  S32  1  0.786916  0.750000  0.507990  1
  S  S33  1  0.213084  0.250000  0.492010  1
  S  S34  1  0.286916  0.750000  0.992010  1
  S  S35  1  0.713084  0.250000  0.007990  1
  O  O36  1  0.665888  0.646918  0.522782  1
  O  O37  1  0.526865  0.099783  0.784413  1
  O  O38  1  0.574813  0.492464  0.669803  1
  O  O39  1  0.634288  0.906423  0.782194  1
  O  O40  1  0.425815  0.750000  0.664150  1
  O  O41  1  0.348112  0.750000  0.072225  1
  O  O42  1  0.334112  0.146918  0.477218  1
  O  O43  1  0.425187  0.992464  0.330197  1
  O  O44  1  0.784365  0.750000  0.142935  1
  O  O45  1  0.026865  0.400217  0.715587  1
  O  O46  1  0.022439  0.250000  0.447540  1
  O  O47  1  0.151888  0.250000  0.572225  1
  O  O48  1  0.925187  0.992464  0.169803  1
  O  O49  1  0.526865  0.400217  0.784413  1
  O  O50  1  0.215635  0.250000  0.857065  1
  O  O51  1  0.334112  0.353082  0.477218  1
  O  O52  1  0.365712  0.406423  0.217806  1
  O  O53  1  0.473135  0.900217  0.215587  1
  O  O54  1  0.574813  0.007536  0.669803  1
  O  O55  1  0.834112  0.353082  0.022782  1
  O  O56  1  0.477561  0.750000  0.947540  1
  O  O57  1  0.865712  0.406423  0.282194  1
  O  O58  1  0.574185  0.250000  0.335850  1
  O  O59  1  0.848112  0.750000  0.427775  1
  O  O60  1  0.165888  0.646918  0.977218  1
  O  O61  1  0.365712  0.093577  0.217806  1
  O  O62  1  0.074185  0.250000  0.164150  1
  O  O63  1  0.973135  0.900217  0.284413  1
  O  O64  1  0.026865  0.099783  0.715587  1
  O  O65  1  0.925187  0.507536  0.169803  1
  O  O66  1  0.522439  0.250000  0.052460  1
  O  O67  1  0.977561  0.750000  0.552460  1
  O  O68  1  0.925815  0.750000  0.835850  1
  O  O69  1  0.834112  0.146918  0.022782  1
  O  O70  1  0.134288  0.593577  0.717806  1
  O  O71  1  0.134288  0.906423  0.717806  1
  O  O72  1  0.973135  0.599783  0.284413  1
  O  O73  1  0.284365  0.750000  0.357065  1
  O  O74  1  0.425187  0.507536  0.330197  1
  O  O75  1  0.074813  0.007536  0.830197  1
  O  O76  1  0.074813  0.492464  0.830197  1
  O  O77  1  0.634288  0.593577  0.782194  1
  O  O78  1  0.651888  0.250000  0.927775  1
  O  O79  1  0.165888  0.853082  0.977218  1
  O  O80  1  0.715635  0.250000  0.642935  1
  O  O81  1  0.473135  0.599783  0.215587  1
  O  O82  1  0.665888  0.853082  0.522782  1
  O  O83  1  0.865712  0.093577  0.282194  1
