# generated using pymatgen
data_PdCl2
_symmetry_space_group_name_H-M   'P 1'
_cell_length_a   3.41075674
_cell_length_b   4.42254858
_cell_length_c   11.57904895
_cell_angle_alpha   90.00000000
_cell_angle_beta   90.00000000
_cell_angle_gamma   90.00000000
_symmetry_Int_Tables_number   1
_chemical_formula_structural   PdCl2
_chemical_formula_sum   'Pd2 Cl4'
_cell_volume   174.66112296
_cell_formula_units_Z   2
loop_
 _symmetry_equiv_pos_site_id
 _symmetry_equiv_pos_as_xyz
  1  'x, y, z'
loop_
 _atom_site_type_symbol
 _atom_site_label
 _atom_site_symmetry_multiplicity
 _atom_site_fract_x
 _atom_site_fract_y
 _atom_site_fract_z
 _atom_site_occupancy
  Pd  Pd0  1  0.500000  0.000000  0.000000  1
  Pd  Pd1  1  0.000000  0.500000  0.500000  1
  Cl  Cl2  1  0.000000  0.844683  0.876221  1
  Cl  Cl3  1  0.500000  0.344683  0.623779  1
  Cl  Cl4  1  0.000000  0.155317  0.123779  1
  Cl  Cl5  1  0.500000  0.655317  0.376221  1
