# generated using pymatgen
data_Zn(GaS2)2
_symmetry_space_group_name_H-M   'P 1'
_cell_length_a   6.47834203
_cell_length_b   6.47834203
_cell_length_c   6.47834203
_cell_angle_alpha   131.02102196
_cell_angle_beta   131.02102196
_cell_angle_gamma   71.77968170
_symmetry_Int_Tables_number   1
_chemical_formula_structural   Zn(GaS2)2
_chemical_formula_sum   'Zn1 Ga2 S4'
_cell_volume   151.39755857
_cell_formula_units_Z   1
loop_
 _symmetry_equiv_pos_site_id
 _symmetry_equiv_pos_as_xyz
  1  'x, y, z'
loop_
 _atom_site_type_symbol
 _atom_site_label
 _atom_site_symmetry_multiplicity
 _atom_site_fract_x
 _atom_site_fract_y
 _atom_site_fract_z
 _atom_site_occupancy
  Zn  Zn0  1  0.000000  0.000000  0.000000  1
  Ga  Ga1  1  0.250000  0.750000  0.500000  1
  Ga  Ga2  1  0.500000  0.500000  0.000000  1
  S  S3  1  0.119393  0.128992  0.508995  1
  S  S4  1  0.871008  0.380002  0.990400  1
  S  S5  1  0.389602  0.880607  0.009600  1
  S  S6  1  0.619998  0.610398  0.491005  1
