# generated using pymatgen
data_RbEr3F10
_symmetry_space_group_name_H-M   'P 1'
_cell_length_a   8.21214605
_cell_length_b   8.21214605
_cell_length_c   13.41046408
_cell_angle_alpha   90.00000000
_cell_angle_beta   90.00000000
_cell_angle_gamma   120.00000000
_symmetry_Int_Tables_number   1
_chemical_formula_structural   RbEr3F10
_chemical_formula_sum   'Rb4 Er12 F40'
_cell_volume   783.22721251
_cell_formula_units_Z   4
loop_
 _symmetry_equiv_pos_site_id
 _symmetry_equiv_pos_as_xyz
  1  'x, y, z'
loop_
 _atom_site_type_symbol
 _atom_site_label
 _atom_site_symmetry_multiplicity
 _atom_site_fract_x
 _atom_site_fract_y
 _atom_site_fract_z
 _atom_site_occupancy
  Rb  Rb0  1  0.666667  0.333333  0.258602  1
  Rb  Rb1  1  0.000000  0.000000  0.499592  1
  Rb  Rb2  1  0.333333  0.666667  0.758602  1
  Rb  Rb3  1  0.000000  0.000000  0.999592  1
  Er  Er4  1  0.505570  0.011139  0.512761  1
  Er  Er5  1  0.494430  0.988861  0.012761  1
  Er  Er6  1  0.494430  0.505570  0.012761  1
  Er  Er7  1  0.174339  0.825661  0.252647  1
  Er  Er8  1  0.011139  0.505570  0.012761  1
  Er  Er9  1  0.825661  0.174339  0.752647  1
  Er  Er10  1  0.348679  0.174339  0.752647  1
  Er  Er11  1  0.174339  0.348679  0.252647  1
  Er  Er12  1  0.988861  0.494430  0.512761  1
  Er  Er13  1  0.505570  0.494430  0.512761  1
  Er  Er14  1  0.651321  0.825661  0.252647  1
  Er  Er15  1  0.825661  0.651321  0.752647  1
  F  F16  1  0.777064  0.222936  0.049284  1
  F  F17  1  0.109789  0.219578  0.722590  1
  F  F18  1  0.341082  0.334961  0.882651  1
  F  F19  1  0.665039  0.658918  0.882651  1
  F  F20  1  0.959430  0.479715  0.686958  1
  F  F21  1  0.222936  0.777064  0.549284  1
  F  F22  1  0.333333  0.666667  0.299169  1
  F  F23  1  0.006121  0.665039  0.382651  1
  F  F24  1  0.333333  0.666667  0.969091  1
  F  F25  1  0.658918  0.993879  0.382651  1
  F  F26  1  0.006121  0.341082  0.382651  1
  F  F27  1  0.520285  0.040570  0.686958  1
  F  F28  1  0.777064  0.554127  0.049284  1
  F  F29  1  0.993879  0.334961  0.882651  1
  F  F30  1  0.815777  0.184223  0.576986  1
  F  F31  1  0.222936  0.445873  0.549284  1
  F  F32  1  0.780422  0.890211  0.722590  1
  F  F33  1  0.665039  0.006121  0.882651  1
  F  F34  1  0.554127  0.777064  0.549284  1
  F  F35  1  0.109789  0.890211  0.722590  1
  F  F36  1  0.184223  0.815777  0.076986  1
  F  F37  1  0.890211  0.780422  0.222590  1
  F  F38  1  0.520285  0.479715  0.686958  1
  F  F39  1  0.219578  0.109789  0.222590  1
  F  F40  1  0.184223  0.368446  0.076986  1
  F  F41  1  0.334961  0.341082  0.382651  1
  F  F42  1  0.445873  0.222936  0.049284  1
  F  F43  1  0.658918  0.665039  0.382651  1
  F  F44  1  0.479715  0.520285  0.186958  1
  F  F45  1  0.040570  0.520285  0.186958  1
  F  F46  1  0.334961  0.993879  0.382651  1
  F  F47  1  0.815777  0.631554  0.576986  1
  F  F48  1  0.666667  0.333333  0.469091  1
  F  F49  1  0.341082  0.006121  0.882651  1
  F  F50  1  0.993879  0.658918  0.882651  1
  F  F51  1  0.368446  0.184223  0.576986  1
  F  F52  1  0.666667  0.333333  0.799169  1
  F  F53  1  0.890211  0.109789  0.222590  1
  F  F54  1  0.631554  0.815777  0.076986  1
  F  F55  1  0.479715  0.959430  0.186958  1
