# generated using pymatgen
data_Cs3Sb2I9
_symmetry_space_group_name_H-M   'P 1'
_cell_length_a   8.68717587
_cell_length_b   8.68717587
_cell_length_c   10.60345986
_cell_angle_alpha   90.00000000
_cell_angle_beta   90.00000000
_cell_angle_gamma   120.00000000
_symmetry_Int_Tables_number   1
_chemical_formula_structural   Cs3Sb2I9
_chemical_formula_sum   'Cs3 Sb2 I9'
_cell_volume   693.00354384
_cell_formula_units_Z   1
loop_
 _symmetry_equiv_pos_site_id
 _symmetry_equiv_pos_as_xyz
  1  'x, y, z'
loop_
 _atom_site_type_symbol
 _atom_site_label
 _atom_site_symmetry_multiplicity
 _atom_site_fract_x
 _atom_site_fract_y
 _atom_site_fract_z
 _atom_site_occupancy
  Cs  Cs0  1  0.000000  0.000000  0.000000  1
  Cs  Cs1  1  0.666667  0.333333  0.674296  1
  Cs  Cs2  1  0.333333  0.666667  0.325704  1
  Sb  Sb3  1  0.666667  0.333333  0.184634  1
  Sb  Sb4  1  0.333333  0.666667  0.815366  1
  I  I5  1  0.500000  0.500000  0.000000  1
  I  I6  1  0.500000  0.000000  0.000000  1
  I  I7  1  0.000000  0.500000  0.000000  1
  I  I8  1  0.171396  0.828604  0.664433  1
  I  I9  1  0.171396  0.342792  0.664433  1
  I  I10  1  0.657208  0.828604  0.664433  1
  I  I11  1  0.342792  0.171396  0.335567  1
  I  I12  1  0.828604  0.657208  0.335567  1
  I  I13  1  0.828604  0.171396  0.335567  1
