# generated using pymatgen
data_P2O2F3
_symmetry_space_group_name_H-M   'P 1'
_cell_length_a   13.23493668
_cell_length_b   13.23493668
_cell_length_c   9.54029966
_cell_angle_alpha   90.00000000
_cell_angle_beta   90.00000000
_cell_angle_gamma   120.00000000
_symmetry_Int_Tables_number   1
_chemical_formula_structural   P2O2F3
_chemical_formula_sum   'P24 O24 F36'
_cell_volume   1447.22609050
_cell_formula_units_Z   12
loop_
 _symmetry_equiv_pos_site_id
 _symmetry_equiv_pos_as_xyz
  1  'x, y, z'
loop_
 _atom_site_type_symbol
 _atom_site_label
 _atom_site_symmetry_multiplicity
 _atom_site_fract_x
 _atom_site_fract_y
 _atom_site_fract_z
 _atom_site_occupancy
  P  P0  1  0.333333  0.666667  0.966952  1
  P  P1  1  0.883393  0.435493  0.352326  1
  P  P2  1  0.000000  0.000000  0.421459  1
  P  P3  1  0.551209  0.763053  0.785744  1
  P  P4  1  0.939084  0.788064  0.099543  1
  P  P5  1  0.211844  0.763053  0.285744  1
  P  P6  1  0.211844  0.448791  0.785744  1
  P  P7  1  0.883393  0.447900  0.852326  1
  P  P8  1  0.666667  0.333333  0.532272  1
  P  P9  1  0.666667  0.333333  0.032272  1
  P  P10  1  0.939084  0.151020  0.599543  1
  P  P11  1  0.552100  0.116607  0.352326  1
  P  P12  1  0.848980  0.788064  0.599543  1
  P  P13  1  0.552100  0.435493  0.852326  1
  P  P14  1  0.564507  0.116607  0.852326  1
  P  P15  1  0.211936  0.060916  0.599543  1
  P  P16  1  0.211936  0.151020  0.099543  1
  P  P17  1  0.848980  0.060916  0.099543  1
  P  P18  1  0.333333  0.666667  0.466952  1
  P  P19  1  0.551209  0.788156  0.285744  1
  P  P20  1  0.236947  0.448791  0.285744  1
  P  P21  1  0.564507  0.447900  0.352326  1
  P  P22  1  0.000000  0.000000  0.921459  1
  P  P23  1  0.236947  0.788156  0.785744  1
  O  O24  1  0.644073  0.213183  0.469026  1
  O  O25  1  0.569110  0.355927  0.469026  1
  O  O26  1  0.921320  0.047723  0.484993  1
  O  O27  1  0.302433  0.543938  0.904106  1
  O  O28  1  0.786817  0.355927  0.969026  1
  O  O29  1  0.126403  0.047723  0.984993  1
  O  O30  1  0.302433  0.758494  0.404106  1
  O  O31  1  0.241506  0.543938  0.404106  1
  O  O32  1  0.644073  0.430890  0.969026  1
  O  O33  1  0.456062  0.697567  0.404106  1
  O  O34  1  0.921320  0.873597  0.984993  1
  O  O35  1  0.786817  0.430890  0.469026  1
  O  O36  1  0.333333  0.666667  0.121732  1
  O  O37  1  0.456062  0.758494  0.904106  1
  O  O38  1  0.126403  0.078680  0.484993  1
  O  O39  1  0.952277  0.078680  0.984993  1
  O  O40  1  0.000000  0.000000  0.766775  1
  O  O41  1  0.666667  0.333333  0.187039  1
  O  O42  1  0.241506  0.697567  0.904106  1
  O  O43  1  0.333333  0.666667  0.621732  1
  O  O44  1  0.000000  0.000000  0.266775  1
  O  O45  1  0.569110  0.213183  0.969026  1
  O  O46  1  0.666667  0.333333  0.687039  1
  O  O47  1  0.952277  0.873597  0.484993  1
  F  F48  1  0.451223  0.099569  0.770398  1
  F  F49  1  0.820223  0.747096  0.182253  1
  F  F50  1  0.510105  0.005687  0.453665  1
  F  F51  1  0.994313  0.504418  0.453665  1
  F  F52  1  0.926873  0.179777  0.182253  1
  F  F53  1  0.169642  0.832672  0.886154  1
  F  F54  1  0.123945  0.432184  0.204798  1
  F  F55  1  0.663030  0.830358  0.886154  1
  F  F56  1  0.663030  0.832672  0.386154  1
  F  F57  1  0.510105  0.504418  0.953665  1
  F  F58  1  0.323114  0.109877  0.497686  1
  F  F59  1  0.451223  0.351654  0.270398  1
  F  F60  1  0.648346  0.099569  0.270398  1
  F  F61  1  0.890123  0.213237  0.497686  1
  F  F62  1  0.323114  0.213237  0.997686  1
  F  F63  1  0.495582  0.005687  0.953665  1
  F  F64  1  0.495582  0.489895  0.453665  1
  F  F65  1  0.994313  0.489895  0.953665  1
  F  F66  1  0.567816  0.691762  0.204798  1
  F  F67  1  0.890123  0.676886  0.997686  1
  F  F68  1  0.252904  0.179777  0.682253  1
  F  F69  1  0.786763  0.109877  0.997686  1
  F  F70  1  0.167328  0.336970  0.886154  1
  F  F71  1  0.169642  0.336970  0.386154  1
  F  F72  1  0.252904  0.073127  0.182253  1
  F  F73  1  0.926873  0.747096  0.682253  1
  F  F74  1  0.900431  0.351654  0.770398  1
  F  F75  1  0.123945  0.691762  0.704798  1
  F  F76  1  0.167328  0.830358  0.386154  1
  F  F77  1  0.567816  0.876055  0.704798  1
  F  F78  1  0.308238  0.876055  0.204798  1
  F  F79  1  0.648346  0.548777  0.770398  1
  F  F80  1  0.786763  0.676886  0.497686  1
  F  F81  1  0.820223  0.073127  0.682253  1
  F  F82  1  0.900431  0.548777  0.270398  1
  F  F83  1  0.308238  0.432184  0.704798  1
