# generated using pymatgen
data_Rb2SiP4O13
_symmetry_space_group_name_H-M   'P 1'
_cell_length_a   4.92769498
_cell_length_b   7.87928314
_cell_length_c   15.46257645
_cell_angle_alpha   83.85597518
_cell_angle_beta   83.66929794
_cell_angle_gamma   81.82897748
_symmetry_Int_Tables_number   1
_chemical_formula_structural   Rb2SiP4O13
_chemical_formula_sum   'Rb4 Si2 P8 O26'
_cell_volume   588.09031205
_cell_formula_units_Z   2
loop_
 _symmetry_equiv_pos_site_id
 _symmetry_equiv_pos_as_xyz
  1  'x, y, z'
loop_
 _atom_site_type_symbol
 _atom_site_label
 _atom_site_symmetry_multiplicity
 _atom_site_fract_x
 _atom_site_fract_y
 _atom_site_fract_z
 _atom_site_occupancy
  Rb  Rb0  1  0.725420  0.696525  0.972203  1
  Rb  Rb1  1  0.274580  0.303475  0.027797  1
  Rb  Rb2  1  0.321891  0.257311  0.510684  1
  Rb  Rb3  1  0.678109  0.742689  0.489316  1
  Si  Si4  1  0.455220  0.056904  0.758400  1
  Si  Si5  1  0.544780  0.943097  0.241600  1
  P  P6  1  0.682750  0.319077  0.210756  1
  P  P7  1  0.317250  0.680923  0.789244  1
  P  P8  1  0.106645  0.794220  0.150059  1
  P  P9  1  0.328006  0.597648  0.305545  1
  P  P10  1  0.979988  0.089306  0.336558  1
  P  P11  1  0.020012  0.910694  0.663442  1
  P  P12  1  0.893355  0.205780  0.849941  1
  P  P13  1  0.671994  0.402352  0.694455  1
  O  O14  1  0.805575  0.276563  0.935681  1
  O  O15  1  0.289696  0.017797  0.327542  1
  O  O16  1  0.512430  0.590616  0.711560  1
  O  O17  1  0.487570  0.409384  0.288440  1
  O  O18  1  0.459461  0.274769  0.710752  1
  O  O19  1  0.798726  0.870878  0.156888  1
  O  O20  1  0.549370  0.161742  0.194487  1
  O  O21  1  0.194425  0.723437  0.064319  1
  O  O22  1  0.283707  0.928754  0.172707  1
  O  O23  1  0.716293  0.071246  0.827293  1
  O  O24  1  0.738174  0.437497  0.132005  1
  O  O25  1  0.450630  0.838258  0.805513  1
  O  O26  1  0.201274  0.129122  0.843112  1
  O  O27  1  0.710304  0.982203  0.672458  1
  O  O28  1  0.182604  0.580873  0.394609  1
  O  O29  1  0.115751  0.846883  0.576647  1
  O  O30  1  0.869861  0.362106  0.771006  1
  O  O31  1  0.046137  0.751490  0.741805  1
  O  O32  1  0.817396  0.419127  0.605391  1
  O  O33  1  0.540539  0.725231  0.289248  1
  O  O34  1  0.261826  0.562503  0.867995  1
  O  O35  1  0.953863  0.248510  0.258195  1
  O  O36  1  0.884249  0.153117  0.423353  1
  O  O37  1  0.806105  0.956027  0.310844  1
  O  O38  1  0.193895  0.043973  0.689156  1
  O  O39  1  0.130139  0.637894  0.228994  1
