# generated using pymatgen
data_PNClF
_symmetry_space_group_name_H-M   'P 1'
_cell_length_a   8.15397015
_cell_length_b   8.15397015
_cell_length_c   7.96907322
_cell_angle_alpha   90.00000000
_cell_angle_beta   90.00000000
_cell_angle_gamma   104.72194403
_symmetry_Int_Tables_number   1
_chemical_formula_structural   PNClF
_chemical_formula_sum   'P6 N6 Cl6 F6'
_cell_volume   512.44716008
_cell_formula_units_Z   6
loop_
 _symmetry_equiv_pos_site_id
 _symmetry_equiv_pos_as_xyz
  1  'x, y, z'
loop_
 _atom_site_type_symbol
 _atom_site_label
 _atom_site_symmetry_multiplicity
 _atom_site_fract_x
 _atom_site_fract_y
 _atom_site_fract_z
 _atom_site_occupancy
  P  P0  1  0.328131  0.328131  0.240719  1
  P  P1  1  0.914018  0.700101  0.988000  1
  P  P2  1  0.085982  0.299899  0.488000  1
  P  P3  1  0.299899  0.085982  0.488000  1
  P  P4  1  0.700101  0.914018  0.988000  1
  P  P5  1  0.671869  0.671869  0.740719  1
  N  N6  1  0.185459  0.397175  0.330946  1
  N  N7  1  0.814541  0.602825  0.830946  1
  N  N8  1  0.144590  0.144590  0.566225  1
  N  N9  1  0.397175  0.185459  0.330946  1
  N  N10  1  0.602825  0.814541  0.830946  1
  N  N11  1  0.855410  0.855410  0.066225  1
  Cl  Cl12  1  0.263174  0.263174  0.003472  1
  Cl  Cl13  1  0.837090  0.234503  0.443676  1
  Cl  Cl14  1  0.765497  0.162910  0.943676  1
  Cl  Cl15  1  0.162910  0.765497  0.943676  1
  Cl  Cl16  1  0.736826  0.736826  0.503472  1
  Cl  Cl17  1  0.234503  0.837090  0.443676  1
  F  F18  1  0.565826  0.906802  0.130689  1
  F  F19  1  0.434174  0.093198  0.630689  1
  F  F20  1  0.093198  0.434174  0.630689  1
  F  F21  1  0.516337  0.516337  0.708765  1
  F  F22  1  0.483663  0.483663  0.208765  1
  F  F23  1  0.906802  0.565826  0.130689  1
