# generated using pymatgen
data_SiO2
_symmetry_space_group_name_H-M   'P 1'
_cell_length_a   7.05919591
_cell_length_b   7.05919591
_cell_length_c   7.05919591
_cell_angle_alpha   137.76726518
_cell_angle_beta   107.90760457
_cell_angle_gamma   87.25427415
_symmetry_Int_Tables_number   1
_chemical_formula_structural   SiO2
_chemical_formula_sum   'Si4 O8'
_cell_volume   215.91939051
_cell_formula_units_Z   4
loop_
 _symmetry_equiv_pos_site_id
 _symmetry_equiv_pos_as_xyz
  1  'x, y, z'
loop_
 _atom_site_type_symbol
 _atom_site_label
 _atom_site_symmetry_multiplicity
 _atom_site_fract_x
 _atom_site_fract_y
 _atom_site_fract_z
 _atom_site_occupancy
  Si  Si0  1  0.744618  0.599913  0.143529  1
  Si  Si1  1  0.255382  0.398911  0.855294  1
  Si  Si2  1  0.043616  0.898911  0.143529  1
  Si  Si3  1  0.956384  0.099913  0.855294  1
  O  O4  1  0.870881  0.375734  0.094068  1
  O  O5  1  0.000000  0.931044  0.931044  1
  O  O6  1  0.781666  0.875734  0.504853  1
  O  O7  1  0.129119  0.223187  0.504853  1
  O  O8  1  0.172785  0.215792  0.888577  1
  O  O9  1  0.827215  0.715792  0.043006  1
  O  O10  1  0.500000  0.431044  0.931044  1
  O  O11  1  0.218334  0.723187  0.094068  1
