# generated using pymatgen
data_Cs3Cr2I9
_symmetry_space_group_name_H-M   'P 1'
_cell_length_a   10.92122183
_cell_length_b   10.92122183
_cell_length_c   10.92122183
_cell_angle_alpha   80.55468007
_cell_angle_beta   80.55468007
_cell_angle_gamma   80.55468007
_symmetry_Int_Tables_number   1
_chemical_formula_structural   Cs3Cr2I9
_chemical_formula_sum   'Cs6 Cr4 I18'
_cell_volume   1254.86943333
_cell_formula_units_Z   2
loop_
 _symmetry_equiv_pos_site_id
 _symmetry_equiv_pos_as_xyz
  1  'x, y, z'
loop_
 _atom_site_type_symbol
 _atom_site_label
 _atom_site_symmetry_multiplicity
 _atom_site_fract_x
 _atom_site_fract_y
 _atom_site_fract_z
 _atom_site_occupancy
  Cs  Cs0  1  0.750000  0.084058  0.415942  1
  Cs  Cs1  1  0.415942  0.750000  0.084058  1
  Cs  Cs2  1  0.084058  0.415942  0.750000  1
  Cs  Cs3  1  0.250000  0.915942  0.584058  1
  Cs  Cs4  1  0.584058  0.250000  0.915942  1
  Cs  Cs5  1  0.915942  0.584058  0.250000  1
  Cr  Cr6  1  0.166651  0.166651  0.166651  1
  Cr  Cr7  1  0.333349  0.333349  0.333349  1
  Cr  Cr8  1  0.833349  0.833349  0.833349  1
  Cr  Cr9  1  0.666651  0.666651  0.666651  1
  I  I10  1  0.750000  0.598015  0.901985  1
  I  I11  1  0.901985  0.750000  0.598015  1
  I  I12  1  0.598015  0.901985  0.750000  1
  I  I13  1  0.250000  0.401985  0.098015  1
  I  I14  1  0.098015  0.250000  0.401985  1
  I  I15  1  0.401985  0.098015  0.250000  1
  I  I16  1  0.897568  0.062552  0.739391  1
  I  I17  1  0.739391  0.897568  0.062552  1
  I  I18  1  0.062552  0.739391  0.897568  1
  I  I19  1  0.602432  0.760609  0.437448  1
  I  I20  1  0.437448  0.602432  0.760609  1
  I  I21  1  0.760609  0.437448  0.602432  1
  I  I22  1  0.102432  0.937448  0.260609  1
  I  I23  1  0.260609  0.102432  0.937448  1
  I  I24  1  0.937448  0.260609  0.102432  1
  I  I25  1  0.397568  0.239391  0.562552  1
  I  I26  1  0.562552  0.397568  0.239391  1
  I  I27  1  0.239391  0.562552  0.397568  1
