# generated using pymatgen
data_LiRe(OF2)2
_symmetry_space_group_name_H-M   'P 1'
_cell_length_a   4.83907743
_cell_length_b   4.83907743
_cell_length_c   9.06250436
_cell_angle_alpha   90.00000000
_cell_angle_beta   90.00000000
_cell_angle_gamma   90.00000000
_symmetry_Int_Tables_number   1
_chemical_formula_structural   LiRe(OF2)2
_chemical_formula_sum   'Li2 Re2 O4 F8'
_cell_volume   212.21367736
_cell_formula_units_Z   2
loop_
 _symmetry_equiv_pos_site_id
 _symmetry_equiv_pos_as_xyz
  1  'x, y, z'
loop_
 _atom_site_type_symbol
 _atom_site_label
 _atom_site_symmetry_multiplicity
 _atom_site_fract_x
 _atom_site_fract_y
 _atom_site_fract_z
 _atom_site_occupancy
  Li  Li0  1  0.500000  0.000000  0.418187  1
  Li  Li1  1  0.000000  0.500000  0.581813  1
  Re  Re2  1  0.500000  0.000000  0.774511  1
  Re  Re3  1  0.000000  0.500000  0.225489  1
  O  O4  1  0.694682  0.194682  0.892881  1
  O  O5  1  0.194682  0.305318  0.107119  1
  O  O6  1  0.305318  0.805318  0.892881  1
  O  O7  1  0.805318  0.694682  0.107119  1
  F  F8  1  0.815350  0.684650  0.404289  1
  F  F9  1  0.315350  0.815350  0.595711  1
  F  F10  1  0.184650  0.315350  0.404289  1
  F  F11  1  0.225543  0.274457  0.739487  1
  F  F12  1  0.774457  0.725543  0.739487  1
  F  F13  1  0.725543  0.225543  0.260513  1
  F  F14  1  0.274457  0.774457  0.260513  1
  F  F15  1  0.684650  0.184650  0.595711  1
