# generated using pymatgen
data_ZrCuH8C2NCl6
_symmetry_space_group_name_H-M   'P 1'
_cell_length_a   10.66930225
_cell_length_b   9.80709045
_cell_length_c   12.64673082
_cell_angle_alpha   90.00000000
_cell_angle_beta   109.74841838
_cell_angle_gamma   90.00000000
_symmetry_Int_Tables_number   1
_chemical_formula_structural   ZrCuH8C2NCl6
_chemical_formula_sum   'Zr4 Cu4 H32 C8 N4 Cl24'
_cell_volume   1245.45955583
_cell_formula_units_Z   4
loop_
 _symmetry_equiv_pos_site_id
 _symmetry_equiv_pos_as_xyz
  1  'x, y, z'
loop_
 _atom_site_type_symbol
 _atom_site_label
 _atom_site_symmetry_multiplicity
 _atom_site_fract_x
 _atom_site_fract_y
 _atom_site_fract_z
 _atom_site_occupancy
  Zr  Zr0  1  0.250530  0.752856  0.499338  1
  Zr  Zr1  1  0.749470  0.247144  0.500662  1
  Zr  Zr2  1  0.250530  0.747144  0.999338  1
  Zr  Zr3  1  0.749470  0.252856  0.000662  1
  Cu  Cu4  1  0.744330  0.299609  0.739250  1
  Cu  Cu5  1  0.744330  0.200391  0.239250  1
  Cu  Cu6  1  0.255670  0.799609  0.760750  1
  Cu  Cu7  1  0.255670  0.700391  0.260750  1
  H  H8  1  0.616023  0.607065  0.297080  1
  H  H9  1  0.673673  0.842830  0.637168  1
  H  H10  1  0.825569  0.625848  0.443393  1
  H  H11  1  0.787858  0.713263  0.714659  1
  H  H12  1  0.326327  0.157170  0.362832  1
  H  H13  1  0.326327  0.342830  0.862832  1
  H  H14  1  0.787858  0.786737  0.214659  1
  H  H15  1  0.616023  0.892935  0.797080  1
  H  H16  1  0.601997  0.726228  0.776314  1
  H  H17  1  0.174431  0.374152  0.556607  1
  H  H18  1  0.398003  0.273772  0.223686  1
  H  H19  1  0.383977  0.392935  0.702920  1
  H  H20  1  0.673673  0.657170  0.137168  1
  H  H21  1  0.212142  0.286737  0.285341  1
  H  H22  1  0.819795  0.692393  0.924451  1
  H  H23  1  0.383977  0.107065  0.202920  1
  H  H24  1  0.698836  0.776746  0.972614  1
  H  H25  1  0.177407  0.109672  0.251381  1
  H  H26  1  0.398003  0.226228  0.723686  1
  H  H27  1  0.174431  0.125848  0.056607  1
  H  H28  1  0.698836  0.723254  0.472614  1
  H  H29  1  0.180205  0.307607  0.075549  1
  H  H30  1  0.819795  0.807607  0.424451  1
  H  H31  1  0.601997  0.773772  0.276314  1
  H  H32  1  0.301164  0.276746  0.527386  1
  H  H33  1  0.177407  0.390328  0.751381  1
  H  H34  1  0.180205  0.192393  0.575549  1
  H  H35  1  0.212142  0.213263  0.785341  1
  H  H36  1  0.822593  0.890328  0.748619  1
  H  H37  1  0.301164  0.223254  0.027386  1
  H  H38  1  0.822593  0.609672  0.248619  1
  H  H39  1  0.825569  0.874152  0.943393  1
  C  C40  1  0.255780  0.313301  0.780886  1
  C  C41  1  0.255780  0.186699  0.280886  1
  C  C42  1  0.744220  0.813301  0.719114  1
  C  C43  1  0.760549  0.715121  0.419237  1
  C  C44  1  0.744220  0.686699  0.219114  1
  C  C45  1  0.239451  0.284879  0.580763  1
  C  C46  1  0.239451  0.215121  0.080763  1
  C  C47  1  0.760549  0.784879  0.919237  1
  N  N48  1  0.329170  0.195399  0.199250  1
  N  N49  1  0.670830  0.695399  0.300750  1
  N  N50  1  0.329170  0.304601  0.699250  1
  N  N51  1  0.670830  0.804601  0.800750  1
  Cl  Cl52  1  0.917286  0.080841  0.593520  1
  Cl  Cl53  1  0.598324  0.161312  0.604523  1
  Cl  Cl54  1  0.148221  0.573114  0.354636  1
  Cl  Cl55  1  0.851779  0.426886  0.645364  1
  Cl  Cl56  1  0.645180  0.427930  0.844476  1
  Cl  Cl57  1  0.851779  0.073114  0.145364  1
  Cl  Cl58  1  0.115162  0.663053  0.613472  1
  Cl  Cl59  1  0.401676  0.838688  0.395477  1
  Cl  Cl60  1  0.115162  0.836947  0.113472  1
  Cl  Cl61  1  0.884838  0.336947  0.386528  1
  Cl  Cl62  1  0.354820  0.927930  0.655524  1
  Cl  Cl63  1  0.884838  0.163053  0.886528  1
  Cl  Cl64  1  0.082714  0.580841  0.906480  1
  Cl  Cl65  1  0.645180  0.072070  0.344476  1
  Cl  Cl66  1  0.917286  0.419159  0.093520  1
  Cl  Cl67  1  0.563782  0.096251  0.894670  1
  Cl  Cl68  1  0.082714  0.919159  0.406480  1
  Cl  Cl69  1  0.436218  0.903749  0.105330  1
  Cl  Cl70  1  0.354820  0.572070  0.155524  1
  Cl  Cl71  1  0.598324  0.338688  0.104523  1
  Cl  Cl72  1  0.436218  0.596251  0.605330  1
  Cl  Cl73  1  0.401676  0.661312  0.895477  1
  Cl  Cl74  1  0.148221  0.926886  0.854636  1
  Cl  Cl75  1  0.563782  0.403749  0.394670  1
