# generated using pymatgen
data_TiSCl6O
_symmetry_space_group_name_H-M   'P 1'
_cell_length_a   6.89123763
_cell_length_b   22.02297927
_cell_length_c   7.58932013
_cell_angle_alpha   90.00000000
_cell_angle_beta   114.45362242
_cell_angle_gamma   90.00000000
_symmetry_Int_Tables_number   1
_chemical_formula_structural   TiSCl6O
_chemical_formula_sum   'Ti4 S4 Cl24 O4'
_cell_volume   1048.47748577
_cell_formula_units_Z   4
loop_
 _symmetry_equiv_pos_site_id
 _symmetry_equiv_pos_as_xyz
  1  'x, y, z'
loop_
 _atom_site_type_symbol
 _atom_site_label
 _atom_site_symmetry_multiplicity
 _atom_site_fract_x
 _atom_site_fract_y
 _atom_site_fract_z
 _atom_site_occupancy
  Ti  Ti0  1  0.493989  0.570646  0.846908  1
  Ti  Ti1  1  0.493989  0.929354  0.346908  1
  Ti  Ti2  1  0.506011  0.070646  0.653092  1
  Ti  Ti3  1  0.506011  0.429354  0.153092  1
  S  S4  1  0.871857  0.639708  0.321419  1
  S  S5  1  0.871857  0.860292  0.821419  1
  S  S6  1  0.128143  0.139708  0.178581  1
  S  S7  1  0.128143  0.360292  0.678581  1
  Cl  Cl8  1  0.252148  0.103473  0.738471  1
  Cl  Cl9  1  0.727308  0.467431  0.433167  1
  Cl  Cl10  1  0.897784  0.324826  0.759756  1
  Cl  Cl11  1  0.323386  0.842404  0.338881  1
  Cl  Cl12  1  0.897784  0.175174  0.259756  1
  Cl  Cl13  1  0.272692  0.967431  0.066833  1
  Cl  Cl14  1  0.272692  0.532569  0.566833  1
  Cl  Cl15  1  0.102216  0.824826  0.740244  1
  Cl  Cl16  1  0.727308  0.032569  0.933167  1
  Cl  Cl17  1  0.102216  0.675174  0.240244  1
  Cl  Cl18  1  0.252148  0.396527  0.238471  1
  Cl  Cl19  1  0.676614  0.157596  0.661119  1
  Cl  Cl20  1  0.291833  0.280359  0.683079  1
  Cl  Cl21  1  0.323386  0.657596  0.838881  1
  Cl  Cl22  1  0.308233  0.524993  0.035373  1
  Cl  Cl23  1  0.676614  0.342404  0.161119  1
  Cl  Cl24  1  0.708167  0.780359  0.816921  1
  Cl  Cl25  1  0.747852  0.896527  0.261529  1
  Cl  Cl26  1  0.747852  0.603473  0.761529  1
  Cl  Cl27  1  0.291833  0.219641  0.183079  1
  Cl  Cl28  1  0.308233  0.975007  0.535373  1
  Cl  Cl29  1  0.708167  0.719641  0.316921  1
  Cl  Cl30  1  0.691767  0.475007  0.964627  1
  Cl  Cl31  1  0.691767  0.024993  0.464627  1
  O  O32  1  0.270012  0.101068  0.336213  1
  O  O33  1  0.729988  0.601068  0.163787  1
  O  O34  1  0.270012  0.398932  0.836213  1
  O  O35  1  0.729988  0.898932  0.663787  1
