# generated using pymatgen
data_Ho3CuGeS7
_symmetry_space_group_name_H-M   'P 1'
_cell_length_a   9.81482521
_cell_length_b   9.81482521
_cell_length_c   5.84716770
_cell_angle_alpha   90.00000000
_cell_angle_beta   90.00000000
_cell_angle_gamma   120.00000000
_symmetry_Int_Tables_number   1
_chemical_formula_structural   Ho3CuGeS7
_chemical_formula_sum   'Ho6 Cu2 Ge2 S14'
_cell_volume   487.79946702
_cell_formula_units_Z   2
loop_
 _symmetry_equiv_pos_site_id
 _symmetry_equiv_pos_as_xyz
  1  'x, y, z'
loop_
 _atom_site_type_symbol
 _atom_site_label
 _atom_site_symmetry_multiplicity
 _atom_site_fract_x
 _atom_site_fract_y
 _atom_site_fract_z
 _atom_site_occupancy
  Ho  Ho0  1  0.641878  0.780095  0.750014  1
  Ho  Ho1  1  0.219905  0.861783  0.750014  1
  Ho  Ho2  1  0.138217  0.358122  0.750014  1
  Ho  Ho3  1  0.861783  0.641878  0.250014  1
  Ho  Ho4  1  0.780095  0.138217  0.250014  1
  Ho  Ho5  1  0.358122  0.219905  0.250014  1
  Cu  Cu6  1  0.000000  0.000000  0.686176  1
  Cu  Cu7  1  0.000000  0.000000  0.186176  1
  Ge  Ge8  1  0.666667  0.333333  0.830828  1
  Ge  Ge9  1  0.333333  0.666667  0.330828  1
  S  S10  1  0.156901  0.896144  0.204672  1
  S  S11  1  0.843099  0.103856  0.704672  1
  S  S12  1  0.666667  0.333333  0.452566  1
  S  S13  1  0.739242  0.843099  0.204672  1
  S  S14  1  0.424823  0.521176  0.493525  1
  S  S15  1  0.575177  0.478824  0.993525  1
  S  S16  1  0.103856  0.260758  0.204672  1
  S  S17  1  0.521176  0.096353  0.993525  1
  S  S18  1  0.903647  0.424823  0.993525  1
  S  S19  1  0.896144  0.739242  0.704672  1
  S  S20  1  0.260758  0.156901  0.704672  1
  S  S21  1  0.478824  0.903647  0.493525  1
  S  S22  1  0.333333  0.666667  0.952566  1
  S  S23  1  0.096353  0.575177  0.493525  1
