# generated using pymatgen
data_Ba3Ho2(PS4)4
_symmetry_space_group_name_H-M   'P 1'
_cell_length_a   10.41221307
_cell_length_b   12.74290688
_cell_length_c   19.43586901
_cell_angle_alpha   90.00000000
_cell_angle_beta   90.00000000
_cell_angle_gamma   90.00000000
_symmetry_Int_Tables_number   1
_chemical_formula_structural   Ba3Ho2(PS4)4
_chemical_formula_sum   'Ba12 Ho8 P16 S64'
_cell_volume   2578.78728139
_cell_formula_units_Z   4
loop_
 _symmetry_equiv_pos_site_id
 _symmetry_equiv_pos_as_xyz
  1  'x, y, z'
loop_
 _atom_site_type_symbol
 _atom_site_label
 _atom_site_symmetry_multiplicity
 _atom_site_fract_x
 _atom_site_fract_y
 _atom_site_fract_z
 _atom_site_occupancy
  Ba  Ba0  1  0.789816  0.108066  0.227054  1
  Ba  Ba1  1  0.116732  0.250000  0.000000  1
  Ba  Ba2  1  0.710184  0.891934  0.727054  1
  Ba  Ba3  1  0.883268  0.750000  0.000000  1
  Ba  Ba4  1  0.383268  0.750000  0.500000  1
  Ba  Ba5  1  0.289816  0.391934  0.727054  1
  Ba  Ba6  1  0.210184  0.891934  0.772946  1
  Ba  Ba7  1  0.789816  0.391934  0.772946  1
  Ba  Ba8  1  0.710184  0.608066  0.272946  1
  Ba  Ba9  1  0.289816  0.108066  0.272946  1
  Ba  Ba10  1  0.210184  0.608066  0.227054  1
  Ba  Ba11  1  0.616732  0.250000  0.500000  1
  Ho  Ho12  1  0.628388  0.387361  0.073335  1
  Ho  Ho13  1  0.628388  0.112639  0.926665  1
  Ho  Ho14  1  0.371612  0.612639  0.926665  1
  Ho  Ho15  1  0.871612  0.887361  0.426665  1
  Ho  Ho16  1  0.371612  0.887361  0.073335  1
  Ho  Ho17  1  0.871612  0.612639  0.573335  1
  Ho  Ho18  1  0.128388  0.387361  0.426665  1
  Ho  Ho19  1  0.128388  0.112639  0.573335  1
  P  P20  1  0.495653  0.360107  0.898122  1
  P  P21  1  0.936239  0.451428  0.130960  1
  P  P22  1  0.436239  0.451428  0.369040  1
  P  P23  1  0.936239  0.048572  0.869040  1
  P  P24  1  0.063761  0.548572  0.869040  1
  P  P25  1  0.563761  0.951428  0.369040  1
  P  P26  1  0.504347  0.860107  0.898122  1
  P  P27  1  0.495653  0.139893  0.101878  1
  P  P28  1  0.004347  0.860107  0.601878  1
  P  P29  1  0.563761  0.548572  0.630960  1
  P  P30  1  0.995653  0.360107  0.601878  1
  P  P31  1  0.995653  0.139893  0.398122  1
  P  P32  1  0.004347  0.639893  0.398122  1
  P  P33  1  0.504347  0.639893  0.101878  1
  P  P34  1  0.063761  0.951428  0.130960  1
  P  P35  1  0.436239  0.048572  0.630960  1
  S  S36  1  0.004234  0.485860  0.666529  1
  S  S37  1  0.121122  0.585330  0.967484  1
  S  S38  1  0.930046  0.612152  0.147186  1
  S  S39  1  0.709858  0.613778  0.690854  1
  S  S40  1  0.886148  0.894026  0.149642  1
  S  S41  1  0.435779  0.270216  0.150781  1
  S  S42  1  0.930046  0.887848  0.852814  1
  S  S43  1  0.111548  0.598349  0.483488  1
  S  S44  1  0.679354  0.169934  0.067752  1
  S  S45  1  0.621122  0.914670  0.467484  1
  S  S46  1  0.495766  0.985860  0.833471  1
  S  S47  1  0.069954  0.112152  0.147186  1
  S  S48  1  0.113852  0.105974  0.850358  1
  S  S49  1  0.878878  0.414670  0.032516  1
  S  S50  1  0.064221  0.770216  0.349219  1
  S  S51  1  0.320646  0.830066  0.932248  1
  S  S52  1  0.564221  0.770216  0.150781  1
  S  S53  1  0.290142  0.386222  0.309146  1
  S  S54  1  0.504234  0.014140  0.166529  1
  S  S55  1  0.378878  0.414670  0.467484  1
  S  S56  1  0.179354  0.169934  0.432248  1
  S  S57  1  0.430046  0.887848  0.647186  1
  S  S58  1  0.820646  0.669934  0.432248  1
  S  S59  1  0.430046  0.612152  0.352814  1
  S  S60  1  0.679354  0.330066  0.932248  1
  S  S61  1  0.388452  0.401651  0.983488  1
  S  S62  1  0.790142  0.113778  0.809146  1
  S  S63  1  0.386148  0.894026  0.350358  1
  S  S64  1  0.888452  0.098349  0.483488  1
  S  S65  1  0.064221  0.729784  0.650781  1
  S  S66  1  0.435779  0.229784  0.849219  1
  S  S67  1  0.388452  0.098349  0.016512  1
  S  S68  1  0.935779  0.270216  0.349219  1
  S  S69  1  0.290142  0.113778  0.690854  1
  S  S70  1  0.179354  0.330066  0.567752  1
  S  S71  1  0.004234  0.014140  0.333471  1
  S  S72  1  0.386148  0.605974  0.649642  1
  S  S73  1  0.935779  0.229784  0.650781  1
  S  S74  1  0.995766  0.514140  0.333471  1
  S  S75  1  0.569954  0.112152  0.352814  1
  S  S76  1  0.564221  0.729784  0.849219  1
  S  S77  1  0.820646  0.830066  0.567752  1
  S  S78  1  0.111548  0.901651  0.516512  1
  S  S79  1  0.621122  0.585330  0.532516  1
  S  S80  1  0.121122  0.914670  0.032516  1
  S  S81  1  0.790142  0.386222  0.190854  1
  S  S82  1  0.495766  0.514140  0.166529  1
  S  S83  1  0.378878  0.085330  0.532516  1
  S  S84  1  0.888452  0.401651  0.516512  1
  S  S85  1  0.886148  0.605974  0.850358  1
  S  S86  1  0.209858  0.886222  0.190854  1
  S  S87  1  0.613852  0.105974  0.649642  1
  S  S88  1  0.709858  0.886222  0.309146  1
  S  S89  1  0.209858  0.613778  0.809146  1
  S  S90  1  0.613852  0.394026  0.350358  1
  S  S91  1  0.569954  0.387848  0.647186  1
  S  S92  1  0.504234  0.485860  0.833471  1
  S  S93  1  0.069954  0.387848  0.852814  1
  S  S94  1  0.611548  0.901651  0.983488  1
  S  S95  1  0.320646  0.669934  0.067752  1
  S  S96  1  0.995766  0.985860  0.666529  1
  S  S97  1  0.113852  0.394026  0.149642  1
  S  S98  1  0.878878  0.085330  0.967484  1
  S  S99  1  0.611548  0.598349  0.016512  1
