# generated using pymatgen
data_TbSeClO3
_symmetry_space_group_name_H-M   'P 1'
_cell_length_a   7.05738886
_cell_length_b   7.33144066
_cell_length_c   8.91929706
_cell_angle_alpha   90.00000000
_cell_angle_beta   90.00000000
_cell_angle_gamma   90.00000000
_symmetry_Int_Tables_number   1
_chemical_formula_structural   TbSeClO3
_chemical_formula_sum   'Tb4 Se4 Cl4 O12'
_cell_volume   461.49181187
_cell_formula_units_Z   4
loop_
 _symmetry_equiv_pos_site_id
 _symmetry_equiv_pos_as_xyz
  1  'x, y, z'
loop_
 _atom_site_type_symbol
 _atom_site_label
 _atom_site_symmetry_multiplicity
 _atom_site_fract_x
 _atom_site_fract_y
 _atom_site_fract_z
 _atom_site_occupancy
  Tb  Tb0  1  0.250000  0.605890  0.960798  1
  Tb  Tb1  1  0.750000  0.394110  0.039202  1
  Tb  Tb2  1  0.250000  0.105890  0.539202  1
  Tb  Tb3  1  0.750000  0.894110  0.460798  1
  Se  Se4  1  0.750000  0.289769  0.632288  1
  Se  Se5  1  0.250000  0.210231  0.132288  1
  Se  Se6  1  0.750000  0.789769  0.867712  1
  Se  Se7  1  0.250000  0.710231  0.367712  1
  Cl  Cl8  1  0.750000  0.556593  0.318330  1
  Cl  Cl9  1  0.750000  0.056593  0.181670  1
  Cl  Cl10  1  0.250000  0.443407  0.681670  1
  Cl  Cl11  1  0.250000  0.943407  0.818330  1
  O  O12  1  0.573153  0.141583  0.567326  1
  O  O13  1  0.073153  0.858417  0.432674  1
  O  O14  1  0.250000  0.251845  0.319933  1
  O  O15  1  0.926847  0.141583  0.567326  1
  O  O16  1  0.426847  0.358417  0.067326  1
  O  O17  1  0.926847  0.641583  0.932674  1
  O  O18  1  0.750000  0.748155  0.680067  1
  O  O19  1  0.250000  0.751845  0.180067  1
  O  O20  1  0.426847  0.858417  0.432674  1
  O  O21  1  0.073153  0.358417  0.067326  1
  O  O22  1  0.750000  0.248155  0.819933  1
  O  O23  1  0.573153  0.641583  0.932674  1
