# generated using pymatgen
data_Zn2B2PbO6
_symmetry_space_group_name_H-M   'P 1'
_cell_length_a   5.03378791
_cell_length_b   10.74116994
_cell_length_c   11.52302094
_cell_angle_alpha   90.00000000
_cell_angle_beta   90.00000000
_cell_angle_gamma   90.00000000
_symmetry_Int_Tables_number   1
_chemical_formula_structural   Zn2B2PbO6
_chemical_formula_sum   'Zn8 B8 Pb4 O24'
_cell_volume   623.03558485
_cell_formula_units_Z   4
loop_
 _symmetry_equiv_pos_site_id
 _symmetry_equiv_pos_as_xyz
  1  'x, y, z'
loop_
 _atom_site_type_symbol
 _atom_site_label
 _atom_site_symmetry_multiplicity
 _atom_site_fract_x
 _atom_site_fract_y
 _atom_site_fract_z
 _atom_site_occupancy
  Zn  Zn0  1  0.181173  0.349585  0.500729  1
  Zn  Zn1  1  0.681173  0.650415  0.000729  1
  Zn  Zn2  1  0.318827  0.849585  0.500729  1
  Zn  Zn3  1  0.818827  0.650415  0.499271  1
  Zn  Zn4  1  0.318827  0.349585  0.999271  1
  Zn  Zn5  1  0.818827  0.150415  0.000729  1
  Zn  Zn6  1  0.681173  0.150415  0.499271  1
  Zn  Zn7  1  0.181173  0.849585  0.999271  1
  B  B8  1  0.693729  0.915944  0.101710  1
  B  B9  1  0.306271  0.584056  0.601710  1
  B  B10  1  0.306271  0.084056  0.898290  1
  B  B11  1  0.806271  0.415944  0.101710  1
  B  B12  1  0.193729  0.584056  0.898290  1
  B  B13  1  0.693729  0.415944  0.398290  1
  B  B14  1  0.806271  0.915944  0.398290  1
  B  B15  1  0.193729  0.084056  0.601710  1
  Pb  Pb16  1  0.250000  0.059410  0.250000  1
  Pb  Pb17  1  0.750000  0.940590  0.750000  1
  Pb  Pb18  1  0.250000  0.559410  0.250000  1
  Pb  Pb19  1  0.750000  0.440590  0.750000  1
  O  O20  1  0.660384  0.022526  0.376525  1
  O  O21  1  0.339616  0.977474  0.623475  1
  O  O22  1  0.318148  0.686865  0.946811  1
  O  O23  1  0.318148  0.186865  0.553189  1
  O  O24  1  0.339616  0.477474  0.876525  1
  O  O25  1  0.681852  0.313135  0.053189  1
  O  O26  1  0.839616  0.522526  0.376525  1
  O  O27  1  0.681852  0.813135  0.446811  1
  O  O28  1  0.577971  0.089439  0.875356  1
  O  O29  1  0.922029  0.589439  0.875356  1
  O  O30  1  0.660384  0.522526  0.123475  1
  O  O31  1  0.160384  0.977474  0.876525  1
  O  O32  1  0.181852  0.186865  0.946811  1
  O  O33  1  0.922029  0.089439  0.624644  1
  O  O34  1  0.181852  0.686865  0.553189  1
  O  O35  1  0.577971  0.589439  0.624644  1
  O  O36  1  0.077971  0.410561  0.124644  1
  O  O37  1  0.422029  0.410561  0.375356  1
  O  O38  1  0.160384  0.477474  0.623475  1
  O  O39  1  0.818148  0.813135  0.053189  1
  O  O40  1  0.077971  0.910561  0.375356  1
  O  O41  1  0.839616  0.022526  0.123475  1
  O  O42  1  0.818148  0.313135  0.446811  1
  O  O43  1  0.422029  0.910561  0.124644  1
