# generated using pymatgen
data_V4S9Br4
_symmetry_space_group_name_H-M   'P 1'
_cell_length_a   11.00248781
_cell_length_b   11.00248781
_cell_length_c   7.33442970
_cell_angle_alpha   90.00000000
_cell_angle_beta   90.00000000
_cell_angle_gamma   90.00000000
_symmetry_Int_Tables_number   1
_chemical_formula_structural   V4S9Br4
_chemical_formula_sum   'V8 S18 Br8'
_cell_volume   887.86746578
_cell_formula_units_Z   2
loop_
 _symmetry_equiv_pos_site_id
 _symmetry_equiv_pos_as_xyz
  1  'x, y, z'
loop_
 _atom_site_type_symbol
 _atom_site_label
 _atom_site_symmetry_multiplicity
 _atom_site_fract_x
 _atom_site_fract_y
 _atom_site_fract_z
 _atom_site_occupancy
  V  V0  1  0.635201  0.135201  0.376533  1
  V  V1  1  0.135201  0.635201  0.623467  1
  V  V2  1  0.364799  0.864799  0.376533  1
  V  V3  1  0.135201  0.364799  0.623467  1
  V  V4  1  0.864799  0.635201  0.623467  1
  V  V5  1  0.635201  0.864799  0.376533  1
  V  V6  1  0.364799  0.135201  0.376533  1
  V  V7  1  0.864799  0.364799  0.623467  1
  S  S8  1  0.000000  0.288347  0.848929  1
  S  S9  1  0.805003  0.000000  0.389134  1
  S  S10  1  0.194997  0.000000  0.389134  1
  S  S11  1  0.694997  0.500000  0.610866  1
  S  S12  1  0.788347  0.500000  0.848929  1
  S  S13  1  0.711653  0.000000  0.151071  1
  S  S14  1  0.500000  0.000000  0.522987  1
  S  S15  1  0.288347  0.000000  0.151071  1
  S  S16  1  0.500000  0.305003  0.389134  1
  S  S17  1  0.305003  0.500000  0.610866  1
  S  S18  1  0.500000  0.788347  0.151071  1
  S  S19  1  0.000000  0.805003  0.610866  1
  S  S20  1  0.000000  0.500000  0.477013  1
  S  S21  1  0.500000  0.694997  0.389134  1
  S  S22  1  0.500000  0.211653  0.151071  1
  S  S23  1  0.000000  0.194997  0.610866  1
  S  S24  1  0.211653  0.500000  0.848929  1
  S  S25  1  0.000000  0.711653  0.848929  1
  Br  Br26  1  0.301188  0.801188  0.710089  1
  Br  Br27  1  0.801188  0.698812  0.289911  1
  Br  Br28  1  0.698812  0.198812  0.710089  1
  Br  Br29  1  0.801188  0.301188  0.289911  1
  Br  Br30  1  0.198812  0.301188  0.289911  1
  Br  Br31  1  0.301188  0.198812  0.710089  1
  Br  Br32  1  0.698812  0.801188  0.710089  1
  Br  Br33  1  0.198812  0.698812  0.289911  1
