# generated using pymatgen
data_MnH8(BrO2)2
_symmetry_space_group_name_H-M   'P 1'
_cell_length_a   6.33405593
_cell_length_b   9.93225423
_cell_length_c   12.40654745
_cell_angle_alpha   90.00000000
_cell_angle_beta   111.79365891
_cell_angle_gamma   90.00000000
_symmetry_Int_Tables_number   1
_chemical_formula_structural   MnH8(BrO2)2
_chemical_formula_sum   'Mn4 H32 Br8 O16'
_cell_volume   724.72820315
_cell_formula_units_Z   4
loop_
 _symmetry_equiv_pos_site_id
 _symmetry_equiv_pos_as_xyz
  1  'x, y, z'
loop_
 _atom_site_type_symbol
 _atom_site_label
 _atom_site_symmetry_multiplicity
 _atom_site_fract_x
 _atom_site_fract_y
 _atom_site_fract_z
 _atom_site_occupancy
  Mn  Mn0  1  0.747543  0.831767  0.764237  1
  Mn  Mn1  1  0.252457  0.331767  0.735763  1
  Mn  Mn2  1  0.252457  0.168233  0.235763  1
  Mn  Mn3  1  0.747543  0.668233  0.264237  1
  H  H4  1  0.004210  0.851823  0.622067  1
  H  H5  1  0.995790  0.351823  0.877933  1
  H  H6  1  0.995790  0.148177  0.377933  1
  H  H7  1  0.004210  0.648177  0.122067  1
  H  H8  1  0.066802  0.978956  0.701198  1
  H  H9  1  0.933198  0.478956  0.798802  1
  H  H10  1  0.933198  0.021044  0.298802  1
  H  H11  1  0.066802  0.521044  0.201198  1
  H  H12  1  0.522281  0.797398  0.916515  1
  H  H13  1  0.477719  0.297398  0.583485  1
  H  H14  1  0.477719  0.202602  0.083485  1
  H  H15  1  0.522281  0.702602  0.416515  1
  H  H16  1  0.324695  0.804337  0.792985  1
  H  H17  1  0.675305  0.304337  0.707015  1
  H  H18  1  0.675305  0.195663  0.207015  1
  H  H19  1  0.324695  0.695663  0.292985  1
  H  H20  1  0.712559  0.067359  0.888239  1
  H  H21  1  0.287441  0.567359  0.611761  1
  H  H22  1  0.287441  0.932641  0.111761  1
  H  H23  1  0.712559  0.432641  0.388239  1
  H  H24  1  0.972261  0.064383  0.898738  1
  H  H25  1  0.027739  0.564383  0.601262  1
  H  H26  1  0.027739  0.935617  0.101262  1
  H  H27  1  0.972261  0.435617  0.398738  1
  H  H28  1  0.373788  0.936508  0.566600  1
  H  H29  1  0.626212  0.436508  0.933400  1
  H  H30  1  0.626212  0.063492  0.433400  1
  H  H31  1  0.373788  0.563492  0.066600  1
  H  H32  1  0.501937  0.063616  0.641363  1
  H  H33  1  0.498063  0.563616  0.858637  1
  H  H34  1  0.498063  0.936384  0.358637  1
  H  H35  1  0.501937  0.436384  0.141363  1
  Br  Br36  1  0.032529  0.684799  0.941528  1
  Br  Br37  1  0.967471  0.184799  0.558472  1
  Br  Br38  1  0.967471  0.315201  0.058472  1
  Br  Br39  1  0.032529  0.815201  0.441528  1
  Br  Br40  1  0.649211  0.633017  0.610238  1
  Br  Br41  1  0.350789  0.133017  0.889762  1
  Br  Br42  1  0.350789  0.366983  0.389762  1
  Br  Br43  1  0.649211  0.866983  0.110238  1
  O  O44  1  0.039615  0.881327  0.703561  1
  O  O45  1  0.960385  0.381327  0.796439  1
  O  O46  1  0.960385  0.118673  0.296439  1
  O  O47  1  0.039615  0.618673  0.203561  1
  O  O48  1  0.480838  0.769321  0.834429  1
  O  O49  1  0.519162  0.269321  0.665571  1
  O  O50  1  0.519162  0.230679  0.165571  1
  O  O51  1  0.480838  0.730679  0.334429  1
  O  O52  1  0.824382  0.019366  0.864302  1
  O  O53  1  0.175618  0.519366  0.635698  1
  O  O54  1  0.175618  0.980634  0.135698  1
  O  O55  1  0.824382  0.480634  0.364302  1
  O  O56  1  0.509964  0.965542  0.632025  1
  O  O57  1  0.490036  0.465542  0.867975  1
  O  O58  1  0.490036  0.034458  0.367975  1
  O  O59  1  0.509964  0.534458  0.132025  1
