# generated using pymatgen
data_Ba5Hf4S13
_symmetry_space_group_name_H-M   'P 1'
_cell_length_a   23.15322748
_cell_length_b   23.15322748
_cell_length_c   23.15322748
_cell_angle_alpha   167.59249230
_cell_angle_beta   167.59249230
_cell_angle_gamma   17.58149706
_symmetry_Int_Tables_number   1
_chemical_formula_structural   Ba5Hf4S13
_chemical_formula_sum   'Ba5 Hf4 S13'
_cell_volume   572.96591992
_cell_formula_units_Z   1
loop_
 _symmetry_equiv_pos_site_id
 _symmetry_equiv_pos_as_xyz
  1  'x, y, z'
loop_
 _atom_site_type_symbol
 _atom_site_label
 _atom_site_symmetry_multiplicity
 _atom_site_fract_x
 _atom_site_fract_y
 _atom_site_fract_z
 _atom_site_occupancy
  Ba  Ba0  1  0.710949  0.710949  0.000000  1
  Ba  Ba1  1  0.607379  0.607379  0.000000  1
  Ba  Ba2  1  0.289051  0.289051  0.000000  1
  Ba  Ba3  1  0.500000  0.500000  0.000000  1
  Ba  Ba4  1  0.392621  0.392621  0.000000  1
  Hf  Hf5  1  0.833767  0.833767  0.000000  1
  Hf  Hf6  1  0.055193  0.055193  0.000000  1
  Hf  Hf7  1  0.166233  0.166233  0.000000  1
  Hf  Hf8  1  0.944807  0.944807  0.000000  1
  S  S9  1  0.890161  0.890161  0.000000  1
  S  S10  1  0.336504  0.836504  0.500000  1
  S  S11  1  0.445168  0.945168  0.500000  1
  S  S12  1  0.054832  0.554832  0.500000  1
  S  S13  1  0.109839  0.109839  0.000000  1
  S  S14  1  0.779400  0.779400  0.000000  1
  S  S15  1  0.220600  0.220600  0.000000  1
  S  S16  1  0.836504  0.336504  0.500000  1
  S  S17  1  0.163496  0.663496  0.500000  1
  S  S18  1  0.945168  0.445168  0.500000  1
  S  S19  1  0.663496  0.163496  0.500000  1
  S  S20  1  0.000000  0.000000  0.000000  1
  S  S21  1  0.554832  0.054832  0.500000  1
