# generated using pymatgen
data_TcSO6F
_symmetry_space_group_name_H-M   'P 1'
_cell_length_a   7.31762711
_cell_length_b   8.34948675
_cell_length_c   9.25496757
_cell_angle_alpha   90.00000000
_cell_angle_beta   97.27270858
_cell_angle_gamma   90.00000000
_symmetry_Int_Tables_number   1
_chemical_formula_structural   TcSO6F
_chemical_formula_sum   'Tc4 S4 O24 F4'
_cell_volume   560.91475348
_cell_formula_units_Z   4
loop_
 _symmetry_equiv_pos_site_id
 _symmetry_equiv_pos_as_xyz
  1  'x, y, z'
loop_
 _atom_site_type_symbol
 _atom_site_label
 _atom_site_symmetry_multiplicity
 _atom_site_fract_x
 _atom_site_fract_y
 _atom_site_fract_z
 _atom_site_occupancy
  Tc  Tc0  1  0.254072  0.653172  0.345814  1
  Tc  Tc1  1  0.254072  0.846828  0.845814  1
  Tc  Tc2  1  0.745928  0.346828  0.654186  1
  Tc  Tc3  1  0.745928  0.153172  0.154186  1
  S  S4  1  0.085301  0.224857  0.926352  1
  S  S5  1  0.914699  0.775143  0.073648  1
  S  S6  1  0.085301  0.275143  0.426352  1
  S  S7  1  0.914699  0.724857  0.573648  1
  O  O8  1  0.412721  0.904431  0.736463  1
  O  O9  1  0.966349  0.151827  0.352705  1
  O  O10  1  0.351936  0.889446  0.018896  1
  O  O11  1  0.971198  0.834925  0.938335  1
  O  O12  1  0.033651  0.848173  0.647295  1
  O  O13  1  0.028802  0.165075  0.061665  1
  O  O14  1  0.587279  0.095569  0.263537  1
  O  O15  1  0.648064  0.389446  0.481104  1
  O  O16  1  0.648064  0.110554  0.981104  1
  O  O17  1  0.351936  0.610554  0.518896  1
  O  O18  1  0.028802  0.334925  0.561665  1
  O  O19  1  0.748603  0.357027  0.162713  1
  O  O20  1  0.251397  0.642973  0.837287  1
  O  O21  1  0.140099  0.102312  0.828019  1
  O  O22  1  0.251397  0.857027  0.337287  1
  O  O23  1  0.859901  0.897688  0.171981  1
  O  O24  1  0.412721  0.595569  0.236463  1
  O  O25  1  0.971198  0.665075  0.438335  1
  O  O26  1  0.033651  0.651827  0.147295  1
  O  O27  1  0.140099  0.397688  0.328019  1
  O  O28  1  0.587279  0.404431  0.763537  1
  O  O29  1  0.748603  0.142973  0.662713  1
  O  O30  1  0.966349  0.348173  0.852705  1
  O  O31  1  0.859901  0.602312  0.671981  1
  F  F32  1  0.731684  0.818059  0.520495  1
  F  F33  1  0.268316  0.318059  0.979505  1
  F  F34  1  0.731684  0.681941  0.020495  1
  F  F35  1  0.268316  0.181941  0.479505  1
