# generated using pymatgen
data_KBi(PO3)4
_symmetry_space_group_name_H-M   'P 1'
_cell_length_a   10.62004150
_cell_length_b   9.12823940
_cell_length_c   12.96812012
_cell_angle_alpha   90.00000000
_cell_angle_beta   125.97438338
_cell_angle_gamma   90.00000000
_symmetry_Int_Tables_number   1
_chemical_formula_structural   KBi(PO3)4
_chemical_formula_sum   'K4 Bi4 P16 O48'
_cell_volume   1017.39338934
_cell_formula_units_Z   4
loop_
 _symmetry_equiv_pos_site_id
 _symmetry_equiv_pos_as_xyz
  1  'x, y, z'
loop_
 _atom_site_type_symbol
 _atom_site_label
 _atom_site_symmetry_multiplicity
 _atom_site_fract_x
 _atom_site_fract_y
 _atom_site_fract_z
 _atom_site_occupancy
  K  K0  1  0.247964  0.928342  0.954265  1
  K  K1  1  0.247964  0.571658  0.454265  1
  K  K2  1  0.752036  0.428342  0.545735  1
  K  K3  1  0.752036  0.071658  0.045735  1
  Bi  Bi4  1  0.184960  0.224686  0.685161  1
  Bi  Bi5  1  0.815040  0.775314  0.314839  1
  Bi  Bi6  1  0.815040  0.724686  0.814839  1
  Bi  Bi7  1  0.184960  0.275314  0.185161  1
  P  P8  1  0.303728  0.106123  0.482922  1
  P  P9  1  0.480674  0.976360  0.734175  1
  P  P10  1  0.696272  0.893877  0.517078  1
  P  P11  1  0.182565  0.671068  0.143442  1
  P  P12  1  0.182565  0.828932  0.643442  1
  P  P13  1  0.480674  0.523640  0.234175  1
  P  P14  1  0.696272  0.606123  0.017078  1
  P  P15  1  0.817435  0.171068  0.356558  1
  P  P16  1  0.883702  0.406001  0.239541  1
  P  P17  1  0.883702  0.093999  0.739541  1
  P  P18  1  0.116298  0.906001  0.260459  1
  P  P19  1  0.519326  0.476360  0.765825  1
  P  P20  1  0.303728  0.393877  0.982922  1
  P  P21  1  0.519326  0.023640  0.265825  1
  P  P22  1  0.817435  0.328932  0.856558  1
  P  P23  1  0.116298  0.593999  0.760459  1
  O  O24  1  0.648463  0.153380  0.329360  1
  O  O25  1  0.772316  0.205399  0.750330  1
  O  O26  1  0.861471  0.034937  0.319128  1
  O  O27  1  0.010741  0.317820  0.251546  1
  O  O28  1  0.536818  0.546748  0.888604  1
  O  O29  1  0.070115  0.465140  0.672767  1
  O  O30  1  0.463182  0.453252  0.111396  1
  O  O31  1  0.079167  0.763286  0.512616  1
  O  O32  1  0.929885  0.965140  0.827233  1
  O  O33  1  0.772316  0.294601  0.250330  1
  O  O34  1  0.243215  0.548042  0.906478  1
  O  O35  1  0.194681  0.347574  0.014863  1
  O  O36  1  0.070115  0.034860  0.172767  1
  O  O37  1  0.351537  0.846620  0.670640  1
  O  O38  1  0.138529  0.534937  0.180872  1
  O  O39  1  0.138529  0.965063  0.680872  1
  O  O40  1  0.929885  0.534860  0.327233  1
  O  O41  1  0.559086  0.913387  0.202334  1
  O  O42  1  0.243215  0.951958  0.406478  1
  O  O43  1  0.360248  0.090768  0.183360  1
  O  O44  1  0.536818  0.953252  0.388604  1
  O  O45  1  0.351537  0.653380  0.170640  1
  O  O46  1  0.227684  0.794601  0.249670  1
  O  O47  1  0.657263  0.787611  0.582908  1
  O  O48  1  0.920833  0.263286  0.987384  1
  O  O49  1  0.079167  0.736714  0.012616  1
  O  O50  1  0.639752  0.590768  0.316640  1
  O  O51  1  0.989259  0.682180  0.748454  1
  O  O52  1  0.756785  0.048042  0.593522  1
  O  O53  1  0.805319  0.652426  0.985137  1
  O  O54  1  0.440914  0.413387  0.297666  1
  O  O55  1  0.342737  0.212389  0.417092  1
  O  O56  1  0.559086  0.586613  0.702334  1
  O  O57  1  0.342737  0.287611  0.917092  1
  O  O58  1  0.648463  0.346620  0.829360  1
  O  O59  1  0.920833  0.236714  0.487384  1
  O  O60  1  0.657263  0.712389  0.082908  1
  O  O61  1  0.360248  0.409232  0.683360  1
  O  O62  1  0.463182  0.046748  0.611396  1
  O  O63  1  0.440914  0.086613  0.797666  1
  O  O64  1  0.989259  0.817820  0.248454  1
  O  O65  1  0.227684  0.705399  0.749670  1
  O  O66  1  0.010741  0.182180  0.751546  1
  O  O67  1  0.861471  0.465063  0.819128  1
  O  O68  1  0.639752  0.909232  0.816640  1
  O  O69  1  0.756785  0.451958  0.093522  1
  O  O70  1  0.194681  0.152426  0.514863  1
  O  O71  1  0.805319  0.847574  0.485137  1
