# generated using pymatgen
data_RbCr2BiO8
_symmetry_space_group_name_H-M   'P 1'
_cell_length_a   5.76568717
_cell_length_b   10.25961559
_cell_length_c   13.45428063
_cell_angle_alpha   90.00000000
_cell_angle_beta   90.00000000
_cell_angle_gamma   90.00000000
_symmetry_Int_Tables_number   1
_chemical_formula_structural   RbCr2BiO8
_chemical_formula_sum   'Rb4 Cr8 Bi4 O32'
_cell_volume   795.87093723
_cell_formula_units_Z   4
loop_
 _symmetry_equiv_pos_site_id
 _symmetry_equiv_pos_as_xyz
  1  'x, y, z'
loop_
 _atom_site_type_symbol
 _atom_site_label
 _atom_site_symmetry_multiplicity
 _atom_site_fract_x
 _atom_site_fract_y
 _atom_site_fract_z
 _atom_site_occupancy
  Rb  Rb0  1  0.250000  0.580374  0.750000  1
  Rb  Rb1  1  0.250000  0.919626  0.250000  1
  Rb  Rb2  1  0.750000  0.080374  0.750000  1
  Rb  Rb3  1  0.750000  0.419626  0.250000  1
  Cr  Cr4  1  0.734635  0.414542  0.917372  1
  Cr  Cr5  1  0.265365  0.585458  0.082628  1
  Cr  Cr6  1  0.734635  0.085458  0.082628  1
  Cr  Cr7  1  0.265365  0.914542  0.917372  1
  Cr  Cr8  1  0.234635  0.914542  0.582628  1
  Cr  Cr9  1  0.765365  0.414542  0.582628  1
  Cr  Cr10  1  0.765365  0.085458  0.417372  1
  Cr  Cr11  1  0.234635  0.585458  0.417372  1
  Bi  Bi12  1  0.295737  0.250000  0.500000  1
  Bi  Bi13  1  0.795737  0.750000  0.000000  1
  Bi  Bi14  1  0.204263  0.250000  0.000000  1
  Bi  Bi15  1  0.704263  0.750000  0.500000  1
  O  O16  1  0.472658  0.340388  0.900421  1
  O  O17  1  0.816768  0.102346  0.966898  1
  O  O18  1  0.059636  0.655052  0.149997  1
  O  O19  1  0.940364  0.155052  0.149997  1
  O  O20  1  0.210853  0.425901  0.389927  1
  O  O21  1  0.972658  0.840388  0.599579  1
  O  O22  1  0.289147  0.074099  0.889927  1
  O  O23  1  0.316768  0.602346  0.533102  1
  O  O24  1  0.183232  0.897654  0.033102  1
  O  O25  1  0.559636  0.344948  0.649997  1
  O  O26  1  0.816768  0.397654  0.033102  1
  O  O27  1  0.683232  0.397654  0.466898  1
  O  O28  1  0.527342  0.840388  0.900421  1
  O  O29  1  0.559636  0.155052  0.350003  1
  O  O30  1  0.440364  0.655052  0.350003  1
  O  O31  1  0.210853  0.074099  0.610073  1
  O  O32  1  0.183232  0.602346  0.966898  1
  O  O33  1  0.710853  0.925901  0.110073  1
  O  O34  1  0.472658  0.159612  0.099579  1
  O  O35  1  0.972658  0.659612  0.400421  1
  O  O36  1  0.940364  0.344948  0.850003  1
  O  O37  1  0.789147  0.925901  0.389927  1
  O  O38  1  0.789147  0.574099  0.610073  1
  O  O39  1  0.059636  0.844948  0.850003  1
  O  O40  1  0.683232  0.102346  0.533102  1
  O  O41  1  0.027342  0.340388  0.599579  1
  O  O42  1  0.289147  0.425901  0.110073  1
  O  O43  1  0.440364  0.844948  0.649997  1
  O  O44  1  0.027342  0.159612  0.400421  1
  O  O45  1  0.710853  0.574099  0.889927  1
  O  O46  1  0.316768  0.897654  0.466898  1
  O  O47  1  0.527342  0.659612  0.099579  1
