# generated using pymatgen
data_KNd(SO4)2
_symmetry_space_group_name_H-M   'P 1'
_cell_length_a   5.43518121
_cell_length_b   7.02535237
_cell_length_c   9.18454502
_cell_angle_alpha   97.60671639
_cell_angle_beta   92.44854756
_cell_angle_gamma   90.98263276
_symmetry_Int_Tables_number   1
_chemical_formula_structural   KNd(SO4)2
_chemical_formula_sum   'K2 Nd2 S4 O16'
_cell_volume   347.20759418
_cell_formula_units_Z   2
loop_
 _symmetry_equiv_pos_site_id
 _symmetry_equiv_pos_as_xyz
  1  'x, y, z'
loop_
 _atom_site_type_symbol
 _atom_site_label
 _atom_site_symmetry_multiplicity
 _atom_site_fract_x
 _atom_site_fract_y
 _atom_site_fract_z
 _atom_site_occupancy
  K  K0  1  0.725343  0.177653  0.184745  1
  K  K1  1  0.274657  0.822347  0.815255  1
  Nd  Nd2  1  0.246844  0.696210  0.279466  1
  Nd  Nd3  1  0.753156  0.303790  0.720534  1
  S  S4  1  0.236755  0.315793  0.927325  1
  S  S5  1  0.771473  0.776069  0.559794  1
  S  S6  1  0.763245  0.684207  0.072675  1
  S  S7  1  0.228527  0.223931  0.440206  1
  O  O8  1  0.728026  0.569449  0.926894  1
  O  O9  1  0.309182  0.397025  0.375989  1
  O  O10  1  0.690818  0.602975  0.624011  1
  O  O11  1  0.024846  0.748911  0.505230  1
  O  O12  1  0.222339  0.056389  0.322025  1
  O  O13  1  0.459123  0.195696  0.897977  1
  O  O14  1  0.986863  0.812899  0.078551  1
  O  O15  1  0.197747  0.437066  0.806300  1
  O  O16  1  0.975154  0.251089  0.494770  1
  O  O17  1  0.540877  0.804304  0.102023  1
  O  O18  1  0.802253  0.562934  0.193700  1
  O  O19  1  0.271974  0.430551  0.073106  1
  O  O20  1  0.013137  0.187101  0.921449  1
  O  O21  1  0.777661  0.943611  0.677975  1
  O  O22  1  0.403096  0.191169  0.562063  1
  O  O23  1  0.596904  0.808831  0.437937  1
