# generated using pymatgen
data_N2
_symmetry_space_group_name_H-M   'P 1'
_cell_length_a   6.93068239
_cell_length_b   6.93068239
_cell_length_c   6.93068239
_cell_angle_alpha   85.84491252
_cell_angle_beta   85.84491252
_cell_angle_gamma   85.84491252
_symmetry_Int_Tables_number   1
_chemical_formula_structural   N2
_chemical_formula_sum   N16
_cell_volume   330.40645870
_cell_formula_units_Z   8
loop_
 _symmetry_equiv_pos_site_id
 _symmetry_equiv_pos_as_xyz
  1  'x, y, z'
loop_
 _atom_site_type_symbol
 _atom_site_label
 _atom_site_symmetry_multiplicity
 _atom_site_fract_x
 _atom_site_fract_y
 _atom_site_fract_z
 _atom_site_occupancy
  N  N0  1  0.775505  0.938149  0.454287  1
  N  N1  1  0.061851  0.545713  0.224495  1
  N  N2  1  0.454287  0.775505  0.938149  1
  N  N3  1  0.543332  0.543332  0.543332  1
  N  N4  1  0.275505  0.954287  0.438149  1
  N  N5  1  0.561851  0.724495  0.045713  1
  N  N6  1  0.545713  0.224495  0.061851  1
  N  N7  1  0.456668  0.456668  0.456668  1
  N  N8  1  0.724495  0.045713  0.561851  1
  N  N9  1  0.956668  0.956668  0.956668  1
  N  N10  1  0.224495  0.061851  0.545713  1
  N  N11  1  0.043332  0.043332  0.043332  1
  N  N12  1  0.938149  0.454287  0.775505  1
  N  N13  1  0.045713  0.561851  0.724495  1
  N  N14  1  0.438149  0.275505  0.954287  1
  N  N15  1  0.954287  0.438149  0.275505  1
