# generated using pymatgen
data_TiSCl6O
_symmetry_space_group_name_H-M   'P 1'
_cell_length_a   7.91557837
_cell_length_b   10.63901477
_cell_length_c   12.97123734
_cell_angle_alpha   90.00000000
_cell_angle_beta   104.42630142
_cell_angle_gamma   90.00000000
_symmetry_Int_Tables_number   1
_chemical_formula_structural   TiSCl6O
_chemical_formula_sum   'Ti4 S4 Cl24 O4'
_cell_volume   1057.91591222
_cell_formula_units_Z   4
loop_
 _symmetry_equiv_pos_site_id
 _symmetry_equiv_pos_as_xyz
  1  'x, y, z'
loop_
 _atom_site_type_symbol
 _atom_site_label
 _atom_site_symmetry_multiplicity
 _atom_site_fract_x
 _atom_site_fract_y
 _atom_site_fract_z
 _atom_site_occupancy
  Ti  Ti0  1  0.648936  0.642728  0.550400  1
  Ti  Ti1  1  0.351064  0.357272  0.449600  1
  Ti  Ti2  1  0.648936  0.857272  0.050400  1
  Ti  Ti3  1  0.351064  0.142728  0.949600  1
  S  S4  1  0.102321  0.922271  0.748883  1
  S  S5  1  0.897679  0.422271  0.751117  1
  S  S6  1  0.102321  0.577729  0.248883  1
  S  S7  1  0.897679  0.077729  0.251117  1
  Cl  Cl8  1  0.316840  0.262078  0.292890  1
  Cl  Cl9  1  0.316840  0.237922  0.792890  1
  Cl  Cl10  1  0.683160  0.762078  0.207110  1
  Cl  Cl11  1  0.089013  0.550019  0.824676  1
  Cl  Cl12  1  0.483402  0.714699  0.949065  1
  Cl  Cl13  1  0.600243  0.476568  0.412557  1
  Cl  Cl14  1  0.089013  0.949981  0.324676  1
  Cl  Cl15  1  0.683160  0.737922  0.707110  1
  Cl  Cl16  1  0.516598  0.285301  0.050935  1
  Cl  Cl17  1  0.516598  0.214699  0.550935  1
  Cl  Cl18  1  0.902495  0.811659  0.013893  1
  Cl  Cl19  1  0.736177  0.066683  0.353935  1
  Cl  Cl20  1  0.483402  0.785301  0.449065  1
  Cl  Cl21  1  0.399757  0.523432  0.587443  1
  Cl  Cl22  1  0.910987  0.050019  0.675324  1
  Cl  Cl23  1  0.263823  0.566683  0.146065  1
  Cl  Cl24  1  0.600243  0.023432  0.912557  1
  Cl  Cl25  1  0.902495  0.688341  0.513893  1
  Cl  Cl26  1  0.910987  0.449981  0.175324  1
  Cl  Cl27  1  0.399757  0.976568  0.087443  1
  Cl  Cl28  1  0.097505  0.188341  0.986107  1
  Cl  Cl29  1  0.263823  0.933317  0.646065  1
  Cl  Cl30  1  0.736177  0.433317  0.853935  1
  Cl  Cl31  1  0.097505  0.311659  0.486107  1
  O  O32  1  0.195753  0.523845  0.351297  1
  O  O33  1  0.804247  0.476155  0.648703  1
  O  O34  1  0.195753  0.976155  0.851297  1
  O  O35  1  0.804247  0.023845  0.148703  1
