# generated using pymatgen
data_CaBeB2O5
_symmetry_space_group_name_H-M   'P 1'
_cell_length_a   5.22266308
_cell_length_b   3.79386000
_cell_length_c   17.36012400
_cell_angle_alpha   90.00000000
_cell_angle_beta   99.68987195
_cell_angle_gamma   90.00000000
_symmetry_Int_Tables_number   1
_chemical_formula_structural   CaBeB2O5
_chemical_formula_sum   'Ca4 Be4 B8 O20'
_cell_volume   339.06700780
_cell_formula_units_Z   4
loop_
 _symmetry_equiv_pos_site_id
 _symmetry_equiv_pos_as_xyz
  1  'x, y, z'
loop_
 _atom_site_type_symbol
 _atom_site_label
 _atom_site_symmetry_multiplicity
 _atom_site_fract_x
 _atom_site_fract_y
 _atom_site_fract_z
 _atom_site_occupancy
  Ca  Ca0  1  0.274178  0.382092  0.074335  1
  Ca  Ca1  1  0.725822  0.617908  0.925665  1
  Ca  Ca2  1  0.725822  0.882092  0.425665  1
  Ca  Ca3  1  0.274178  0.117908  0.574335  1
  Be  Be4  1  0.394418  0.265445  0.288861  1
  Be  Be5  1  0.605582  0.765445  0.211139  1
  Be  Be6  1  0.394418  0.234555  0.788861  1
  Be  Be7  1  0.605582  0.734555  0.711139  1
  B  B8  1  0.903408  0.248308  0.287114  1
  B  B9  1  0.204574  0.527400  0.404528  1
  B  B10  1  0.096592  0.748308  0.212886  1
  B  B11  1  0.096592  0.751692  0.712886  1
  B  B12  1  0.795426  0.472600  0.595472  1
  B  B13  1  0.795426  0.027400  0.095472  1
  B  B14  1  0.204574  0.972600  0.904528  1
  B  B15  1  0.903408  0.251692  0.787114  1
  O  O16  1  0.041008  0.904345  0.132909  1
  O  O17  1  0.574924  0.926229  0.123657  1
  O  O18  1  0.872242  0.521722  0.224209  1
  O  O19  1  0.790640  0.240907  0.032323  1
  O  O20  1  0.041008  0.595655  0.632909  1
  O  O21  1  0.209360  0.759093  0.967677  1
  O  O22  1  0.340430  0.552874  0.217771  1
  O  O23  1  0.790640  0.259093  0.532323  1
  O  O24  1  0.127758  0.021722  0.275791  1
  O  O25  1  0.659570  0.447126  0.782229  1
  O  O26  1  0.574924  0.573771  0.623657  1
  O  O27  1  0.425076  0.073771  0.876343  1
  O  O28  1  0.209360  0.740907  0.467677  1
  O  O29  1  0.127758  0.478278  0.775791  1
  O  O30  1  0.958992  0.404345  0.367091  1
  O  O31  1  0.340430  0.947126  0.717771  1
  O  O32  1  0.958992  0.095655  0.867091  1
  O  O33  1  0.872242  0.978278  0.724209  1
  O  O34  1  0.659570  0.052874  0.282229  1
  O  O35  1  0.425076  0.426229  0.376343  1
