# generated using pymatgen
data_KW3Br7
_symmetry_space_group_name_H-M   'P 1'
_cell_length_a   14.13441415
_cell_length_b   14.39811741
_cell_length_c   14.41957733
_cell_angle_alpha   90.00000000
_cell_angle_beta   90.00000000
_cell_angle_gamma   90.00000000
_symmetry_Int_Tables_number   1
_chemical_formula_structural   KW3Br7
_chemical_formula_sum   'K8 W24 Br56'
_cell_volume   2934.51310609
_cell_formula_units_Z   8
loop_
 _symmetry_equiv_pos_site_id
 _symmetry_equiv_pos_as_xyz
  1  'x, y, z'
loop_
 _atom_site_type_symbol
 _atom_site_label
 _atom_site_symmetry_multiplicity
 _atom_site_fract_x
 _atom_site_fract_y
 _atom_site_fract_z
 _atom_site_occupancy
  K  K0  1  0.250000  0.750000  0.750000  1
  K  K1  1  0.750000  0.250000  0.750000  1
  K  K2  1  0.500000  0.000000  0.500000  1
  K  K3  1  0.000000  0.500000  0.500000  1
  K  K4  1  0.250000  0.250000  0.250000  1
  K  K5  1  0.750000  0.750000  0.250000  1
  K  K6  1  0.000000  0.500000  0.000000  1
  K  K7  1  0.500000  0.000000  0.000000  1
  W  W8  1  0.127480  0.209970  0.720650  1
  W  W9  1  0.872520  0.790030  0.720650  1
  W  W10  1  0.219476  0.370468  0.709055  1
  W  W11  1  0.780524  0.629532  0.709055  1
  W  W12  1  0.709110  0.781673  0.629930  1
  W  W13  1  0.290890  0.218327  0.629930  1
  W  W14  1  0.290890  0.781673  0.370070  1
  W  W15  1  0.709110  0.218327  0.370070  1
  W  W16  1  0.219476  0.629532  0.290945  1
  W  W17  1  0.780524  0.370468  0.290945  1
  W  W18  1  0.872520  0.209970  0.279350  1
  W  W19  1  0.127480  0.790030  0.279350  1
  W  W20  1  0.372520  0.709970  0.220650  1
  W  W21  1  0.627480  0.290030  0.220650  1
  W  W22  1  0.719476  0.129532  0.209055  1
  W  W23  1  0.280524  0.870468  0.209055  1
  W  W24  1  0.790890  0.281673  0.129930  1
  W  W25  1  0.209110  0.718327  0.129930  1
  W  W26  1  0.209110  0.281673  0.870070  1
  W  W27  1  0.790890  0.718327  0.870070  1
  W  W28  1  0.280524  0.129532  0.790945  1
  W  W29  1  0.719476  0.870468  0.790945  1
  W  W30  1  0.627480  0.709970  0.779350  1
  W  W31  1  0.372520  0.290030  0.779350  1
  Br  Br32  1  0.556076  0.862339  0.700880  1
  Br  Br33  1  0.443924  0.137661  0.700880  1
  Br  Br34  1  0.956193  0.157181  0.678787  1
  Br  Br35  1  0.043807  0.842819  0.678787  1
  Br  Br36  1  0.173812  0.540332  0.653627  1
  Br  Br37  1  0.826188  0.459668  0.653627  1
  Br  Br38  1  0.198029  0.058848  0.641792  1
  Br  Br39  1  0.801971  0.941152  0.641792  1
  Br  Br40  1  0.382132  0.379370  0.618056  1
  Br  Br41  1  0.617868  0.620630  0.618056  1
  Br  Br42  1  0.861764  0.702168  0.558591  1
  Br  Br43  1  0.138236  0.297832  0.558591  1
  Br  Br44  1  0.653552  0.172925  0.539647  1
  Br  Br45  1  0.346448  0.827075  0.539647  1
  Br  Br46  1  0.346448  0.172925  0.460353  1
  Br  Br47  1  0.653552  0.827075  0.460353  1
  Br  Br48  1  0.138236  0.702168  0.441409  1
  Br  Br49  1  0.861764  0.297832  0.441409  1
  Br  Br50  1  0.382132  0.620630  0.381944  1
  Br  Br51  1  0.617868  0.379370  0.381944  1
  Br  Br52  1  0.801971  0.058848  0.358208  1
  Br  Br53  1  0.198029  0.941152  0.358208  1
  Br  Br54  1  0.826188  0.540332  0.346373  1
  Br  Br55  1  0.173812  0.459668  0.346373  1
  Br  Br56  1  0.043807  0.157181  0.321213  1
  Br  Br57  1  0.956193  0.842819  0.321213  1
  Br  Br58  1  0.556076  0.137661  0.299120  1
  Br  Br59  1  0.443924  0.862339  0.299120  1
  Br  Br60  1  0.056076  0.637661  0.200880  1
  Br  Br61  1  0.943924  0.362339  0.200880  1
  Br  Br62  1  0.543807  0.657181  0.178787  1
  Br  Br63  1  0.456193  0.342819  0.178787  1
  Br  Br64  1  0.326188  0.040332  0.153627  1
  Br  Br65  1  0.673812  0.959668  0.153627  1
  Br  Br66  1  0.301971  0.558848  0.141792  1
  Br  Br67  1  0.698029  0.441152  0.141792  1
  Br  Br68  1  0.882132  0.120630  0.118056  1
  Br  Br69  1  0.117868  0.879370  0.118056  1
  Br  Br70  1  0.361764  0.797832  0.058591  1
  Br  Br71  1  0.638236  0.202168  0.058591  1
  Br  Br72  1  0.846448  0.672925  0.039647  1
  Br  Br73  1  0.153552  0.327075  0.039647  1
  Br  Br74  1  0.153552  0.672925  0.960353  1
  Br  Br75  1  0.846448  0.327075  0.960353  1
  Br  Br76  1  0.361764  0.202168  0.941409  1
  Br  Br77  1  0.638236  0.797832  0.941409  1
  Br  Br78  1  0.882132  0.879370  0.881944  1
  Br  Br79  1  0.117868  0.120630  0.881944  1
  Br  Br80  1  0.698029  0.558848  0.858208  1
  Br  Br81  1  0.301971  0.441152  0.858208  1
  Br  Br82  1  0.673812  0.040332  0.846373  1
  Br  Br83  1  0.326188  0.959668  0.846373  1
  Br  Br84  1  0.456193  0.657181  0.821213  1
  Br  Br85  1  0.543807  0.342819  0.821213  1
  Br  Br86  1  0.056076  0.362339  0.799120  1
  Br  Br87  1  0.943924  0.637661  0.799120  1
