# generated using pymatgen
data_Ca4P2O9
_symmetry_space_group_name_H-M   'P 1'
_cell_length_a   7.06885467
_cell_length_b   12.10172261
_cell_length_c   9.55573779
_cell_angle_alpha   90.00000000
_cell_angle_beta   90.97646993
_cell_angle_gamma   90.00000000
_symmetry_Int_Tables_number   1
_chemical_formula_structural   Ca4P2O9
_chemical_formula_sum   'Ca16 P8 O36'
_cell_volume   817.32992073
_cell_formula_units_Z   4
loop_
 _symmetry_equiv_pos_site_id
 _symmetry_equiv_pos_as_xyz
  1  'x, y, z'
loop_
 _atom_site_type_symbol
 _atom_site_label
 _atom_site_symmetry_multiplicity
 _atom_site_fract_x
 _atom_site_fract_y
 _atom_site_fract_z
 _atom_site_occupancy
  Ca  Ca0  1  0.749837  0.420819  0.988282  1
  Ca  Ca1  1  0.515399  0.946977  0.590108  1
  Ca  Ca2  1  0.010252  0.430380  0.365433  1
  Ca  Ca3  1  0.989748  0.930380  0.634567  1
  Ca  Ca4  1  0.484601  0.446977  0.409892  1
  Ca  Ca5  1  0.250163  0.920819  0.011718  1
  Ca  Ca6  1  0.258895  0.394984  0.741330  1
  Ca  Ca7  1  0.741105  0.894984  0.258670  1
  Ca  Ca8  1  0.730137  0.199728  0.748732  1
  Ca  Ca9  1  0.269863  0.699728  0.251268  1
  Ca  Ca10  1  0.229652  0.196637  0.471541  1
  Ca  Ca11  1  0.770348  0.696637  0.528459  1
  Ca  Ca12  1  0.467243  0.202889  0.102868  1
  Ca  Ca13  1  0.532757  0.702889  0.897132  1
  Ca  Ca14  1  0.967009  0.156422  0.104258  1
  Ca  Ca15  1  0.032991  0.656422  0.895742  1
  P  P16  1  0.767312  0.608501  0.214469  1
  P  P17  1  0.232688  0.108501  0.785531  1
  P  P18  1  0.289481  0.675365  0.623794  1
  P  P19  1  0.710519  0.175365  0.376206  1
  P  P20  1  0.236825  0.959036  0.317936  1
  P  P21  1  0.763175  0.459036  0.682064  1
  P  P22  1  0.764426  0.922953  0.910141  1
  P  P23  1  0.235574  0.422953  0.089859  1
  O  O24  1  0.285625  0.501119  0.214235  1
  O  O25  1  0.839138  0.814212  0.841576  1
  O  O26  1  0.411398  0.393912  0.000901  1
  O  O27  1  0.588602  0.893912  0.999099  1
  O  O28  1  0.755307  0.565984  0.773797  1
  O  O29  1  0.244693  0.065984  0.226203  1
  O  O30  1  0.579582  0.390733  0.693854  1
  O  O31  1  0.420418  0.890733  0.306146  1
  O  O32  1  0.232945  0.372098  0.509092  1
  O  O33  1  0.767055  0.872098  0.490908  1
  O  O34  1  0.734200  0.238364  0.984296  1
  O  O35  1  0.265800  0.738364  0.015704  1
  O  O36  1  0.080959  0.473510  0.992630  1
  O  O37  1  0.919041  0.973510  0.007370  1
  O  O38  1  0.160862  0.314212  0.158424  1
  O  O39  1  0.043854  0.132979  0.706298  1
  O  O40  1  0.729614  0.480845  0.225706  1
  O  O41  1  0.270386  0.980845  0.774294  1
  O  O42  1  0.613716  0.677520  0.288327  1
  O  O43  1  0.386284  0.177520  0.711673  1
  O  O44  1  0.956146  0.632979  0.293702  1
  O  O45  1  0.923083  0.382943  0.736401  1
  O  O46  1  0.769889  0.636055  0.055766  1
  O  O47  1  0.230111  0.136055  0.944234  1
  O  O48  1  0.286282  0.591123  0.748942  1
  O  O49  1  0.713718  0.091123  0.251058  1
  O  O50  1  0.095825  0.737027  0.623057  1
  O  O51  1  0.904175  0.237027  0.376943  1
  O  O52  1  0.457637  0.756867  0.657959  1
  O  O53  1  0.542363  0.256867  0.342041  1
  O  O54  1  0.327471  0.617841  0.483580  1
  O  O55  1  0.672529  0.117841  0.516420  1
  O  O56  1  0.215110  0.995998  0.473240  1
  O  O57  1  0.784890  0.495998  0.526760  1
  O  O58  1  0.076917  0.882943  0.263599  1
  O  O59  1  0.714375  0.001119  0.785765  1
