# generated using pymatgen
data_BaLiCrF6
_symmetry_space_group_name_H-M   'P 1'
_cell_length_a   5.48778835
_cell_length_b   10.60052552
_cell_length_c   8.80331284
_cell_angle_alpha   90.00000000
_cell_angle_beta   90.79352532
_cell_angle_gamma   90.00000000
_symmetry_Int_Tables_number   1
_chemical_formula_structural   BaLiCrF6
_chemical_formula_sum   'Ba4 Li4 Cr4 F24'
_cell_volume   512.06988116
_cell_formula_units_Z   4
loop_
 _symmetry_equiv_pos_site_id
 _symmetry_equiv_pos_as_xyz
  1  'x, y, z'
loop_
 _atom_site_type_symbol
 _atom_site_label
 _atom_site_symmetry_multiplicity
 _atom_site_fract_x
 _atom_site_fract_y
 _atom_site_fract_z
 _atom_site_occupancy
  Ba  Ba0  1  0.801519  0.686672  0.503212  1
  Ba  Ba1  1  0.801519  0.813328  0.003212  1
  Ba  Ba2  1  0.198481  0.313328  0.496788  1
  Ba  Ba3  1  0.198481  0.186672  0.996788  1
  Li  Li4  1  0.259218  0.911302  0.320869  1
  Li  Li5  1  0.740782  0.088698  0.679131  1
  Li  Li6  1  0.740782  0.411302  0.179131  1
  Li  Li7  1  0.259218  0.588698  0.820869  1
  Cr  Cr8  1  0.260859  0.911782  0.730885  1
  Cr  Cr9  1  0.739141  0.411782  0.769115  1
  Cr  Cr10  1  0.739141  0.088218  0.269115  1
  Cr  Cr11  1  0.260859  0.588218  0.230885  1
  F  F12  1  0.898225  0.247266  0.742062  1
  F  F13  1  0.038871  0.006522  0.198914  1
  F  F14  1  0.396276  0.081753  0.707933  1
  F  F15  1  0.101775  0.752734  0.257938  1
  F  F16  1  0.038871  0.493478  0.698914  1
  F  F17  1  0.158593  0.604354  0.021556  1
  F  F18  1  0.603724  0.918247  0.292067  1
  F  F19  1  0.603724  0.581753  0.792067  1
  F  F20  1  0.576556  0.839862  0.691184  1
  F  F21  1  0.158593  0.895646  0.521556  1
  F  F22  1  0.423444  0.160138  0.308816  1
  F  F23  1  0.660406  0.407024  0.552704  1
  F  F24  1  0.339594  0.592976  0.447296  1
  F  F25  1  0.961129  0.506522  0.301086  1
  F  F26  1  0.898225  0.252734  0.242062  1
  F  F27  1  0.101775  0.747266  0.757938  1
  F  F28  1  0.423444  0.339862  0.808816  1
  F  F29  1  0.961129  0.993478  0.801086  1
  F  F30  1  0.841407  0.395646  0.978444  1
  F  F31  1  0.576556  0.660138  0.191184  1
  F  F32  1  0.841407  0.104354  0.478444  1
  F  F33  1  0.660406  0.092976  0.052704  1
  F  F34  1  0.339594  0.907024  0.947296  1
  F  F35  1  0.396276  0.418247  0.207933  1
