# generated using pymatgen
data_Ca4Nb2O9
_symmetry_space_group_name_H-M   'P 1'
_cell_length_a   8.13717305
_cell_length_b   9.84552595
_cell_length_c   11.41193005
_cell_angle_alpha   107.58997830
_cell_angle_beta   88.55074616
_cell_angle_gamma   113.03971457
_symmetry_Int_Tables_number   1
_chemical_formula_structural   Ca4Nb2O9
_chemical_formula_sum   'Ca16 Nb8 O36'
_cell_volume   797.48051593
_cell_formula_units_Z   4
loop_
 _symmetry_equiv_pos_site_id
 _symmetry_equiv_pos_as_xyz
  1  'x, y, z'
loop_
 _atom_site_type_symbol
 _atom_site_label
 _atom_site_symmetry_multiplicity
 _atom_site_fract_x
 _atom_site_fract_y
 _atom_site_fract_z
 _atom_site_occupancy
  Ca  Ca0  1  0.335293  0.668097  0.165353  1
  Ca  Ca1  1  0.456339  0.371630  0.102010  1
  Ca  Ca2  1  0.693741  0.987104  0.243761  1
  Ca  Ca3  1  0.664707  0.331903  0.834647  1
  Ca  Ca4  1  0.963707  0.364692  0.087793  1
  Ca  Ca5  1  0.769041  0.011159  0.769296  1
  Ca  Ca6  1  0.000000  0.000000  0.000000  1
  Ca  Ca7  1  0.230959  0.988841  0.230704  1
  Ca  Ca8  1  0.036293  0.635308  0.912207  1
  Ca  Ca9  1  0.000000  0.000000  0.500000  1
  Ca  Ca10  1  0.306259  0.012896  0.756239  1
  Ca  Ca11  1  0.117046  0.688760  0.436436  1
  Ca  Ca12  1  0.543661  0.628370  0.897990  1
  Ca  Ca13  1  0.370937  0.310317  0.569019  1
  Ca  Ca14  1  0.629063  0.689683  0.430981  1
  Ca  Ca15  1  0.882954  0.311240  0.563564  1
  Nb  Nb16  1  0.659868  0.341816  0.335495  1
  Nb  Nb17  1  0.837320  0.685785  0.173358  1
  Nb  Nb18  1  0.146971  0.324519  0.326353  1
  Nb  Nb19  1  0.162680  0.314215  0.826642  1
  Nb  Nb20  1  0.500000  0.000000  0.000000  1
  Nb  Nb21  1  0.340132  0.658184  0.664505  1
  Nb  Nb22  1  0.500000  0.000000  0.500000  1
  Nb  Nb23  1  0.853029  0.675481  0.673647  1
  O  O24  1  0.592508  0.649412  0.222937  1
  O  O25  1  0.754714  0.434043  0.208697  1
  O  O26  1  0.382634  0.886945  0.327007  1
  O  O27  1  0.529031  0.130316  0.190386  1
  O  O28  1  0.888212  0.260797  0.327010  1
  O  O29  1  0.187490  0.513274  0.285841  1
  O  O30  1  0.510624  0.828427  0.053675  1
  O  O31  1  0.767874  0.086607  0.998095  1
  O  O32  1  0.946598  0.351974  0.883243  1
  O  O33  1  0.165584  0.220226  0.159741  1
  O  O34  1  0.281189  0.448493  0.000028  1
  O  O35  1  0.908465  0.887942  0.156579  1
  O  O36  1  0.091535  0.112058  0.843421  1
  O  O37  1  0.718811  0.551507  0.999972  1
  O  O38  1  0.834416  0.779774  0.840259  1
  O  O39  1  0.053402  0.648026  0.116757  1
  O  O40  1  0.232126  0.913393  0.001905  1
  O  O41  1  0.489376  0.171573  0.946325  1
  O  O42  1  0.812510  0.486726  0.714159  1
  O  O43  1  0.111788  0.739203  0.672990  1
  O  O44  1  0.273030  0.012098  0.557325  1
  O  O45  1  0.470969  0.869684  0.809614  1
  O  O46  1  0.617366  0.113055  0.672993  1
  O  O47  1  0.245286  0.565957  0.791303  1
  O  O48  1  0.421071  0.789454  0.541426  1
  O  O49  1  0.065296  0.234553  0.651624  1
  O  O50  1  0.188928  0.476763  0.522281  1
  O  O51  1  0.407492  0.350588  0.777063  1
  O  O52  1  0.538999  0.598777  0.647846  1
  O  O53  1  0.835144  0.833184  0.608388  1
  O  O54  1  0.164856  0.166816  0.391612  1
  O  O55  1  0.461001  0.401223  0.352154  1
  O  O56  1  0.811072  0.523237  0.477719  1
  O  O57  1  0.934704  0.765447  0.348376  1
  O  O58  1  0.578929  0.210546  0.458574  1
  O  O59  1  0.726970  0.987902  0.442675  1
