# generated using pymatgen
data_AlPO4
_symmetry_space_group_name_H-M   'P 1'
_cell_length_a   13.78871818
_cell_length_b   13.78871818
_cell_length_c   12.85213985
_cell_angle_alpha   62.66491883
_cell_angle_beta   117.33508117
_cell_angle_gamma   135.42058990
_symmetry_Int_Tables_number   1
_chemical_formula_structural   AlPO4
_chemical_formula_sum   'Al12 P12 O48'
_cell_volume   1489.01396929
_cell_formula_units_Z   12
loop_
 _symmetry_equiv_pos_site_id
 _symmetry_equiv_pos_as_xyz
  1  'x, y, z'
loop_
 _atom_site_type_symbol
 _atom_site_label
 _atom_site_symmetry_multiplicity
 _atom_site_fract_x
 _atom_site_fract_y
 _atom_site_fract_z
 _atom_site_occupancy
  Al  Al0  1  0.566099  0.433901  0.689536  1
  Al  Al1  1  0.110830  0.336451  0.513948  1
  Al  Al2  1  0.204827  0.795173  0.332553  1
  Al  Al3  1  0.655609  0.344391  0.212151  1
  Al  Al4  1  0.336451  0.110830  0.486052  1
  Al  Al5  1  0.716707  0.716707  0.000000  1
  Al  Al6  1  0.889170  0.663549  0.486052  1
  Al  Al7  1  0.795173  0.204827  0.667447  1
  Al  Al8  1  0.663549  0.889170  0.513948  1
  Al  Al9  1  0.344391  0.655609  0.787849  1
  Al  Al10  1  0.433901  0.566099  0.310464  1
  Al  Al11  1  0.283293  0.283293  0.000000  1
  P  P12  1  0.339715  0.660285  0.395738  1
  P  P13  1  0.887136  0.668288  0.239743  1
  P  P14  1  0.791905  0.208095  0.414775  1
  P  P15  1  0.569215  0.430785  0.942152  1
  P  P16  1  0.660285  0.339715  0.604262  1
  P  P17  1  0.280398  0.280398  0.500000  1
  P  P18  1  0.430785  0.569215  0.057848  1
  P  P19  1  0.668288  0.887136  0.760257  1
  P  P20  1  0.112864  0.331712  0.760257  1
  P  P21  1  0.208095  0.791905  0.585225  1
  P  P22  1  0.719602  0.719602  0.500000  1
  P  P23  1  0.331712  0.112864  0.239743  1
  O  O24  1  0.948582  0.292051  0.422805  1
  O  O25  1  0.519337  0.243387  0.523066  1
  O  O26  1  0.761916  0.509336  0.245268  1
  O  O27  1  0.653559  0.587249  0.936382  1
  O  O28  1  0.635607  0.364393  0.691975  1
  O  O29  1  0.697721  0.025102  0.737543  1
  O  O30  1  0.611562  0.659172  0.386768  1
  O  O31  1  0.270498  0.729502  0.321890  1
  O  O32  1  0.896092  0.713235  0.335643  1
  O  O33  1  0.292051  0.948582  0.577195  1
  O  O34  1  0.412751  0.346441  0.936382  1
  O  O35  1  0.729502  0.270498  0.678110  1
  O  O36  1  0.025102  0.697721  0.262457  1
  O  O37  1  0.340828  0.388438  0.386768  1
  O  O38  1  0.865871  0.754681  0.115448  1
  O  O39  1  0.368851  0.631149  0.942002  1
  O  O40  1  0.580350  0.419650  0.835973  1
  O  O41  1  0.974898  0.302279  0.737543  1
  O  O42  1  0.224642  0.775358  0.484802  1
  O  O43  1  0.707949  0.051418  0.422805  1
  O  O44  1  0.134129  0.245319  0.884552  1
  O  O45  1  0.490664  0.238084  0.245268  1
  O  O46  1  0.480663  0.756613  0.476934  1
  O  O47  1  0.631149  0.368851  0.057998  1
  O  O48  1  0.103908  0.286765  0.664357  1
  O  O49  1  0.051418  0.707949  0.577195  1
  O  O50  1  0.734093  0.265907  0.292577  1
  O  O51  1  0.756613  0.480663  0.523066  1
  O  O52  1  0.265907  0.734093  0.707423  1
  O  O53  1  0.509336  0.761916  0.754732  1
  O  O54  1  0.388438  0.340828  0.613232  1
  O  O55  1  0.364393  0.635607  0.308025  1
  O  O56  1  0.587249  0.653559  0.063618  1
  O  O57  1  0.286765  0.103908  0.335643  1
  O  O58  1  0.245319  0.134129  0.115448  1
  O  O59  1  0.753891  0.855695  0.492513  1
  O  O60  1  0.754681  0.865871  0.884552  1
  O  O61  1  0.246109  0.144305  0.507487  1
  O  O62  1  0.302279  0.974898  0.262457  1
  O  O63  1  0.243387  0.519337  0.476934  1
  O  O64  1  0.713235  0.896092  0.664357  1
  O  O65  1  0.659172  0.611562  0.613232  1
  O  O66  1  0.238084  0.490664  0.754732  1
  O  O67  1  0.855695  0.753891  0.507487  1
  O  O68  1  0.144305  0.246109  0.492513  1
  O  O69  1  0.775358  0.224642  0.515198  1
  O  O70  1  0.346441  0.412751  0.063618  1
  O  O71  1  0.419650  0.580350  0.164027  1
