# generated using pymatgen
data_Sm3SiS6Cl
_symmetry_space_group_name_H-M   'P 1'
_cell_length_a   10.37551690
_cell_length_b   12.48409045
_cell_length_c   16.23512860
_cell_angle_alpha   90.00000000
_cell_angle_beta   90.00000000
_cell_angle_gamma   90.00000000
_symmetry_Int_Tables_number   1
_chemical_formula_structural   Sm3SiS6Cl
_chemical_formula_sum   'Sm24 Si8 S48 Cl8'
_cell_volume   2102.91821003
_cell_formula_units_Z   8
loop_
 _symmetry_equiv_pos_site_id
 _symmetry_equiv_pos_as_xyz
  1  'x, y, z'
loop_
 _atom_site_type_symbol
 _atom_site_label
 _atom_site_symmetry_multiplicity
 _atom_site_fract_x
 _atom_site_fract_y
 _atom_site_fract_z
 _atom_site_occupancy
  Sm  Sm0  1  0.750000  0.884041  0.876483  1
  Sm  Sm1  1  0.750000  0.384041  0.623517  1
  Sm  Sm2  1  0.956352  0.312471  0.404728  1
  Sm  Sm3  1  0.964032  0.618354  0.888283  1
  Sm  Sm4  1  0.750000  0.123189  0.138250  1
  Sm  Sm5  1  0.250000  0.115959  0.123517  1
  Sm  Sm6  1  0.456352  0.187529  0.904728  1
  Sm  Sm7  1  0.535968  0.118354  0.611717  1
  Sm  Sm8  1  0.043648  0.687529  0.595272  1
  Sm  Sm9  1  0.456352  0.687529  0.595272  1
  Sm  Sm10  1  0.543648  0.312471  0.404728  1
  Sm  Sm11  1  0.035968  0.881646  0.388283  1
  Sm  Sm12  1  0.543648  0.812471  0.095272  1
  Sm  Sm13  1  0.956352  0.812471  0.095272  1
  Sm  Sm14  1  0.043648  0.187529  0.904728  1
  Sm  Sm15  1  0.535968  0.618354  0.888283  1
  Sm  Sm16  1  0.964032  0.118354  0.611717  1
  Sm  Sm17  1  0.035968  0.381646  0.111717  1
  Sm  Sm18  1  0.750000  0.623189  0.361750  1
  Sm  Sm19  1  0.250000  0.376811  0.638250  1
  Sm  Sm20  1  0.464032  0.881646  0.388283  1
  Sm  Sm21  1  0.464032  0.381646  0.111717  1
  Sm  Sm22  1  0.250000  0.615959  0.376483  1
  Sm  Sm23  1  0.250000  0.876811  0.861750  1
  Si  Si24  1  0.250000  0.116362  0.740638  1
  Si  Si25  1  0.250000  0.616362  0.759362  1
  Si  Si26  1  0.750000  0.883638  0.259362  1
  Si  Si27  1  0.250000  0.336079  0.277200  1
  Si  Si28  1  0.750000  0.663921  0.722800  1
  Si  Si29  1  0.250000  0.836079  0.222800  1
  Si  Si30  1  0.750000  0.163921  0.777200  1
  Si  Si31  1  0.750000  0.383638  0.240638  1
  S  S32  1  0.250000  0.381930  0.403004  1
  S  S33  1  0.418638  0.027889  0.770539  1
  S  S34  1  0.989974  0.657634  0.431607  1
  S  S35  1  0.510026  0.657634  0.431607  1
  S  S36  1  0.750000  0.729496  0.198638  1
  S  S37  1  0.750000  0.118070  0.903004  1
  S  S38  1  0.910451  0.761343  0.754356  1
  S  S39  1  0.250000  0.479462  0.207107  1
  S  S40  1  0.489974  0.342366  0.568393  1
  S  S41  1  0.081362  0.527889  0.729461  1
  S  S42  1  0.250000  0.644424  0.888451  1
  S  S43  1  0.250000  0.144424  0.611549  1
  S  S44  1  0.010026  0.342366  0.568393  1
  S  S45  1  0.410451  0.238657  0.245644  1
  S  S46  1  0.089549  0.738657  0.254356  1
  S  S47  1  0.750000  0.520538  0.792893  1
  S  S48  1  0.750000  0.855576  0.388451  1
  S  S49  1  0.081362  0.027889  0.770539  1
  S  S50  1  0.750000  0.686102  0.971405  1
  S  S51  1  0.250000  0.979462  0.292893  1
  S  S52  1  0.418638  0.527889  0.729461  1
  S  S53  1  0.589549  0.261343  0.745644  1
  S  S54  1  0.589549  0.761343  0.754356  1
  S  S55  1  0.581362  0.472111  0.270539  1
  S  S56  1  0.250000  0.563418  0.547136  1
  S  S57  1  0.750000  0.186102  0.528595  1
  S  S58  1  0.089549  0.238657  0.245644  1
  S  S59  1  0.750000  0.936582  0.047136  1
  S  S60  1  0.750000  0.355576  0.111549  1
  S  S61  1  0.489974  0.842366  0.931607  1
  S  S62  1  0.410451  0.738657  0.254356  1
  S  S63  1  0.250000  0.270504  0.801362  1
  S  S64  1  0.750000  0.020538  0.707107  1
  S  S65  1  0.750000  0.436582  0.452864  1
  S  S66  1  0.989974  0.157634  0.068393  1
  S  S67  1  0.250000  0.813898  0.471405  1
  S  S68  1  0.750000  0.618070  0.596996  1
  S  S69  1  0.250000  0.313898  0.028595  1
  S  S70  1  0.010026  0.842366  0.931607  1
  S  S71  1  0.918638  0.972111  0.229461  1
  S  S72  1  0.581362  0.972111  0.229461  1
  S  S73  1  0.918638  0.472111  0.270539  1
  S  S74  1  0.250000  0.063418  0.952864  1
  S  S75  1  0.750000  0.229496  0.301362  1
  S  S76  1  0.250000  0.770504  0.698638  1
  S  S77  1  0.250000  0.881930  0.096996  1
  S  S78  1  0.510026  0.157634  0.068393  1
  S  S79  1  0.910451  0.261343  0.745644  1
  Cl  Cl80  1  0.457195  0.103512  0.439968  1
  Cl  Cl81  1  0.457195  0.603512  0.060032  1
  Cl  Cl82  1  0.957195  0.396488  0.939968  1
  Cl  Cl83  1  0.042805  0.603512  0.060032  1
  Cl  Cl84  1  0.957195  0.896488  0.560032  1
  Cl  Cl85  1  0.542805  0.896488  0.560032  1
  Cl  Cl86  1  0.542805  0.396488  0.939968  1
  Cl  Cl87  1  0.042805  0.103512  0.439968  1
