# generated using pymatgen
data_SrBi6(PO5)4
_symmetry_space_group_name_H-M   'P 1'
_cell_length_a   7.05087413
_cell_length_b   7.74309035
_cell_length_c   9.28327815
_cell_angle_alpha   107.14191158
_cell_angle_beta   93.07995022
_cell_angle_gamma   112.22460109
_symmetry_Int_Tables_number   1
_chemical_formula_structural   SrBi6(PO5)4
_chemical_formula_sum   'Sr1 Bi6 P4 O20'
_cell_volume   440.44232849
_cell_formula_units_Z   1
loop_
 _symmetry_equiv_pos_site_id
 _symmetry_equiv_pos_as_xyz
  1  'x, y, z'
loop_
 _atom_site_type_symbol
 _atom_site_label
 _atom_site_symmetry_multiplicity
 _atom_site_fract_x
 _atom_site_fract_y
 _atom_site_fract_z
 _atom_site_occupancy
  Sr  Sr0  1  0.000000  0.500000  0.000000  1
  Bi  Bi1  1  0.194337  0.195779  0.675029  1
  Bi  Bi2  1  0.563424  0.707335  0.912845  1
  Bi  Bi3  1  0.331594  0.626589  0.510908  1
  Bi  Bi4  1  0.805663  0.804221  0.324971  1
  Bi  Bi5  1  0.436576  0.292665  0.087155  1
  Bi  Bi6  1  0.668406  0.373411  0.489092  1
  P  P7  1  0.047505  0.768838  0.756658  1
  P  P8  1  0.653689  0.103168  0.742996  1
  P  P9  1  0.952495  0.231162  0.243342  1
  P  P10  1  0.346311  0.896832  0.257004  1
  O  O11  1  0.353382  0.823069  0.084002  1
  O  O12  1  0.446877  0.472885  0.637551  1
  O  O13  1  0.871423  0.236805  0.721020  1
  O  O14  1  0.213380  0.680430  0.759020  1
  O  O15  1  0.623220  0.882440  0.688388  1
  O  O16  1  0.878735  0.673887  0.844125  1
  O  O17  1  0.852640  0.000803  0.168886  1
  O  O18  1  0.320194  0.406887  0.903659  1
  O  O19  1  0.121265  0.326113  0.155875  1
  O  O20  1  0.516623  0.874746  0.355338  1
  O  O21  1  0.376780  0.117560  0.311612  1
  O  O22  1  0.679806  0.593113  0.096341  1
  O  O23  1  0.952600  0.709433  0.583759  1
  O  O24  1  0.147360  0.999197  0.831114  1
  O  O25  1  0.128577  0.763195  0.278980  1
  O  O26  1  0.553123  0.527115  0.362449  1
  O  O27  1  0.646618  0.176931  0.915998  1
  O  O28  1  0.786620  0.319570  0.240980  1
  O  O29  1  0.483377  0.125254  0.644662  1
  O  O30  1  0.047400  0.290567  0.416241  1
