# generated using pymatgen
data_Rb3Nb2S11
_symmetry_space_group_name_H-M   'P 1'
_cell_length_a   12.01186069
_cell_length_b   8.18047448
_cell_length_c   19.67196734
_cell_angle_alpha   90.00000000
_cell_angle_beta   103.07662477
_cell_angle_gamma   90.00000000
_symmetry_Int_Tables_number   1
_chemical_formula_structural   Rb3Nb2S11
_chemical_formula_sum   'Rb12 Nb8 S44'
_cell_volume   1882.89459849
_cell_formula_units_Z   4
loop_
 _symmetry_equiv_pos_site_id
 _symmetry_equiv_pos_as_xyz
  1  'x, y, z'
loop_
 _atom_site_type_symbol
 _atom_site_label
 _atom_site_symmetry_multiplicity
 _atom_site_fract_x
 _atom_site_fract_y
 _atom_site_fract_z
 _atom_site_occupancy
  Rb  Rb0  1  0.998407  0.828268  0.341294  1
  Rb  Rb1  1  0.001593  0.328268  0.158706  1
  Rb  Rb2  1  0.001593  0.171732  0.658706  1
  Rb  Rb3  1  0.998407  0.671732  0.841294  1
  Rb  Rb4  1  0.771628  0.317332  0.386640  1
  Rb  Rb5  1  0.228372  0.817332  0.113360  1
  Rb  Rb6  1  0.228372  0.682668  0.613360  1
  Rb  Rb7  1  0.771628  0.182668  0.886640  1
  Rb  Rb8  1  0.462319  0.843946  0.357126  1
  Rb  Rb9  1  0.537681  0.343946  0.142874  1
  Rb  Rb10  1  0.537681  0.156054  0.642874  1
  Rb  Rb11  1  0.462319  0.656054  0.857126  1
  Nb  Nb12  1  0.709211  0.642624  0.665682  1
  Nb  Nb13  1  0.290789  0.142624  0.834318  1
  Nb  Nb14  1  0.290789  0.357376  0.334318  1
  Nb  Nb15  1  0.709211  0.857376  0.165682  1
  Nb  Nb16  1  0.802741  0.772597  0.508465  1
  Nb  Nb17  1  0.197259  0.272597  0.991535  1
  Nb  Nb18  1  0.197259  0.227403  0.491535  1
  Nb  Nb19  1  0.802741  0.727403  0.008465  1
  S  S20  1  0.764264  0.433085  0.738837  1
  S  S21  1  0.235736  0.933085  0.761163  1
  S  S22  1  0.235736  0.566915  0.261163  1
  S  S23  1  0.764264  0.066915  0.238837  1
  S  S24  1  0.520353  0.725959  0.685883  1
  S  S25  1  0.479647  0.225959  0.814117  1
  S  S26  1  0.479647  0.274041  0.314117  1
  S  S27  1  0.520353  0.774041  0.185883  1
  S  S28  1  0.514511  0.573996  0.600065  1
  S  S29  1  0.485489  0.073996  0.899935  1
  S  S30  1  0.485489  0.426004  0.399935  1
  S  S31  1  0.514511  0.926004  0.100065  1
  S  S32  1  0.794556  0.894933  0.723252  1
  S  S33  1  0.205444  0.394933  0.776748  1
  S  S34  1  0.205444  0.105067  0.276748  1
  S  S35  1  0.794556  0.605067  0.223252  1
  S  S36  1  0.892063  0.776850  0.662594  1
  S  S37  1  0.107937  0.276850  0.837406  1
  S  S38  1  0.107937  0.223150  0.337406  1
  S  S39  1  0.892063  0.723150  0.162594  1
  S  S40  1  0.746319  0.505470  0.554691  1
  S  S41  1  0.253681  0.005470  0.945309  1
  S  S42  1  0.253681  0.494530  0.445309  1
  S  S43  1  0.746319  0.994530  0.054691  1
  S  S44  1  0.917305  0.520941  0.549623  1
  S  S45  1  0.082695  0.020941  0.950377  1
  S  S46  1  0.082695  0.479059  0.450377  1
  S  S47  1  0.917305  0.979059  0.049623  1
  S  S48  1  0.630584  0.870894  0.543481  1
  S  S49  1  0.369416  0.370894  0.956519  1
  S  S50  1  0.369416  0.129106  0.456519  1
  S  S51  1  0.630584  0.629106  0.043481  1
  S  S52  1  0.747561  0.052912  0.531926  1
  S  S53  1  0.252439  0.552912  0.968074  1
  S  S54  1  0.252439  0.947088  0.468074  1
  S  S55  1  0.747561  0.447088  0.031926  1
  S  S56  1  0.743137  0.735094  0.393359  1
  S  S57  1  0.256863  0.235094  0.106641  1
  S  S58  1  0.256863  0.264906  0.606641  1
  S  S59  1  0.743137  0.764906  0.893359  1
  S  S60  1  0.001916  0.877137  0.514712  1
  S  S61  1  0.998084  0.377137  0.985288  1
  S  S62  1  0.998084  0.122863  0.485288  1
  S  S63  1  0.001916  0.622863  0.014712  1
