# generated using pymatgen
data_Sm3NbSe3O4
_symmetry_space_group_name_H-M   'P 1'
_cell_length_a   6.94977750
_cell_length_b   7.81040528
_cell_length_c   14.99014921
_cell_angle_alpha   90.00000000
_cell_angle_beta   90.00000000
_cell_angle_gamma   90.00000000
_symmetry_Int_Tables_number   1
_chemical_formula_structural   Sm3NbSe3O4
_chemical_formula_sum   'Sm12 Nb4 Se12 O16'
_cell_volume   813.67397663
_cell_formula_units_Z   4
loop_
 _symmetry_equiv_pos_site_id
 _symmetry_equiv_pos_as_xyz
  1  'x, y, z'
loop_
 _atom_site_type_symbol
 _atom_site_label
 _atom_site_symmetry_multiplicity
 _atom_site_fract_x
 _atom_site_fract_y
 _atom_site_fract_z
 _atom_site_occupancy
  Sm  Sm0  1  0.713475  0.506652  0.846603  1
  Sm  Sm1  1  0.283305  0.250000  0.917659  1
  Sm  Sm2  1  0.286525  0.493348  0.153397  1
  Sm  Sm3  1  0.786525  0.493348  0.346603  1
  Sm  Sm4  1  0.213475  0.993348  0.653397  1
  Sm  Sm5  1  0.786525  0.006652  0.346603  1
  Sm  Sm6  1  0.213475  0.506652  0.653397  1
  Sm  Sm7  1  0.713475  0.993348  0.846603  1
  Sm  Sm8  1  0.286525  0.006652  0.153397  1
  Sm  Sm9  1  0.783305  0.250000  0.582341  1
  Sm  Sm10  1  0.716695  0.750000  0.082341  1
  Sm  Sm11  1  0.216695  0.750000  0.417659  1
  Nb  Nb12  1  0.675026  0.250000  0.067751  1
  Nb  Nb13  1  0.324974  0.750000  0.932249  1
  Nb  Nb14  1  0.824974  0.750000  0.567751  1
  Nb  Nb15  1  0.175026  0.250000  0.432249  1
  Se  Se16  1  0.997005  0.250000  0.771640  1
  Se  Se17  1  0.050749  0.750000  0.797502  1
  Se  Se18  1  0.002995  0.750000  0.228360  1
  Se  Se19  1  0.449251  0.250000  0.297502  1
  Se  Se20  1  0.497005  0.250000  0.728360  1
  Se  Se21  1  0.550749  0.750000  0.702498  1
  Se  Se22  1  0.500000  0.000000  0.500000  1
  Se  Se23  1  0.949251  0.250000  0.202498  1
  Se  Se24  1  0.502995  0.750000  0.271640  1
  Se  Se25  1  0.000000  0.500000  0.000000  1
  Se  Se26  1  0.000000  0.000000  0.000000  1
  Se  Se27  1  0.500000  0.500000  0.500000  1
  O  O28  1  0.357653  0.750000  0.062058  1
  O  O29  1  0.386373  0.526594  0.886117  1
  O  O30  1  0.857653  0.750000  0.437942  1
  O  O31  1  0.386373  0.973406  0.886117  1
  O  O32  1  0.867781  0.250000  0.431836  1
  O  O33  1  0.613627  0.473406  0.113883  1
  O  O34  1  0.632219  0.750000  0.931836  1
  O  O35  1  0.886373  0.973406  0.613883  1
  O  O36  1  0.113627  0.026594  0.386117  1
  O  O37  1  0.367781  0.250000  0.068164  1
  O  O38  1  0.132219  0.750000  0.568164  1
  O  O39  1  0.613627  0.026594  0.113883  1
  O  O40  1  0.113627  0.473406  0.386117  1
  O  O41  1  0.642347  0.250000  0.937942  1
  O  O42  1  0.142347  0.250000  0.562058  1
  O  O43  1  0.886373  0.526594  0.613883  1
