# generated using pymatgen
data_SiO2
_symmetry_space_group_name_H-M   'P 1'
_cell_length_a   7.50081728
_cell_length_b   22.28491234
_cell_length_c   11.65232535
_cell_angle_alpha   90.00000000
_cell_angle_beta   94.82510915
_cell_angle_gamma   90.00000000
_symmetry_Int_Tables_number   1
_chemical_formula_structural   SiO2
_chemical_formula_sum   'Si32 O64'
_cell_volume   1940.84246478
_cell_formula_units_Z   32
loop_
 _symmetry_equiv_pos_site_id
 _symmetry_equiv_pos_as_xyz
  1  'x, y, z'
loop_
 _atom_site_type_symbol
 _atom_site_label
 _atom_site_symmetry_multiplicity
 _atom_site_fract_x
 _atom_site_fract_y
 _atom_site_fract_z
 _atom_site_occupancy
  Si  Si0  1  0.257141  0.817369  0.962385  1
  Si  Si1  1  0.898204  0.630011  0.864459  1
  Si  Si2  1  0.403627  0.929858  0.607345  1
  Si  Si3  1  0.762066  0.541704  0.050898  1
  Si  Si4  1  0.519652  0.680278  0.760803  1
  Si  Si5  1  0.062633  0.978157  0.730305  1
  Si  Si6  1  0.742859  0.182631  0.037615  1
  Si  Si7  1  0.519652  0.819722  0.760803  1
  Si  Si8  1  0.363982  0.930261  0.109815  1
  Si  Si9  1  0.480348  0.180278  0.239197  1
  Si  Si10  1  0.596373  0.429858  0.392655  1
  Si  Si11  1  0.363982  0.569739  0.109815  1
  Si  Si12  1  0.237934  0.041704  0.949102  1
  Si  Si13  1  0.480348  0.319722  0.239197  1
  Si  Si14  1  0.062633  0.521843  0.730305  1
  Si  Si15  1  0.101796  0.369989  0.135541  1
  Si  Si16  1  0.762066  0.958296  0.050898  1
  Si  Si17  1  0.403627  0.570142  0.607345  1
  Si  Si18  1  0.898204  0.869989  0.864459  1
  Si  Si19  1  0.742859  0.317369  0.037615  1
  Si  Si20  1  0.291467  0.529065  0.361638  1
  Si  Si21  1  0.937367  0.021843  0.269695  1
  Si  Si22  1  0.708533  0.029065  0.638362  1
  Si  Si23  1  0.636018  0.069739  0.890185  1
  Si  Si24  1  0.101796  0.130011  0.135541  1
  Si  Si25  1  0.937367  0.478157  0.269695  1
  Si  Si26  1  0.708533  0.470935  0.638362  1
  Si  Si27  1  0.596373  0.070142  0.392655  1
  Si  Si28  1  0.257141  0.682631  0.962385  1
  Si  Si29  1  0.636018  0.430261  0.890185  1
  Si  Si30  1  0.237934  0.458296  0.949102  1
  Si  Si31  1  0.291467  0.970935  0.361638  1
  O  O32  1  0.576822  0.935112  0.097408  1
  O  O33  1  0.505361  0.750000  0.719292  1
  O  O34  1  0.399939  0.668260  0.868475  1
  O  O35  1  0.846562  0.904237  0.980276  1
  O  O36  1  0.587454  0.968321  0.629724  1
  O  O37  1  0.711482  0.365225  0.933311  1
  O  O38  1  0.973691  0.916720  0.773507  1
  O  O39  1  0.102837  0.024050  0.838173  1
  O  O40  1  0.674904  0.435761  0.756261  1
  O  O41  1  0.412546  0.031679  0.370276  1
  O  O42  1  0.153438  0.404237  0.019724  1
  O  O43  1  0.600061  0.168260  0.131525  1
  O  O44  1  0.726835  0.664475  0.801270  1
  O  O45  1  0.973691  0.583280  0.773507  1
  O  O46  1  0.587454  0.531679  0.629724  1
  O  O47  1  0.846562  0.595763  0.980276  1
  O  O48  1  0.399939  0.831740  0.868475  1
  O  O49  1  0.026309  0.083280  0.226493  1
  O  O50  1  0.273165  0.164475  0.198730  1
  O  O51  1  0.273165  0.335525  0.198730  1
  O  O52  1  0.753226  0.037442  0.326961  1
  O  O53  1  0.711397  0.250000  0.986037  1
  O  O54  1  0.576822  0.564888  0.097408  1
  O  O55  1  0.026309  0.416720  0.226493  1
  O  O56  1  0.053631  0.821420  0.902107  1
  O  O57  1  0.265240  0.516550  0.032864  1
  O  O58  1  0.442435  0.638011  0.653981  1
  O  O59  1  0.919173  0.010603  0.637375  1
  O  O60  1  0.897163  0.975950  0.161827  1
  O  O61  1  0.734760  0.483450  0.967136  1
  O  O62  1  0.423178  0.435112  0.902592  1
  O  O63  1  0.711482  0.134775  0.933311  1
  O  O64  1  0.557565  0.361989  0.346019  1
  O  O65  1  0.344216  0.573463  0.469955  1
  O  O66  1  0.325096  0.564239  0.243739  1
  O  O67  1  0.919173  0.489397  0.637375  1
  O  O68  1  0.246774  0.962558  0.673039  1
  O  O69  1  0.288518  0.634775  0.066689  1
  O  O70  1  0.946369  0.178580  0.097893  1
  O  O71  1  0.080827  0.989397  0.362625  1
  O  O72  1  0.080827  0.510603  0.362625  1
  O  O73  1  0.946369  0.321420  0.097893  1
  O  O74  1  0.753226  0.462558  0.326961  1
  O  O75  1  0.288518  0.865225  0.066689  1
  O  O76  1  0.246774  0.537442  0.673039  1
  O  O77  1  0.494639  0.250000  0.280708  1
  O  O78  1  0.726835  0.835525  0.801270  1
  O  O79  1  0.412546  0.468321  0.370276  1
  O  O80  1  0.734760  0.016550  0.967136  1
  O  O81  1  0.655784  0.073463  0.530045  1
  O  O82  1  0.153438  0.095763  0.019724  1
  O  O83  1  0.288603  0.750000  0.013963  1
  O  O84  1  0.325096  0.935761  0.243739  1
  O  O85  1  0.344216  0.926537  0.469955  1
  O  O86  1  0.423178  0.064888  0.902592  1
  O  O87  1  0.655784  0.426537  0.530045  1
  O  O88  1  0.102837  0.475950  0.838173  1
  O  O89  1  0.897163  0.524050  0.161827  1
  O  O90  1  0.557565  0.138011  0.346019  1
  O  O91  1  0.442435  0.861989  0.653981  1
  O  O92  1  0.265240  0.983450  0.032864  1
  O  O93  1  0.600061  0.331740  0.131525  1
  O  O94  1  0.053631  0.678580  0.902107  1
  O  O95  1  0.674904  0.064239  0.756261  1
