# generated using pymatgen
data_BaLi2SiO4
_symmetry_space_group_name_H-M   'P 1'
_cell_length_a   8.18338468
_cell_length_b   8.18338468
_cell_length_c   10.76352542
_cell_angle_alpha   90.00000000
_cell_angle_beta   90.00000000
_cell_angle_gamma   120.00000000
_symmetry_Int_Tables_number   1
_chemical_formula_structural   BaLi2SiO4
_chemical_formula_sum   'Ba6 Li12 Si6 O24'
_cell_volume   624.23929845
_cell_formula_units_Z   6
loop_
 _symmetry_equiv_pos_site_id
 _symmetry_equiv_pos_as_xyz
  1  'x, y, z'
loop_
 _atom_site_type_symbol
 _atom_site_label
 _atom_site_symmetry_multiplicity
 _atom_site_fract_x
 _atom_site_fract_y
 _atom_site_fract_z
 _atom_site_occupancy
  Ba  Ba0  1  0.430232  0.000000  0.726424  1
  Ba  Ba1  1  0.569768  0.000000  0.226424  1
  Ba  Ba2  1  0.430232  0.430232  0.226424  1
  Ba  Ba3  1  0.000000  0.569768  0.226424  1
  Ba  Ba4  1  0.000000  0.430232  0.726424  1
  Ba  Ba5  1  0.569768  0.569768  0.726424  1
  Li  Li6  1  0.225294  0.000000  0.079304  1
  Li  Li7  1  0.732811  0.000000  0.940789  1
  Li  Li8  1  0.000000  0.225294  0.079304  1
  Li  Li9  1  0.000000  0.732811  0.940789  1
  Li  Li10  1  0.774706  0.000000  0.579304  1
  Li  Li11  1  0.732811  0.732811  0.440789  1
  Li  Li12  1  0.000000  0.774706  0.579304  1
  Li  Li13  1  0.225294  0.225294  0.579304  1
  Li  Li14  1  0.000000  0.267189  0.440789  1
  Li  Li15  1  0.267189  0.000000  0.440789  1
  Li  Li16  1  0.267189  0.267189  0.940789  1
  Li  Li17  1  0.774706  0.774706  0.079304  1
  Si  Si18  1  0.666667  0.333333  0.982359  1
  Si  Si19  1  0.333333  0.666667  0.982359  1
  Si  Si20  1  0.000000  0.000000  0.311718  1
  Si  Si21  1  0.666667  0.333333  0.482359  1
  Si  Si22  1  0.000000  0.000000  0.811718  1
  Si  Si23  1  0.333333  0.666667  0.482359  1
  O  O24  1  0.192784  0.000000  0.265094  1
  O  O25  1  0.333333  0.666667  0.329560  1
  O  O26  1  0.192784  0.192784  0.765094  1
  O  O27  1  0.807216  0.000000  0.765094  1
  O  O28  1  0.775330  0.221590  0.033368  1
  O  O29  1  0.221590  0.446260  0.533368  1
  O  O30  1  0.446260  0.221590  0.533368  1
  O  O31  1  0.666667  0.333333  0.829560  1
  O  O32  1  0.000000  0.000000  0.969294  1
  O  O33  1  0.775330  0.553740  0.533368  1
  O  O34  1  0.224670  0.778410  0.533368  1
  O  O35  1  0.446260  0.224670  0.033368  1
  O  O36  1  0.778410  0.553740  0.033368  1
  O  O37  1  0.000000  0.807216  0.765094  1
  O  O38  1  0.221590  0.775330  0.033368  1
  O  O39  1  0.224670  0.446260  0.033368  1
  O  O40  1  0.000000  0.192784  0.265094  1
  O  O41  1  0.553740  0.775330  0.533368  1
  O  O42  1  0.807216  0.807216  0.265094  1
  O  O43  1  0.000000  0.000000  0.469294  1
  O  O44  1  0.778410  0.224670  0.533368  1
  O  O45  1  0.333333  0.666667  0.829560  1
  O  O46  1  0.666667  0.333333  0.329560  1
  O  O47  1  0.553740  0.778410  0.033368  1
