# generated using pymatgen
data_MnP4H16(NO8)2
_symmetry_space_group_name_H-M   'P 1'
_cell_length_a   7.11576013
_cell_length_b   7.51058163
_cell_length_c   7.90691868
_cell_angle_alpha   99.49801384
_cell_angle_beta   108.33307726
_cell_angle_gamma   88.28894874
_symmetry_Int_Tables_number   1
_chemical_formula_structural   MnP4H16(NO8)2
_chemical_formula_sum   'Mn1 P4 H16 N2 O16'
_cell_volume   395.51669174
_cell_formula_units_Z   1
loop_
 _symmetry_equiv_pos_site_id
 _symmetry_equiv_pos_as_xyz
  1  'x, y, z'
loop_
 _atom_site_type_symbol
 _atom_site_label
 _atom_site_symmetry_multiplicity
 _atom_site_fract_x
 _atom_site_fract_y
 _atom_site_fract_z
 _atom_site_occupancy
  Mn  Mn0  1  0.000000  0.500000  0.000000  1
  P  P1  1  0.751968  0.794927  0.743561  1
  P  P2  1  0.248032  0.205073  0.256439  1
  P  P3  1  0.166579  0.747393  0.744494  1
  P  P4  1  0.833421  0.252607  0.255506  1
  H  H5  1  0.435885  0.734326  0.580109  1
  H  H6  1  0.564115  0.265674  0.419891  1
  H  H7  1  0.242172  0.973612  0.977158  1
  H  H8  1  0.757828  0.026388  0.022842  1
  H  H9  1  0.553024  0.307217  0.892855  1
  H  H10  1  0.446976  0.692783  0.107145  1
  H  H11  1  0.424150  0.274710  0.668077  1
  H  H12  1  0.575850  0.725290  0.331923  1
  H  H13  1  0.326666  0.396007  0.821014  1
  H  H14  1  0.673334  0.603993  0.178986  1
  H  H15  1  0.349783  0.169396  0.810081  1
  H  H16  1  0.650217  0.830604  0.189919  1
  H  H17  1  0.881172  0.165735  0.783502  1
  H  H18  1  0.118828  0.834265  0.216498  1
  H  H19  1  0.880768  0.294896  0.641668  1
  H  H20  1  0.119232  0.705104  0.358332  1
  N  N21  1  0.413784  0.286793  0.798031  1
  N  N22  1  0.586216  0.713207  0.201969  1
  O  O23  1  0.755496  0.653604  0.859614  1
  O  O24  1  0.244504  0.346396  0.140386  1
  O  O25  1  0.571454  0.765659  0.563489  1
  O  O26  1  0.428546  0.234341  0.436511  1
  O  O27  1  0.766091  0.990157  0.839453  1
  O  O28  1  0.233909  0.009843  0.160547  1
  O  O29  1  0.930044  0.766249  0.654343  1
  O  O30  1  0.069956  0.233751  0.345657  1
  O  O31  1  0.204860  0.618120  0.881263  1
  O  O32  1  0.795140  0.381880  0.118737  1
  O  O33  1  0.240855  0.691137  0.584697  1
  O  O34  1  0.759145  0.308863  0.415303  1
  O  O35  1  0.252222  0.941173  0.844794  1
  O  O36  1  0.747778  0.058827  0.155206  1
  O  O37  1  0.941034  0.277827  0.769190  1
  O  O38  1  0.058966  0.722173  0.230810  1
