# generated using pymatgen
data_K2MnF6
_symmetry_space_group_name_H-M   'P 1'
_cell_length_a   5.83422944
_cell_length_b   5.83422944
_cell_length_c   9.53848333
_cell_angle_alpha   90.00000000
_cell_angle_beta   90.00000000
_cell_angle_gamma   120.00000000
_symmetry_Int_Tables_number   1
_chemical_formula_structural   K2MnF6
_chemical_formula_sum   'K4 Mn2 F12'
_cell_volume   281.17516971
_cell_formula_units_Z   2
loop_
 _symmetry_equiv_pos_site_id
 _symmetry_equiv_pos_as_xyz
  1  'x, y, z'
loop_
 _atom_site_type_symbol
 _atom_site_label
 _atom_site_symmetry_multiplicity
 _atom_site_fract_x
 _atom_site_fract_y
 _atom_site_fract_z
 _atom_site_occupancy
  K  K0  1  0.000000  0.000000  0.099283  1
  K  K1  1  0.000000  0.000000  0.599283  1
  K  K2  1  0.666667  0.333333  0.372348  1
  K  K3  1  0.333333  0.666667  0.872348  1
  Mn  Mn4  1  0.666667  0.333333  0.756904  1
  Mn  Mn5  1  0.333333  0.666667  0.256904  1
  F  F6  1  0.518527  0.481473  0.643349  1
  F  F7  1  0.037053  0.518527  0.143349  1
  F  F8  1  0.481473  0.962947  0.143349  1
  F  F9  1  0.518527  0.037053  0.643349  1
  F  F10  1  0.962947  0.481473  0.643349  1
  F  F11  1  0.481473  0.518527  0.143349  1
  F  F12  1  0.180619  0.819381  0.363807  1
  F  F13  1  0.361239  0.180619  0.863807  1
  F  F14  1  0.819381  0.638761  0.863807  1
  F  F15  1  0.180619  0.361239  0.363807  1
  F  F16  1  0.638761  0.819381  0.363807  1
  F  F17  1  0.819381  0.180619  0.863807  1
