# generated using pymatgen
data_Zn4SiTePbO10
_symmetry_space_group_name_H-M   'P 1'
_cell_length_a   6.62229794
_cell_length_b   8.41332930
_cell_length_c   15.84203718
_cell_angle_alpha   90.00000000
_cell_angle_beta   90.00000000
_cell_angle_gamma   90.00000000
_symmetry_Int_Tables_number   1
_chemical_formula_structural   Zn4SiTePbO10
_chemical_formula_sum   'Zn16 Si4 Te4 Pb4 O40'
_cell_volume   882.64818360
_cell_formula_units_Z   4
loop_
 _symmetry_equiv_pos_site_id
 _symmetry_equiv_pos_as_xyz
  1  'x, y, z'
loop_
 _atom_site_type_symbol
 _atom_site_label
 _atom_site_symmetry_multiplicity
 _atom_site_fract_x
 _atom_site_fract_y
 _atom_site_fract_z
 _atom_site_occupancy
  Zn  Zn0  1  0.714438  0.228770  0.363890  1
  Zn  Zn1  1  0.529399  0.877854  0.433775  1
  Zn  Zn2  1  0.785562  0.728770  0.863890  1
  Zn  Zn3  1  0.214438  0.271230  0.136110  1
  Zn  Zn4  1  0.470601  0.122146  0.933775  1
  Zn  Zn5  1  0.970601  0.377854  0.566225  1
  Zn  Zn6  1  0.029399  0.622146  0.066225  1
  Zn  Zn7  1  0.970601  0.377854  0.933775  1
  Zn  Zn8  1  0.029399  0.622146  0.433775  1
  Zn  Zn9  1  0.785562  0.728770  0.636110  1
  Zn  Zn10  1  0.214438  0.271230  0.363890  1
  Zn  Zn11  1  0.470601  0.122146  0.566225  1
  Zn  Zn12  1  0.285562  0.771230  0.636110  1
  Zn  Zn13  1  0.285562  0.771230  0.863890  1
  Zn  Zn14  1  0.529399  0.877854  0.066225  1
  Zn  Zn15  1  0.714438  0.228770  0.136110  1
  Si  Si16  1  0.065856  0.510672  0.750000  1
  Si  Si17  1  0.934144  0.489328  0.250000  1
  Si  Si18  1  0.434144  0.010672  0.250000  1
  Si  Si19  1  0.565856  0.989328  0.750000  1
  Te  Te20  1  0.000000  0.000000  0.500000  1
  Te  Te21  1  0.500000  0.500000  0.000000  1
  Te  Te22  1  0.000000  0.000000  0.000000  1
  Te  Te23  1  0.500000  0.500000  0.500000  1
  Pb  Pb24  1  0.055883  0.089979  0.750000  1
  Pb  Pb25  1  0.555883  0.410021  0.750000  1
  Pb  Pb26  1  0.444117  0.589979  0.250000  1
  Pb  Pb27  1  0.944117  0.910021  0.250000  1
  O  O28  1  0.473496  0.657811  0.089558  1
  O  O29  1  0.084239  0.481814  0.333026  1
  O  O30  1  0.524741  0.670322  0.914161  1
  O  O31  1  0.024741  0.829678  0.585839  1
  O  O32  1  0.024741  0.829678  0.914161  1
  O  O33  1  0.220071  0.666643  0.750000  1
  O  O34  1  0.206976  0.505866  0.515024  1
  O  O35  1  0.026504  0.157811  0.589558  1
  O  O36  1  0.526504  0.342189  0.910442  1
  O  O37  1  0.793024  0.494134  0.015024  1
  O  O38  1  0.779929  0.333357  0.250000  1
  O  O39  1  0.305633  0.844755  0.250000  1
  O  O40  1  0.973496  0.842189  0.410442  1
  O  O41  1  0.975259  0.170322  0.414161  1
  O  O42  1  0.805633  0.655245  0.250000  1
  O  O43  1  0.720071  0.833357  0.750000  1
  O  O44  1  0.473496  0.657811  0.410442  1
  O  O45  1  0.694367  0.155245  0.750000  1
  O  O46  1  0.524741  0.670322  0.585839  1
  O  O47  1  0.915761  0.518186  0.833026  1
  O  O48  1  0.415761  0.981814  0.666974  1
  O  O49  1  0.293024  0.005866  0.484976  1
  O  O50  1  0.584239  0.018186  0.333026  1
  O  O51  1  0.526504  0.342189  0.589558  1
  O  O52  1  0.475259  0.329678  0.085839  1
  O  O53  1  0.415761  0.981814  0.833026  1
  O  O54  1  0.206976  0.505866  0.984976  1
  O  O55  1  0.584239  0.018186  0.166974  1
  O  O56  1  0.293024  0.005866  0.015024  1
  O  O57  1  0.194367  0.344755  0.750000  1
  O  O58  1  0.026504  0.157811  0.910442  1
  O  O59  1  0.475259  0.329678  0.414161  1
  O  O60  1  0.084239  0.481814  0.166974  1
  O  O61  1  0.973496  0.842189  0.089558  1
  O  O62  1  0.915761  0.518186  0.666974  1
  O  O63  1  0.706976  0.994134  0.515024  1
  O  O64  1  0.793024  0.494134  0.484976  1
  O  O65  1  0.279929  0.166643  0.250000  1
  O  O66  1  0.975259  0.170322  0.085839  1
  O  O67  1  0.706976  0.994134  0.984976  1
