# generated using pymatgen
data_Ba7Fe6CuF34
_symmetry_space_group_name_H-M   'P 1'
_cell_length_a   10.37828001
_cell_length_b   10.37828001
_cell_length_c   7.81951091
_cell_angle_alpha   80.36749862
_cell_angle_beta   99.63250138
_cell_angle_gamma   112.03957502
_symmetry_Int_Tables_number   1
_chemical_formula_structural   Ba7Fe6CuF34
_chemical_formula_sum   'Ba7 Fe6 Cu1 F34'
_cell_volume   764.62420509
_cell_formula_units_Z   1
loop_
 _symmetry_equiv_pos_site_id
 _symmetry_equiv_pos_as_xyz
  1  'x, y, z'
loop_
 _atom_site_type_symbol
 _atom_site_label
 _atom_site_symmetry_multiplicity
 _atom_site_fract_x
 _atom_site_fract_y
 _atom_site_fract_z
 _atom_site_occupancy
  Ba  Ba0  1  0.440431  0.158806  0.301019  1
  Ba  Ba1  1  0.158806  0.440431  0.698981  1
  Ba  Ba2  1  0.559569  0.841194  0.698981  1
  Ba  Ba3  1  0.841194  0.559569  0.301019  1
  Ba  Ba4  1  0.735638  0.264362  0.874277  1
  Ba  Ba5  1  0.264362  0.735638  0.125723  1
  Ba  Ba6  1  0.000000  0.000000  0.000000  1
  Fe  Fe7  1  0.352876  0.133285  0.800476  1
  Fe  Fe8  1  0.133285  0.352876  0.199524  1
  Fe  Fe9  1  0.647124  0.866715  0.199524  1
  Fe  Fe10  1  0.866715  0.647124  0.800476  1
  Fe  Fe11  1  0.826439  0.173561  0.458950  1
  Fe  Fe12  1  0.173561  0.826439  0.541050  1
  Cu  Cu13  1  0.500000  0.500000  0.500000  1
  F  F14  1  0.560512  0.439488  0.325857  1
  F  F15  1  0.439488  0.560512  0.674143  1
  F  F16  1  0.888874  0.111126  0.694184  1
  F  F17  1  0.111126  0.888874  0.305816  1
  F  F18  1  0.746272  0.253728  0.240633  1
  F  F19  1  0.253728  0.746272  0.759367  1
  F  F20  1  0.355743  0.880003  0.455550  1
  F  F21  1  0.880003  0.355743  0.544450  1
  F  F22  1  0.644257  0.119997  0.544450  1
  F  F23  1  0.119997  0.644257  0.455550  1
  F  F24  1  0.231185  0.014490  0.613998  1
  F  F25  1  0.014490  0.231185  0.386002  1
  F  F26  1  0.768815  0.985510  0.386002  1
  F  F27  1  0.985510  0.768815  0.613998  1
  F  F28  1  0.246538  0.486420  0.028511  1
  F  F29  1  0.486420  0.246538  0.971489  1
  F  F30  1  0.753462  0.513580  0.971489  1
  F  F31  1  0.513580  0.753462  0.028511  1
  F  F32  1  0.004568  0.736372  0.992886  1
  F  F33  1  0.736372  0.004568  0.007114  1
  F  F34  1  0.995432  0.263628  0.007114  1
  F  F35  1  0.263628  0.995432  0.992886  1
  F  F36  1  0.040894  0.484056  0.196725  1
  F  F37  1  0.484056  0.040894  0.803275  1
  F  F38  1  0.959106  0.515944  0.803275  1
  F  F39  1  0.515944  0.959106  0.196725  1
  F  F40  1  0.793542  0.793170  0.799054  1
  F  F41  1  0.793170  0.793542  0.200946  1
  F  F42  1  0.206458  0.206830  0.200946  1
  F  F43  1  0.206830  0.206458  0.799054  1
  F  F44  1  0.276132  0.445728  0.385620  1
  F  F45  1  0.445728  0.276132  0.614380  1
  F  F46  1  0.723868  0.554272  0.614380  1
  F  F47  1  0.554272  0.723868  0.385620  1
