# generated using pymatgen
data_K2Ge4O9
_symmetry_space_group_name_H-M   'P 1'
_cell_length_a   12.05450680
_cell_length_b   12.05450680
_cell_length_c   9.95996665
_cell_angle_alpha   90.00000000
_cell_angle_beta   90.00000000
_cell_angle_gamma   120.00000000
_symmetry_Int_Tables_number   1
_chemical_formula_structural   K2Ge4O9
_chemical_formula_sum   'K12 Ge24 O54'
_cell_volume   1253.39341376
_cell_formula_units_Z   6
loop_
 _symmetry_equiv_pos_site_id
 _symmetry_equiv_pos_as_xyz
  1  'x, y, z'
loop_
 _atom_site_type_symbol
 _atom_site_label
 _atom_site_symmetry_multiplicity
 _atom_site_fract_x
 _atom_site_fract_y
 _atom_site_fract_z
 _atom_site_occupancy
  K  K0  1  0.998082  0.663429  0.571801  1
  K  K1  1  0.336571  0.334654  0.571801  1
  K  K2  1  0.665346  0.001918  0.571801  1
  K  K3  1  0.998082  0.334654  0.071801  1
  K  K4  1  0.665346  0.663429  0.071801  1
  K  K5  1  0.336571  0.001918  0.071801  1
  K  K6  1  0.001918  0.336571  0.428199  1
  K  K7  1  0.663429  0.665346  0.428199  1
  K  K8  1  0.334654  0.998082  0.428199  1
  K  K9  1  0.001918  0.665346  0.928199  1
  K  K10  1  0.334654  0.336571  0.928199  1
  K  K11  1  0.663429  0.998082  0.928199  1
  Ge  Ge12  1  0.000000  0.000000  0.500000  1
  Ge  Ge13  1  0.000000  0.000000  0.000000  1
  Ge  Ge14  1  0.000000  0.823547  0.250000  1
  Ge  Ge15  1  0.176453  0.176453  0.250000  1
  Ge  Ge16  1  0.823547  0.000000  0.250000  1
  Ge  Ge17  1  0.000000  0.176453  0.750000  1
  Ge  Ge18  1  0.823547  0.823547  0.750000  1
  Ge  Ge19  1  0.176453  0.000000  0.750000  1
  Ge  Ge20  1  0.849350  0.514093  0.285600  1
  Ge  Ge21  1  0.485907  0.335257  0.285600  1
  Ge  Ge22  1  0.664743  0.150650  0.285600  1
  Ge  Ge23  1  0.849350  0.335257  0.785600  1
  Ge  Ge24  1  0.664743  0.514093  0.785600  1
  Ge  Ge25  1  0.485907  0.150650  0.785600  1
  Ge  Ge26  1  0.150650  0.485907  0.714400  1
  Ge  Ge27  1  0.514093  0.664743  0.714400  1
  Ge  Ge28  1  0.335257  0.849350  0.714400  1
  Ge  Ge29  1  0.150650  0.664743  0.214400  1
  Ge  Ge30  1  0.335257  0.485907  0.214400  1
  Ge  Ge31  1  0.514093  0.849350  0.214400  1
  Ge  Ge32  1  0.666667  0.333333  0.037893  1
  Ge  Ge33  1  0.666667  0.333333  0.537893  1
  Ge  Ge34  1  0.333333  0.666667  0.962107  1
  Ge  Ge35  1  0.333333  0.666667  0.462107  1
  O  O36  1  0.079822  0.929489  0.384818  1
  O  O37  1  0.070511  0.150333  0.384818  1
  O  O38  1  0.849667  0.920178  0.384818  1
  O  O39  1  0.079822  0.150333  0.884818  1
  O  O40  1  0.849667  0.929489  0.884818  1
  O  O41  1  0.070511  0.920178  0.884818  1
  O  O42  1  0.920178  0.070511  0.615182  1
  O  O43  1  0.929489  0.849667  0.615182  1
  O  O44  1  0.150333  0.079822  0.615182  1
  O  O45  1  0.920178  0.849667  0.115182  1
  O  O46  1  0.150333  0.070511  0.115182  1
  O  O47  1  0.929489  0.079822  0.115182  1
  O  O48  1  0.886126  0.674401  0.331826  1
  O  O49  1  0.325599  0.211725  0.331826  1
  O  O50  1  0.788275  0.113874  0.331826  1
  O  O51  1  0.886126  0.211725  0.831826  1
  O  O52  1  0.788275  0.674401  0.831826  1
  O  O53  1  0.325599  0.113874  0.831826  1
  O  O54  1  0.113874  0.325599  0.668174  1
  O  O55  1  0.674401  0.788275  0.668174  1
  O  O56  1  0.211725  0.886126  0.668174  1
  O  O57  1  0.113874  0.788275  0.168174  1
  O  O58  1  0.211725  0.325599  0.168174  1
  O  O59  1  0.674401  0.886126  0.168174  1
  O  O60  1  0.747796  0.484313  0.148047  1
  O  O61  1  0.515687  0.263483  0.148047  1
  O  O62  1  0.736517  0.252204  0.148047  1
  O  O63  1  0.747796  0.263483  0.648047  1
  O  O64  1  0.736517  0.484313  0.648047  1
  O  O65  1  0.515687  0.252204  0.648047  1
  O  O66  1  0.252204  0.515687  0.851953  1
  O  O67  1  0.484313  0.736517  0.851953  1
  O  O68  1  0.263483  0.747796  0.851953  1
  O  O69  1  0.252204  0.736517  0.351953  1
  O  O70  1  0.263483  0.515687  0.351953  1
  O  O71  1  0.484313  0.747796  0.351953  1
  O  O72  1  0.816807  0.419126  0.430037  1
  O  O73  1  0.580874  0.397680  0.430037  1
  O  O74  1  0.602320  0.183193  0.430037  1
  O  O75  1  0.816807  0.397680  0.930037  1
  O  O76  1  0.602320  0.419126  0.930037  1
  O  O77  1  0.580874  0.183193  0.930037  1
  O  O78  1  0.183193  0.580874  0.569963  1
  O  O79  1  0.419126  0.602320  0.569963  1
  O  O80  1  0.397680  0.816807  0.569963  1
  O  O81  1  0.183193  0.602320  0.069963  1
  O  O82  1  0.397680  0.580874  0.069963  1
  O  O83  1  0.419126  0.816807  0.069963  1
  O  O84  1  0.000000  0.523418  0.250000  1
  O  O85  1  0.476582  0.476582  0.250000  1
  O  O86  1  0.523418  0.000000  0.250000  1
  O  O87  1  0.000000  0.476582  0.750000  1
  O  O88  1  0.523418  0.523418  0.750000  1
  O  O89  1  0.476582  0.000000  0.750000  1
