# generated using pymatgen
data_Se
_symmetry_space_group_name_H-M   'P 1'
_cell_length_a   10.23632433
_cell_length_b   8.48587136
_cell_length_c   13.64031135
_cell_angle_alpha   90.00000000
_cell_angle_beta   95.18938524
_cell_angle_gamma   90.00000000
_symmetry_Int_Tables_number   1
_chemical_formula_structural   Se
_chemical_formula_sum   Se32
_cell_volume   1179.99728622
_cell_formula_units_Z   32
loop_
 _symmetry_equiv_pos_site_id
 _symmetry_equiv_pos_as_xyz
  1  'x, y, z'
loop_
 _atom_site_type_symbol
 _atom_site_label
 _atom_site_symmetry_multiplicity
 _atom_site_fract_x
 _atom_site_fract_y
 _atom_site_fract_z
 _atom_site_occupancy
  Se  Se0  1  0.423879  0.679579  0.585350  1
  Se  Se1  1  0.576121  0.179579  0.914650  1
  Se  Se2  1  0.576121  0.320421  0.414650  1
  Se  Se3  1  0.423879  0.820421  0.085350  1
  Se  Se4  1  0.246549  0.765988  0.475837  1
  Se  Se5  1  0.753451  0.265988  0.024163  1
  Se  Se6  1  0.753451  0.234012  0.524163  1
  Se  Se7  1  0.246549  0.734012  0.975837  1
  Se  Se8  1  0.232610  0.597692  0.336541  1
  Se  Se9  1  0.767390  0.097692  0.163459  1
  Se  Se10  1  0.767390  0.402308  0.663459  1
  Se  Se11  1  0.232610  0.902308  0.836541  1
  Se  Se12  1  0.062786  0.414730  0.355086  1
  Se  Se13  1  0.937214  0.914730  0.144914  1
  Se  Se14  1  0.937214  0.585270  0.644914  1
  Se  Se15  1  0.062786  0.085270  0.855086  1
  Se  Se16  1  0.161333  0.176500  0.413299  1
  Se  Se17  1  0.838667  0.676500  0.086701  1
  Se  Se18  1  0.838667  0.823500  0.586701  1
  Se  Se19  1  0.161333  0.323500  0.913299  1
  Se  Se20  1  0.153000  0.166787  0.586468  1
  Se  Se21  1  0.847000  0.666787  0.913532  1
  Se  Se22  1  0.847000  0.833213  0.413532  1
  Se  Se23  1  0.153000  0.333213  0.086468  1
  Se  Se24  1  0.358504  0.252735  0.659940  1
  Se  Se25  1  0.641496  0.752735  0.840060  1
  Se  Se26  1  0.641496  0.747265  0.340060  1
  Se  Se27  1  0.358504  0.247265  0.159940  1
  Se  Se28  1  0.336863  0.520220  0.705643  1
  Se  Se29  1  0.663137  0.020220  0.794357  1
  Se  Se30  1  0.663137  0.479780  0.294357  1
  Se  Se31  1  0.336863  0.979780  0.205643  1
