# generated using pymatgen
data_AgSb(S8F3)2
_symmetry_space_group_name_H-M   'P 1'
_cell_length_a   10.11207299
_cell_length_b   10.11207299
_cell_length_c   16.37794261
_cell_angle_alpha   79.52892408
_cell_angle_beta   100.47107592
_cell_angle_gamma   131.82426387
_symmetry_Int_Tables_number   1
_chemical_formula_structural   AgSb(S8F3)2
_chemical_formula_sum   'Ag2 Sb2 S32 F12'
_cell_volume   1223.00446871
_cell_formula_units_Z   2
loop_
 _symmetry_equiv_pos_site_id
 _symmetry_equiv_pos_as_xyz
  1  'x, y, z'
loop_
 _atom_site_type_symbol
 _atom_site_label
 _atom_site_symmetry_multiplicity
 _atom_site_fract_x
 _atom_site_fract_y
 _atom_site_fract_z
 _atom_site_occupancy
  Ag  Ag0  1  0.166867  0.166867  0.250000  1
  Ag  Ag1  1  0.833133  0.833133  0.750000  1
  Sb  Sb2  1  0.500000  0.500000  0.000000  1
  Sb  Sb3  1  0.500000  0.500000  0.500000  1
  S  S4  1  0.086974  0.724192  0.417070  1
  S  S5  1  0.990326  0.285226  0.063015  1
  S  S6  1  0.298923  0.100533  0.828929  1
  S  S7  1  0.958692  0.640214  0.667156  1
  S  S8  1  0.100533  0.298923  0.671071  1
  S  S9  1  0.098396  0.934069  0.150701  1
  S  S10  1  0.523628  0.784413  0.741623  1
  S  S11  1  0.901604  0.065931  0.849299  1
  S  S12  1  0.215587  0.476372  0.241623  1
  S  S13  1  0.784413  0.523628  0.758377  1
  S  S14  1  0.899467  0.701077  0.328929  1
  S  S15  1  0.701077  0.899467  0.171071  1
  S  S16  1  0.065931  0.901604  0.650701  1
  S  S17  1  0.913026  0.275808  0.582930  1
  S  S18  1  0.009674  0.714774  0.936985  1
  S  S19  1  0.041308  0.359786  0.332844  1
  S  S20  1  0.714774  0.009674  0.563015  1
  S  S21  1  0.640214  0.958692  0.832844  1
  S  S22  1  0.681750  0.934467  0.286464  1
  S  S23  1  0.934069  0.098396  0.349299  1
  S  S24  1  0.065533  0.318250  0.786464  1
  S  S25  1  0.318250  0.065533  0.713536  1
  S  S26  1  0.285226  0.990326  0.436985  1
  S  S27  1  0.498898  0.100992  0.372427  1
  S  S28  1  0.899008  0.501102  0.872427  1
  S  S29  1  0.724192  0.086974  0.082930  1
  S  S30  1  0.476372  0.215587  0.258377  1
  S  S31  1  0.100992  0.498898  0.127573  1
  S  S32  1  0.501102  0.899008  0.627573  1
  S  S33  1  0.934467  0.681750  0.213536  1
  S  S34  1  0.359786  0.041308  0.167156  1
  S  S35  1  0.275808  0.913026  0.917070  1
  F  F36  1  0.257999  0.294072  0.521702  1
  F  F37  1  0.568051  0.359391  0.535020  1
  F  F38  1  0.742001  0.705928  0.478298  1
  F  F39  1  0.562943  0.549433  0.887153  1
  F  F40  1  0.359391  0.568051  0.964980  1
  F  F41  1  0.450567  0.437057  0.387153  1
  F  F42  1  0.437057  0.450567  0.112847  1
  F  F43  1  0.640609  0.431949  0.035020  1
  F  F44  1  0.705928  0.742001  0.021702  1
  F  F45  1  0.549433  0.562943  0.612847  1
  F  F46  1  0.294072  0.257999  0.978298  1
  F  F47  1  0.431949  0.640609  0.464980  1
