# generated using pymatgen
data_Nd3CuGeS7
_symmetry_space_group_name_H-M   'P 1'
_cell_length_a   10.20283218
_cell_length_b   10.20283218
_cell_length_c   5.86961337
_cell_angle_alpha   90.00000000
_cell_angle_beta   90.00000000
_cell_angle_gamma   120.00000000
_symmetry_Int_Tables_number   1
_chemical_formula_structural   Nd3CuGeS7
_chemical_formula_sum   'Nd6 Cu2 Ge2 S14'
_cell_volume   529.15342741
_cell_formula_units_Z   2
loop_
 _symmetry_equiv_pos_site_id
 _symmetry_equiv_pos_as_xyz
  1  'x, y, z'
loop_
 _atom_site_type_symbol
 _atom_site_label
 _atom_site_symmetry_multiplicity
 _atom_site_fract_x
 _atom_site_fract_y
 _atom_site_fract_z
 _atom_site_occupancy
  Nd  Nd0  1  0.228517  0.872224  0.750343  1
  Nd  Nd1  1  0.356293  0.228517  0.250343  1
  Nd  Nd2  1  0.771483  0.127776  0.250343  1
  Nd  Nd3  1  0.127776  0.356293  0.750343  1
  Nd  Nd4  1  0.872224  0.643707  0.250343  1
  Nd  Nd5  1  0.643707  0.771483  0.750343  1
  Cu  Cu6  1  0.000000  0.000000  0.218775  1
  Cu  Cu7  1  0.000000  0.000000  0.718775  1
  Ge  Ge8  1  0.666667  0.333333  0.832290  1
  Ge  Ge9  1  0.333333  0.666667  0.332290  1
  S  S10  1  0.838375  0.091077  0.731416  1
  S  S11  1  0.908923  0.747299  0.731416  1
  S  S12  1  0.161625  0.908923  0.231416  1
  S  S13  1  0.896193  0.416765  0.987105  1
  S  S14  1  0.333333  0.666667  0.957041  1
  S  S15  1  0.666667  0.333333  0.457041  1
  S  S16  1  0.747299  0.838375  0.231416  1
  S  S17  1  0.479428  0.896193  0.487105  1
  S  S18  1  0.416765  0.520572  0.487105  1
  S  S19  1  0.520572  0.103807  0.987105  1
  S  S20  1  0.583235  0.479428  0.987105  1
  S  S21  1  0.091077  0.252701  0.231416  1
  S  S22  1  0.252701  0.161625  0.731416  1
  S  S23  1  0.103807  0.583235  0.487105  1
