# generated using pymatgen
data_KYP2O7
_symmetry_space_group_name_H-M   'P 1'
_cell_length_a   5.49455308
_cell_length_b   5.49455308
_cell_length_c   12.43980579
_cell_angle_alpha   90.00000000
_cell_angle_beta   90.00000000
_cell_angle_gamma   116.49178461
_symmetry_Int_Tables_number   1
_chemical_formula_structural   KYP2O7
_chemical_formula_sum   'K2 Y2 P4 O14'
_cell_volume   336.12481192
_cell_formula_units_Z   2
loop_
 _symmetry_equiv_pos_site_id
 _symmetry_equiv_pos_as_xyz
  1  'x, y, z'
loop_
 _atom_site_type_symbol
 _atom_site_label
 _atom_site_symmetry_multiplicity
 _atom_site_fract_x
 _atom_site_fract_y
 _atom_site_fract_z
 _atom_site_occupancy
  K  K0  1  0.304297  0.695703  0.750000  1
  K  K1  1  0.695703  0.304297  0.250000  1
  Y  Y2  1  0.000000  0.000000  0.000000  1
  Y  Y3  1  0.000000  0.000000  0.500000  1
  P  P4  1  0.644125  0.355875  0.629571  1
  P  P5  1  0.355875  0.644125  0.370429  1
  P  P6  1  0.644125  0.355875  0.870429  1
  P  P7  1  0.355875  0.644125  0.129571  1
  O  O8  1  0.226179  0.333497  0.376844  1
  O  O9  1  0.227204  0.772796  0.444911  1
  O  O10  1  0.773821  0.666503  0.623156  1
  O  O11  1  0.773821  0.666503  0.876844  1
  O  O12  1  0.772796  0.227204  0.555089  1
  O  O13  1  0.666503  0.773821  0.123156  1
  O  O14  1  0.772796  0.227204  0.944911  1
  O  O15  1  0.227204  0.772796  0.055089  1
  O  O16  1  0.666503  0.773821  0.376844  1
  O  O17  1  0.282146  0.717854  0.250000  1
  O  O18  1  0.333497  0.226179  0.623156  1
  O  O19  1  0.333497  0.226179  0.876844  1
  O  O20  1  0.717854  0.282146  0.750000  1
  O  O21  1  0.226179  0.333497  0.123156  1
