# generated using pymatgen
data_K2Ge2S5
_symmetry_space_group_name_H-M   'P 1'
_cell_length_a   11.01193082
_cell_length_b   11.01193082
_cell_length_c   8.94814504
_cell_angle_alpha   79.86509695
_cell_angle_beta   100.13490305
_cell_angle_gamma   89.86468522
_symmetry_Int_Tables_number   1
_chemical_formula_structural   K2Ge2S5
_chemical_formula_sum   'K8 Ge8 S20'
_cell_volume   1050.85505165
_cell_formula_units_Z   4
loop_
 _symmetry_equiv_pos_site_id
 _symmetry_equiv_pos_as_xyz
  1  'x, y, z'
loop_
 _atom_site_type_symbol
 _atom_site_label
 _atom_site_symmetry_multiplicity
 _atom_site_fract_x
 _atom_site_fract_y
 _atom_site_fract_z
 _atom_site_occupancy
  K  K0  1  0.786269  0.468329  0.880096  1
  K  K1  1  0.468329  0.786269  0.619904  1
  K  K2  1  0.213730  0.531671  0.119904  1
  K  K3  1  0.531671  0.213730  0.380096  1
  K  K4  1  0.060767  0.787720  0.617856  1
  K  K5  1  0.787720  0.060767  0.882144  1
  K  K6  1  0.939233  0.212280  0.382144  1
  K  K7  1  0.212280  0.939233  0.117856  1
  Ge  Ge8  1  0.732892  0.526398  0.404238  1
  Ge  Ge9  1  0.526398  0.732892  0.095762  1
  Ge  Ge10  1  0.267108  0.473602  0.595762  1
  Ge  Ge11  1  0.473602  0.267108  0.904238  1
  Ge  Ge12  1  0.133169  0.269774  0.889940  1
  Ge  Ge13  1  0.269774  0.133169  0.610060  1
  Ge  Ge14  1  0.866831  0.730226  0.110060  1
  Ge  Ge15  1  0.730226  0.866831  0.389940  1
  S  S16  1  0.885319  0.541699  0.260071  1
  S  S17  1  0.541699  0.885319  0.239929  1
  S  S18  1  0.114681  0.458301  0.739929  1
  S  S19  1  0.458301  0.114681  0.760071  1
  S  S20  1  0.244720  0.320984  0.451059  1
  S  S21  1  0.320984  0.244720  0.048941  1
  S  S22  1  0.755280  0.679016  0.548941  1
  S  S23  1  0.679016  0.755280  0.951059  1
  S  S24  1  0.756862  0.351039  0.555412  1
  S  S25  1  0.351039  0.756862  0.944588  1
  S  S26  1  0.243138  0.648961  0.444588  1
  S  S27  1  0.648961  0.243138  0.055412  1
  S  S28  1  0.006834  0.752995  0.970193  1
  S  S29  1  0.752995  0.006834  0.529807  1
  S  S30  1  0.993166  0.247005  0.029807  1
  S  S31  1  0.247005  0.993166  0.470193  1
  S  S32  1  0.884677  0.884677  0.250000  1
  S  S33  1  0.115323  0.115323  0.750000  1
  S  S34  1  0.544962  0.544962  0.250000  1
  S  S35  1  0.455038  0.455038  0.750000  1
