# generated using pymatgen
data_MnSnF6
_symmetry_space_group_name_H-M   'P 1'
_cell_length_a   5.75630774
_cell_length_b   5.75630774
_cell_length_c   5.75630774
_cell_angle_alpha   56.75104684
_cell_angle_beta   56.75104684
_cell_angle_gamma   56.75104684
_symmetry_Int_Tables_number   1
_chemical_formula_structural   MnSnF6
_chemical_formula_sum   'Mn1 Sn1 F6'
_cell_volume   124.75458754
_cell_formula_units_Z   1
loop_
 _symmetry_equiv_pos_site_id
 _symmetry_equiv_pos_as_xyz
  1  'x, y, z'
loop_
 _atom_site_type_symbol
 _atom_site_label
 _atom_site_symmetry_multiplicity
 _atom_site_fract_x
 _atom_site_fract_y
 _atom_site_fract_z
 _atom_site_occupancy
  Mn  Mn0  1  0.500000  0.500000  0.500000  1
  Sn  Sn1  1  0.000000  0.000000  0.000000  1
  F  F2  1  0.133022  0.349542  0.758224  1
  F  F3  1  0.349542  0.758223  0.133022  1
  F  F4  1  0.241776  0.866978  0.650458  1
  F  F5  1  0.650458  0.241776  0.866978  1
  F  F6  1  0.866978  0.650458  0.241777  1
  F  F7  1  0.758223  0.133022  0.349542  1
