# generated using pymatgen
data_MgSiO3
_symmetry_space_group_name_H-M   'P 1'
_cell_length_a   5.38003178
_cell_length_b   8.85871013
_cell_length_c   9.36608092
_cell_angle_alpha   90.00000000
_cell_angle_beta   90.00000000
_cell_angle_gamma   90.00000000
_symmetry_Int_Tables_number   1
_chemical_formula_structural   MgSiO3
_chemical_formula_sum   'Mg8 Si8 O24'
_cell_volume   446.38874690
_cell_formula_units_Z   8
loop_
 _symmetry_equiv_pos_site_id
 _symmetry_equiv_pos_as_xyz
  1  'x, y, z'
loop_
 _atom_site_type_symbol
 _atom_site_label
 _atom_site_symmetry_multiplicity
 _atom_site_fract_x
 _atom_site_fract_y
 _atom_site_fract_z
 _atom_site_occupancy
  Mg  Mg0  1  0.250000  0.901753  0.000000  1
  Mg  Mg1  1  0.750000  0.598247  0.500000  1
  Mg  Mg2  1  0.750000  0.098247  0.000000  1
  Mg  Mg3  1  0.250000  0.401753  0.500000  1
  Mg  Mg4  1  0.750000  0.738124  0.000000  1
  Mg  Mg5  1  0.250000  0.761876  0.500000  1
  Mg  Mg6  1  0.250000  0.261876  0.000000  1
  Mg  Mg7  1  0.750000  0.238124  0.500000  1
  Si  Si8  1  0.935597  0.909334  0.292040  1
  Si  Si9  1  0.435597  0.590666  0.207960  1
  Si  Si10  1  0.564403  0.909334  0.707960  1
  Si  Si11  1  0.064403  0.590666  0.792040  1
  Si  Si12  1  0.064403  0.090666  0.707960  1
  Si  Si13  1  0.564403  0.409334  0.792040  1
  Si  Si14  1  0.435597  0.090666  0.292040  1
  Si  Si15  1  0.935597  0.409334  0.207960  1
  O  O16  1  0.712368  0.525175  0.151491  1
  O  O17  1  0.212368  0.974825  0.348509  1
  O  O18  1  0.787632  0.525175  0.848509  1
  O  O19  1  0.287632  0.974825  0.651491  1
  O  O20  1  0.287632  0.474825  0.848509  1
  O  O21  1  0.787632  0.025175  0.651491  1
  O  O22  1  0.212368  0.474825  0.151491  1
  O  O23  1  0.712368  0.025175  0.348509  1
  O  O24  1  0.931939  0.252367  0.121880  1
  O  O25  1  0.431939  0.247633  0.378120  1
  O  O26  1  0.568061  0.252367  0.878120  1
  O  O27  1  0.068061  0.247633  0.621880  1
  O  O28  1  0.068061  0.747633  0.878120  1
  O  O29  1  0.568061  0.752367  0.621880  1
  O  O30  1  0.431939  0.747633  0.121880  1
  O  O31  1  0.931939  0.752367  0.378120  1
  O  O32  1  0.922923  0.906133  0.117998  1
  O  O33  1  0.422923  0.593867  0.382002  1
  O  O34  1  0.577077  0.906133  0.882002  1
  O  O35  1  0.077077  0.593867  0.617998  1
  O  O36  1  0.077077  0.093867  0.882002  1
  O  O37  1  0.577077  0.406133  0.617998  1
  O  O38  1  0.422923  0.093867  0.117998  1
  O  O39  1  0.922923  0.406133  0.382002  1
