# generated using pymatgen
data_AgAs(S8F3)2
_symmetry_space_group_name_H-M   'P 1'
_cell_length_a   10.05735189
_cell_length_b   10.05735189
_cell_length_c   16.18068038
_cell_angle_alpha   79.63004166
_cell_angle_beta   100.36995834
_cell_angle_gamma   131.79149703
_symmetry_Int_Tables_number   1
_chemical_formula_structural   AgAs(S8F3)2
_chemical_formula_sum   'Ag2 As2 S32 F12'
_cell_volume   1196.30670836
_cell_formula_units_Z   2
loop_
 _symmetry_equiv_pos_site_id
 _symmetry_equiv_pos_as_xyz
  1  'x, y, z'
loop_
 _atom_site_type_symbol
 _atom_site_label
 _atom_site_symmetry_multiplicity
 _atom_site_fract_x
 _atom_site_fract_y
 _atom_site_fract_z
 _atom_site_occupancy
  Ag  Ag0  1  0.835555  0.835555  0.250000  1
  Ag  Ag1  1  0.164445  0.164445  0.750000  1
  As  As2  1  0.500000  0.500000  0.000000  1
  As  As3  1  0.500000  0.500000  0.500000  1
  S  S4  1  0.997980  0.287585  0.562504  1
  S  S5  1  0.098635  0.933897  0.649290  1
  S  S6  1  0.042907  0.361745  0.834744  1
  S  S7  1  0.957093  0.638255  0.165256  1
  S  S8  1  0.933897  0.098635  0.850710  1
  S  S9  1  0.712415  0.002020  0.062504  1
  S  S10  1  0.107391  0.502289  0.627501  1
  S  S11  1  0.066103  0.901365  0.149290  1
  S  S12  1  0.298132  0.100679  0.329886  1
  S  S13  1  0.910517  0.270723  0.080736  1
  S  S14  1  0.681046  0.934979  0.786466  1
  S  S15  1  0.065021  0.318954  0.286466  1
  S  S16  1  0.520845  0.779744  0.243518  1
  S  S17  1  0.089483  0.729277  0.919264  1
  S  S18  1  0.502289  0.107391  0.872499  1
  S  S19  1  0.100679  0.298132  0.170114  1
  S  S20  1  0.287585  0.997980  0.937496  1
  S  S21  1  0.892609  0.497711  0.372499  1
  S  S22  1  0.934979  0.681046  0.713534  1
  S  S23  1  0.899321  0.701868  0.829886  1
  S  S24  1  0.270723  0.910517  0.419264  1
  S  S25  1  0.729277  0.089483  0.580736  1
  S  S26  1  0.361745  0.042907  0.665256  1
  S  S27  1  0.479155  0.220256  0.756482  1
  S  S28  1  0.002020  0.712415  0.437496  1
  S  S29  1  0.638255  0.957093  0.334744  1
  S  S30  1  0.497711  0.892609  0.127501  1
  S  S31  1  0.318954  0.065021  0.213534  1
  S  S32  1  0.701868  0.899321  0.670114  1
  S  S33  1  0.779744  0.520845  0.256482  1
  S  S34  1  0.220256  0.479155  0.743518  1
  S  S35  1  0.901365  0.066103  0.350710  1
  F  F36  1  0.458954  0.446742  0.893777  1
  F  F37  1  0.567391  0.372926  0.031761  1
  F  F38  1  0.275505  0.305475  0.018855  1
  F  F39  1  0.627074  0.432609  0.531761  1
  F  F40  1  0.432609  0.627074  0.968239  1
  F  F41  1  0.305475  0.275505  0.481145  1
  F  F42  1  0.724495  0.694525  0.981145  1
  F  F43  1  0.694525  0.724495  0.518855  1
  F  F44  1  0.541046  0.553258  0.106223  1
  F  F45  1  0.446742  0.458954  0.606223  1
  F  F46  1  0.372926  0.567391  0.468239  1
  F  F47  1  0.553258  0.541046  0.393777  1
