# generated using pymatgen
data_BaCu6(GeS4)2
_symmetry_space_group_name_H-M   'P 1'
_cell_length_a   6.13776945
_cell_length_b   12.05974234
_cell_length_c   17.65606821
_cell_angle_alpha   90.00000000
_cell_angle_beta   90.00000000
_cell_angle_gamma   90.00000000
_symmetry_Int_Tables_number   1
_chemical_formula_structural   BaCu6(GeS4)2
_chemical_formula_sum   'Ba4 Cu24 Ge8 S32'
_cell_volume   1306.90072304
_cell_formula_units_Z   4
loop_
 _symmetry_equiv_pos_site_id
 _symmetry_equiv_pos_as_xyz
  1  'x, y, z'
loop_
 _atom_site_type_symbol
 _atom_site_label
 _atom_site_symmetry_multiplicity
 _atom_site_fract_x
 _atom_site_fract_y
 _atom_site_fract_z
 _atom_site_occupancy
  Ba  Ba0  1  0.926939  0.773741  0.250000  1
  Ba  Ba1  1  0.073061  0.273741  0.250000  1
  Ba  Ba2  1  0.926939  0.726259  0.750000  1
  Ba  Ba3  1  0.073061  0.226259  0.750000  1
  Cu  Cu4  1  0.497945  0.294774  0.374763  1
  Cu  Cu5  1  0.441237  0.593618  0.452782  1
  Cu  Cu6  1  0.497945  0.205226  0.874763  1
  Cu  Cu7  1  0.951352  0.505595  0.371562  1
  Cu  Cu8  1  0.497945  0.294774  0.125237  1
  Cu  Cu9  1  0.558763  0.406382  0.952782  1
  Cu  Cu10  1  0.951352  0.994405  0.871562  1
  Cu  Cu11  1  0.048648  0.494405  0.871562  1
  Cu  Cu12  1  0.441237  0.906382  0.952782  1
  Cu  Cu13  1  0.502055  0.705226  0.625237  1
  Cu  Cu14  1  0.558763  0.093618  0.452782  1
  Cu  Cu15  1  0.558763  0.406382  0.547218  1
  Cu  Cu16  1  0.048648  0.005595  0.128438  1
  Cu  Cu17  1  0.441237  0.593618  0.047218  1
  Cu  Cu18  1  0.502055  0.705226  0.874763  1
  Cu  Cu19  1  0.441237  0.906382  0.547218  1
  Cu  Cu20  1  0.048648  0.494405  0.628438  1
  Cu  Cu21  1  0.951352  0.994405  0.628438  1
  Cu  Cu22  1  0.951352  0.505595  0.128438  1
  Cu  Cu23  1  0.502055  0.794774  0.374763  1
  Cu  Cu24  1  0.502055  0.794774  0.125237  1
  Cu  Cu25  1  0.048648  0.005595  0.371562  1
  Cu  Cu26  1  0.497945  0.205226  0.625237  1
  Cu  Cu27  1  0.558763  0.093618  0.047218  1
  Ge  Ge28  1  0.541493  0.456624  0.750000  1
  Ge  Ge29  1  0.541493  0.043376  0.250000  1
  Ge  Ge30  1  0.458507  0.956624  0.750000  1
  Ge  Ge31  1  0.989596  0.750000  0.500000  1
  Ge  Ge32  1  0.458507  0.543376  0.250000  1
  Ge  Ge33  1  0.989596  0.750000  0.000000  1
  Ge  Ge34  1  0.010404  0.250000  0.500000  1
  Ge  Ge35  1  0.010404  0.250000  0.000000  1
  S  S36  1  0.223784  0.871717  0.055047  1
  S  S37  1  0.776216  0.371717  0.444953  1
  S  S38  1  0.230647  0.333586  0.914987  1
  S  S39  1  0.814492  0.506354  0.250000  1
  S  S40  1  0.230647  0.333586  0.585013  1
  S  S41  1  0.684308  0.527156  0.859792  1
  S  S42  1  0.230647  0.166414  0.414987  1
  S  S43  1  0.814492  0.993646  0.750000  1
  S  S44  1  0.185508  0.006354  0.250000  1
  S  S45  1  0.684308  0.972844  0.140208  1
  S  S46  1  0.776216  0.128283  0.555047  1
  S  S47  1  0.581610  0.229445  0.250000  1
  S  S48  1  0.684308  0.972844  0.359792  1
  S  S49  1  0.223784  0.871717  0.444953  1
  S  S50  1  0.581610  0.270555  0.750000  1
  S  S51  1  0.315692  0.027156  0.859792  1
  S  S52  1  0.223784  0.628283  0.944953  1
  S  S53  1  0.769353  0.666414  0.085013  1
  S  S54  1  0.418390  0.729445  0.250000  1
  S  S55  1  0.769353  0.833586  0.585013  1
  S  S56  1  0.185508  0.493646  0.750000  1
  S  S57  1  0.418390  0.770555  0.750000  1
  S  S58  1  0.769353  0.833586  0.914987  1
  S  S59  1  0.776216  0.128283  0.944953  1
  S  S60  1  0.223784  0.628283  0.555047  1
  S  S61  1  0.776216  0.371717  0.055047  1
  S  S62  1  0.315692  0.472844  0.140208  1
  S  S63  1  0.315692  0.027156  0.640208  1
  S  S64  1  0.315692  0.472844  0.359792  1
  S  S65  1  0.684308  0.527156  0.640208  1
  S  S66  1  0.230647  0.166414  0.085013  1
  S  S67  1  0.769353  0.666414  0.414987  1
