# generated using pymatgen
data_Hg3(ClO)2
_symmetry_space_group_name_H-M   'P 1'
_cell_length_a   11.16262559
_cell_length_b   9.62263520
_cell_length_c   11.83186433
_cell_angle_alpha   90.00000000
_cell_angle_beta   108.93402149
_cell_angle_gamma   90.00000000
_symmetry_Int_Tables_number   1
_chemical_formula_structural   Hg3(ClO)2
_chemical_formula_sum   'Hg24 Cl16 O16'
_cell_volume   1202.14126663
_cell_formula_units_Z   8
loop_
 _symmetry_equiv_pos_site_id
 _symmetry_equiv_pos_as_xyz
  1  'x, y, z'
loop_
 _atom_site_type_symbol
 _atom_site_label
 _atom_site_symmetry_multiplicity
 _atom_site_fract_x
 _atom_site_fract_y
 _atom_site_fract_z
 _atom_site_occupancy
  Hg  Hg0  1  0.423543  0.672562  0.506447  1
  Hg  Hg1  1  0.576457  0.172562  0.993553  1
  Hg  Hg2  1  0.576457  0.327438  0.493553  1
  Hg  Hg3  1  0.423543  0.827438  0.006447  1
  Hg  Hg4  1  0.422773  0.554197  0.222536  1
  Hg  Hg5  1  0.577227  0.054197  0.277464  1
  Hg  Hg6  1  0.577227  0.445803  0.777464  1
  Hg  Hg7  1  0.422773  0.945803  0.722536  1
  Hg  Hg8  1  0.307323  0.482362  0.923572  1
  Hg  Hg9  1  0.692677  0.982362  0.576428  1
  Hg  Hg10  1  0.692677  0.517638  0.076428  1
  Hg  Hg11  1  0.307323  0.017638  0.423572  1
  Hg  Hg12  1  0.221191  0.400459  0.384824  1
  Hg  Hg13  1  0.778809  0.900459  0.115176  1
  Hg  Hg14  1  0.778809  0.599541  0.615176  1
  Hg  Hg15  1  0.221191  0.099541  0.884824  1
  Hg  Hg16  1  0.113810  0.385844  0.629437  1
  Hg  Hg17  1  0.886190  0.885844  0.870563  1
  Hg  Hg18  1  0.886190  0.614156  0.370563  1
  Hg  Hg19  1  0.113810  0.114156  0.129437  1
  Hg  Hg20  1  0.038991  0.692275  0.132503  1
  Hg  Hg21  1  0.961009  0.192275  0.367497  1
  Hg  Hg22  1  0.961009  0.307725  0.867497  1
  Hg  Hg23  1  0.038991  0.807725  0.632503  1
  Cl  Cl24  1  0.138121  0.469725  0.125824  1
  Cl  Cl25  1  0.861879  0.969725  0.374176  1
  Cl  Cl26  1  0.861879  0.530275  0.874176  1
  Cl  Cl27  1  0.138121  0.030275  0.625824  1
  Cl  Cl28  1  0.142972  0.729685  0.373105  1
  Cl  Cl29  1  0.857028  0.229685  0.126895  1
  Cl  Cl30  1  0.857028  0.270315  0.626895  1
  Cl  Cl31  1  0.142972  0.770315  0.873105  1
  Cl  Cl32  1  0.319504  0.622211  0.685201  1
  Cl  Cl33  1  0.680496  0.122211  0.814799  1
  Cl  Cl34  1  0.680496  0.377789  0.314799  1
  Cl  Cl35  1  0.319504  0.877789  0.185201  1
  Cl  Cl36  1  0.378514  0.259433  0.603044  1
  Cl  Cl37  1  0.621486  0.759433  0.896956  1
  Cl  Cl38  1  0.621486  0.740567  0.396956  1
  Cl  Cl39  1  0.378514  0.240567  0.103044  1
  O  O40  1  0.053171  0.385348  0.438708  1
  O  O41  1  0.946829  0.885348  0.061292  1
  O  O42  1  0.946829  0.614652  0.561292  1
  O  O43  1  0.053171  0.114652  0.938708  1
  O  O44  1  0.168132  0.351167  0.814105  1
  O  O45  1  0.831868  0.851167  0.685895  1
  O  O46  1  0.831868  0.648833  0.185895  1
  O  O47  1  0.168132  0.148833  0.314105  1
  O  O48  1  0.398985  0.488539  0.383703  1
  O  O49  1  0.601015  0.988539  0.116297  1
  O  O50  1  0.601015  0.511461  0.616297  1
  O  O51  1  0.398985  0.011461  0.883703  1
  O  O52  1  0.440010  0.605013  0.055699  1
  O  O53  1  0.559990  0.105013  0.444301  1
  O  O54  1  0.559990  0.394987  0.944301  1
  O  O55  1  0.440010  0.894987  0.555699  1
