# generated using pymatgen
data_Sm10S14O
_symmetry_space_group_name_H-M   'P 1'
_cell_length_a   14.49911280
_cell_length_b   14.49911280
_cell_length_c   14.49911280
_cell_angle_alpha   117.89433901
_cell_angle_beta   117.89433901
_cell_angle_gamma   93.68752400
_symmetry_Int_Tables_number   1
_chemical_formula_structural   Sm10S14O
_chemical_formula_sum   'Sm40 S56 O4'
_cell_volume   2218.93360283
_cell_formula_units_Z   4
loop_
 _symmetry_equiv_pos_site_id
 _symmetry_equiv_pos_as_xyz
  1  'x, y, z'
loop_
 _atom_site_type_symbol
 _atom_site_label
 _atom_site_symmetry_multiplicity
 _atom_site_fract_x
 _atom_site_fract_y
 _atom_site_fract_z
 _atom_site_occupancy
  Sm  Sm0  1  0.364906  0.864906  0.229813  1
  Sm  Sm1  1  0.949122  0.299360  0.904889  1
  Sm  Sm2  1  0.060920  0.935528  0.861645  1
  Sm  Sm3  1  0.449122  0.544233  0.649762  1
  Sm  Sm4  1  0.300878  0.705767  0.850238  1
  Sm  Sm5  1  0.885094  0.614906  0.000000  1
  Sm  Sm6  1  0.955767  0.050878  0.350238  1
  Sm  Sm7  1  0.676117  0.050725  0.361645  1
  Sm  Sm8  1  0.294233  0.144470  0.595111  1
  Sm  Sm9  1  0.864906  0.635094  0.500000  1
  Sm  Sm10  1  0.635094  0.135094  0.770187  1
  Sm  Sm11  1  0.176117  0.814472  0.625392  1
  Sm  Sm12  1  0.394470  0.044233  0.095111  1
  Sm  Sm13  1  0.685528  0.323883  0.374608  1
  Sm  Sm14  1  0.564472  0.439080  0.138355  1
  Sm  Sm15  1  0.185528  0.810920  0.361645  1
  Sm  Sm16  1  0.800878  0.950640  0.595111  1
  Sm  Sm17  1  0.114906  0.114906  0.729813  1
  Sm  Sm18  1  0.449275  0.823883  0.638355  1
  Sm  Sm19  1  0.573883  0.435528  0.874608  1
  Sm  Sm20  1  0.800725  0.939080  0.874608  1
  Sm  Sm21  1  0.689080  0.314472  0.638355  1
  Sm  Sm22  1  0.855530  0.450640  0.149762  1
  Sm  Sm23  1  0.355530  0.205767  0.404889  1
  Sm  Sm24  1  0.049360  0.644470  0.850238  1
  Sm  Sm25  1  0.560920  0.699275  0.125392  1
  Sm  Sm26  1  0.135094  0.364906  0.500000  1
  Sm  Sm27  1  0.189080  0.550725  0.374608  1
  Sm  Sm28  1  0.455767  0.105530  0.904889  1
  Sm  Sm29  1  0.794233  0.199122  0.149762  1
  Sm  Sm30  1  0.894470  0.799360  0.350238  1
  Sm  Sm31  1  0.300725  0.426117  0.861645  1
  Sm  Sm32  1  0.073883  0.199275  0.138355  1
  Sm  Sm33  1  0.549360  0.699122  0.404889  1
  Sm  Sm34  1  0.064472  0.926117  0.125392  1
  Sm  Sm35  1  0.614906  0.885094  0.000000  1
  Sm  Sm36  1  0.385094  0.385094  0.270187  1
  Sm  Sm37  1  0.200640  0.550878  0.095111  1
  Sm  Sm38  1  0.949275  0.310920  0.625392  1
  Sm  Sm39  1  0.700640  0.605530  0.649762  1
  S  S40  1  0.988276  0.645835  0.392135  1
  S  S41  1  0.496301  0.653860  0.892135  1
  S  S42  1  0.261724  0.153860  0.157559  1
  S  S43  1  0.761724  0.604165  0.107865  1
  S  S44  1  0.773804  0.415319  0.282168  1
  S  S45  1  0.253699  0.596140  0.607865  1
  S  S46  1  0.812629  0.791494  0.667291  1
  S  S47  1  0.346140  0.238276  0.842441  1
  S  S48  1  0.976483  0.875000  0.601483  1
  S  S49  1  0.273517  0.375000  0.398517  1
  S  S50  1  0.633151  0.915319  0.641515  1
  S  S51  1  0.976196  0.834681  0.217832  1
  S  S52  1  0.124203  0.145338  0.332709  1
  S  S53  1  0.616849  0.758364  0.782168  1
  S  S54  1  0.116849  0.334681  0.858485  1
  S  S55  1  0.625000  0.023517  0.898517  1
  S  S56  1  0.854165  0.511724  0.607865  1
  S  S57  1  0.665319  0.523804  0.782168  1
  S  S58  1  0.584681  0.866849  0.358485  1
  S  S59  1  0.996301  0.104165  0.842441  1
  S  S60  1  0.476483  0.875000  0.101483  1
  S  S61  1  0.625797  0.104662  0.167291  1
  S  S62  1  0.895338  0.062629  0.521136  1
  S  S63  1  0.403860  0.011724  0.657559  1
  S  S64  1  0.241636  0.023804  0.858485  1
  S  S65  1  0.488276  0.096140  0.342441  1
  S  S66  1  0.624203  0.291494  0.978864  1
  S  S67  1  0.008364  0.366849  0.282168  1
  S  S68  1  0.125797  0.958506  0.521136  1
  S  S69  1  0.354662  0.375797  0.667291  1
  S  S70  1  0.133151  0.491636  0.717832  1
  S  S71  1  0.041494  0.562629  0.167291  1
  S  S72  1  0.903860  0.246301  0.392135  1
  S  S73  1  0.476196  0.258364  0.141515  1
  S  S74  1  0.753699  0.145835  0.657559  1
  S  S75  1  0.208506  0.875797  0.021136  1
  S  S76  1  0.773517  0.375000  0.898517  1
  S  S77  1  0.273804  0.991636  0.358485  1
  S  S78  1  0.437371  0.604662  0.478864  1
  S  S79  1  0.708506  0.687371  0.332709  1
  S  S80  1  0.741636  0.883151  0.217832  1
  S  S81  1  0.541494  0.374203  0.478864  1
  S  S82  1  0.625000  0.523517  0.398517  1
  S  S83  1  0.125000  0.226483  0.601483  1
  S  S84  1  0.354165  0.746301  0.342441  1
  S  S85  1  0.508364  0.226196  0.641515  1
  S  S86  1  0.395835  0.503699  0.157559  1
  S  S87  1  0.395338  0.874203  0.832709  1
  S  S88  1  0.895835  0.738276  0.892135  1
  S  S89  1  0.846140  0.003699  0.107865  1
  S  S90  1  0.125000  0.726483  0.101483  1
  S  S91  1  0.312629  0.645338  0.021136  1
  S  S92  1  0.937371  0.458506  0.832709  1
  S  S93  1  0.854662  0.187371  0.978864  1
  S  S94  1  0.084681  0.726196  0.717832  1
  S  S95  1  0.165319  0.383151  0.141515  1
  O  O96  1  0.000000  0.000000  0.000000  1
  O  O97  1  0.500000  0.500000  0.000000  1
  O  O98  1  0.750000  0.250000  0.500000  1
  O  O99  1  0.250000  0.750000  0.500000  1
