# generated using pymatgen
data_NaBeSi3HO8
_symmetry_space_group_name_H-M   'P 1'
_cell_length_a   7.44132800
_cell_length_b   12.84561900
_cell_length_c   13.78132300
_cell_angle_alpha   90.00000000
_cell_angle_beta   90.00000000
_cell_angle_gamma   90.00000000
_symmetry_Int_Tables_number   1
_chemical_formula_structural   NaBeSi3HO8
_chemical_formula_sum   'Na8 Be8 Si24 H8 O64'
_cell_volume   1317.33550217
_cell_formula_units_Z   8
loop_
 _symmetry_equiv_pos_site_id
 _symmetry_equiv_pos_as_xyz
  1  'x, y, z'
loop_
 _atom_site_type_symbol
 _atom_site_label
 _atom_site_symmetry_multiplicity
 _atom_site_fract_x
 _atom_site_fract_y
 _atom_site_fract_z
 _atom_site_occupancy
  Na  Na0  1  0.501351  0.101745  0.070821  1
  Na  Na1  1  0.501351  0.101745  0.429179  1
  Na  Na2  1  0.001351  0.398255  0.570821  1
  Na  Na3  1  0.998649  0.601745  0.429179  1
  Na  Na4  1  0.498649  0.898255  0.929179  1
  Na  Na5  1  0.998649  0.601745  0.070821  1
  Na  Na6  1  0.498649  0.898255  0.570821  1
  Na  Na7  1  0.001351  0.398255  0.929179  1
  Be  Be8  1  0.656074  0.505374  0.499660  1
  Be  Be9  1  0.656074  0.505374  0.000340  1
  Be  Be10  1  0.156074  0.994626  0.999660  1
  Be  Be11  1  0.843926  0.005374  0.000340  1
  Be  Be12  1  0.343926  0.494626  0.500340  1
  Be  Be13  1  0.343926  0.494626  0.999660  1
  Be  Be14  1  0.843926  0.005374  0.499660  1
  Be  Be15  1  0.156074  0.994626  0.500340  1
  Si  Si16  1  0.983972  0.840857  0.861938  1
  Si  Si17  1  0.483972  0.659143  0.138062  1
  Si  Si18  1  0.193943  0.832076  0.362154  1
  Si  Si19  1  0.306057  0.332076  0.137846  1
  Si  Si20  1  0.806057  0.167924  0.862154  1
  Si  Si21  1  0.269165  0.656573  0.863374  1
  Si  Si22  1  0.730835  0.343427  0.136626  1
  Si  Si23  1  0.730835  0.343427  0.363374  1
  Si  Si24  1  0.269165  0.656573  0.636626  1
  Si  Si25  1  0.016028  0.159143  0.361938  1
  Si  Si26  1  0.806057  0.167924  0.637846  1
  Si  Si27  1  0.983972  0.840857  0.638062  1
  Si  Si28  1  0.693943  0.667924  0.862154  1
  Si  Si29  1  0.769165  0.843427  0.363374  1
  Si  Si30  1  0.230835  0.156573  0.636626  1
  Si  Si31  1  0.516028  0.340857  0.638062  1
  Si  Si32  1  0.016028  0.159143  0.138062  1
  Si  Si33  1  0.516028  0.340857  0.861938  1
  Si  Si34  1  0.306057  0.332076  0.362154  1
  Si  Si35  1  0.193943  0.832076  0.137846  1
  Si  Si36  1  0.483972  0.659143  0.361938  1
  Si  Si37  1  0.769165  0.843427  0.136626  1
  Si  Si38  1  0.230835  0.156573  0.863374  1
  Si  Si39  1  0.693943  0.667924  0.637846  1
  H  H40  1  0.116827  0.508814  0.250000  1
  H  H41  1  0.883173  0.491186  0.750000  1
  H  H42  1  0.383173  0.008814  0.250000  1
  H  H43  1  0.588588  0.001592  0.250000  1
  H  H44  1  0.911412  0.501592  0.250000  1
  H  H45  1  0.088588  0.498408  0.750000  1
  H  H46  1  0.616827  0.991186  0.750000  1
  H  H47  1  0.411412  0.998408  0.750000  1
  O  O48  1  0.771703  0.584710  0.562161  1
  O  O49  1  0.289291  0.717113  0.376597  1
  O  O50  1  0.765592  0.381230  0.250000  1
  O  O51  1  0.271703  0.915290  0.062161  1
  O  O52  1  0.234408  0.618770  0.750000  1
  O  O53  1  0.499488  0.618509  0.250000  1
  O  O54  1  0.478824  0.696119  0.874807  1
  O  O55  1  0.768417  0.127306  0.750000  1
  O  O56  1  0.000512  0.118509  0.250000  1
  O  O57  1  0.731583  0.627306  0.750000  1
  O  O58  1  0.710709  0.282887  0.876597  1
  O  O59  1  0.349487  0.261750  0.884473  1
  O  O60  1  0.978824  0.803881  0.374807  1
  O  O61  1  0.506599  0.438974  0.934457  1
  O  O62  1  0.849487  0.238250  0.384473  1
  O  O63  1  0.288085  0.064975  0.563631  1
  O  O64  1  0.006599  0.061026  0.065543  1
  O  O65  1  0.978824  0.803881  0.125193  1
  O  O66  1  0.728297  0.084710  0.562161  1
  O  O67  1  0.999488  0.881491  0.750000  1
  O  O68  1  0.021176  0.196119  0.625193  1
  O  O69  1  0.021176  0.196119  0.874807  1
  O  O70  1  0.228297  0.415290  0.437839  1
  O  O71  1  0.728297  0.084710  0.937839  1
  O  O72  1  0.288085  0.064975  0.936369  1
  O  O73  1  0.506599  0.438974  0.565543  1
  O  O74  1  0.490549  0.053365  0.250000  1
  O  O75  1  0.349487  0.261750  0.615527  1
  O  O76  1  0.788085  0.435025  0.436369  1
  O  O77  1  0.710709  0.282887  0.623403  1
  O  O78  1  0.990549  0.446635  0.750000  1
  O  O79  1  0.478824  0.696119  0.625193  1
  O  O80  1  0.521176  0.303881  0.125193  1
  O  O81  1  0.228297  0.415290  0.062161  1
  O  O82  1  0.231583  0.872694  0.250000  1
  O  O83  1  0.771703  0.584710  0.937839  1
  O  O84  1  0.993401  0.938974  0.565543  1
  O  O85  1  0.788085  0.435025  0.063631  1
  O  O86  1  0.150513  0.761750  0.615527  1
  O  O87  1  0.210709  0.217113  0.376597  1
  O  O88  1  0.734408  0.881230  0.250000  1
  O  O89  1  0.493401  0.561026  0.065543  1
  O  O90  1  0.789291  0.782887  0.876597  1
  O  O91  1  0.650513  0.738250  0.115527  1
  O  O92  1  0.509451  0.946635  0.750000  1
  O  O93  1  0.211915  0.564975  0.563631  1
  O  O94  1  0.271703  0.915290  0.437839  1
  O  O95  1  0.268417  0.372694  0.250000  1
  O  O96  1  0.211915  0.564975  0.936369  1
  O  O97  1  0.006599  0.061026  0.434457  1
  O  O98  1  0.789291  0.782887  0.623403  1
  O  O99  1  0.711915  0.935025  0.063631  1
  O  O100  1  0.289291  0.717113  0.123403  1
  O  O101  1  0.521176  0.303881  0.374807  1
  O  O102  1  0.009451  0.553365  0.250000  1
  O  O103  1  0.493401  0.561026  0.434457  1
  O  O104  1  0.650513  0.738250  0.384473  1
  O  O105  1  0.210709  0.217113  0.123403  1
  O  O106  1  0.500512  0.381491  0.750000  1
  O  O107  1  0.711915  0.935025  0.436369  1
  O  O108  1  0.150513  0.761750  0.884473  1
  O  O109  1  0.993401  0.938974  0.934457  1
  O  O110  1  0.849487  0.238250  0.115527  1
  O  O111  1  0.265592  0.118770  0.750000  1
