# generated using pymatgen
data_CdSb2Se3Br2
_symmetry_space_group_name_H-M   'P 1'
_cell_length_a   11.06520490
_cell_length_b   11.06520490
_cell_length_c   12.77338067
_cell_angle_alpha   59.82881295
_cell_angle_beta   120.17118705
_cell_angle_gamma   158.67792704
_symmetry_Int_Tables_number   1
_chemical_formula_structural   CdSb2Se3Br2
_chemical_formula_sum   'Cd2 Sb4 Se6 Br4'
_cell_volume   488.67861301
_cell_formula_units_Z   2
loop_
 _symmetry_equiv_pos_site_id
 _symmetry_equiv_pos_as_xyz
  1  'x, y, z'
loop_
 _atom_site_type_symbol
 _atom_site_label
 _atom_site_symmetry_multiplicity
 _atom_site_fract_x
 _atom_site_fract_y
 _atom_site_fract_z
 _atom_site_occupancy
  Cd  Cd0  1  0.651102  0.348898  0.452926  1
  Cd  Cd1  1  0.348898  0.651102  0.547074  1
  Sb  Sb2  1  0.952775  0.047225  0.215123  1
  Sb  Sb3  1  0.047225  0.952775  0.784877  1
  Sb  Sb4  1  0.293912  0.706088  0.912918  1
  Sb  Sb5  1  0.706088  0.293912  0.087082  1
  Se  Se6  1  0.537037  0.462963  0.217607  1
  Se  Se7  1  0.102787  0.897213  0.023783  1
  Se  Se8  1  0.462963  0.537037  0.782393  1
  Se  Se9  1  0.321062  0.678938  0.136919  1
  Se  Se10  1  0.897213  0.102787  0.976217  1
  Se  Se11  1  0.678938  0.321062  0.863081  1
  Br  Br12  1  0.896972  0.103028  0.461609  1
  Br  Br13  1  0.103028  0.896972  0.538391  1
  Br  Br14  1  0.789803  0.210197  0.647104  1
  Br  Br15  1  0.210197  0.789803  0.352896  1
