# generated using pymatgen
data_Cs3ZnI4NO3
_symmetry_space_group_name_H-M   'P 1'
_cell_length_a   10.36779286
_cell_length_b   11.83910586
_cell_length_c   14.63894040
_cell_angle_alpha   90.00000000
_cell_angle_beta   90.00000000
_cell_angle_gamma   90.00000000
_symmetry_Int_Tables_number   1
_chemical_formula_structural   Cs3ZnI4NO3
_chemical_formula_sum   'Cs12 Zn4 I16 N4 O12'
_cell_volume   1796.86255405
_cell_formula_units_Z   4
loop_
 _symmetry_equiv_pos_site_id
 _symmetry_equiv_pos_as_xyz
  1  'x, y, z'
loop_
 _atom_site_type_symbol
 _atom_site_label
 _atom_site_symmetry_multiplicity
 _atom_site_fract_x
 _atom_site_fract_y
 _atom_site_fract_z
 _atom_site_occupancy
  Cs  Cs0  1  0.599660  0.012211  0.680982  1
  Cs  Cs1  1  0.900340  0.512211  0.180982  1
  Cs  Cs2  1  0.599660  0.487789  0.680982  1
  Cs  Cs3  1  0.900340  0.987789  0.180982  1
  Cs  Cs4  1  0.426001  0.750000  0.053896  1
  Cs  Cs5  1  0.573999  0.250000  0.946104  1
  Cs  Cs6  1  0.073999  0.250000  0.553896  1
  Cs  Cs7  1  0.926001  0.750000  0.446104  1
  Cs  Cs8  1  0.400340  0.987789  0.319018  1
  Cs  Cs9  1  0.099660  0.012211  0.819018  1
  Cs  Cs10  1  0.099660  0.487789  0.819018  1
  Cs  Cs11  1  0.400340  0.512211  0.319018  1
  Zn  Zn12  1  0.324852  0.750000  0.599033  1
  Zn  Zn13  1  0.675148  0.250000  0.400967  1
  Zn  Zn14  1  0.824852  0.750000  0.900967  1
  Zn  Zn15  1  0.175148  0.250000  0.099033  1
  I  I16  1  0.801068  0.063406  0.443650  1
  I  I17  1  0.460191  0.250000  0.500195  1
  I  I18  1  0.960191  0.250000  0.999805  1
  I  I19  1  0.198932  0.563406  0.556350  1
  I  I20  1  0.374964  0.750000  0.775575  1
  I  I21  1  0.039809  0.750000  0.000195  1
  I  I22  1  0.539809  0.750000  0.499805  1
  I  I23  1  0.301068  0.063406  0.056350  1
  I  I24  1  0.698932  0.936594  0.943650  1
  I  I25  1  0.801068  0.436594  0.443650  1
  I  I26  1  0.625036  0.250000  0.224425  1
  I  I27  1  0.698932  0.563406  0.943650  1
  I  I28  1  0.874964  0.750000  0.724425  1
  I  I29  1  0.301068  0.436594  0.056350  1
  I  I30  1  0.198932  0.936594  0.556350  1
  I  I31  1  0.125036  0.250000  0.275575  1
  N  N32  1  0.176696  0.750000  0.272034  1
  N  N33  1  0.676696  0.750000  0.227966  1
  N  N34  1  0.323304  0.250000  0.772034  1
  N  N35  1  0.823304  0.250000  0.727966  1
  O  O36  1  0.380603  0.343100  0.786444  1
  O  O37  1  0.119397  0.656900  0.286444  1
  O  O38  1  0.619397  0.843100  0.213556  1
  O  O39  1  0.706598  0.250000  0.755255  1
  O  O40  1  0.206598  0.250000  0.744745  1
  O  O41  1  0.880603  0.156900  0.713556  1
  O  O42  1  0.793402  0.750000  0.255255  1
  O  O43  1  0.293402  0.750000  0.244745  1
  O  O44  1  0.619397  0.656900  0.213556  1
  O  O45  1  0.119397  0.843100  0.286444  1
  O  O46  1  0.880603  0.343100  0.713556  1
  O  O47  1  0.380603  0.156900  0.786444  1
