# generated using pymatgen
data_Na5Bi(P2O7)2
_symmetry_space_group_name_H-M   'P 1'
_cell_length_a   7.39154343
_cell_length_b   9.42046555
_cell_length_c   9.94798694
_cell_angle_alpha   81.13778788
_cell_angle_beta   77.75686033
_cell_angle_gamma   70.45298592
_symmetry_Int_Tables_number   1
_chemical_formula_structural   Na5Bi(P2O7)2
_chemical_formula_sum   'Na10 Bi2 P8 O28'
_cell_volume   635.32485062
_cell_formula_units_Z   2
loop_
 _symmetry_equiv_pos_site_id
 _symmetry_equiv_pos_as_xyz
  1  'x, y, z'
loop_
 _atom_site_type_symbol
 _atom_site_label
 _atom_site_symmetry_multiplicity
 _atom_site_fract_x
 _atom_site_fract_y
 _atom_site_fract_z
 _atom_site_occupancy
  Na  Na0  1  0.062830  0.486694  0.158712  1
  Na  Na1  1  0.567809  0.524055  0.661103  1
  Na  Na2  1  0.245646  0.734855  0.879610  1
  Na  Na3  1  0.654772  0.848370  0.731326  1
  Na  Na4  1  0.754354  0.265145  0.120390  1
  Na  Na5  1  0.345228  0.151630  0.268674  1
  Na  Na6  1  0.722869  0.735937  0.403544  1
  Na  Na7  1  0.432191  0.475945  0.338897  1
  Na  Na8  1  0.277131  0.264063  0.596456  1
  Na  Na9  1  0.937170  0.513306  0.841288  1
  Bi  Bi10  1  0.870383  0.125987  0.768852  1
  Bi  Bi11  1  0.129617  0.874013  0.231148  1
  P  P12  1  0.411534  0.339872  0.946967  1
  P  P13  1  0.902144  0.347245  0.454691  1
  P  P14  1  0.820161  0.864237  0.032075  1
  P  P15  1  0.179839  0.135763  0.967925  1
  P  P16  1  0.588466  0.660128  0.053033  1
  P  P17  1  0.281045  0.889810  0.548811  1
  P  P18  1  0.718955  0.110190  0.451189  1
  P  P19  1  0.097856  0.652755  0.545309  1
  O  O20  1  0.963562  0.763013  0.130284  1
  O  O21  1  0.574558  0.672790  0.901018  1
  O  O22  1  0.898385  0.647008  0.618721  1
  O  O23  1  0.036438  0.236987  0.869716  1
  O  O24  1  0.889939  0.322734  0.615319  1
  O  O25  1  0.110061  0.677266  0.384681  1
  O  O26  1  0.607841  0.331082  0.848479  1
  O  O27  1  0.897064  0.825605  0.882045  1
  O  O28  1  0.756215  0.524013  0.092943  1
  O  O29  1  0.425442  0.327210  0.098982  1
  O  O30  1  0.321778  0.914783  0.389077  1
  O  O31  1  0.102936  0.174395  0.117955  1
  O  O32  1  0.460587  0.785586  0.605705  1
  O  O33  1  0.243785  0.475987  0.907057  1
  O  O34  1  0.678222  0.085217  0.610923  1
  O  O35  1  0.812690  0.962347  0.380404  1
  O  O36  1  0.888269  0.191693  0.408507  1
  O  O37  1  0.187310  0.037653  0.619596  1
  O  O38  1  0.230780  0.968162  0.952415  1
  O  O39  1  0.392159  0.668918  0.151521  1
  O  O40  1  0.539413  0.214414  0.394295  1
  O  O41  1  0.272151  0.521064  0.581412  1
  O  O42  1  0.111731  0.808307  0.591493  1
  O  O43  1  0.376424  0.184102  0.913655  1
  O  O44  1  0.769220  0.031838  0.047585  1
  O  O45  1  0.623576  0.815898  0.086345  1
  O  O46  1  0.101615  0.352992  0.381279  1
  O  O47  1  0.727849  0.478936  0.418588  1
