# generated using pymatgen
data_CsCuF4
_symmetry_space_group_name_H-M   'P 1'
_cell_length_a   7.61762684
_cell_length_b   7.61762684
_cell_length_c   7.61762684
_cell_angle_alpha   131.03995745
_cell_angle_beta   131.03995745
_cell_angle_gamma   71.74960274
_symmetry_Int_Tables_number   1
_chemical_formula_structural   CsCuF4
_chemical_formula_sum   'Cs2 Cu2 F8'
_cell_volume   246.01049506
_cell_formula_units_Z   2
loop_
 _symmetry_equiv_pos_site_id
 _symmetry_equiv_pos_as_xyz
  1  'x, y, z'
loop_
 _atom_site_type_symbol
 _atom_site_label
 _atom_site_symmetry_multiplicity
 _atom_site_fract_x
 _atom_site_fract_y
 _atom_site_fract_z
 _atom_site_occupancy
  Cs  Cs0  1  0.250000  0.250000  0.000000  1
  Cs  Cs1  1  0.750000  0.750000  0.000000  1
  Cu  Cu2  1  0.500000  0.000000  0.500000  1
  Cu  Cu3  1  0.000000  0.500000  0.500000  1
  F  F4  1  0.743010  0.243010  0.782881  1
  F  F5  1  0.243010  0.460128  0.500000  1
  F  F6  1  0.960128  0.743010  0.500000  1
  F  F7  1  0.756990  0.539872  0.500000  1
  F  F8  1  0.039872  0.256990  0.500000  1
  F  F9  1  0.539872  0.039872  0.782881  1
  F  F10  1  0.256990  0.756990  0.217119  1
  F  F11  1  0.460128  0.960128  0.217119  1
