# generated using pymatgen
data_MgAl2O4
_symmetry_space_group_name_H-M   'P 1'
_cell_length_a   5.77074368
_cell_length_b   5.77074368
_cell_length_c   28.33406161
_cell_angle_alpha   90.00000000
_cell_angle_beta   90.00000000
_cell_angle_gamma   120.00000000
_symmetry_Int_Tables_number   1
_chemical_formula_structural   MgAl2O4
_chemical_formula_sum   'Mg12 Al24 O48'
_cell_volume   817.15235183
_cell_formula_units_Z   12
loop_
 _symmetry_equiv_pos_site_id
 _symmetry_equiv_pos_as_xyz
  1  'x, y, z'
loop_
 _atom_site_type_symbol
 _atom_site_label
 _atom_site_symmetry_multiplicity
 _atom_site_fract_x
 _atom_site_fract_y
 _atom_site_fract_z
 _atom_site_occupancy
  Mg  Mg0  1  0.333333  0.666667  0.022893  1
  Mg  Mg1  1  0.666667  0.333333  0.000851  1
  Mg  Mg2  1  0.666667  0.333333  0.189527  1
  Mg  Mg3  1  0.000000  0.000000  0.167887  1
  Mg  Mg4  1  0.000000  0.000000  0.354969  1
  Mg  Mg5  1  0.333333  0.666667  0.520522  1
  Mg  Mg6  1  0.666667  0.333333  0.311023  1
  Mg  Mg7  1  0.666667  0.333333  0.687089  1
  Mg  Mg8  1  0.000000  0.000000  0.479125  1
  Mg  Mg9  1  0.000000  0.000000  0.854079  1
  Mg  Mg10  1  0.333333  0.666667  0.645608  1
  Mg  Mg11  1  0.666667  0.333333  0.813045  1
  Al  Al12  1  0.343069  0.171535  0.082982  1
  Al  Al13  1  0.828465  0.171535  0.082982  1
  Al  Al14  1  0.671763  0.835881  0.250433  1
  Al  Al15  1  0.828465  0.656931  0.082982  1
  Al  Al16  1  0.164119  0.835881  0.250433  1
  Al  Al17  1  0.333333  0.666667  0.142895  1
  Al  Al18  1  0.333333  0.666667  0.333505  1
  Al  Al19  1  0.999894  0.499947  0.416504  1
  Al  Al20  1  0.164119  0.328237  0.250433  1
  Al  Al21  1  0.500053  0.499947  0.416504  1
  Al  Al22  1  0.666667  0.333333  0.499852  1
  Al  Al23  1  0.333631  0.166815  0.583160  1
  Al  Al24  1  0.500053  0.000106  0.416504  1
  Al  Al25  1  0.833185  0.166815  0.583160  1
  Al  Al26  1  0.166299  0.332598  0.749718  1
  Al  Al27  1  0.000000  0.000000  0.666236  1
  Al  Al28  1  0.667402  0.833701  0.749718  1
  Al  Al29  1  0.833185  0.666369  0.583160  1
  Al  Al30  1  0.166299  0.833701  0.749718  1
  Al  Al31  1  0.497324  0.994648  0.916244  1
  Al  Al32  1  0.333333  0.666667  0.832357  1
  Al  Al33  1  0.005352  0.502676  0.916244  1
  Al  Al34  1  0.497324  0.502676  0.916244  1
  Al  Al35  1  0.000000  0.000000  0.978447  1
  O  O36  1  0.513818  0.486182  0.046695  1
  O  O37  1  0.666667  0.333333  0.119964  1
  O  O38  1  0.972364  0.486182  0.046695  1
  O  O39  1  0.513818  0.027636  0.046695  1
  O  O40  1  0.846396  0.153604  0.214619  1
  O  O41  1  0.159837  0.319675  0.120870  1
  O  O42  1  0.000000  0.000000  0.044055  1
  O  O43  1  0.680325  0.840163  0.120870  1
  O  O44  1  0.000000  0.000000  0.286535  1
  O  O45  1  0.307208  0.153604  0.214619  1
  O  O46  1  0.159837  0.840163  0.120870  1
  O  O47  1  0.846396  0.692792  0.214619  1
  O  O48  1  0.184991  0.815009  0.377269  1
  O  O49  1  0.479118  0.958237  0.288756  1
  O  O50  1  0.041763  0.520882  0.288756  1
  O  O51  1  0.333333  0.666667  0.208124  1
  O  O52  1  0.333333  0.666667  0.451463  1
  O  O53  1  0.630017  0.815009  0.377269  1
  O  O54  1  0.479118  0.520882  0.288756  1
  O  O55  1  0.184991  0.369983  0.377269  1
  O  O56  1  0.517968  0.482032  0.544041  1
  O  O57  1  0.815105  0.630211  0.455997  1
  O  O58  1  0.369789  0.184895  0.455997  1
  O  O59  1  0.964063  0.482032  0.544041  1
  O  O60  1  0.666667  0.333333  0.381099  1
  O  O61  1  0.666667  0.333333  0.618199  1
  O  O62  1  0.815105  0.184895  0.455997  1
  O  O63  1  0.517968  0.035937  0.544041  1
  O  O64  1  0.851342  0.148658  0.710849  1
  O  O65  1  0.148458  0.296916  0.622972  1
  O  O66  1  0.000000  0.000000  0.785060  1
  O  O67  1  0.703084  0.851542  0.622972  1
  O  O68  1  0.000000  0.000000  0.548594  1
  O  O69  1  0.297317  0.148658  0.710849  1
  O  O70  1  0.148458  0.851542  0.622972  1
  O  O71  1  0.851342  0.702683  0.710849  1
  O  O72  1  0.185759  0.814241  0.876698  1
  O  O73  1  0.482226  0.964452  0.789621  1
  O  O74  1  0.035548  0.517774  0.789621  1
  O  O75  1  0.333333  0.666667  0.715380  1
  O  O76  1  0.333333  0.666667  0.951948  1
  O  O77  1  0.628482  0.814241  0.876698  1
  O  O78  1  0.482226  0.517774  0.789621  1
  O  O79  1  0.185759  0.371518  0.876698  1
  O  O80  1  0.830490  0.660980  0.954411  1
  O  O81  1  0.339020  0.169510  0.954411  1
  O  O82  1  0.666667  0.333333  0.884151  1
  O  O83  1  0.830490  0.169510  0.954411  1
