# generated using pymatgen
data_AgBi2Se3Cl
_symmetry_space_group_name_H-M   'P 1'
_cell_length_a   8.15012278
_cell_length_b   4.14931526
_cell_length_c   11.31062563
_cell_angle_alpha   90.00000000
_cell_angle_beta   104.19298550
_cell_angle_gamma   90.00000000
_symmetry_Int_Tables_number   1
_chemical_formula_structural   AgBi2Se3Cl
_chemical_formula_sum   'Ag2 Bi4 Se6 Cl2'
_cell_volume   370.82072155
_cell_formula_units_Z   2
loop_
 _symmetry_equiv_pos_site_id
 _symmetry_equiv_pos_as_xyz
  1  'x, y, z'
loop_
 _atom_site_type_symbol
 _atom_site_label
 _atom_site_symmetry_multiplicity
 _atom_site_fract_x
 _atom_site_fract_y
 _atom_site_fract_z
 _atom_site_occupancy
  Ag  Ag0  1  0.047113  0.750000  0.412942  1
  Ag  Ag1  1  0.952887  0.250000  0.587058  1
  Bi  Bi2  1  0.809003  0.250000  0.065747  1
  Bi  Bi3  1  0.190997  0.750000  0.934253  1
  Bi  Bi4  1  0.532653  0.750000  0.343725  1
  Bi  Bi5  1  0.467347  0.250000  0.656275  1
  Se  Se6  1  0.795912  0.250000  0.334497  1
  Se  Se7  1  0.955560  0.250000  0.849862  1
  Se  Se8  1  0.309768  0.250000  0.412110  1
  Se  Se9  1  0.690232  0.750000  0.587890  1
  Se  Se10  1  0.204088  0.750000  0.665503  1
  Se  Se11  1  0.044440  0.750000  0.150138  1
  Cl  Cl12  1  0.403361  0.250000  0.097938  1
  Cl  Cl13  1  0.596639  0.750000  0.902062  1
