# generated using pymatgen
data_Na3Fe2(PO4)3
_symmetry_space_group_name_H-M   'P 1'
_cell_length_a   8.84698136
_cell_length_b   8.84698136
_cell_length_c   8.90897924
_cell_angle_alpha   59.75687922
_cell_angle_beta   120.24312078
_cell_angle_gamma   119.84931043
_symmetry_Int_Tables_number   1
_chemical_formula_structural   Na3Fe2(PO4)3
_chemical_formula_sum   'Na6 Fe4 P6 O24'
_cell_volume   491.79702451
_cell_formula_units_Z   2
loop_
 _symmetry_equiv_pos_site_id
 _symmetry_equiv_pos_as_xyz
  1  'x, y, z'
loop_
 _atom_site_type_symbol
 _atom_site_label
 _atom_site_symmetry_multiplicity
 _atom_site_fract_x
 _atom_site_fract_y
 _atom_site_fract_z
 _atom_site_occupancy
  Na  Na0  1  0.890980  0.248402  0.383987  1
  Na  Na1  1  0.109020  0.751598  0.616013  1
  Na  Na2  1  0.751598  0.109020  0.883987  1
  Na  Na3  1  0.248402  0.890980  0.116013  1
  Na  Na4  1  0.500000  0.000000  0.500000  1
  Na  Na5  1  0.000000  0.500000  0.000000  1
  Fe  Fe6  1  0.846645  0.642207  0.146467  1
  Fe  Fe7  1  0.642207  0.846645  0.353533  1
  Fe  Fe8  1  0.153355  0.357793  0.853533  1
  Fe  Fe9  1  0.357793  0.153355  0.646467  1
  P  P10  1  0.549838  0.252595  0.036601  1
  P  P11  1  0.252595  0.549838  0.463399  1
  P  P12  1  0.044142  0.044142  0.250000  1
  P  P13  1  0.450162  0.747405  0.963399  1
  P  P14  1  0.747405  0.450162  0.536601  1
  P  P15  1  0.955858  0.955858  0.750000  1
  O  O16  1  0.086893  0.564382  0.276202  1
  O  O17  1  0.290182  0.374911  0.514078  1
  O  O18  1  0.731610  0.416481  0.067275  1
  O  O19  1  0.564382  0.086893  0.223798  1
  O  O20  1  0.220656  0.061729  0.421915  1
  O  O21  1  0.779344  0.938271  0.578085  1
  O  O22  1  0.532144  0.201649  0.884744  1
  O  O23  1  0.709818  0.625089  0.485922  1
  O  O24  1  0.416481  0.731610  0.432725  1
  O  O25  1  0.984662  0.126857  0.782419  1
  O  O26  1  0.913107  0.435618  0.723798  1
  O  O27  1  0.938271  0.779344  0.921915  1
  O  O28  1  0.374911  0.290182  0.985922  1
  O  O29  1  0.798351  0.467856  0.384744  1
  O  O30  1  0.268390  0.583519  0.932725  1
  O  O31  1  0.126857  0.984662  0.717581  1
  O  O32  1  0.015338  0.873143  0.217581  1
  O  O33  1  0.467856  0.798351  0.115256  1
  O  O34  1  0.435618  0.913107  0.776202  1
  O  O35  1  0.061729  0.220656  0.078085  1
  O  O36  1  0.583519  0.268390  0.567275  1
  O  O37  1  0.625089  0.709818  0.014078  1
  O  O38  1  0.201649  0.532144  0.615256  1
  O  O39  1  0.873143  0.015338  0.282419  1
