# generated using pymatgen
data_Zn2SeCl2O3
_symmetry_space_group_name_H-M   'P 1'
_cell_length_a   7.83107878
_cell_length_b   10.42750136
_cell_length_c   15.73808725
_cell_angle_alpha   90.00000000
_cell_angle_beta   90.00000000
_cell_angle_gamma   90.00000000
_symmetry_Int_Tables_number   1
_chemical_formula_structural   Zn2SeCl2O3
_chemical_formula_sum   'Zn16 Se8 Cl16 O24'
_cell_volume   1285.14992960
_cell_formula_units_Z   8
loop_
 _symmetry_equiv_pos_site_id
 _symmetry_equiv_pos_as_xyz
  1  'x, y, z'
loop_
 _atom_site_type_symbol
 _atom_site_label
 _atom_site_symmetry_multiplicity
 _atom_site_fract_x
 _atom_site_fract_y
 _atom_site_fract_z
 _atom_site_occupancy
  Zn  Zn0  1  0.395637  0.221702  0.536502  1
  Zn  Zn1  1  0.351263  0.491678  0.389185  1
  Zn  Zn2  1  0.895637  0.278298  0.536502  1
  Zn  Zn3  1  0.851263  0.491678  0.110815  1
  Zn  Zn4  1  0.604363  0.721702  0.036502  1
  Zn  Zn5  1  0.148737  0.508322  0.889185  1
  Zn  Zn6  1  0.648737  0.991678  0.889185  1
  Zn  Zn7  1  0.351263  0.008322  0.110815  1
  Zn  Zn8  1  0.895637  0.221702  0.963498  1
  Zn  Zn9  1  0.104363  0.721702  0.463498  1
  Zn  Zn10  1  0.851263  0.008322  0.389185  1
  Zn  Zn11  1  0.148737  0.991678  0.610815  1
  Zn  Zn12  1  0.604363  0.778298  0.463498  1
  Zn  Zn13  1  0.648737  0.508322  0.610815  1
  Zn  Zn14  1  0.104363  0.778298  0.036502  1
  Zn  Zn15  1  0.395637  0.278298  0.963498  1
  Se  Se16  1  0.223117  0.464895  0.591438  1
  Se  Se17  1  0.776883  0.964895  0.091438  1
  Se  Se18  1  0.723117  0.035105  0.591438  1
  Se  Se19  1  0.776883  0.535105  0.408562  1
  Se  Se20  1  0.276883  0.535105  0.091438  1
  Se  Se21  1  0.723117  0.464895  0.908562  1
  Se  Se22  1  0.276883  0.964895  0.408562  1
  Se  Se23  1  0.223117  0.035105  0.908562  1
  Cl  Cl24  1  0.332168  0.407045  0.805226  1
  Cl  Cl25  1  0.929276  0.284012  0.113654  1
  Cl  Cl26  1  0.167832  0.592955  0.305226  1
  Cl  Cl27  1  0.167832  0.907045  0.194774  1
  Cl  Cl28  1  0.429276  0.215988  0.113654  1
  Cl  Cl29  1  0.570724  0.784012  0.886346  1
  Cl  Cl30  1  0.667832  0.592955  0.194774  1
  Cl  Cl31  1  0.429276  0.284012  0.386346  1
  Cl  Cl32  1  0.667832  0.907045  0.305226  1
  Cl  Cl33  1  0.929276  0.215988  0.386346  1
  Cl  Cl34  1  0.570724  0.715988  0.613654  1
  Cl  Cl35  1  0.070724  0.715988  0.886346  1
  Cl  Cl36  1  0.070724  0.784012  0.613654  1
  Cl  Cl37  1  0.332168  0.092955  0.694774  1
  Cl  Cl38  1  0.832168  0.407045  0.694774  1
  Cl  Cl39  1  0.832168  0.092955  0.805226  1
  O  O40  1  0.646936  0.316487  0.940840  1
  O  O41  1  0.853064  0.683513  0.440840  1
  O  O42  1  0.785058  0.048474  0.994655  1
  O  O43  1  0.067688  0.908189  0.411304  1
  O  O44  1  0.285058  0.451526  0.994655  1
  O  O45  1  0.785058  0.451526  0.505345  1
  O  O46  1  0.067688  0.591811  0.088696  1
  O  O47  1  0.214942  0.548474  0.494655  1
  O  O48  1  0.353064  0.683513  0.059160  1
  O  O49  1  0.853064  0.816487  0.059160  1
  O  O50  1  0.285058  0.048474  0.505345  1
  O  O51  1  0.714942  0.548474  0.005345  1
  O  O52  1  0.146936  0.183513  0.940840  1
  O  O53  1  0.432312  0.408189  0.588696  1
  O  O54  1  0.214942  0.951526  0.005345  1
  O  O55  1  0.932312  0.408189  0.911304  1
  O  O56  1  0.567688  0.591811  0.411304  1
  O  O57  1  0.714942  0.951526  0.494655  1
  O  O58  1  0.932312  0.091811  0.588696  1
  O  O59  1  0.432312  0.091811  0.911304  1
  O  O60  1  0.646936  0.183513  0.559160  1
  O  O61  1  0.146936  0.316487  0.559160  1
  O  O62  1  0.353064  0.816487  0.440840  1
  O  O63  1  0.567688  0.908189  0.088696  1
