# generated using pymatgen
data_TiZn2O4
_symmetry_space_group_name_H-M   'P 1'
_cell_length_a   10.40996822
_cell_length_b   10.40996822
_cell_length_c   6.11163955
_cell_angle_alpha   89.86391746
_cell_angle_beta   90.13608254
_cell_angle_gamma   108.25144332
_symmetry_Int_Tables_number   1
_chemical_formula_structural   TiZn2O4
_chemical_formula_sum   'Ti8 Zn16 O32'
_cell_volume   628.98038953
_cell_formula_units_Z   8
loop_
 _symmetry_equiv_pos_site_id
 _symmetry_equiv_pos_as_xyz
  1  'x, y, z'
loop_
 _atom_site_type_symbol
 _atom_site_label
 _atom_site_symmetry_multiplicity
 _atom_site_fract_x
 _atom_site_fract_y
 _atom_site_fract_z
 _atom_site_occupancy
  Ti  Ti0  1  0.624348  0.373306  0.763420  1
  Ti  Ti1  1  0.126006  0.877296  0.749473  1
  Ti  Ti2  1  0.368095  0.368095  0.500000  1
  Ti  Ti3  1  0.878430  0.382452  0.498024  1
  Ti  Ti4  1  0.382452  0.878430  0.501976  1
  Ti  Ti5  1  0.877296  0.126006  0.250527  1
  Ti  Ti6  1  0.373306  0.624348  0.236580  1
  Ti  Ti7  1  0.868800  0.868800  0.000000  1
  Zn  Zn8  1  0.879484  0.378817  0.999035  1
  Zn  Zn9  1  0.378817  0.879484  0.000965  1
  Zn  Zn10  1  0.875312  0.625685  0.749680  1
  Zn  Zn11  1  0.375991  0.124749  0.757350  1
  Zn  Zn12  1  0.691284  0.062848  0.738106  1
  Zn  Zn13  1  0.188603  0.564516  0.743726  1
  Zn  Zn14  1  0.560133  0.685004  0.753113  1
  Zn  Zn15  1  0.060100  0.186787  0.756191  1
  Zn  Zn16  1  0.871947  0.871947  0.500000  1
  Zn  Zn17  1  0.685004  0.560133  0.246887  1
  Zn  Zn18  1  0.564516  0.188603  0.256274  1
  Zn  Zn19  1  0.062848  0.691284  0.261894  1
  Zn  Zn20  1  0.186787  0.060100  0.243809  1
  Zn  Zn21  1  0.625685  0.875312  0.250320  1
  Zn  Zn22  1  0.124749  0.375991  0.242650  1
  Zn  Zn23  1  0.371284  0.371284  0.000000  1
  O  O24  1  0.743783  0.492579  0.969075  1
  O  O25  1  0.509772  0.257751  0.975997  1
  O  O26  1  0.246125  0.992303  0.971967  1
  O  O27  1  0.003877  0.766597  0.988250  1
  O  O28  1  0.499339  0.482906  0.734022  1
  O  O29  1  0.999695  0.983890  0.765849  1
  O  O30  1  0.251125  0.766909  0.737941  1
  O  O31  1  0.749220  0.266008  0.729667  1
  O  O32  1  0.488706  0.986784  0.731966  1
  O  O33  1  0.987524  0.484923  0.732064  1
  O  O34  1  0.761230  0.764547  0.768742  1
  O  O35  1  0.261885  0.263432  0.734281  1
  O  O36  1  0.748936  0.483893  0.512496  1
  O  O37  1  0.245732  0.982623  0.515640  1
  O  O38  1  0.499261  0.265521  0.517925  1
  O  O39  1  0.002732  0.759113  0.533808  1
  O  O40  1  0.982623  0.245732  0.484360  1
  O  O41  1  0.483893  0.748936  0.487504  1
  O  O42  1  0.265521  0.499261  0.482075  1
  O  O43  1  0.759113  0.002732  0.466192  1
  O  O44  1  0.986784  0.488706  0.268034  1
  O  O45  1  0.764547  0.761230  0.231258  1
  O  O46  1  0.484923  0.987524  0.267936  1
  O  O47  1  0.263432  0.261885  0.265719  1
  O  O48  1  0.983890  0.999695  0.234151  1
  O  O49  1  0.482906  0.499339  0.265978  1
  O  O50  1  0.766909  0.251125  0.262059  1
  O  O51  1  0.266008  0.749220  0.270333  1
  O  O52  1  0.992303  0.246125  0.028033  1
  O  O53  1  0.766597  0.003877  0.011750  1
  O  O54  1  0.492579  0.743783  0.030925  1
  O  O55  1  0.257751  0.509772  0.024003  1
