# generated using pymatgen
data_TeI4
_symmetry_space_group_name_H-M   'P 1'
_cell_length_a   7.54792934
_cell_length_b   15.18875120
_cell_length_c   17.42256721
_cell_angle_alpha   90.00000000
_cell_angle_beta   90.00000000
_cell_angle_gamma   90.00000000
_symmetry_Int_Tables_number   1
_chemical_formula_structural   TeI4
_chemical_formula_sum   'Te8 I32'
_cell_volume   1997.38618894
_cell_formula_units_Z   8
loop_
 _symmetry_equiv_pos_site_id
 _symmetry_equiv_pos_as_xyz
  1  'x, y, z'
loop_
 _atom_site_type_symbol
 _atom_site_label
 _atom_site_symmetry_multiplicity
 _atom_site_fract_x
 _atom_site_fract_y
 _atom_site_fract_z
 _atom_site_occupancy
  Te  Te0  1  0.268762  0.397601  0.000000  1
  Te  Te1  1  0.744535  0.163459  0.360435  1
  Te  Te2  1  0.255465  0.663459  0.860435  1
  Te  Te3  1  0.249816  0.929484  0.000000  1
  Te  Te4  1  0.744535  0.163459  0.639565  1
  Te  Te5  1  0.731238  0.897601  0.500000  1
  Te  Te6  1  0.750184  0.429484  0.500000  1
  Te  Te7  1  0.255465  0.663459  0.139565  1
  I  I8  1  0.520837  0.830592  0.618723  1
  I  I9  1  0.978045  0.248655  0.500000  1
  I  I10  1  0.510815  0.080813  0.500000  1
  I  I11  1  0.486752  0.823682  0.126615  1
  I  I12  1  0.981891  0.761834  0.500000  1
  I  I13  1  0.028738  0.738996  0.751801  1
  I  I14  1  0.486752  0.823682  0.873385  1
  I  I15  1  0.043309  0.999357  0.119199  1
  I  I16  1  0.956691  0.499357  0.380801  1
  I  I17  1  0.026211  0.502776  0.873645  1
  I  I18  1  0.479163  0.330592  0.118723  1
  I  I19  1  0.514883  0.087169  0.746225  1
  I  I20  1  0.971262  0.238996  0.251801  1
  I  I21  1  0.973789  0.002776  0.373645  1
  I  I22  1  0.485117  0.587169  0.246225  1
  I  I23  1  0.485117  0.587169  0.753775  1
  I  I24  1  0.973789  0.002776  0.626355  1
  I  I25  1  0.956691  0.499357  0.619199  1
  I  I26  1  0.520837  0.830592  0.381277  1
  I  I27  1  0.021955  0.748655  0.000000  1
  I  I28  1  0.479163  0.330592  0.881277  1
  I  I29  1  0.493869  0.562551  0.500000  1
  I  I30  1  0.513248  0.323682  0.373385  1
  I  I31  1  0.043309  0.999357  0.880801  1
  I  I32  1  0.026211  0.502776  0.126355  1
  I  I33  1  0.971262  0.238996  0.748199  1
  I  I34  1  0.489185  0.580813  0.000000  1
  I  I35  1  0.018109  0.261834  0.000000  1
  I  I36  1  0.513248  0.323682  0.626615  1
  I  I37  1  0.514883  0.087169  0.253775  1
  I  I38  1  0.506131  0.062551  0.000000  1
  I  I39  1  0.028738  0.738996  0.248199  1
