# generated using pymatgen
data_V5O9
_symmetry_space_group_name_H-M   'P 1'
_cell_length_a   7.11783698
_cell_length_b   8.53146354
_cell_length_c   11.19898041
_cell_angle_alpha   74.34382670
_cell_angle_beta   71.63117103
_cell_angle_gamma   70.52094874
_symmetry_Int_Tables_number   1
_chemical_formula_structural   V5O9
_chemical_formula_sum   'V20 O36'
_cell_volume   598.06436760
_cell_formula_units_Z   4
loop_
 _symmetry_equiv_pos_site_id
 _symmetry_equiv_pos_as_xyz
  1  'x, y, z'
loop_
 _atom_site_type_symbol
 _atom_site_label
 _atom_site_symmetry_multiplicity
 _atom_site_fract_x
 _atom_site_fract_y
 _atom_site_fract_z
 _atom_site_occupancy
  V  V0  1  0.326025  0.421478  0.611409  1
  V  V1  1  0.317523  0.426294  0.116239  1
  V  V2  1  0.682477  0.573706  0.883761  1
  V  V3  1  0.352260  0.787108  0.571345  1
  V  V4  1  0.175696  0.584967  0.390114  1
  V  V5  1  0.168568  0.203792  0.920587  1
  V  V6  1  0.823652  0.422153  0.110119  1
  V  V7  1  0.161277  0.196721  0.430737  1
  V  V8  1  0.176348  0.577847  0.889881  1
  V  V9  1  0.349255  0.790619  0.068373  1
  V  V10  1  0.650745  0.209381  0.931627  1
  V  V11  1  0.824304  0.415033  0.609886  1
  V  V12  1  0.673975  0.578522  0.388591  1
  V  V13  1  0.000390  0.004977  0.245613  1
  V  V14  1  0.495909  0.001365  0.251134  1
  V  V15  1  0.838723  0.803279  0.569263  1
  V  V16  1  0.647740  0.212892  0.428655  1
  V  V17  1  0.504091  0.998635  0.748866  1
  V  V18  1  0.999610  0.995023  0.754387  1
  V  V19  1  0.831432  0.796208  0.079413  1
  O  O20  1  0.539600  0.540801  0.592102  1
  O  O21  1  0.460984  0.137208  0.374457  1
  O  O22  1  0.188132  0.752247  0.763749  1
  O  O23  1  0.146153  0.679916  0.542794  1
  O  O24  1  0.804526  0.918066  0.705868  1
  O  O25  1  0.800626  0.578423  0.718006  1
  O  O26  1  0.488176  0.806615  0.389390  1
  O  O27  1  0.186785  0.759159  0.262536  1
  O  O28  1  0.150122  0.023786  0.563499  1
  O  O29  1  0.132860  0.368128  0.042158  1
  O  O30  1  0.801890  0.590085  0.205846  1
  O  O31  1  0.460400  0.459199  0.407898  1
  O  O32  1  0.853847  0.320084  0.457206  1
  O  O33  1  0.813215  0.240841  0.737464  1
  O  O34  1  0.199374  0.421577  0.281994  1
  O  O35  1  0.853752  0.968811  0.940036  1
  O  O36  1  0.198110  0.409915  0.794154  1
  O  O37  1  0.152298  0.673219  0.045116  1
  O  O38  1  0.464015  0.461497  0.908294  1
  O  O39  1  0.867140  0.631872  0.957842  1
  O  O40  1  0.811868  0.247753  0.236251  1
  O  O41  1  0.146248  0.031189  0.059964  1
  O  O42  1  0.529100  0.873247  0.124351  1
  O  O43  1  0.871852  0.632684  0.460812  1
  O  O44  1  0.847702  0.326781  0.954884  1
  O  O45  1  0.504984  0.205901  0.110991  1
  O  O46  1  0.128148  0.367316  0.539188  1
  O  O47  1  0.201421  0.076218  0.792994  1
  O  O48  1  0.535985  0.538503  0.091706  1
  O  O49  1  0.539016  0.862792  0.625543  1
  O  O50  1  0.849878  0.976214  0.436501  1
  O  O51  1  0.495016  0.794099  0.889009  1
  O  O52  1  0.511824  0.193385  0.610610  1
  O  O53  1  0.470900  0.126753  0.875649  1
  O  O54  1  0.798579  0.923782  0.207006  1
  O  O55  1  0.195474  0.081934  0.294132  1
