# generated using pymatgen
data_KCa9Mn(PO4)7
_symmetry_space_group_name_H-M   'P 1'
_cell_length_a   13.87156141
_cell_length_b   13.87156141
_cell_length_c   13.87156141
_cell_angle_alpha   44.69547644
_cell_angle_beta   44.69547644
_cell_angle_gamma   44.69547644
_symmetry_Int_Tables_number   1
_chemical_formula_structural   KCa9Mn(PO4)7
_chemical_formula_sum   'K2 Ca18 Mn2 P14 O56'
_cell_volume   1201.02706264
_cell_formula_units_Z   2
loop_
 _symmetry_equiv_pos_site_id
 _symmetry_equiv_pos_as_xyz
  1  'x, y, z'
loop_
 _atom_site_type_symbol
 _atom_site_label
 _atom_site_symmetry_multiplicity
 _atom_site_fract_x
 _atom_site_fract_y
 _atom_site_fract_z
 _atom_site_occupancy
  K  K0  1  0.316046  0.316046  0.316046  1
  K  K1  1  0.816046  0.816046  0.816046  1
  Ca  Ca2  1  0.425785  0.839525  0.434932  1
  Ca  Ca3  1  0.026994  0.056105  0.436286  1
  Ca  Ca4  1  0.090301  0.054545  0.653849  1
  Ca  Ca5  1  0.339525  0.925785  0.934932  1
  Ca  Ca6  1  0.653849  0.090301  0.054545  1
  Ca  Ca7  1  0.434932  0.425785  0.839525  1
  Ca  Ca8  1  0.056105  0.436286  0.026994  1
  Ca  Ca9  1  0.436286  0.026994  0.056105  1
  Ca  Ca10  1  0.936286  0.556105  0.526994  1
  Ca  Ca11  1  0.839525  0.434932  0.425785  1
  Ca  Ca12  1  0.590301  0.153849  0.554545  1
  Ca  Ca13  1  0.934932  0.339525  0.925785  1
  Ca  Ca14  1  0.526994  0.936286  0.556105  1
  Ca  Ca15  1  0.153849  0.554545  0.590301  1
  Ca  Ca16  1  0.554545  0.590301  0.153849  1
  Ca  Ca17  1  0.556105  0.526994  0.936286  1
  Ca  Ca18  1  0.925785  0.934932  0.339525  1
  Ca  Ca19  1  0.054545  0.653849  0.090301  1
  Mn  Mn20  1  0.498611  0.498611  0.498611  1
  Mn  Mn21  1  0.998611  0.998611  0.998611  1
  P  P22  1  0.684895  0.727107  0.179451  1
  P  P23  1  0.317626  0.271159  0.812609  1
  P  P24  1  0.679451  0.227107  0.184895  1
  P  P25  1  0.179451  0.684895  0.727107  1
  P  P26  1  0.771159  0.817626  0.312609  1
  P  P27  1  0.727107  0.179451  0.684895  1
  P  P28  1  0.271159  0.812609  0.317626  1
  P  P29  1  0.184895  0.679451  0.227107  1
  P  P30  1  0.231548  0.231548  0.231548  1
  P  P31  1  0.817626  0.312609  0.771159  1
  P  P32  1  0.812609  0.317626  0.271159  1
  P  P33  1  0.227107  0.184895  0.679451  1
  P  P34  1  0.731548  0.731548  0.731548  1
  P  P35  1  0.312609  0.771159  0.817626  1
  O  O36  1  0.383603  0.356141  0.636662  1
  O  O37  1  0.871212  0.148477  0.323796  1
  O  O38  1  0.356141  0.636662  0.383603  1
  O  O39  1  0.604470  0.238089  0.130653  1
  O  O40  1  0.625607  0.629302  0.354810  1
  O  O41  1  0.611246  0.158477  0.358883  1
  O  O42  1  0.629302  0.354810  0.625607  1
  O  O43  1  0.636662  0.383603  0.356141  1
  O  O44  1  0.130653  0.604470  0.238089  1
  O  O45  1  0.738089  0.104470  0.630653  1
  O  O46  1  0.737735  0.888606  0.608581  1
  O  O47  1  0.830686  0.383660  0.808903  1
  O  O48  1  0.855601  0.411229  0.098820  1
  O  O49  1  0.911229  0.355601  0.598820  1
  O  O50  1  0.383660  0.808903  0.830686  1
  O  O51  1  0.658477  0.111246  0.858883  1
  O  O52  1  0.108581  0.388606  0.237735  1
  O  O53  1  0.125607  0.854810  0.129302  1
  O  O54  1  0.823796  0.648477  0.371212  1
  O  O55  1  0.162026  0.605710  0.890365  1
  O  O56  1  0.104470  0.630653  0.738089  1
  O  O57  1  0.883660  0.330686  0.308903  1
  O  O58  1  0.358883  0.611246  0.158477  1
  O  O59  1  0.355601  0.598820  0.911229  1
  O  O60  1  0.237735  0.108581  0.388606  1
  O  O61  1  0.189977  0.189977  0.189977  1
  O  O62  1  0.238089  0.130653  0.604470  1
  O  O63  1  0.662026  0.390365  0.105710  1
  O  O64  1  0.330686  0.308903  0.883660  1
  O  O65  1  0.858883  0.658477  0.111246  1
  O  O66  1  0.890365  0.162026  0.605710  1
  O  O67  1  0.605710  0.890365  0.162026  1
  O  O68  1  0.608581  0.737735  0.888606  1
  O  O69  1  0.411229  0.098820  0.855601  1
  O  O70  1  0.808903  0.830686  0.383660  1
  O  O71  1  0.888606  0.608581  0.737735  1
  O  O72  1  0.883603  0.136662  0.856141  1
  O  O73  1  0.390365  0.105710  0.662026  1
  O  O74  1  0.308903  0.883660  0.330686  1
  O  O75  1  0.371212  0.823796  0.648477  1
  O  O76  1  0.158477  0.358883  0.611246  1
  O  O77  1  0.148477  0.323796  0.871212  1
  O  O78  1  0.856141  0.883603  0.136662  1
  O  O79  1  0.129302  0.125607  0.854810  1
  O  O80  1  0.854810  0.129302  0.125607  1
  O  O81  1  0.388606  0.237735  0.108581  1
  O  O82  1  0.354810  0.625607  0.629302  1
  O  O83  1  0.323796  0.871212  0.148477  1
  O  O84  1  0.648477  0.371212  0.823796  1
  O  O85  1  0.105710  0.662026  0.390365  1
  O  O86  1  0.111246  0.858883  0.658477  1
  O  O87  1  0.630653  0.738089  0.104470  1
  O  O88  1  0.098820  0.855601  0.411229  1
  O  O89  1  0.689977  0.689977  0.689977  1
  O  O90  1  0.136662  0.856141  0.883603  1
  O  O91  1  0.598820  0.911229  0.355601  1
