# generated using pymatgen
data_InBiO3
_symmetry_space_group_name_H-M   'P 1'
_cell_length_a   5.71046191
_cell_length_b   6.05481919
_cell_length_c   8.41845545
_cell_angle_alpha   90.00000000
_cell_angle_beta   90.00000000
_cell_angle_gamma   90.00000000
_symmetry_Int_Tables_number   1
_chemical_formula_structural   InBiO3
_chemical_formula_sum   'In4 Bi4 O12'
_cell_volume   291.07495281
_cell_formula_units_Z   4
loop_
 _symmetry_equiv_pos_site_id
 _symmetry_equiv_pos_as_xyz
  1  'x, y, z'
loop_
 _atom_site_type_symbol
 _atom_site_label
 _atom_site_symmetry_multiplicity
 _atom_site_fract_x
 _atom_site_fract_y
 _atom_site_fract_z
 _atom_site_occupancy
  In  In0  1  0.999510  0.500582  0.515197  1
  In  In1  1  0.000490  0.499418  0.015197  1
  In  In2  1  0.499510  0.999418  0.015197  1
  In  In3  1  0.500490  0.000582  0.515197  1
  Bi  Bi4  1  0.998322  0.938831  0.793027  1
  Bi  Bi5  1  0.501678  0.438831  0.793027  1
  Bi  Bi6  1  0.498322  0.561169  0.293027  1
  Bi  Bi7  1  0.001678  0.061169  0.293027  1
  O  O8  1  0.802218  0.792935  0.434919  1
  O  O9  1  0.116294  0.449127  0.257613  1
  O  O10  1  0.883706  0.550873  0.757613  1
  O  O11  1  0.159167  0.161888  0.528943  1
  O  O12  1  0.659167  0.338112  0.028943  1
  O  O13  1  0.340833  0.661888  0.528943  1
  O  O14  1  0.840833  0.838112  0.028943  1
  O  O15  1  0.616294  0.050873  0.757613  1
  O  O16  1  0.197782  0.207065  0.934919  1
  O  O17  1  0.697782  0.292935  0.434919  1
  O  O18  1  0.383706  0.949127  0.257613  1
  O  O19  1  0.302218  0.707065  0.934919  1
