# generated using pymatgen
data_LiP3PbO9
_symmetry_space_group_name_H-M   'P 1'
_cell_length_a   6.86788238
_cell_length_b   7.36161144
_cell_length_c   7.53035958
_cell_angle_alpha   83.63987502
_cell_angle_beta   79.48063261
_cell_angle_gamma   82.00517839
_symmetry_Int_Tables_number   1
_chemical_formula_structural   LiP3PbO9
_chemical_formula_sum   'Li2 P6 Pb2 O18'
_cell_volume   369.25990099
_cell_formula_units_Z   2
loop_
 _symmetry_equiv_pos_site_id
 _symmetry_equiv_pos_as_xyz
  1  'x, y, z'
loop_
 _atom_site_type_symbol
 _atom_site_label
 _atom_site_symmetry_multiplicity
 _atom_site_fract_x
 _atom_site_fract_y
 _atom_site_fract_z
 _atom_site_occupancy
  Li  Li0  1  0.457952  0.827269  0.830381  1
  Li  Li1  1  0.542048  0.172731  0.169619  1
  P  P2  1  0.414719  0.384997  0.781792  1
  P  P3  1  0.848786  0.282053  0.771104  1
  P  P4  1  0.232714  0.157258  0.560067  1
  P  P5  1  0.585281  0.615003  0.218208  1
  P  P6  1  0.767286  0.842742  0.439933  1
  P  P7  1  0.151214  0.717947  0.228896  1
  Pb  Pb8  1  0.974562  0.769085  0.848492  1
  Pb  Pb9  1  0.025438  0.230915  0.151508  1
  O  O10  1  0.358087  0.587507  0.794732  1
  O  O11  1  0.678013  0.670121  0.384476  1
  O  O12  1  0.007907  0.772917  0.416437  1
  O  O13  1  0.374899  0.252215  0.948381  1
  O  O14  1  0.992093  0.227083  0.583563  1
  O  O15  1  0.175166  0.884240  0.092969  1
  O  O16  1  0.625101  0.747785  0.051619  1
  O  O17  1  0.706691  0.850468  0.641368  1
  O  O18  1  0.350270  0.649409  0.309216  1
  O  O19  1  0.321987  0.329879  0.615524  1
  O  O20  1  0.649730  0.350591  0.690784  1
  O  O21  1  0.735283  0.010055  0.311557  1
  O  O22  1  0.264717  0.989945  0.688443  1
  O  O23  1  0.930411  0.435415  0.840115  1
  O  O24  1  0.641913  0.412493  0.205268  1
  O  O25  1  0.824834  0.115760  0.907031  1
  O  O26  1  0.069589  0.564585  0.159885  1
  O  O27  1  0.293309  0.149532  0.358632  1
