# generated using pymatgen
data_TeAs(ClF2)3
_symmetry_space_group_name_H-M   'P 1'
_cell_length_a   9.05043217
_cell_length_b   10.24578682
_cell_length_c   11.74758633
_cell_angle_alpha   90.00000000
_cell_angle_beta   118.71775321
_cell_angle_gamma   90.00000000
_symmetry_Int_Tables_number   1
_chemical_formula_structural   TeAs(ClF2)3
_chemical_formula_sum   'Te4 As4 Cl12 F24'
_cell_volume   955.34788501
_cell_formula_units_Z   4
loop_
 _symmetry_equiv_pos_site_id
 _symmetry_equiv_pos_as_xyz
  1  'x, y, z'
loop_
 _atom_site_type_symbol
 _atom_site_label
 _atom_site_symmetry_multiplicity
 _atom_site_fract_x
 _atom_site_fract_y
 _atom_site_fract_z
 _atom_site_occupancy
  Te  Te0  1  0.744160  0.858984  0.680648  1
  Te  Te1  1  0.255840  0.141016  0.319352  1
  Te  Te2  1  0.255840  0.358984  0.819352  1
  Te  Te3  1  0.744160  0.641016  0.180648  1
  As  As4  1  0.386008  0.791477  0.276334  1
  As  As5  1  0.613992  0.208523  0.723666  1
  As  As6  1  0.613992  0.291477  0.223666  1
  As  As7  1  0.386008  0.708523  0.776334  1
  Cl  Cl8  1  0.973988  0.848820  0.886213  1
  Cl  Cl9  1  0.973988  0.651180  0.386213  1
  Cl  Cl10  1  0.742996  0.859792  0.135097  1
  Cl  Cl11  1  0.106200  0.427897  0.922316  1
  Cl  Cl12  1  0.893800  0.927897  0.577684  1
  Cl  Cl13  1  0.257004  0.359792  0.364903  1
  Cl  Cl14  1  0.106200  0.072103  0.422316  1
  Cl  Cl15  1  0.257004  0.140208  0.864903  1
  Cl  Cl16  1  0.026012  0.348820  0.613787  1
  Cl  Cl17  1  0.742996  0.640208  0.635097  1
  Cl  Cl18  1  0.026012  0.151180  0.113787  1
  Cl  Cl19  1  0.893800  0.572103  0.077684  1
  F  F20  1  0.591745  0.768642  0.814344  1
  F  F21  1  0.408255  0.231358  0.185656  1
  F  F22  1  0.428157  0.563168  0.715835  1
  F  F23  1  0.651959  0.152634  0.155239  1
  F  F24  1  0.298268  0.781625  0.622565  1
  F  F25  1  0.810300  0.138359  0.754421  1
  F  F26  1  0.408255  0.268642  0.685656  1
  F  F27  1  0.591745  0.731358  0.314344  1
  F  F28  1  0.571843  0.063168  0.784165  1
  F  F29  1  0.518979  0.368957  0.064589  1
  F  F30  1  0.481021  0.631043  0.935411  1
  F  F31  1  0.701732  0.281625  0.877435  1
  F  F32  1  0.428157  0.936832  0.215835  1
  F  F33  1  0.571843  0.436832  0.284165  1
  F  F34  1  0.810300  0.361641  0.254421  1
  F  F35  1  0.189700  0.638359  0.745579  1
  F  F36  1  0.348041  0.847366  0.844761  1
  F  F37  1  0.651959  0.347366  0.655239  1
  F  F38  1  0.348041  0.652634  0.344761  1
  F  F39  1  0.298268  0.718375  0.122565  1
  F  F40  1  0.518979  0.131043  0.564589  1
  F  F41  1  0.701732  0.218375  0.377435  1
  F  F42  1  0.189700  0.861641  0.245579  1
  F  F43  1  0.481021  0.868957  0.435411  1
