# generated using pymatgen
data_K2CoH12(SO7)2
_symmetry_space_group_name_H-M   'P 1'
_cell_length_a   6.25914085
_cell_length_b   12.31597810
_cell_length_c   9.10038089
_cell_angle_alpha   90.00000000
_cell_angle_beta   104.36062730
_cell_angle_gamma   90.00000000
_symmetry_Int_Tables_number   1
_chemical_formula_structural   K2CoH12(SO7)2
_chemical_formula_sum   'K4 Co2 H24 S4 O28'
_cell_volume   679.60510762
_cell_formula_units_Z   2
loop_
 _symmetry_equiv_pos_site_id
 _symmetry_equiv_pos_as_xyz
  1  'x, y, z'
loop_
 _atom_site_type_symbol
 _atom_site_label
 _atom_site_symmetry_multiplicity
 _atom_site_fract_x
 _atom_site_fract_y
 _atom_site_fract_z
 _atom_site_occupancy
  K  K0  1  0.654973  0.346933  0.368593  1
  K  K1  1  0.345027  0.846933  0.131407  1
  K  K2  1  0.345027  0.653067  0.631407  1
  K  K3  1  0.654973  0.153067  0.868593  1
  Co  Co4  1  0.000000  0.000000  0.500000  1
  Co  Co5  1  0.000000  0.500000  0.000000  1
  H  H6  1  0.677138  0.090636  0.284421  1
  H  H7  1  0.322862  0.590636  0.215579  1
  H  H8  1  0.322862  0.909364  0.715579  1
  H  H9  1  0.677138  0.409364  0.784421  1
  H  H10  1  0.907856  0.124584  0.249860  1
  H  H11  1  0.092144  0.624584  0.250140  1
  H  H12  1  0.092144  0.875416  0.750140  1
  H  H13  1  0.907856  0.375416  0.749860  1
  H  H14  1  0.075016  0.102062  0.776147  1
  H  H15  1  0.924984  0.602062  0.723853  1
  H  H16  1  0.924984  0.897938  0.223853  1
  H  H17  1  0.075016  0.397938  0.276147  1
  H  H18  1  0.000648  0.190980  0.648455  1
  H  H19  1  0.999352  0.690980  0.851545  1
  H  H20  1  0.999352  0.809020  0.351545  1
  H  H21  1  0.000648  0.309020  0.148455  1
  H  H22  1  0.666091  0.938830  0.605502  1
  H  H23  1  0.333909  0.438830  0.894498  1
  H  H24  1  0.333909  0.061170  0.394498  1
  H  H25  1  0.666091  0.561170  0.105502  1
  H  H26  1  0.672787  0.856853  0.470899  1
  H  H27  1  0.327213  0.356853  0.029101  1
  H  H28  1  0.327213  0.143147  0.529101  1
  H  H29  1  0.672787  0.643147  0.970899  1
  S  S30  1  0.274865  0.137997  0.092930  1
  S  S31  1  0.725135  0.637997  0.407070  1
  S  S32  1  0.725135  0.862003  0.907070  1
  S  S33  1  0.274865  0.362003  0.592930  1
  O  O34  1  0.416848  0.236170  0.096058  1
  O  O35  1  0.583152  0.736170  0.403942  1
  O  O36  1  0.583152  0.763830  0.903942  1
  O  O37  1  0.416848  0.263830  0.596058  1
  O  O38  1  0.250862  0.078701  0.947570  1
  O  O39  1  0.749138  0.578701  0.552430  1
  O  O40  1  0.749138  0.921299  0.052430  1
  O  O41  1  0.250862  0.421299  0.447570  1
  O  O42  1  0.387674  0.064674  0.220364  1
  O  O43  1  0.612326  0.564674  0.279636  1
  O  O44  1  0.612326  0.935326  0.779636  1
  O  O45  1  0.387674  0.435326  0.720364  1
  O  O46  1  0.052905  0.171240  0.112667  1
  O  O47  1  0.947095  0.671240  0.387333  1
  O  O48  1  0.947095  0.828760  0.887333  1
  O  O49  1  0.052905  0.328760  0.612667  1
  O  O50  1  0.831532  0.113143  0.331946  1
  O  O51  1  0.168468  0.613143  0.168054  1
  O  O52  1  0.168468  0.886857  0.668054  1
  O  O53  1  0.831532  0.386857  0.831946  1
  O  O54  1  0.967231  0.116082  0.676883  1
  O  O55  1  0.032769  0.616082  0.823117  1
  O  O56  1  0.032769  0.883918  0.323117  1
  O  O57  1  0.967231  0.383918  0.176883  1
  O  O58  1  0.705871  0.933117  0.506555  1
  O  O59  1  0.294129  0.433117  0.993445  1
  O  O60  1  0.294129  0.066883  0.493445  1
  O  O61  1  0.705871  0.566883  0.006555  1
