# generated using pymatgen
data_TiBr4
_symmetry_space_group_name_H-M   'P 1'
_cell_length_a   12.34337722
_cell_length_b   12.34337722
_cell_length_c   12.34337722
_cell_angle_alpha   90.00000000
_cell_angle_beta   90.00000000
_cell_angle_gamma   90.00000000
_symmetry_Int_Tables_number   1
_chemical_formula_structural   TiBr4
_chemical_formula_sum   'Ti8 Br32'
_cell_volume   1880.62413088
_cell_formula_units_Z   8
loop_
 _symmetry_equiv_pos_site_id
 _symmetry_equiv_pos_as_xyz
  1  'x, y, z'
loop_
 _atom_site_type_symbol
 _atom_site_label
 _atom_site_symmetry_multiplicity
 _atom_site_fract_x
 _atom_site_fract_y
 _atom_site_fract_z
 _atom_site_occupancy
  Ti  Ti0  1  0.130975  0.130975  0.130975  1
  Ti  Ti1  1  0.369025  0.630975  0.130975  1
  Ti  Ti2  1  0.630975  0.369025  0.869025  1
  Ti  Ti3  1  0.130975  0.369025  0.630975  1
  Ti  Ti4  1  0.869025  0.869025  0.869025  1
  Ti  Ti5  1  0.369025  0.869025  0.630975  1
  Ti  Ti6  1  0.869025  0.630975  0.369025  1
  Ti  Ti7  1  0.630975  0.130975  0.369025  1
  Br  Br8  1  0.759737  0.759737  0.759737  1
  Br  Br9  1  0.019039  0.240153  0.024096  1
  Br  Br10  1  0.240263  0.240263  0.240263  1
  Br  Br11  1  0.259847  0.975904  0.519039  1
  Br  Br12  1  0.240153  0.475904  0.519039  1
  Br  Br13  1  0.240153  0.024096  0.019039  1
  Br  Br14  1  0.740153  0.024096  0.480961  1
  Br  Br15  1  0.480961  0.740153  0.024096  1
  Br  Br16  1  0.480961  0.759847  0.524096  1
  Br  Br17  1  0.759847  0.524096  0.480961  1
  Br  Br18  1  0.240263  0.259737  0.740263  1
  Br  Br19  1  0.980961  0.740153  0.475904  1
  Br  Br20  1  0.519039  0.240153  0.475904  1
  Br  Br21  1  0.259847  0.524096  0.019039  1
  Br  Br22  1  0.024096  0.019039  0.240153  1
  Br  Br23  1  0.759847  0.975904  0.980961  1
  Br  Br24  1  0.975904  0.980961  0.759847  1
  Br  Br25  1  0.524096  0.480961  0.759847  1
  Br  Br26  1  0.259737  0.759737  0.740263  1
  Br  Br27  1  0.740263  0.259737  0.759737  1
  Br  Br28  1  0.980961  0.759847  0.975904  1
  Br  Br29  1  0.519039  0.259847  0.975904  1
  Br  Br30  1  0.475904  0.519039  0.240153  1
  Br  Br31  1  0.740263  0.240263  0.259737  1
  Br  Br32  1  0.740153  0.475904  0.980961  1
  Br  Br33  1  0.475904  0.980961  0.740153  1
  Br  Br34  1  0.524096  0.019039  0.259847  1
  Br  Br35  1  0.019039  0.259847  0.524096  1
  Br  Br36  1  0.259737  0.740263  0.240263  1
  Br  Br37  1  0.759737  0.740263  0.259737  1
  Br  Br38  1  0.024096  0.480961  0.740153  1
  Br  Br39  1  0.975904  0.519039  0.259847  1
