# generated using pymatgen
data_KSnPO5
_symmetry_space_group_name_H-M   'P 1'
_cell_length_a   6.63629594
_cell_length_b   10.90101097
_cell_length_c   13.37912846
_cell_angle_alpha   90.00000000
_cell_angle_beta   90.00000000
_cell_angle_gamma   90.00000000
_symmetry_Int_Tables_number   1
_chemical_formula_structural   KSnPO5
_chemical_formula_sum   'K8 Sn8 P8 O40'
_cell_volume   967.87739095
_cell_formula_units_Z   8
loop_
 _symmetry_equiv_pos_site_id
 _symmetry_equiv_pos_as_xyz
  1  'x, y, z'
loop_
 _atom_site_type_symbol
 _atom_site_label
 _atom_site_symmetry_multiplicity
 _atom_site_fract_x
 _atom_site_fract_y
 _atom_site_fract_z
 _atom_site_occupancy
  K  K0  1  0.306189  0.439957  0.890803  1
  K  K1  1  0.224050  0.199436  0.625337  1
  K  K2  1  0.193811  0.439957  0.390803  1
  K  K3  1  0.693811  0.939957  0.109197  1
  K  K4  1  0.775950  0.699436  0.374663  1
  K  K5  1  0.806189  0.939957  0.609197  1
  K  K6  1  0.724050  0.699436  0.874663  1
  K  K7  1  0.275950  0.199436  0.125337  1
  Sn  Sn8  1  0.745129  0.250466  0.751573  1
  Sn  Sn9  1  0.754871  0.250466  0.251573  1
  Sn  Sn10  1  0.997717  0.501505  0.127554  1
  Sn  Sn11  1  0.497717  0.001505  0.372446  1
  Sn  Sn12  1  0.002283  0.001505  0.872446  1
  Sn  Sn13  1  0.502283  0.501505  0.627554  1
  Sn  Sn14  1  0.254871  0.750466  0.248427  1
  Sn  Sn15  1  0.245129  0.750466  0.748427  1
  P  P16  1  0.341664  0.751719  0.501231  1
  P  P17  1  0.498497  0.998562  0.824320  1
  P  P18  1  0.158336  0.751719  0.001231  1
  P  P19  1  0.501503  0.498562  0.175680  1
  P  P20  1  0.998497  0.498562  0.675680  1
  P  P21  1  0.001503  0.998562  0.324320  1
  P  P22  1  0.658336  0.251719  0.498769  1
  P  P23  1  0.841664  0.251719  0.998769  1
  O  O24  1  0.794041  0.229543  0.591342  1
  O  O25  1  0.034271  0.625769  0.236934  1
  O  O26  1  0.471552  0.884833  0.755369  1
  O  O27  1  0.705959  0.229543  0.091342  1
  O  O28  1  0.013952  0.863951  0.771456  1
  O  O29  1  0.205959  0.729543  0.408658  1
  O  O30  1  0.682416  0.976085  0.894260  1
  O  O31  1  0.487398  0.863252  0.486956  1
  O  O32  1  0.465729  0.625769  0.736934  1
  O  O33  1  0.182416  0.476085  0.605740  1
  O  O34  1  0.012602  0.863252  0.986956  1
  O  O35  1  0.817584  0.976085  0.394260  1
  O  O36  1  0.520545  0.136026  0.485470  1
  O  O37  1  0.534271  0.125769  0.263066  1
  O  O38  1  0.969429  0.107403  0.251322  1
  O  O39  1  0.513952  0.363951  0.728544  1
  O  O40  1  0.294041  0.729543  0.908658  1
  O  O41  1  0.030571  0.607403  0.748678  1
  O  O42  1  0.202105  0.774138  0.592057  1
  O  O43  1  0.028448  0.884833  0.255369  1
  O  O44  1  0.317584  0.476085  0.105740  1
  O  O45  1  0.315005  0.022357  0.893208  1
  O  O46  1  0.702105  0.274138  0.907943  1
  O  O47  1  0.965729  0.125769  0.763066  1
  O  O48  1  0.530571  0.107403  0.751322  1
  O  O49  1  0.987398  0.363252  0.013044  1
  O  O50  1  0.020545  0.636026  0.014530  1
  O  O51  1  0.184995  0.022357  0.393208  1
  O  O52  1  0.986048  0.363951  0.228544  1
  O  O53  1  0.684995  0.522357  0.106792  1
  O  O54  1  0.797895  0.274138  0.407943  1
  O  O55  1  0.979455  0.136026  0.985470  1
  O  O56  1  0.469429  0.607403  0.248678  1
  O  O57  1  0.971552  0.384833  0.744631  1
  O  O58  1  0.815005  0.522357  0.606792  1
  O  O59  1  0.528448  0.384833  0.244631  1
  O  O60  1  0.479455  0.636026  0.514530  1
  O  O61  1  0.297895  0.774138  0.092057  1
  O  O62  1  0.512602  0.363252  0.513044  1
  O  O63  1  0.486048  0.863951  0.271456  1
