# generated using pymatgen
data_Cs2ZnO2
_symmetry_space_group_name_H-M   'P 1'
_cell_length_a   10.03086185
_cell_length_b   6.72713729
_cell_length_c   16.62387418
_cell_angle_alpha   90.00000000
_cell_angle_beta   117.19469693
_cell_angle_gamma   90.00000000
_symmetry_Int_Tables_number   1
_chemical_formula_structural   Cs2ZnO2
_chemical_formula_sum   'Cs16 Zn8 O16'
_cell_volume   997.76108005
_cell_formula_units_Z   8
loop_
 _symmetry_equiv_pos_site_id
 _symmetry_equiv_pos_as_xyz
  1  'x, y, z'
loop_
 _atom_site_type_symbol
 _atom_site_label
 _atom_site_symmetry_multiplicity
 _atom_site_fract_x
 _atom_site_fract_y
 _atom_site_fract_z
 _atom_site_occupancy
  Cs  Cs0  1  0.146545  0.174941  0.476455  1
  Cs  Cs1  1  0.925491  0.137677  0.161352  1
  Cs  Cs2  1  0.571548  0.077027  0.620928  1
  Cs  Cs3  1  0.428452  0.577027  0.879072  1
  Cs  Cs4  1  0.925491  0.362323  0.661352  1
  Cs  Cs5  1  0.853455  0.825059  0.523545  1
  Cs  Cs6  1  0.146545  0.325059  0.976455  1
  Cs  Cs7  1  0.074509  0.637677  0.338648  1
  Cs  Cs8  1  0.676328  0.910449  0.258225  1
  Cs  Cs9  1  0.428452  0.922973  0.379072  1
  Cs  Cs10  1  0.323672  0.410449  0.241775  1
  Cs  Cs11  1  0.074509  0.862323  0.838648  1
  Cs  Cs12  1  0.571548  0.422973  0.120928  1
  Cs  Cs13  1  0.853455  0.674941  0.023545  1
  Cs  Cs14  1  0.323672  0.089551  0.741775  1
  Cs  Cs15  1  0.676328  0.589551  0.758225  1
  Zn  Zn16  1  0.754966  0.134679  0.872315  1
  Zn  Zn17  1  0.245034  0.865321  0.127685  1
  Zn  Zn18  1  0.585424  0.444557  0.459850  1
  Zn  Zn19  1  0.245034  0.634679  0.627685  1
  Zn  Zn20  1  0.414576  0.944557  0.040150  1
  Zn  Zn21  1  0.414576  0.555443  0.540150  1
  Zn  Zn22  1  0.585424  0.055443  0.959850  1
  Zn  Zn23  1  0.754966  0.365321  0.372315  1
  O  O24  1  0.141193  0.694379  0.693789  1
  O  O25  1  0.630119  0.880430  0.068852  1
  O  O26  1  0.270788  0.722306  0.031453  1
  O  O27  1  0.618749  0.913554  0.860131  1
  O  O28  1  0.729212  0.277694  0.968547  1
  O  O29  1  0.858807  0.194379  0.806211  1
  O  O30  1  0.141193  0.805621  0.193789  1
  O  O31  1  0.729212  0.222306  0.468547  1
  O  O32  1  0.858807  0.305621  0.306211  1
  O  O33  1  0.630119  0.619570  0.568852  1
  O  O34  1  0.369881  0.380430  0.431148  1
  O  O35  1  0.618749  0.586446  0.360131  1
  O  O36  1  0.270788  0.777694  0.531453  1
  O  O37  1  0.369881  0.119570  0.931148  1
  O  O38  1  0.381251  0.086446  0.139869  1
  O  O39  1  0.381251  0.413554  0.639869  1
