# generated using pymatgen
data_Cr3B7ClO13
_symmetry_space_group_name_H-M   'P 1'
_cell_length_a   8.67623365
_cell_length_b   8.67623365
_cell_length_c   8.67623365
_cell_angle_alpha   60.00000000
_cell_angle_beta   60.00000000
_cell_angle_gamma   60.00000000
_symmetry_Int_Tables_number   1
_chemical_formula_structural   Cr3B7ClO13
_chemical_formula_sum   'Cr6 B14 Cl2 O26'
_cell_volume   461.82636069
_cell_formula_units_Z   2
loop_
 _symmetry_equiv_pos_site_id
 _symmetry_equiv_pos_as_xyz
  1  'x, y, z'
loop_
 _atom_site_type_symbol
 _atom_site_label
 _atom_site_symmetry_multiplicity
 _atom_site_fract_x
 _atom_site_fract_y
 _atom_site_fract_z
 _atom_site_occupancy
  Cr  Cr0  1  1.000000  1.000000  0.500000  1
  Cr  Cr1  1  0.000000  0.500000  0.500000  1
  Cr  Cr2  1  0.500000  0.000000  1.000000  1
  Cr  Cr3  1  0.500000  0.000000  0.500000  1
  Cr  Cr4  1  0.500000  0.500000  1.000000  1
  Cr  Cr5  1  1.000000  0.500000  1.000000  1
  B  B6  1  0.239956  0.920015  0.920015  1
  B  B7  1  0.250000  0.750000  0.750000  1
  B  B8  1  0.920015  0.920015  0.920015  1
  B  B9  1  0.250000  0.250000  0.750000  1
  B  B10  1  0.420015  0.420015  0.420015  1
  B  B11  1  0.420015  0.739956  0.420015  1
  B  B12  1  0.420015  0.420015  0.739956  1
  B  B13  1  0.750000  0.250000  0.250000  1
  B  B14  1  0.920015  0.920015  0.239956  1
  B  B15  1  0.250000  0.750000  0.250000  1
  B  B16  1  0.750000  0.250000  0.750000  1
  B  B17  1  0.739956  0.420015  0.420015  1
  B  B18  1  0.920015  0.239956  0.920015  1
  B  B19  1  0.750000  0.750000  0.250000  1
  Cl  Cl20  1  0.750000  0.750000  0.750000  1
  Cl  Cl21  1  0.250000  0.250000  0.250000  1
  O  O22  1  0.795757  0.395565  0.244584  1
  O  O23  1  0.744584  0.895565  0.295757  1
  O  O24  1  0.244584  0.395565  0.564094  1
  O  O25  1  0.500000  0.500000  0.500000  1
  O  O26  1  0.244584  0.564094  0.795757  1
  O  O27  1  0.295757  0.895565  0.064094  1
  O  O28  1  0.895565  0.295757  0.744584  1
  O  O29  1  0.744584  0.295757  0.064094  1
  O  O30  1  0.000000  0.000000  0.000000  1
  O  O31  1  0.564094  0.795757  0.244584  1
  O  O32  1  0.564094  0.395565  0.795757  1
  O  O33  1  0.064094  0.895565  0.744584  1
  O  O34  1  0.295757  0.744584  0.895565  1
  O  O35  1  0.795757  0.244584  0.564094  1
  O  O36  1  0.744584  0.064094  0.895565  1
  O  O37  1  0.895565  0.064094  0.295757  1
  O  O38  1  0.564094  0.244584  0.395565  1
  O  O39  1  0.395565  0.795757  0.564094  1
  O  O40  1  0.395565  0.244584  0.795757  1
  O  O41  1  0.795757  0.564094  0.395565  1
  O  O42  1  0.895565  0.744584  0.064094  1
  O  O43  1  0.295757  0.064094  0.744584  1
  O  O44  1  0.064094  0.295757  0.895565  1
  O  O45  1  0.064094  0.744584  0.295757  1
  O  O46  1  0.244584  0.795757  0.395565  1
  O  O47  1  0.395565  0.564094  0.244584  1
