# generated using pymatgen
data_NaB5H10O13
_symmetry_space_group_name_H-M   'P 1'
_cell_length_a   9.91926676
_cell_length_b   9.91926676
_cell_length_c   13.56403935
_cell_angle_alpha   77.82279016
_cell_angle_beta   102.17720984
_cell_angle_gamma   68.25123257
_symmetry_Int_Tables_number   1
_chemical_formula_structural   NaB5H10O13
_chemical_formula_sum   'Na4 B20 H40 O52'
_cell_volume   1148.63292477
_cell_formula_units_Z   4
loop_
 _symmetry_equiv_pos_site_id
 _symmetry_equiv_pos_as_xyz
  1  'x, y, z'
loop_
 _atom_site_type_symbol
 _atom_site_label
 _atom_site_symmetry_multiplicity
 _atom_site_fract_x
 _atom_site_fract_y
 _atom_site_fract_z
 _atom_site_occupancy
  Na  Na0  1  0.844567  0.844567  0.250000  1
  Na  Na1  1  0.155433  0.155433  0.750000  1
  Na  Na2  1  0.376062  0.376062  0.250000  1
  Na  Na3  1  0.623938  0.623938  0.750000  1
  B  B4  1  0.830626  0.337144  0.177978  1
  B  B5  1  0.337144  0.830626  0.322022  1
  B  B6  1  0.169374  0.662856  0.822022  1
  B  B7  1  0.662856  0.169374  0.677978  1
  B  B8  1  0.979727  0.334790  0.049189  1
  B  B9  1  0.334790  0.979727  0.450811  1
  B  B10  1  0.020273  0.665210  0.950811  1
  B  B11  1  0.665210  0.020273  0.549189  1
  B  B12  1  0.706114  0.433782  0.980817  1
  B  B13  1  0.433782  0.706114  0.519183  1
  B  B14  1  0.293886  0.566218  0.019183  1
  B  B15  1  0.566218  0.293886  0.480817  1
  B  B16  1  0.865454  0.362251  0.359727  1
  B  B17  1  0.362251  0.865454  0.140273  1
  B  B18  1  0.134546  0.637749  0.640273  1
  B  B19  1  0.637749  0.134546  0.859727  1
  B  B20  1  0.891018  0.120101  0.336536  1
  B  B21  1  0.120101  0.891018  0.163464  1
  B  B22  1  0.108982  0.879899  0.663464  1
  B  B23  1  0.879899  0.108982  0.836536  1
  H  H24  1  0.209048  0.250667  0.092942  1
  H  H25  1  0.250667  0.209048  0.407058  1
  H  H26  1  0.790952  0.749333  0.907058  1
  H  H27  1  0.749333  0.790952  0.592942  1
  H  H28  1  0.478245  0.525764  0.903916  1
  H  H29  1  0.525764  0.478245  0.596084  1
  H  H30  1  0.521755  0.474236  0.096084  1
  H  H31  1  0.474236  0.521755  0.403916  1
  H  H32  1  0.815658  0.558482  0.400242  1
  H  H33  1  0.558482  0.815658  0.099758  1
  H  H34  1  0.184342  0.441518  0.599758  1
  H  H35  1  0.441518  0.184342  0.900242  1
  H  H36  1  0.958786  0.920632  0.453334  1
  H  H37  1  0.920632  0.958786  0.046666  1
  H  H38  1  0.041214  0.079368  0.546666  1
  H  H39  1  0.079368  0.041214  0.953334  1
  H  H40  1  0.776241  0.615767  0.177735  1
  H  H41  1  0.615767  0.776241  0.322265  1
  H  H42  1  0.223759  0.384233  0.822265  1
  H  H43  1  0.384233  0.223759  0.677735  1
  H  H44  1  0.801074  0.714476  0.080788  1
  H  H45  1  0.714476  0.801074  0.419212  1
  H  H46  1  0.198926  0.285524  0.919212  1
  H  H47  1  0.285524  0.198926  0.580788  1
  H  H48  1  0.101230  0.606266  0.435194  1
  H  H49  1  0.606266  0.101230  0.064806  1
  H  H50  1  0.898770  0.393734  0.564806  1
  H  H51  1  0.393734  0.898770  0.935194  1
  H  H52  1  0.139266  0.690019  0.338745  1
  H  H53  1  0.690019  0.139266  0.161255  1
  H  H54  1  0.860734  0.309981  0.661255  1
  H  H55  1  0.309981  0.860734  0.838745  1
  H  H56  1  0.093145  0.364889  0.249419  1
  H  H57  1  0.364889  0.093145  0.250581  1
  H  H58  1  0.906855  0.635111  0.750581  1
  H  H59  1  0.635111  0.906855  0.749419  1
  H  H60  1  0.126581  0.467847  0.322265  1
  H  H61  1  0.467847  0.126581  0.177735  1
  H  H62  1  0.873419  0.532153  0.677735  1
  H  H63  1  0.532153  0.873419  0.822265  1
  O  O64  1  0.115792  0.298547  0.027794  1
  O  O65  1  0.298547  0.115792  0.472206  1
  O  O66  1  0.884208  0.701453  0.972206  1
  O  O67  1  0.701453  0.884208  0.527794  1
  O  O68  1  0.846794  0.389841  0.963121  1
  O  O69  1  0.389841  0.846794  0.536879  1
  O  O70  1  0.153206  0.610159  0.036879  1
  O  O71  1  0.610159  0.153206  0.463121  1
  O  O72  1  0.580074  0.496528  0.891814  1
  O  O73  1  0.496528  0.580074  0.608186  1
  O  O74  1  0.419926  0.503472  0.108186  1
  O  O75  1  0.503472  0.419926  0.391814  1
  O  O76  1  0.972472  0.317751  0.150843  1
  O  O77  1  0.317751  0.972472  0.349157  1
  O  O78  1  0.027528  0.682249  0.849157  1
  O  O79  1  0.682249  0.027528  0.650843  1
  O  O80  1  0.694461  0.417605  0.081249  1
  O  O81  1  0.417605  0.694461  0.418751  1
  O  O82  1  0.305539  0.582395  0.918751  1
  O  O83  1  0.582395  0.305539  0.581249  1
  O  O84  1  0.816230  0.429404  0.251634  1
  O  O85  1  0.429404  0.816230  0.248366  1
  O  O86  1  0.183770  0.570596  0.748366  1
  O  O87  1  0.570596  0.183770  0.751634  1
  O  O88  1  0.835452  0.187732  0.228729  1
  O  O89  1  0.187732  0.835452  0.271271  1
  O  O90  1  0.164548  0.812268  0.771271  1
  O  O91  1  0.812268  0.164548  0.728729  1
  O  O92  1  0.865376  0.443279  0.429684  1
  O  O93  1  0.443279  0.865376  0.070316  1
  O  O94  1  0.134624  0.556721  0.570316  1
  O  O95  1  0.556721  0.134624  0.929684  1
  O  O96  1  0.919171  0.202712  0.404151  1
  O  O97  1  0.202712  0.919171  0.095849  1
  O  O98  1  0.080829  0.797288  0.595849  1
  O  O99  1  0.797288  0.080829  0.904151  1
  O  O100  1  0.914301  0.971541  0.375895  1
  O  O101  1  0.971541  0.914301  0.124105  1
  O  O102  1  0.085699  0.028459  0.624105  1
  O  O103  1  0.028459  0.085699  0.875895  1
  O  O104  1  0.750277  0.722436  0.136278  1
  O  O105  1  0.722436  0.750277  0.363722  1
  O  O106  1  0.249723  0.277564  0.863722  1
  O  O107  1  0.277564  0.249723  0.636278  1
  O  O108  1  0.084638  0.627637  0.357428  1
  O  O109  1  0.627637  0.084638  0.142572  1
  O  O110  1  0.915362  0.372363  0.642572  1
  O  O111  1  0.372363  0.915362  0.857428  1
  O  O112  1  0.171571  0.369970  0.305338  1
  O  O113  1  0.369970  0.171571  0.194662  1
  O  O114  1  0.828429  0.630030  0.694662  1
  O  O115  1  0.630030  0.828429  0.805338  1
