# generated using pymatgen
data_VAs2H4O9
_symmetry_space_group_name_H-M   'P 1'
_cell_length_a   9.31698142
_cell_length_b   9.31698142
_cell_length_c   8.25435641
_cell_angle_alpha   90.00000000
_cell_angle_beta   90.00000000
_cell_angle_gamma   90.00000000
_symmetry_Int_Tables_number   1
_chemical_formula_structural   VAs2H4O9
_chemical_formula_sum   'V4 As8 H16 O36'
_cell_volume   716.52884109
_cell_formula_units_Z   4
loop_
 _symmetry_equiv_pos_site_id
 _symmetry_equiv_pos_as_xyz
  1  'x, y, z'
loop_
 _atom_site_type_symbol
 _atom_site_label
 _atom_site_symmetry_multiplicity
 _atom_site_fract_x
 _atom_site_fract_y
 _atom_site_fract_z
 _atom_site_occupancy
  V  V0  1  0.000000  0.500000  0.196964  1
  V  V1  1  0.500000  0.000000  0.303036  1
  V  V2  1  0.500000  0.000000  0.803036  1
  V  V3  1  0.000000  0.500000  0.696964  1
  As  As4  1  0.284940  0.715060  0.250000  1
  As  As5  1  0.215060  0.215060  0.250000  1
  As  As6  1  0.784940  0.784940  0.250000  1
  As  As7  1  0.715060  0.284940  0.250000  1
  As  As8  1  0.215060  0.784940  0.750000  1
  As  As9  1  0.284940  0.284940  0.750000  1
  As  As10  1  0.715060  0.715060  0.750000  1
  As  As11  1  0.784940  0.215060  0.750000  1
  H  H12  1  0.458815  0.672030  0.053078  1
  H  H13  1  0.172030  0.041185  0.053078  1
  H  H14  1  0.827970  0.958815  0.053078  1
  H  H15  1  0.541185  0.327970  0.053078  1
  H  H16  1  0.041185  0.172030  0.446922  1
  H  H17  1  0.958815  0.827970  0.446922  1
  H  H18  1  0.672030  0.458815  0.446922  1
  H  H19  1  0.327970  0.541185  0.446922  1
  H  H20  1  0.041185  0.827970  0.946922  1
  H  H21  1  0.327970  0.458815  0.946922  1
  H  H22  1  0.672030  0.541185  0.946922  1
  H  H23  1  0.958815  0.172030  0.946922  1
  H  H24  1  0.458815  0.327970  0.553078  1
  H  H25  1  0.541185  0.672030  0.553078  1
  H  H26  1  0.827970  0.041185  0.553078  1
  H  H27  1  0.172030  0.958815  0.553078  1
  O  O28  1  0.361772  0.633997  0.076953  1
  O  O29  1  0.133997  0.138228  0.076953  1
  O  O30  1  0.866003  0.861772  0.076953  1
  O  O31  1  0.638228  0.366003  0.076953  1
  O  O32  1  0.138228  0.133997  0.423047  1
  O  O33  1  0.861772  0.866003  0.423047  1
  O  O34  1  0.633997  0.361772  0.423047  1
  O  O35  1  0.366003  0.638228  0.423047  1
  O  O36  1  0.138228  0.866003  0.923047  1
  O  O37  1  0.366003  0.361772  0.923047  1
  O  O38  1  0.633997  0.638228  0.923047  1
  O  O39  1  0.861772  0.133997  0.923047  1
  O  O40  1  0.361772  0.366003  0.576953  1
  O  O41  1  0.638228  0.633997  0.576953  1
  O  O42  1  0.866003  0.138228  0.576953  1
  O  O43  1  0.133997  0.861772  0.576953  1
  O  O44  1  0.106445  0.682975  0.243845  1
  O  O45  1  0.182975  0.393555  0.243845  1
  O  O46  1  0.817025  0.606445  0.243845  1
  O  O47  1  0.893555  0.317025  0.243845  1
  O  O48  1  0.393555  0.182975  0.256155  1
  O  O49  1  0.606445  0.817025  0.256155  1
  O  O50  1  0.682975  0.106445  0.256155  1
  O  O51  1  0.317025  0.893555  0.256155  1
  O  O52  1  0.393555  0.817025  0.756155  1
  O  O53  1  0.317025  0.106445  0.756155  1
  O  O54  1  0.682975  0.893555  0.756155  1
  O  O55  1  0.606445  0.182975  0.756155  1
  O  O56  1  0.106445  0.317025  0.743845  1
  O  O57  1  0.893555  0.682975  0.743845  1
  O  O58  1  0.817025  0.393555  0.743845  1
  O  O59  1  0.182975  0.606445  0.743845  1
  O  O60  1  0.000000  0.500000  0.997092  1
  O  O61  1  0.500000  0.000000  0.502908  1
  O  O62  1  0.500000  0.000000  0.002908  1
  O  O63  1  0.000000  0.500000  0.497092  1
