# generated using pymatgen
data_Na2LuMoPO8
_symmetry_space_group_name_H-M   'P 1'
_cell_length_a   11.42466417
_cell_length_b   11.42466417
_cell_length_c   11.42466417
_cell_angle_alpha   145.24923445
_cell_angle_beta   116.30725070
_cell_angle_gamma   74.64350736
_symmetry_Int_Tables_number   1
_chemical_formula_structural   Na2LuMoPO8
_chemical_formula_sum   'Na8 Lu4 Mo4 P4 O32'
_cell_volume   747.42140292
_cell_formula_units_Z   4
loop_
 _symmetry_equiv_pos_site_id
 _symmetry_equiv_pos_as_xyz
  1  'x, y, z'
loop_
 _atom_site_type_symbol
 _atom_site_label
 _atom_site_symmetry_multiplicity
 _atom_site_fract_x
 _atom_site_fract_y
 _atom_site_fract_z
 _atom_site_occupancy
  Na  Na0  1  0.096159  0.142957  0.431679  1
  Na  Na1  1  0.596159  0.664480  0.453202  1
  Na  Na2  1  0.288722  0.835520  0.931679  1
  Na  Na3  1  0.211278  0.642957  0.046798  1
  Na  Na4  1  0.711278  0.164480  0.068321  1
  Na  Na5  1  0.403841  0.335520  0.546798  1
  Na  Na6  1  0.788722  0.357043  0.953202  1
  Na  Na7  1  0.903841  0.857043  0.568321  1
  Lu  Lu8  1  0.821545  0.250000  0.571545  1
  Lu  Lu9  1  0.178455  0.750000  0.428455  1
  Lu  Lu10  1  0.321545  0.250000  0.071545  1
  Lu  Lu11  1  0.678455  0.750000  0.928455  1
  Mo  Mo12  1  0.074306  0.324306  0.250000  1
  Mo  Mo13  1  0.425694  0.175694  0.750000  1
  Mo  Mo14  1  0.925694  0.675694  0.750000  1
  Mo  Mo15  1  0.574306  0.824306  0.250000  1
  P  P16  1  0.931602  0.750000  0.181602  1
  P  P17  1  0.568398  0.250000  0.318398  1
  P  P18  1  0.431602  0.750000  0.681602  1
  P  P19  1  0.068398  0.250000  0.818398  1
  O  O20  1  0.576688  0.828671  0.769635  1
  O  O21  1  0.600949  0.187811  0.828857  1
  O  O22  1  0.076688  0.807053  0.248017  1
  O  O23  1  0.343562  0.920050  0.777776  1
  O  O24  1  0.940964  0.692947  0.269635  1
  O  O25  1  0.843562  0.565786  0.923512  1
  O  O26  1  0.156438  0.434214  0.076488  1
  O  O27  1  0.141047  0.312189  0.413139  1
  O  O28  1  0.844415  0.832970  0.939868  1
  O  O29  1  0.344415  0.904547  0.511444  1
  O  O30  1  0.399051  0.812189  0.171143  1
  O  O31  1  0.656438  0.079950  0.222224  1
  O  O32  1  0.923312  0.192947  0.751983  1
  O  O33  1  0.893102  0.404547  0.560132  1
  O  O34  1  0.155585  0.167030  0.060132  1
  O  O35  1  0.142273  0.065786  0.722224  1
  O  O36  1  0.393102  0.332970  0.988556  1
  O  O37  1  0.440964  0.671329  0.748017  1
  O  O38  1  0.858953  0.687811  0.586861  1
  O  O39  1  0.100949  0.772092  0.913139  1
  O  O40  1  0.857727  0.934214  0.277776  1
  O  O41  1  0.059036  0.307053  0.730365  1
  O  O42  1  0.358953  0.272092  0.671143  1
  O  O43  1  0.357727  0.579950  0.423512  1
  O  O44  1  0.106898  0.595453  0.439868  1
  O  O45  1  0.559036  0.328671  0.251983  1
  O  O46  1  0.423312  0.171329  0.230365  1
  O  O47  1  0.899051  0.227908  0.086861  1
  O  O48  1  0.642273  0.420050  0.576488  1
  O  O49  1  0.655585  0.095453  0.488556  1
  O  O50  1  0.606898  0.667030  0.011444  1
  O  O51  1  0.641047  0.727908  0.328857  1
