# generated using pymatgen
data_BaBPO5
_symmetry_space_group_name_H-M   'P 1'
_cell_length_a   7.22841545
_cell_length_b   7.22841545
_cell_length_c   7.06308600
_cell_angle_alpha   90.00000000
_cell_angle_beta   90.00000000
_cell_angle_gamma   120.00000000
_symmetry_Int_Tables_number   1
_chemical_formula_structural   BaBPO5
_chemical_formula_sum   'Ba3 B3 P3 O15'
_cell_volume   319.60336031
_cell_formula_units_Z   3
loop_
 _symmetry_equiv_pos_site_id
 _symmetry_equiv_pos_as_xyz
  1  'x, y, z'
loop_
 _atom_site_type_symbol
 _atom_site_label
 _atom_site_symmetry_multiplicity
 _atom_site_fract_x
 _atom_site_fract_y
 _atom_site_fract_z
 _atom_site_occupancy
  Ba  Ba0  1  0.606575  0.000000  0.666667  1
  Ba  Ba1  1  0.393425  0.393425  0.000000  1
  Ba  Ba2  1  0.000000  0.606575  0.333333  1
  B  B3  1  0.907163  0.907163  0.000000  1
  B  B4  1  0.000000  0.092837  0.333333  1
  B  B5  1  0.092837  0.000000  0.666667  1
  P  P6  1  0.612346  0.000000  0.166667  1
  P  P7  1  0.387654  0.387654  0.500000  1
  P  P8  1  0.000000  0.612346  0.833333  1
  O  O9  1  0.960371  0.960371  0.500000  1
  O  O10  1  0.039629  0.000000  0.166667  1
  O  O11  1  0.000000  0.039629  0.833333  1
  O  O12  1  0.431896  0.857404  0.299038  1
  O  O13  1  0.142596  0.574492  0.965704  1
  O  O14  1  0.425508  0.568104  0.632371  1
  O  O15  1  0.138556  0.818131  0.702813  1
  O  O16  1  0.181869  0.320426  0.369480  1
  O  O17  1  0.679574  0.861444  0.036146  1
  O  O18  1  0.320426  0.181869  0.630520  1
  O  O19  1  0.861444  0.679574  0.963854  1
  O  O20  1  0.818131  0.138556  0.297187  1
  O  O21  1  0.857404  0.431896  0.700962  1
  O  O22  1  0.568104  0.425508  0.367629  1
  O  O23  1  0.574492  0.142596  0.034296  1
