# generated using pymatgen
data_Na2TiGeO5
_symmetry_space_group_name_H-M   'P 1'
_cell_length_a   6.71854367
_cell_length_b   6.71854367
_cell_length_c   5.23806045
_cell_angle_alpha   90.00000000
_cell_angle_beta   90.00000000
_cell_angle_gamma   90.00000000
_symmetry_Int_Tables_number   1
_chemical_formula_structural   Na2TiGeO5
_chemical_formula_sum   'Na4 Ti2 Ge2 O10'
_cell_volume   236.43991518
_cell_formula_units_Z   2
loop_
 _symmetry_equiv_pos_site_id
 _symmetry_equiv_pos_as_xyz
  1  'x, y, z'
loop_
 _atom_site_type_symbol
 _atom_site_label
 _atom_site_symmetry_multiplicity
 _atom_site_fract_x
 _atom_site_fract_y
 _atom_site_fract_z
 _atom_site_occupancy
  Na  Na0  1  0.750000  0.250000  0.000000  1
  Na  Na1  1  0.750000  0.750000  0.000000  1
  Na  Na2  1  0.250000  0.750000  0.000000  1
  Na  Na3  1  0.250000  0.250000  0.000000  1
  Ti  Ti4  1  0.500000  0.000000  0.572389  1
  Ti  Ti5  1  0.000000  0.500000  0.427611  1
  Ge  Ge6  1  0.500000  0.500000  0.500000  1
  Ge  Ge7  1  0.000000  0.000000  0.500000  1
  O  O8  1  0.216102  0.000000  0.694472  1
  O  O9  1  0.783898  0.000000  0.694472  1
  O  O10  1  0.500000  0.716102  0.694472  1
  O  O11  1  0.500000  0.283898  0.694472  1
  O  O12  1  0.000000  0.216102  0.305528  1
  O  O13  1  0.716102  0.500000  0.305528  1
  O  O14  1  0.283898  0.500000  0.305528  1
  O  O15  1  0.000000  0.783898  0.305528  1
  O  O16  1  0.000000  0.500000  0.755772  1
  O  O17  1  0.500000  0.000000  0.244228  1
