# generated using pymatgen
data_Na2MgSiO4
_symmetry_space_group_name_H-M   'P 1'
_cell_length_a   5.36355010
_cell_length_b   7.08203470
_cell_length_c   11.09409297
_cell_angle_alpha   90.00000000
_cell_angle_beta   90.00000000
_cell_angle_gamma   90.00000000
_symmetry_Int_Tables_number   1
_chemical_formula_structural   Na2MgSiO4
_chemical_formula_sum   'Na8 Mg4 Si4 O16'
_cell_volume   421.40743431
_cell_formula_units_Z   4
loop_
 _symmetry_equiv_pos_site_id
 _symmetry_equiv_pos_as_xyz
  1  'x, y, z'
loop_
 _atom_site_type_symbol
 _atom_site_label
 _atom_site_symmetry_multiplicity
 _atom_site_fract_x
 _atom_site_fract_y
 _atom_site_fract_z
 _atom_site_occupancy
  Na  Na0  1  0.265450  0.130322  0.587394  1
  Na  Na1  1  0.292460  0.384143  0.842194  1
  Na  Na2  1  0.792460  0.884143  0.657806  1
  Na  Na3  1  0.207540  0.384143  0.342194  1
  Na  Na4  1  0.734550  0.630322  0.412606  1
  Na  Na5  1  0.234550  0.130322  0.087394  1
  Na  Na6  1  0.765450  0.630322  0.912606  1
  Na  Na7  1  0.707540  0.884143  0.157806  1
  Mg  Mg8  1  0.198034  0.880356  0.342678  1
  Mg  Mg9  1  0.301966  0.880356  0.842678  1
  Mg  Mg10  1  0.801966  0.380356  0.657322  1
  Mg  Mg11  1  0.698034  0.380356  0.157322  1
  Si  Si12  1  0.695444  0.132429  0.405405  1
  Si  Si13  1  0.304556  0.632429  0.594595  1
  Si  Si14  1  0.804556  0.132429  0.905405  1
  Si  Si15  1  0.195444  0.632429  0.094595  1
  O  O16  1  0.391343  0.102169  0.388819  1
  O  O17  1  0.608657  0.602169  0.611181  1
  O  O18  1  0.108657  0.102169  0.888819  1
  O  O19  1  0.891343  0.602169  0.111181  1
  O  O20  1  0.754497  0.161414  0.550859  1
  O  O21  1  0.245503  0.661414  0.449141  1
  O  O22  1  0.745503  0.161414  0.050859  1
  O  O23  1  0.254497  0.661414  0.949141  1
  O  O24  1  0.840124  0.942040  0.355065  1
  O  O25  1  0.159876  0.442040  0.644935  1
  O  O26  1  0.659876  0.942040  0.855065  1
  O  O27  1  0.277935  0.823126  0.171861  1
  O  O28  1  0.777935  0.323126  0.328139  1
  O  O29  1  0.222065  0.823126  0.671861  1
  O  O30  1  0.722065  0.323126  0.828139  1
  O  O31  1  0.340124  0.442040  0.144935  1
