# generated using pymatgen
data_SiO2
_symmetry_space_group_name_H-M   'P 1'
_cell_length_a   5.08470068
_cell_length_b   5.08470068
_cell_length_c   7.09857880
_cell_angle_alpha   90.00000000
_cell_angle_beta   90.00000000
_cell_angle_gamma   90.00000000
_symmetry_Int_Tables_number   1
_chemical_formula_structural   SiO2
_chemical_formula_sum   'Si4 O8'
_cell_volume   183.52794117
_cell_formula_units_Z   4
loop_
 _symmetry_equiv_pos_site_id
 _symmetry_equiv_pos_as_xyz
  1  'x, y, z'
loop_
 _atom_site_type_symbol
 _atom_site_label
 _atom_site_symmetry_multiplicity
 _atom_site_fract_x
 _atom_site_fract_y
 _atom_site_fract_z
 _atom_site_occupancy
  Si  Si0  1  0.705550  0.705550  0.500000  1
  Si  Si1  1  0.794450  0.205550  0.750000  1
  Si  Si2  1  0.205550  0.794450  0.250000  1
  Si  Si3  1  0.294450  0.294450  0.000000  1
  O  O4  1  0.905897  0.758978  0.325641  1
  O  O5  1  0.094103  0.241022  0.825641  1
  O  O6  1  0.758978  0.905897  0.674359  1
  O  O7  1  0.258978  0.594103  0.075641  1
  O  O8  1  0.241022  0.094103  0.174359  1
  O  O9  1  0.405897  0.741022  0.424359  1
  O  O10  1  0.594103  0.258978  0.924359  1
  O  O11  1  0.741022  0.405897  0.575641  1
