# generated using pymatgen
data_Sr5P3O12F
_symmetry_space_group_name_H-M   'P 1'
_cell_length_a   9.84985756
_cell_length_b   9.84985756
_cell_length_c   7.35915227
_cell_angle_alpha   90.00000000
_cell_angle_beta   90.00000000
_cell_angle_gamma   120.00000000
_symmetry_Int_Tables_number   1
_chemical_formula_structural   Sr5P3O12F
_chemical_formula_sum   'Sr10 P6 O24 F2'
_cell_volume   618.32715688
_cell_formula_units_Z   2
loop_
 _symmetry_equiv_pos_site_id
 _symmetry_equiv_pos_as_xyz
  1  'x, y, z'
loop_
 _atom_site_type_symbol
 _atom_site_label
 _atom_site_symmetry_multiplicity
 _atom_site_fract_x
 _atom_site_fract_y
 _atom_site_fract_z
 _atom_site_occupancy
  Sr  Sr0  1  0.666667  0.333333  0.499561  1
  Sr  Sr1  1  0.333333  0.666667  0.999561  1
  Sr  Sr2  1  0.333333  0.666667  0.500439  1
  Sr  Sr3  1  0.666667  0.333333  0.000439  1
  Sr  Sr4  1  0.758080  0.011360  0.750000  1
  Sr  Sr5  1  0.746719  0.758080  0.250000  1
  Sr  Sr6  1  0.011360  0.253281  0.250000  1
  Sr  Sr7  1  0.988640  0.746719  0.750000  1
  Sr  Sr8  1  0.253281  0.241920  0.750000  1
  Sr  Sr9  1  0.241920  0.988640  0.250000  1
  P  P10  1  0.031170  0.399102  0.750000  1
  P  P11  1  0.632068  0.031170  0.250000  1
  P  P12  1  0.399102  0.367932  0.250000  1
  P  P13  1  0.600898  0.632068  0.750000  1
  P  P14  1  0.367932  0.968830  0.750000  1
  P  P15  1  0.968830  0.600898  0.250000  1
  O  O16  1  0.118729  0.582014  0.750000  1
  O  O17  1  0.536715  0.118729  0.250000  1
  O  O18  1  0.582014  0.463285  0.250000  1
  O  O19  1  0.417986  0.536715  0.750000  1
  O  O20  1  0.463285  0.881271  0.750000  1
  O  O21  1  0.881271  0.417986  0.250000  1
  O  O22  1  0.344226  0.260662  0.421136  1
  O  O23  1  0.083564  0.344226  0.921136  1
  O  O24  1  0.260662  0.916436  0.921136  1
  O  O25  1  0.739338  0.083564  0.421136  1
  O  O26  1  0.916436  0.655774  0.421136  1
  O  O27  1  0.655774  0.739338  0.921136  1
  O  O28  1  0.655774  0.739338  0.578864  1
  O  O29  1  0.916436  0.655774  0.078864  1
  O  O30  1  0.739338  0.083564  0.078864  1
  O  O31  1  0.260662  0.916436  0.578864  1
  O  O32  1  0.083564  0.344226  0.578864  1
  O  O33  1  0.344226  0.260662  0.078864  1
  O  O34  1  0.149753  0.669752  0.250000  1
  O  O35  1  0.480001  0.149753  0.750000  1
  O  O36  1  0.669752  0.519999  0.750000  1
  O  O37  1  0.330248  0.480001  0.250000  1
  O  O38  1  0.519999  0.850247  0.250000  1
  O  O39  1  0.850247  0.330248  0.750000  1
  F  F40  1  0.000000  0.000000  0.750000  1
  F  F41  1  0.000000  0.000000  0.250000  1
