# generated using pymatgen
data_KNO3
_symmetry_space_group_name_H-M   'P 1'
_cell_length_a   4.43509165
_cell_length_b   4.43509165
_cell_length_c   4.43509165
_cell_angle_alpha   77.33452302
_cell_angle_beta   77.33452302
_cell_angle_gamma   77.33452302
_symmetry_Int_Tables_number   1
_chemical_formula_structural   KNO3
_chemical_formula_sum   'K1 N1 O3'
_cell_volume   81.69069588
_cell_formula_units_Z   1
loop_
 _symmetry_equiv_pos_site_id
 _symmetry_equiv_pos_as_xyz
  1  'x, y, z'
loop_
 _atom_site_type_symbol
 _atom_site_label
 _atom_site_symmetry_multiplicity
 _atom_site_fract_x
 _atom_site_fract_y
 _atom_site_fract_z
 _atom_site_occupancy
  K  K0  1  0.005382  0.005382  0.005382  1
  N  N1  1  0.564107  0.564107  0.564107  1
  O  O2  1  0.433250  0.830012  0.433250  1
  O  O3  1  0.433250  0.433250  0.830012  1
  O  O4  1  0.830012  0.433250  0.433250  1
