# generated using pymatgen
data_K2Zn2(SO4)3
_symmetry_space_group_name_H-M   'P 1'
_cell_length_a   10.08748156
_cell_length_b   10.08748156
_cell_length_c   10.08748156
_cell_angle_alpha   90.00000000
_cell_angle_beta   90.00000000
_cell_angle_gamma   90.00000000
_symmetry_Int_Tables_number   1
_chemical_formula_structural   K2Zn2(SO4)3
_chemical_formula_sum   'K8 Zn8 S12 O48'
_cell_volume   1026.47472820
_cell_formula_units_Z   4
loop_
 _symmetry_equiv_pos_site_id
 _symmetry_equiv_pos_as_xyz
  1  'x, y, z'
loop_
 _atom_site_type_symbol
 _atom_site_label
 _atom_site_symmetry_multiplicity
 _atom_site_fract_x
 _atom_site_fract_y
 _atom_site_fract_z
 _atom_site_occupancy
  K  K0  1  0.685118  0.185118  0.314882  1
  K  K1  1  0.314882  0.685118  0.185118  1
  K  K2  1  0.949423  0.550577  0.449423  1
  K  K3  1  0.185118  0.314882  0.685118  1
  K  K4  1  0.050577  0.050577  0.050577  1
  K  K5  1  0.449423  0.949423  0.550577  1
  K  K6  1  0.550577  0.449423  0.949423  1
  K  K7  1  0.814882  0.814882  0.814882  1
  Zn  Zn8  1  0.334483  0.334483  0.334483  1
  Zn  Zn9  1  0.165517  0.665517  0.834483  1
  Zn  Zn10  1  0.834483  0.165517  0.665517  1
  Zn  Zn11  1  0.665517  0.834483  0.165517  1
  Zn  Zn12  1  0.591195  0.591195  0.591195  1
  Zn  Zn13  1  0.091195  0.908805  0.408805  1
  Zn  Zn14  1  0.408805  0.091195  0.908805  1
  Zn  Zn15  1  0.908805  0.408805  0.091195  1
  S  S16  1  0.280500  0.623493  0.518849  1
  S  S17  1  0.780500  0.876507  0.481151  1
  S  S18  1  0.719500  0.123493  0.981151  1
  S  S19  1  0.876507  0.481151  0.780500  1
  S  S20  1  0.981151  0.719500  0.123493  1
  S  S21  1  0.481151  0.780500  0.876507  1
  S  S22  1  0.623493  0.518849  0.280500  1
  S  S23  1  0.518849  0.280500  0.623493  1
  S  S24  1  0.123493  0.981151  0.719500  1
  S  S25  1  0.219500  0.376507  0.018849  1
  S  S26  1  0.018849  0.219500  0.376507  1
  S  S27  1  0.376507  0.018849  0.219500  1
  O  O28  1  0.250196  0.594132  0.659593  1
  O  O29  1  0.750196  0.905868  0.340407  1
  O  O30  1  0.749804  0.094132  0.840407  1
  O  O31  1  0.905868  0.340407  0.750196  1
  O  O32  1  0.840407  0.749804  0.094132  1
  O  O33  1  0.340407  0.750196  0.905868  1
  O  O34  1  0.594132  0.659593  0.250196  1
  O  O35  1  0.659593  0.250196  0.594132  1
  O  O36  1  0.094132  0.840407  0.749804  1
  O  O37  1  0.405868  0.159593  0.249804  1
  O  O38  1  0.159593  0.249804  0.405868  1
  O  O39  1  0.249804  0.405868  0.159593  1
  O  O40  1  0.259980  0.499381  0.441347  1
  O  O41  1  0.759980  0.000619  0.558653  1
  O  O42  1  0.740020  0.999381  0.058653  1
  O  O43  1  0.000619  0.558653  0.759980  1
  O  O44  1  0.058653  0.740020  0.999381  1
  O  O45  1  0.558653  0.759980  0.000619  1
  O  O46  1  0.994798  0.579604  0.172003  1
  O  O47  1  0.499381  0.441347  0.259980  1
  O  O48  1  0.999381  0.058653  0.740020  1
  O  O49  1  0.500619  0.941347  0.240020  1
  O  O50  1  0.941347  0.240020  0.500619  1
  O  O51  1  0.240020  0.500619  0.941347  1
  O  O52  1  0.420396  0.672003  0.505202  1
  O  O53  1  0.920396  0.827997  0.494798  1
  O  O54  1  0.579604  0.172003  0.994798  1
  O  O55  1  0.827997  0.494798  0.920396  1
  O  O56  1  0.309712  0.275012  0.962336  1
  O  O57  1  0.962336  0.309712  0.275012  1
  O  O58  1  0.275012  0.962336  0.309712  1
  O  O59  1  0.224988  0.037664  0.809712  1
  O  O60  1  0.462336  0.190288  0.724988  1
  O  O61  1  0.724988  0.462336  0.190288  1
  O  O62  1  0.537664  0.690288  0.775012  1
  O  O63  1  0.037664  0.809712  0.224988  1
  O  O64  1  0.775012  0.537664  0.690288  1
  O  O65  1  0.809712  0.224988  0.037664  1
  O  O66  1  0.690288  0.775012  0.537664  1
  O  O67  1  0.190288  0.724988  0.462336  1
  O  O68  1  0.079604  0.327997  0.005202  1
  O  O69  1  0.005202  0.079604  0.327997  1
  O  O70  1  0.327997  0.005202  0.079604  1
  O  O71  1  0.172003  0.994798  0.579604  1
  O  O72  1  0.505202  0.420396  0.672003  1
  O  O73  1  0.672003  0.505202  0.420396  1
  O  O74  1  0.494798  0.920396  0.827997  1
  O  O75  1  0.441347  0.259980  0.499381  1
