# generated using pymatgen
data_Ca5Si2SO12
_symmetry_space_group_name_H-M   'P 1'
_cell_length_a   6.93344394
_cell_length_b   10.27610411
_cell_length_c   15.52726527
_cell_angle_alpha   90.00000000
_cell_angle_beta   90.00000000
_cell_angle_gamma   90.00000000
_symmetry_Int_Tables_number   1
_chemical_formula_structural   Ca5Si2SO12
_chemical_formula_sum   'Ca20 Si8 S4 O48'
_cell_volume   1106.29888995
_cell_formula_units_Z   4
loop_
 _symmetry_equiv_pos_site_id
 _symmetry_equiv_pos_as_xyz
  1  'x, y, z'
loop_
 _atom_site_type_symbol
 _atom_site_label
 _atom_site_symmetry_multiplicity
 _atom_site_fract_x
 _atom_site_fract_y
 _atom_site_fract_z
 _atom_site_occupancy
  Ca  Ca0  1  0.637871  0.433717  0.413909  1
  Ca  Ca1  1  0.137871  0.066283  0.086091  1
  Ca  Ca2  1  0.862129  0.933717  0.586091  1
  Ca  Ca3  1  0.362129  0.566283  0.913909  1
  Ca  Ca4  1  0.362129  0.566283  0.586091  1
  Ca  Ca5  1  0.862129  0.933717  0.913909  1
  Ca  Ca6  1  0.137871  0.066283  0.413909  1
  Ca  Ca7  1  0.637871  0.433717  0.086091  1
  Ca  Ca8  1  0.859309  0.341900  0.595974  1
  Ca  Ca9  1  0.359309  0.158100  0.904026  1
  Ca  Ca10  1  0.640691  0.841900  0.404026  1
  Ca  Ca11  1  0.140691  0.658100  0.095974  1
  Ca  Ca12  1  0.140691  0.658100  0.404026  1
  Ca  Ca13  1  0.640691  0.841900  0.095974  1
  Ca  Ca14  1  0.359309  0.158100  0.595974  1
  Ca  Ca15  1  0.859309  0.341900  0.904026  1
  Ca  Ca16  1  0.050524  0.693567  0.750000  1
  Ca  Ca17  1  0.550524  0.806433  0.750000  1
  Ca  Ca18  1  0.449476  0.193567  0.250000  1
  Ca  Ca19  1  0.949476  0.306433  0.250000  1
  Si  Si20  1  0.653437  0.133934  0.074696  1
  Si  Si21  1  0.153437  0.366066  0.425304  1
  Si  Si22  1  0.846563  0.633934  0.925304  1
  Si  Si23  1  0.346563  0.866066  0.574696  1
  Si  Si24  1  0.653437  0.133934  0.425304  1
  Si  Si25  1  0.153437  0.366066  0.074696  1
  Si  Si26  1  0.846563  0.633934  0.574696  1
  Si  Si27  1  0.346563  0.866066  0.925304  1
  S  S28  1  0.985416  0.910805  0.250000  1
  S  S29  1  0.485416  0.589195  0.250000  1
  S  S30  1  0.514584  0.410805  0.750000  1
  S  S31  1  0.014584  0.089195  0.750000  1
  O  O32  1  0.468002  0.045700  0.390961  1
  O  O33  1  0.968002  0.454300  0.109039  1
  O  O34  1  0.031998  0.545700  0.609039  1
  O  O35  1  0.531998  0.954300  0.890961  1
  O  O36  1  0.531998  0.954300  0.609039  1
  O  O37  1  0.031998  0.545700  0.890961  1
  O  O38  1  0.968002  0.454300  0.390961  1
  O  O39  1  0.468002  0.045700  0.109039  1
  O  O40  1  0.710277  0.232659  0.345656  1
  O  O41  1  0.210277  0.267341  0.154344  1
  O  O42  1  0.789723  0.732659  0.654344  1
  O  O43  1  0.289723  0.767341  0.845656  1
  O  O44  1  0.289723  0.767341  0.654344  1
  O  O45  1  0.789723  0.732659  0.845656  1
  O  O46  1  0.210277  0.267341  0.345656  1
  O  O47  1  0.710277  0.232659  0.154344  1
  O  O48  1  0.819152  0.024149  0.448651  1
  O  O49  1  0.319152  0.475851  0.051349  1
  O  O50  1  0.680848  0.524149  0.551349  1
  O  O51  1  0.068222  0.851239  0.329353  1
  O  O52  1  0.180848  0.975851  0.948651  1
  O  O53  1  0.680848  0.524149  0.948651  1
  O  O54  1  0.319152  0.475851  0.448651  1
  O  O55  1  0.819152  0.024149  0.051349  1
  O  O56  1  0.613837  0.230531  0.509132  1
  O  O57  1  0.113837  0.269469  0.990868  1
  O  O58  1  0.886163  0.730531  0.490868  1
  O  O59  1  0.386163  0.769469  0.009132  1
  O  O60  1  0.386163  0.769469  0.490868  1
  O  O61  1  0.886163  0.730531  0.009132  1
  O  O62  1  0.113837  0.269469  0.509132  1
  O  O63  1  0.613837  0.230531  0.990868  1
  O  O64  1  0.772539  0.893278  0.250000  1
  O  O65  1  0.272539  0.606722  0.250000  1
  O  O66  1  0.727461  0.393278  0.750000  1
  O  O67  1  0.227461  0.106722  0.750000  1
  O  O68  1  0.043083  0.051034  0.250000  1
  O  O69  1  0.543083  0.448966  0.250000  1
  O  O70  1  0.456917  0.551034  0.750000  1
  O  O71  1  0.956917  0.948966  0.750000  1
  O  O72  1  0.068222  0.851239  0.170647  1
  O  O73  1  0.568222  0.648761  0.329353  1
  O  O74  1  0.431778  0.351239  0.829353  1
  O  O75  1  0.931778  0.148761  0.670647  1
  O  O76  1  0.931778  0.148761  0.829353  1
  O  O77  1  0.431778  0.351239  0.670647  1
  O  O78  1  0.568222  0.648761  0.170647  1
  O  O79  1  0.180848  0.975851  0.551349  1
