# generated using pymatgen
data_Na3In(PO4)2
_symmetry_space_group_name_H-M   'P 1'
_cell_length_a   5.21618842
_cell_length_b   18.46323248
_cell_length_c   8.73475185
_cell_angle_alpha   90.00000000
_cell_angle_beta   124.42188657
_cell_angle_gamma   90.00000000
_symmetry_Int_Tables_number   1
_chemical_formula_structural   Na3In(PO4)2
_chemical_formula_sum   'Na12 In4 P8 O32'
_cell_volume   693.92356098
_cell_formula_units_Z   4
loop_
 _symmetry_equiv_pos_site_id
 _symmetry_equiv_pos_as_xyz
  1  'x, y, z'
loop_
 _atom_site_type_symbol
 _atom_site_label
 _atom_site_symmetry_multiplicity
 _atom_site_fract_x
 _atom_site_fract_y
 _atom_site_fract_z
 _atom_site_occupancy
  Na  Na0  1  0.396669  0.693998  0.195499  1
  Na  Na1  1  0.699358  0.875401  0.485992  1
  Na  Na2  1  0.300642  0.375401  0.014008  1
  Na  Na3  1  0.300642  0.124599  0.514008  1
  Na  Na4  1  0.699358  0.624599  0.985992  1
  Na  Na5  1  0.396669  0.806002  0.695499  1
  Na  Na6  1  0.603331  0.306002  0.804501  1
  Na  Na7  1  0.603331  0.193998  0.304501  1
  Na  Na8  1  0.049347  0.549909  0.791137  1
  Na  Na9  1  0.049347  0.950091  0.291137  1
  Na  Na10  1  0.950653  0.450091  0.208863  1
  Na  Na11  1  0.950653  0.049909  0.708863  1
  In  In12  1  0.204287  0.627851  0.487611  1
  In  In13  1  0.795713  0.127851  0.012389  1
  In  In14  1  0.795713  0.372149  0.512389  1
  In  In15  1  0.204287  0.872149  0.987611  1
  P  P16  1  0.513736  0.536698  0.283483  1
  P  P17  1  0.914147  0.713631  0.718279  1
  P  P18  1  0.085853  0.213631  0.781721  1
  P  P19  1  0.085853  0.286369  0.281721  1
  P  P20  1  0.914147  0.786369  0.218279  1
  P  P21  1  0.486264  0.036698  0.216517  1
  P  P22  1  0.513736  0.963302  0.783483  1
  P  P23  1  0.486264  0.463302  0.716517  1
  O  O24  1  0.527170  0.437984  0.895085  1
  O  O25  1  0.472830  0.937984  0.604915  1
  O  O26  1  0.472830  0.562016  0.104915  1
  O  O27  1  0.527170  0.062016  0.395085  1
  O  O28  1  0.182215  0.432393  0.543506  1
  O  O29  1  0.817785  0.932393  0.956494  1
  O  O30  1  0.817785  0.567607  0.456494  1
  O  O31  1  0.182215  0.067607  0.043506  1
  O  O32  1  0.488209  0.548598  0.712711  1
  O  O33  1  0.511791  0.048598  0.787289  1
  O  O34  1  0.511791  0.451402  0.287289  1
  O  O35  1  0.488209  0.951402  0.212711  1
  O  O36  1  0.772212  0.436609  0.715001  1
  O  O37  1  0.227788  0.936609  0.784999  1
  O  O38  1  0.227788  0.563391  0.284999  1
  O  O39  1  0.772212  0.063391  0.215001  1
  O  O40  1  0.582672  0.802298  0.040899  1
  O  O41  1  0.417328  0.302298  0.459101  1
  O  O42  1  0.417328  0.197702  0.959101  1
  O  O43  1  0.582672  0.697702  0.540899  1
  O  O44  1  0.170420  0.805513  0.183161  1
  O  O45  1  0.829580  0.305513  0.316839  1
  O  O46  1  0.829580  0.194487  0.816839  1
  O  O47  1  0.170420  0.694487  0.683161  1
  O  O48  1  0.918419  0.798039  0.748052  1
  O  O49  1  0.081581  0.298039  0.751948  1
  O  O50  1  0.081581  0.201961  0.251948  1
  O  O51  1  0.918419  0.701961  0.248052  1
  O  O52  1  0.978704  0.671339  0.886315  1
  O  O53  1  0.021296  0.171339  0.613685  1
  O  O54  1  0.021296  0.328661  0.113685  1
  O  O55  1  0.978704  0.828661  0.386315  1
