# generated using pymatgen
data_Ba2Ti(GeO4)2
_symmetry_space_group_name_H-M   'P 1'
_cell_length_a   8.84839837
_cell_length_b   8.84839837
_cell_length_c   5.48720273
_cell_angle_alpha   90.00000000
_cell_angle_beta   90.00000000
_cell_angle_gamma   90.00000000
_symmetry_Int_Tables_number   1
_chemical_formula_structural   Ba2Ti(GeO4)2
_chemical_formula_sum   'Ba4 Ti2 Ge4 O16'
_cell_volume   429.61589383
_cell_formula_units_Z   2
loop_
 _symmetry_equiv_pos_site_id
 _symmetry_equiv_pos_as_xyz
  1  'x, y, z'
loop_
 _atom_site_type_symbol
 _atom_site_label
 _atom_site_symmetry_multiplicity
 _atom_site_fract_x
 _atom_site_fract_y
 _atom_site_fract_z
 _atom_site_occupancy
  Ba  Ba0  1  0.828145  0.328145  0.015544  1
  Ba  Ba1  1  0.328145  0.171855  0.015544  1
  Ba  Ba2  1  0.171855  0.671855  0.015544  1
  Ba  Ba3  1  0.671855  0.828145  0.015544  1
  Ti  Ti4  1  0.000000  0.000000  0.453594  1
  Ti  Ti5  1  0.500000  0.500000  0.453594  1
  Ge  Ge6  1  0.632299  0.132299  0.491488  1
  Ge  Ge7  1  0.132299  0.367701  0.491488  1
  Ge  Ge8  1  0.367701  0.867701  0.491488  1
  Ge  Ge9  1  0.867701  0.632299  0.491488  1
  O  O10  1  0.000000  0.000000  0.763638  1
  O  O11  1  0.500000  0.500000  0.763638  1
  O  O12  1  0.871906  0.628094  0.806277  1
  O  O13  1  0.128094  0.371906  0.806277  1
  O  O14  1  0.080853  0.198512  0.341334  1
  O  O15  1  0.698512  0.580853  0.341334  1
  O  O16  1  0.301488  0.419147  0.341334  1
  O  O17  1  0.500000  0.000000  0.354034  1
  O  O18  1  0.801488  0.080853  0.341334  1
  O  O19  1  0.198512  0.919147  0.341334  1
  O  O20  1  0.580853  0.301488  0.341334  1
  O  O21  1  0.419147  0.698512  0.341334  1
  O  O22  1  0.919147  0.801488  0.341334  1
  O  O23  1  0.000000  0.500000  0.354034  1
  O  O24  1  0.628094  0.128094  0.806277  1
  O  O25  1  0.371906  0.871906  0.806277  1
