# generated using pymatgen
data_SrSi2(BO4)2
_symmetry_space_group_name_H-M   'P 1'
_cell_length_a   7.98620221
_cell_length_b   8.28775746
_cell_length_c   9.03232393
_cell_angle_alpha   90.00000000
_cell_angle_beta   90.00000000
_cell_angle_gamma   90.00000000
_symmetry_Int_Tables_number   1
_chemical_formula_structural   SrSi2(BO4)2
_chemical_formula_sum   'Sr4 Si8 B8 O32'
_cell_volume   597.82880929
_cell_formula_units_Z   4
loop_
 _symmetry_equiv_pos_site_id
 _symmetry_equiv_pos_as_xyz
  1  'x, y, z'
loop_
 _atom_site_type_symbol
 _atom_site_label
 _atom_site_symmetry_multiplicity
 _atom_site_fract_x
 _atom_site_fract_y
 _atom_site_fract_z
 _atom_site_occupancy
  Sr  Sr0  1  0.250000  0.891668  0.076445  1
  Sr  Sr1  1  0.750000  0.108332  0.923555  1
  Sr  Sr2  1  0.250000  0.391668  0.423555  1
  Sr  Sr3  1  0.750000  0.608332  0.576445  1
  Si  Si4  1  0.057678  0.437486  0.809308  1
  Si  Si5  1  0.557678  0.562514  0.190692  1
  Si  Si6  1  0.442322  0.937486  0.690692  1
  Si  Si7  1  0.942322  0.062514  0.309308  1
  Si  Si8  1  0.942322  0.562514  0.190692  1
  Si  Si9  1  0.442322  0.437486  0.809308  1
  Si  Si10  1  0.557678  0.062514  0.309308  1
  Si  Si11  1  0.057678  0.937486  0.690692  1
  B  B12  1  0.918520  0.732654  0.914634  1
  B  B13  1  0.918520  0.232654  0.585366  1
  B  B14  1  0.418520  0.767346  0.414634  1
  B  B15  1  0.581480  0.732654  0.914634  1
  B  B16  1  0.081480  0.267346  0.085366  1
  B  B17  1  0.418520  0.267346  0.085366  1
  B  B18  1  0.581480  0.232654  0.585366  1
  B  B19  1  0.081480  0.767346  0.414634  1
  O  O20  1  0.250000  0.699070  0.414539  1
  O  O21  1  0.750000  0.800930  0.914539  1
  O  O22  1  0.250000  0.199070  0.085461  1
  O  O23  1  0.750000  0.300930  0.585461  1
  O  O24  1  0.750000  0.996771  0.326098  1
  O  O25  1  0.250000  0.003229  0.673902  1
  O  O26  1  0.750000  0.496771  0.173902  1
  O  O27  1  0.250000  0.503229  0.826098  1
  O  O28  1  0.928078  0.089534  0.681185  1
  O  O29  1  0.428078  0.910466  0.318815  1
  O  O30  1  0.571922  0.589534  0.818815  1
  O  O31  1  0.071922  0.410466  0.181185  1
  O  O32  1  0.013352  0.801903  0.565339  1
  O  O33  1  0.513352  0.198097  0.434661  1
  O  O34  1  0.486648  0.301903  0.934661  1
  O  O35  1  0.986648  0.698097  0.065339  1
  O  O36  1  0.986648  0.198097  0.434661  1
  O  O37  1  0.486648  0.801903  0.565339  1
  O  O38  1  0.513352  0.698097  0.065339  1
  O  O39  1  0.013352  0.301903  0.934661  1
  O  O40  1  0.034309  0.863875  0.858357  1
  O  O41  1  0.534309  0.136125  0.141643  1
  O  O42  1  0.465691  0.363875  0.641643  1
  O  O43  1  0.965691  0.636125  0.358357  1
  O  O44  1  0.965691  0.136125  0.141643  1
  O  O45  1  0.465691  0.863875  0.858357  1
  O  O46  1  0.534309  0.636125  0.358357  1
  O  O47  1  0.034309  0.363875  0.641643  1
  O  O48  1  0.928078  0.589534  0.818815  1
  O  O49  1  0.428078  0.410466  0.181185  1
  O  O50  1  0.571922  0.089534  0.681185  1
  O  O51  1  0.071922  0.910466  0.318815  1
