# generated using pymatgen
data_NaAl(SiO3)2
_symmetry_space_group_name_H-M   'P 1'
_cell_length_a   7.36203711
_cell_length_b   7.36203711
_cell_length_c   5.29239767
_cell_angle_alpha   58.63137652
_cell_angle_beta   121.36862348
_cell_angle_gamma   107.88099454
_symmetry_Int_Tables_number   1
_chemical_formula_structural   NaAl(SiO3)2
_chemical_formula_sum   'Na2 Al2 Si4 O12'
_cell_volume   208.86466563
_cell_formula_units_Z   2
loop_
 _symmetry_equiv_pos_site_id
 _symmetry_equiv_pos_as_xyz
  1  'x, y, z'
loop_
 _atom_site_type_symbol
 _atom_site_label
 _atom_site_symmetry_multiplicity
 _atom_site_fract_x
 _atom_site_fract_y
 _atom_site_fract_z
 _atom_site_occupancy
  Na  Na0  1  0.299954  0.299954  0.250000  1
  Na  Na1  1  0.700046  0.700046  0.750000  1
  Al  Al2  1  0.904980  0.904980  0.250000  1
  Al  Al3  1  0.095020  0.095020  0.750000  1
  Si  Si4  1  0.803446  0.383107  0.645883  1
  Si  Si5  1  0.383107  0.803446  0.854117  1
  Si  Si6  1  0.196554  0.616893  0.354117  1
  Si  Si7  1  0.616893  0.196554  0.145883  1
  O  O8  1  0.641748  0.346660  0.800638  1
  O  O9  1  0.346660  0.641748  0.699362  1
  O  O10  1  0.358252  0.653340  0.199362  1
  O  O11  1  0.653340  0.358252  0.300638  1
  O  O12  1  0.376013  0.098982  0.068037  1
  O  O13  1  0.098982  0.376013  0.431963  1
  O  O14  1  0.623987  0.901018  0.931963  1
  O  O15  1  0.901018  0.623987  0.568037  1
  O  O16  1  0.967152  0.184478  0.909493  1
  O  O17  1  0.184478  0.967152  0.590507  1
  O  O18  1  0.032848  0.815522  0.090507  1
  O  O19  1  0.815522  0.032848  0.409493  1
