# generated using pymatgen
data_TlHg(AsS2)3
_symmetry_space_group_name_H-M   'P 1'
_cell_length_a   6.20343707
_cell_length_b   12.29730410
_cell_length_c   17.29997264
_cell_angle_alpha   90.00000000
_cell_angle_beta   109.69061985
_cell_angle_gamma   90.00000000
_symmetry_Int_Tables_number   1
_chemical_formula_structural   TlHg(AsS2)3
_chemical_formula_sum   'Tl4 Hg4 As12 S24'
_cell_volume   1242.56723686
_cell_formula_units_Z   4
loop_
 _symmetry_equiv_pos_site_id
 _symmetry_equiv_pos_as_xyz
  1  'x, y, z'
loop_
 _atom_site_type_symbol
 _atom_site_label
 _atom_site_symmetry_multiplicity
 _atom_site_fract_x
 _atom_site_fract_y
 _atom_site_fract_z
 _atom_site_occupancy
  Tl  Tl0  1  0.927641  0.384593  0.302504  1
  Tl  Tl1  1  0.072359  0.884593  0.197496  1
  Tl  Tl2  1  0.072359  0.615407  0.697496  1
  Tl  Tl3  1  0.927641  0.115407  0.802504  1
  Hg  Hg4  1  0.168267  0.094582  0.597474  1
  Hg  Hg5  1  0.168267  0.405418  0.097474  1
  Hg  Hg6  1  0.831733  0.905418  0.402526  1
  Hg  Hg7  1  0.831733  0.594582  0.902526  1
  As  As8  1  0.406998  0.131762  0.432736  1
  As  As9  1  0.310051  0.825225  0.917903  1
  As  As10  1  0.593002  0.631762  0.067264  1
  As  As11  1  0.593002  0.868238  0.567264  1
  As  As12  1  0.406998  0.368238  0.932736  1
  As  As13  1  0.560667  0.371575  0.755389  1
  As  As14  1  0.439333  0.871575  0.744611  1
  As  As15  1  0.439333  0.628425  0.244611  1
  As  As16  1  0.560667  0.128425  0.255389  1
  As  As17  1  0.689949  0.325225  0.582097  1
  As  As18  1  0.310051  0.674775  0.417903  1
  As  As19  1  0.689949  0.174775  0.082097  1
  S  S20  1  0.638708  0.860592  0.881261  1
  S  S21  1  0.370131  0.053504  0.742511  1
  S  S22  1  0.629869  0.553504  0.757489  1
  S  S23  1  0.629869  0.946496  0.257489  1
  S  S24  1  0.370131  0.446496  0.242511  1
  S  S25  1  0.231216  0.359669  0.789772  1
  S  S26  1  0.768784  0.859669  0.710228  1
  S  S27  1  0.768784  0.640331  0.210228  1
  S  S28  1  0.231216  0.140331  0.289772  1
  S  S29  1  0.498831  0.185149  0.943262  1
  S  S30  1  0.501169  0.685149  0.556738  1
  S  S31  1  0.501169  0.814851  0.056738  1
  S  S32  1  0.498831  0.314851  0.443262  1
  S  S33  1  0.062478  0.363700  0.950919  1
  S  S34  1  0.937522  0.863700  0.549081  1
  S  S35  1  0.937522  0.636300  0.049081  1
  S  S36  1  0.743792  0.349085  0.115733  1
  S  S37  1  0.256208  0.849085  0.384267  1
  S  S38  1  0.256208  0.650915  0.884267  1
  S  S39  1  0.743792  0.150915  0.615733  1
  S  S40  1  0.361292  0.139408  0.118739  1
  S  S41  1  0.638708  0.639408  0.381261  1
  S  S42  1  0.361292  0.360592  0.618739  1
  S  S43  1  0.062478  0.136300  0.450919  1
