# generated using pymatgen
data_BaCu(Si2O5)2
_symmetry_space_group_name_H-M   'P 1'
_cell_length_a   7.52183814
_cell_length_b   7.52183814
_cell_length_c   16.55382743
_cell_angle_alpha   90.00000000
_cell_angle_beta   90.00000000
_cell_angle_gamma   90.00000000
_symmetry_Int_Tables_number   1
_chemical_formula_structural   BaCu(Si2O5)2
_chemical_formula_sum   'Ba4 Cu4 Si16 O40'
_cell_volume   936.58325954
_cell_formula_units_Z   4
loop_
 _symmetry_equiv_pos_site_id
 _symmetry_equiv_pos_as_xyz
  1  'x, y, z'
loop_
 _atom_site_type_symbol
 _atom_site_label
 _atom_site_symmetry_multiplicity
 _atom_site_fract_x
 _atom_site_fract_y
 _atom_site_fract_z
 _atom_site_occupancy
  Ba  Ba0  1  0.500000  0.500000  0.000000  1
  Ba  Ba1  1  0.000000  0.000000  0.000000  1
  Ba  Ba2  1  0.000000  0.000000  0.500000  1
  Ba  Ba3  1  0.500000  0.500000  0.500000  1
  Cu  Cu4  1  0.500000  0.000000  0.097094  1
  Cu  Cu5  1  0.000000  0.500000  0.402906  1
  Cu  Cu6  1  0.000000  0.500000  0.902906  1
  Cu  Cu7  1  0.500000  0.000000  0.597094  1
  Si  Si8  1  0.186222  0.265482  0.655329  1
  Si  Si9  1  0.813778  0.734518  0.655329  1
  Si  Si10  1  0.265482  0.186222  0.844671  1
  Si  Si11  1  0.765482  0.313778  0.655329  1
  Si  Si12  1  0.234518  0.686222  0.655329  1
  Si  Si13  1  0.313778  0.765482  0.844671  1
  Si  Si14  1  0.686222  0.234518  0.844671  1
  Si  Si15  1  0.734518  0.813778  0.844671  1
  Si  Si16  1  0.313778  0.234518  0.344671  1
  Si  Si17  1  0.686222  0.765482  0.344671  1
  Si  Si18  1  0.234518  0.313778  0.155329  1
  Si  Si19  1  0.734518  0.186222  0.344671  1
  Si  Si20  1  0.265482  0.813778  0.344671  1
  Si  Si21  1  0.186222  0.734518  0.155329  1
  Si  Si22  1  0.813778  0.265482  0.155329  1
  Si  Si23  1  0.765482  0.686222  0.155329  1
  O  O24  1  0.276246  0.131151  0.591958  1
  O  O25  1  0.723754  0.868849  0.591958  1
  O  O26  1  0.131151  0.276246  0.908042  1
  O  O27  1  0.631151  0.223754  0.591958  1
  O  O28  1  0.368849  0.776246  0.591958  1
  O  O29  1  0.223754  0.631151  0.908042  1
  O  O30  1  0.776246  0.368849  0.908042  1
  O  O31  1  0.868849  0.723754  0.908042  1
  O  O32  1  0.223754  0.368849  0.408042  1
  O  O33  1  0.776246  0.631151  0.408042  1
  O  O34  1  0.368849  0.223754  0.091958  1
  O  O35  1  0.868849  0.276246  0.408042  1
  O  O36  1  0.131151  0.723754  0.408042  1
  O  O37  1  0.276246  0.868849  0.091958  1
  O  O38  1  0.723754  0.131151  0.091958  1
  O  O39  1  0.250473  0.029027  0.362980  1
  O  O40  1  0.631151  0.776246  0.091958  1
  O  O41  1  0.750473  0.529027  0.637020  1
  O  O42  1  0.470973  0.249527  0.862980  1
  O  O43  1  0.970973  0.250473  0.637020  1
  O  O44  1  0.029027  0.749527  0.637020  1
  O  O45  1  0.250473  0.970973  0.862980  1
  O  O46  1  0.749527  0.029027  0.862980  1
  O  O47  1  0.529027  0.750473  0.862980  1
  O  O48  1  0.722397  0.722397  0.250000  1
  O  O49  1  0.777603  0.222397  0.250000  1
  O  O50  1  0.222397  0.777603  0.250000  1
  O  O51  1  0.277603  0.277603  0.250000  1
  O  O52  1  0.777603  0.777603  0.750000  1
  O  O53  1  0.722397  0.277603  0.750000  1
  O  O54  1  0.277603  0.722397  0.750000  1
  O  O55  1  0.222397  0.222397  0.750000  1
  O  O56  1  0.970973  0.749527  0.137020  1
  O  O57  1  0.750473  0.470973  0.137020  1
  O  O58  1  0.249527  0.529027  0.137020  1
  O  O59  1  0.470973  0.750473  0.362980  1
  O  O60  1  0.529027  0.249527  0.362980  1
  O  O61  1  0.029027  0.250473  0.137020  1
  O  O62  1  0.749527  0.970973  0.362980  1
  O  O63  1  0.249527  0.470973  0.637020  1
