# generated using pymatgen
data_NaGeSbO5
_symmetry_space_group_name_H-M   'P 1'
_cell_length_a   5.66972880
_cell_length_b   5.66972880
_cell_length_c   7.35317784
_cell_angle_alpha   75.05917745
_cell_angle_beta   104.94082255
_cell_angle_gamma   74.59262503
_symmetry_Int_Tables_number   1
_chemical_formula_structural   NaGeSbO5
_chemical_formula_sum   'Na2 Ge2 Sb2 O10'
_cell_volume   206.22188370
_cell_formula_units_Z   2
loop_
 _symmetry_equiv_pos_site_id
 _symmetry_equiv_pos_as_xyz
  1  'x, y, z'
loop_
 _atom_site_type_symbol
 _atom_site_label
 _atom_site_symmetry_multiplicity
 _atom_site_fract_x
 _atom_site_fract_y
 _atom_site_fract_z
 _atom_site_occupancy
  Na  Na0  1  0.333006  0.333006  0.250000  1
  Na  Na1  1  0.666994  0.666994  0.750000  1
  Ge  Ge2  1  0.313723  0.313723  0.750000  1
  Ge  Ge3  1  0.686277  0.686277  0.250000  1
  Sb  Sb4  1  0.000000  1.000000  0.500000  1
  Sb  Sb5  1  0.000000  0.000000  0.000000  1
  O  O6  1  0.079458  0.079458  0.250000  1
  O  O7  1  0.920542  0.920542  0.750000  1
  O  O8  1  0.311490  0.094702  0.615089  1
  O  O9  1  0.094702  0.311490  0.884911  1
  O  O10  1  0.688510  0.905298  0.384911  1
  O  O11  1  0.905298  0.688510  0.115089  1
  O  O12  1  0.753961  0.370266  0.419765  1
  O  O13  1  0.370266  0.753961  0.080235  1
  O  O14  1  0.246039  0.629734  0.580235  1
  O  O15  1  0.629734  0.246039  0.919765  1
