# generated using pymatgen
data_BaAl2(SiO4)2
_symmetry_space_group_name_H-M   'P 1'
_cell_length_a   8.67280575
_cell_length_b   9.71528743
_cell_length_c   9.20844981
_cell_angle_alpha   90.00000000
_cell_angle_beta   90.16208423
_cell_angle_gamma   90.00000000
_symmetry_Int_Tables_number   1
_chemical_formula_structural   BaAl2(SiO4)2
_chemical_formula_sum   'Ba4 Al8 Si8 O32'
_cell_volume   775.88983249
_cell_formula_units_Z   4
loop_
 _symmetry_equiv_pos_site_id
 _symmetry_equiv_pos_as_xyz
  1  'x, y, z'
loop_
 _atom_site_type_symbol
 _atom_site_label
 _atom_site_symmetry_multiplicity
 _atom_site_fract_x
 _atom_site_fract_y
 _atom_site_fract_z
 _atom_site_occupancy
  Ba  Ba0  1  0.249304  0.087090  0.601455  1
  Ba  Ba1  1  0.750696  0.587090  0.898545  1
  Ba  Ba2  1  0.750696  0.912910  0.398545  1
  Ba  Ba3  1  0.249304  0.412910  0.101455  1
  Al  Al4  1  0.569537  0.579771  0.277732  1
  Al  Al5  1  0.430463  0.079771  0.222268  1
  Al  Al6  1  0.430463  0.420229  0.722268  1
  Al  Al7  1  0.569537  0.920229  0.777732  1
  Al  Al8  1  0.928087  0.306927  0.434846  1
  Al  Al9  1  0.071913  0.806927  0.065154  1
  Al  Al10  1  0.071913  0.693073  0.565154  1
  Al  Al11  1  0.928087  0.193073  0.934846  1
  Si  Si12  1  0.937350  0.584563  0.269931  1
  Si  Si13  1  0.062650  0.084563  0.230069  1
  Si  Si14  1  0.062650  0.415437  0.730069  1
  Si  Si15  1  0.937350  0.915437  0.769931  1
  Si  Si16  1  0.559168  0.301152  0.430282  1
  Si  Si17  1  0.440832  0.801152  0.069718  1
  Si  Si18  1  0.440832  0.698848  0.569718  1
  Si  Si19  1  0.559168  0.198848  0.930282  1
  O  O20  1  0.759199  0.589029  0.208526  1
  O  O21  1  0.240801  0.089029  0.291474  1
  O  O22  1  0.240801  0.410971  0.791474  1
  O  O23  1  0.759199  0.910971  0.708526  1
  O  O24  1  0.735385  0.333465  0.477933  1
  O  O25  1  0.264615  0.833465  0.022067  1
  O  O26  1  0.264615  0.666535  0.522067  1
  O  O27  1  0.735385  0.166535  0.977933  1
  O  O28  1  0.049582  0.313603  0.589430  1
  O  O29  1  0.950418  0.813603  0.910570  1
  O  O30  1  0.950418  0.686397  0.410570  1
  O  O31  1  0.049582  0.186397  0.089430  1
  O  O32  1  0.441430  0.313424  0.569204  1
  O  O33  1  0.558570  0.813424  0.930796  1
  O  O34  1  0.558570  0.686576  0.430796  1
  O  O35  1  0.441430  0.186576  0.069204  1
  O  O36  1  0.955100  0.137306  0.366521  1
  O  O37  1  0.044900  0.637306  0.133479  1
  O  O38  1  0.044900  0.862694  0.633479  1
  O  O39  1  0.955100  0.362694  0.866521  1
  O  O40  1  0.500086  0.088549  0.805208  1
  O  O41  1  0.499914  0.588549  0.694792  1
  O  O42  1  0.499914  0.911451  0.194792  1
  O  O43  1  0.500086  0.411451  0.305208  1
  O  O44  1  0.997276  0.071146  0.806976  1
  O  O45  1  0.002724  0.571146  0.693024  1
  O  O46  1  0.002724  0.928854  0.193024  1
  O  O47  1  0.997276  0.428854  0.306976  1
  O  O48  1  0.543220  0.358549  0.869727  1
  O  O49  1  0.456780  0.858549  0.630273  1
  O  O50  1  0.456780  0.641451  0.130273  1
  O  O51  1  0.543220  0.141451  0.369727  1
