# generated using pymatgen
data_Ca2As2O7
_symmetry_space_group_name_H-M   'P 1'
_cell_length_a   5.92819790
_cell_length_b   5.92819790
_cell_length_c   4.98852436
_cell_angle_alpha   82.96200580
_cell_angle_beta   97.03799420
_cell_angle_gamma   74.32065858
_symmetry_Int_Tables_number   1
_chemical_formula_structural   Ca2As2O7
_chemical_formula_sum   'Ca2 As2 O7'
_cell_volume   165.28179317
_cell_formula_units_Z   1
loop_
 _symmetry_equiv_pos_site_id
 _symmetry_equiv_pos_as_xyz
  1  'x, y, z'
loop_
 _atom_site_type_symbol
 _atom_site_label
 _atom_site_symmetry_multiplicity
 _atom_site_fract_x
 _atom_site_fract_y
 _atom_site_fract_z
 _atom_site_occupancy
  Ca  Ca0  1  0.692913  0.692913  0.500000  1
  Ca  Ca1  1  0.307087  0.307087  0.500000  1
  As  As2  1  0.226301  0.773699  0.908034  1
  As  As3  1  0.773699  0.226301  0.091966  1
  O  O4  1  0.384166  0.916460  0.721862  1
  O  O5  1  0.916460  0.384166  0.278138  1
  O  O6  1  0.615834  0.083540  0.278138  1
  O  O7  1  0.083540  0.615834  0.721862  1
  O  O8  1  0.000000  0.000000  0.000000  1
  O  O9  1  0.382665  0.617335  0.214048  1
  O  O10  1  0.617335  0.382665  0.785952  1
