# generated using pymatgen
data_Ba2PrRuO6
_symmetry_space_group_name_H-M   'P 1'
_cell_length_a   6.07697978
_cell_length_b   6.07697978
_cell_length_c   6.12725557
_cell_angle_alpha   60.00554328
_cell_angle_beta   119.99445672
_cell_angle_gamma   120.02959343
_symmetry_Int_Tables_number   1
_chemical_formula_structural   Ba2PrRuO6
_chemical_formula_sum   'Ba2 Pr1 Ru1 O6'
_cell_volume   159.98001098
_cell_formula_units_Z   1
loop_
 _symmetry_equiv_pos_site_id
 _symmetry_equiv_pos_as_xyz
  1  'x, y, z'
loop_
 _atom_site_type_symbol
 _atom_site_label
 _atom_site_symmetry_multiplicity
 _atom_site_fract_x
 _atom_site_fract_y
 _atom_site_fract_z
 _atom_site_occupancy
  Ba  Ba0  1  0.251768  0.748232  0.254858  1
  Ba  Ba1  1  0.748232  0.251768  0.745142  1
  Pr  Pr2  1  0.500000  0.500000  0.000000  1
  Ru  Ru3  1  0.000000  1.000000  0.500000  1
  O  O4  1  0.771529  0.228471  0.222440  1
  O  O5  1  0.228471  0.771529  0.777560  1
  O  O6  1  0.204676  0.256695  0.701572  1
  O  O7  1  0.256695  0.204676  0.298428  1
  O  O8  1  0.795324  0.743305  0.298428  1
  O  O9  1  0.743305  0.795324  0.701572  1
