# generated using pymatgen
data_Ba3Nb6(Si2O13)2
_symmetry_space_group_name_H-M   'P 1'
_cell_length_a   9.18141194
_cell_length_b   9.18141194
_cell_length_c   7.85085361
_cell_angle_alpha   90.00000000
_cell_angle_beta   90.00000000
_cell_angle_gamma   120.00000000
_symmetry_Int_Tables_number   1
_chemical_formula_structural   Ba3Nb6(Si2O13)2
_chemical_formula_sum   'Ba3 Nb6 Si4 O26'
_cell_volume   573.14757259
_cell_formula_units_Z   1
loop_
 _symmetry_equiv_pos_site_id
 _symmetry_equiv_pos_as_xyz
  1  'x, y, z'
loop_
 _atom_site_type_symbol
 _atom_site_label
 _atom_site_symmetry_multiplicity
 _atom_site_fract_x
 _atom_site_fract_y
 _atom_site_fract_z
 _atom_site_occupancy
  Ba  Ba0  1  0.000000  0.599948  0.500000  1
  Ba  Ba1  1  0.400052  0.400052  0.500000  1
  Ba  Ba2  1  0.599948  0.000000  0.500000  1
  Nb  Nb3  1  0.238751  0.000000  0.755652  1
  Nb  Nb4  1  0.761249  0.761249  0.244348  1
  Nb  Nb5  1  0.000000  0.238751  0.244348  1
  Nb  Nb6  1  0.000000  0.238751  0.755652  1
  Nb  Nb7  1  0.761249  0.761249  0.755652  1
  Nb  Nb8  1  0.238751  0.000000  0.244348  1
  Si  Si9  1  0.666667  0.333333  0.205753  1
  Si  Si10  1  0.666667  0.333333  0.794247  1
  Si  Si11  1  0.333333  0.666667  0.794247  1
  Si  Si12  1  0.333333  0.666667  0.205753  1
  O  O13  1  0.000000  0.230853  0.500000  1
  O  O14  1  0.769147  0.769147  0.500000  1
  O  O15  1  0.230853  0.000000  0.500000  1
  O  O16  1  0.511249  0.695355  0.283901  1
  O  O17  1  0.304645  0.815894  0.283901  1
  O  O18  1  0.184106  0.488751  0.283901  1
  O  O19  1  0.488751  0.184106  0.716099  1
  O  O20  1  0.184106  0.488751  0.716099  1
  O  O21  1  0.511249  0.695355  0.716099  1
  O  O22  1  0.304645  0.815894  0.716099  1
  O  O23  1  0.695355  0.511249  0.283901  1
  O  O24  1  0.815894  0.304645  0.283901  1
  O  O25  1  0.815894  0.304645  0.716099  1
  O  O26  1  0.333333  0.666667  0.000000  1
  O  O27  1  0.666667  0.333333  0.000000  1
  O  O28  1  0.278898  0.000000  0.000000  1
  O  O29  1  0.721102  0.721102  0.000000  1
  O  O30  1  0.000000  0.278898  0.000000  1
  O  O31  1  0.823958  0.000000  0.234765  1
  O  O32  1  0.176042  0.176042  0.765235  1
  O  O33  1  0.000000  0.823958  0.765235  1
  O  O34  1  0.000000  0.823958  0.234765  1
  O  O35  1  0.176042  0.176042  0.234765  1
  O  O36  1  0.823958  0.000000  0.765235  1
  O  O37  1  0.488751  0.184106  0.283901  1
  O  O38  1  0.695355  0.511249  0.716099  1
