# generated using pymatgen
data_Ca5B3O9F
_symmetry_space_group_name_H-M   'P 1'
_cell_length_a   9.09264058
_cell_length_b   9.09264058
_cell_length_c   3.57233585
_cell_angle_alpha   85.18017147
_cell_angle_beta   94.81982853
_cell_angle_gamma   53.59106790
_symmetry_Int_Tables_number   1
_chemical_formula_structural   Ca5B3O9F
_chemical_formula_sum   'Ca5 B3 O9 F1'
_cell_volume   233.53043989
_cell_formula_units_Z   1
loop_
 _symmetry_equiv_pos_site_id
 _symmetry_equiv_pos_as_xyz
  1  'x, y, z'
loop_
 _atom_site_type_symbol
 _atom_site_label
 _atom_site_symmetry_multiplicity
 _atom_site_fract_x
 _atom_site_fract_y
 _atom_site_fract_z
 _atom_site_occupancy
  Ca  Ca0  1  0.738021  0.617684  0.003954  1
  Ca  Ca1  1  0.065157  0.698508  0.347852  1
  Ca  Ca2  1  0.301492  0.934843  0.347852  1
  Ca  Ca3  1  0.382316  0.261979  0.003954  1
  Ca  Ca4  1  0.793057  0.206943  0.636745  1
  B  B5  1  0.680389  0.926777  0.593190  1
  B  B6  1  0.440521  0.559479  0.964324  1
  B  B7  1  0.073223  0.319611  0.593190  1
  O  O8  1  0.612469  0.387531  0.051136  1
  O  O9  1  0.593643  0.114950  0.578774  1
  O  O10  1  0.280048  0.571830  0.920133  1
  O  O11  1  0.858647  0.794800  0.794506  1
  O  O12  1  0.428170  0.719952  0.920133  1
  O  O13  1  0.205200  0.141353  0.794506  1
  O  O14  1  0.592219  0.863008  0.409967  1
  O  O15  1  0.136992  0.407781  0.409967  1
  O  O16  1  0.885050  0.406357  0.578774  1
  F  F17  1  0.999786  0.000214  0.248645  1
