# generated using pymatgen
data_K2Be3Zn2F12
_symmetry_space_group_name_H-M   'P 1'
_cell_length_a   10.12767542
_cell_length_b   10.12767542
_cell_length_c   10.12767542
_cell_angle_alpha   90.00000000
_cell_angle_beta   90.00000000
_cell_angle_gamma   90.00000000
_symmetry_Int_Tables_number   1
_chemical_formula_structural   K2Be3Zn2F12
_chemical_formula_sum   'K8 Be12 Zn8 F48'
_cell_volume   1038.79373762
_cell_formula_units_Z   4
loop_
 _symmetry_equiv_pos_site_id
 _symmetry_equiv_pos_as_xyz
  1  'x, y, z'
loop_
 _atom_site_type_symbol
 _atom_site_label
 _atom_site_symmetry_multiplicity
 _atom_site_fract_x
 _atom_site_fract_y
 _atom_site_fract_z
 _atom_site_occupancy
  K  K0  1  0.062907  0.062907  0.062907  1
  K  K1  1  0.437093  0.937093  0.562907  1
  K  K2  1  0.562907  0.437093  0.937093  1
  K  K3  1  0.937093  0.562907  0.437093  1
  K  K4  1  0.298499  0.298499  0.298499  1
  K  K5  1  0.201501  0.701501  0.798499  1
  K  K6  1  0.798499  0.201501  0.701501  1
  K  K7  1  0.701501  0.798499  0.201501  1
  Be  Be8  1  0.626656  0.462925  0.271205  1
  Be  Be9  1  0.873344  0.537075  0.771205  1
  Be  Be10  1  0.373344  0.962925  0.228795  1
  Be  Be11  1  0.126656  0.037075  0.728795  1
  Be  Be12  1  0.962925  0.228795  0.373344  1
  Be  Be13  1  0.728795  0.126656  0.037075  1
  Be  Be14  1  0.228795  0.373344  0.962925  1
  Be  Be15  1  0.537075  0.771205  0.873344  1
  Be  Be16  1  0.771205  0.873344  0.537075  1
  Be  Be17  1  0.037075  0.728795  0.126656  1
  Be  Be18  1  0.462925  0.271205  0.626656  1
  Be  Be19  1  0.271205  0.626656  0.462925  1
  Zn  Zn20  1  0.584399  0.584399  0.584399  1
  Zn  Zn21  1  0.915601  0.415601  0.084399  1
  Zn  Zn22  1  0.084399  0.915601  0.415601  1
  Zn  Zn23  1  0.415601  0.084399  0.915601  1
  Zn  Zn24  1  0.849110  0.849110  0.849110  1
  Zn  Zn25  1  0.650890  0.150890  0.349110  1
  Zn  Zn26  1  0.349110  0.650890  0.150890  1
  Zn  Zn27  1  0.150890  0.349110  0.650890  1
  F  F28  1  0.416507  0.656731  0.500197  1
  F  F29  1  0.425632  0.817771  0.237805  1
  F  F30  1  0.074368  0.182229  0.737805  1
  F  F31  1  0.817771  0.237805  0.425632  1
  F  F32  1  0.975887  0.442901  0.702745  1
  F  F33  1  0.524113  0.557099  0.202745  1
  F  F34  1  0.202745  0.524113  0.557099  1
  F  F35  1  0.557099  0.202745  0.524113  1
  F  F36  1  0.942901  0.797255  0.024113  1
  F  F37  1  0.702745  0.975887  0.442901  1
  F  F38  1  0.442901  0.702745  0.975887  1
  F  F39  1  0.297255  0.475887  0.057099  1
  F  F40  1  0.797255  0.024113  0.942901  1
  F  F41  1  0.057099  0.297255  0.475887  1
  F  F42  1  0.024113  0.942901  0.797255  1
  F  F43  1  0.475887  0.057099  0.297255  1
  F  F44  1  0.656731  0.500197  0.416507  1
  F  F45  1  0.925632  0.682229  0.762195  1
  F  F46  1  0.500197  0.416507  0.656731  1
  F  F47  1  0.999803  0.583493  0.156731  1
  F  F48  1  0.916507  0.843269  0.499803  1
  F  F49  1  0.499803  0.916507  0.843269  1
  F  F50  1  0.083493  0.343269  0.000197  1
  F  F51  1  0.583493  0.156731  0.999803  1
  F  F52  1  0.000197  0.083493  0.343269  1
  F  F53  1  0.156731  0.999803  0.583493  1
  F  F54  1  0.343269  0.000197  0.083493  1
  F  F55  1  0.843269  0.499803  0.916507  1
  F  F56  1  0.756301  0.484055  0.190494  1
  F  F57  1  0.190494  0.756301  0.484055  1
  F  F58  1  0.484055  0.190494  0.756301  1
  F  F59  1  0.015945  0.809506  0.256301  1
  F  F60  1  0.690494  0.743699  0.515945  1
  F  F61  1  0.515945  0.690494  0.743699  1
  F  F62  1  0.309506  0.243699  0.984055  1
  F  F63  1  0.809506  0.256301  0.015945  1
  F  F64  1  0.984055  0.309506  0.243699  1
  F  F65  1  0.256301  0.015945  0.809506  1
  F  F66  1  0.243699  0.984055  0.309506  1
  F  F67  1  0.743699  0.515945  0.690494  1
  F  F68  1  0.574368  0.317771  0.262195  1
  F  F69  1  0.262195  0.574368  0.317771  1
  F  F70  1  0.317771  0.262195  0.574368  1
  F  F71  1  0.182229  0.737805  0.074368  1
  F  F72  1  0.762195  0.925632  0.682229  1
  F  F73  1  0.737805  0.074368  0.182229  1
  F  F74  1  0.237805  0.425632  0.817771  1
  F  F75  1  0.682229  0.762195  0.925632  1
