# generated using pymatgen
data_Tl2Sn(AsS3)2
_symmetry_space_group_name_H-M   'P 1'
_cell_length_a   6.76597598
_cell_length_b   6.76597598
_cell_length_c   7.49110677
_cell_angle_alpha   90.00000000
_cell_angle_beta   90.00000000
_cell_angle_gamma   120.00000000
_symmetry_Int_Tables_number   1
_chemical_formula_structural   Tl2Sn(AsS3)2
_chemical_formula_sum   'Tl2 Sn1 As2 S6'
_cell_volume   296.98705661
_cell_formula_units_Z   1
loop_
 _symmetry_equiv_pos_site_id
 _symmetry_equiv_pos_as_xyz
  1  'x, y, z'
loop_
 _atom_site_type_symbol
 _atom_site_label
 _atom_site_symmetry_multiplicity
 _atom_site_fract_x
 _atom_site_fract_y
 _atom_site_fract_z
 _atom_site_occupancy
  Tl  Tl0  1  0.333333  0.666667  0.380631  1
  Tl  Tl1  1  0.666667  0.333333  0.619369  1
  Sn  Sn2  1  0.000000  0.000000  0.000000  1
  As  As3  1  0.666667  0.333333  0.069426  1
  As  As4  1  0.333333  0.666667  0.930574  1
  S  S5  1  0.889964  0.226486  0.221815  1
  S  S6  1  0.336522  0.110036  0.221815  1
  S  S7  1  0.773514  0.663478  0.221815  1
  S  S8  1  0.110036  0.773514  0.778185  1
  S  S9  1  0.663478  0.889964  0.778185  1
  S  S10  1  0.226486  0.336522  0.778185  1
