# generated using pymatgen
data_KCSN
_symmetry_space_group_name_H-M   'P 1'
_cell_length_a   6.70334144
_cell_length_b   6.84992183
_cell_length_c   7.76653637
_cell_angle_alpha   90.00000000
_cell_angle_beta   90.00000000
_cell_angle_gamma   90.00000000
_symmetry_Int_Tables_number   1
_chemical_formula_structural   KCSN
_chemical_formula_sum   'K4 C4 S4 N4'
_cell_volume   356.61888423
_cell_formula_units_Z   4
loop_
 _symmetry_equiv_pos_site_id
 _symmetry_equiv_pos_as_xyz
  1  'x, y, z'
loop_
 _atom_site_type_symbol
 _atom_site_label
 _atom_site_symmetry_multiplicity
 _atom_site_fract_x
 _atom_site_fract_y
 _atom_site_fract_z
 _atom_site_occupancy
  K  K0  1  0.750000  0.801242  0.500000  1
  K  K1  1  0.250000  0.198758  0.000000  1
  K  K2  1  0.250000  0.198758  0.500000  1
  K  K3  1  0.750000  0.801242  0.000000  1
  C  C4  1  0.712785  0.231694  0.250000  1
  C  C5  1  0.787215  0.231694  0.750000  1
  C  C6  1  0.287215  0.768306  0.750000  1
  C  C7  1  0.212785  0.768306  0.250000  1
  S  S8  1  0.889669  0.395181  0.250000  1
  S  S9  1  0.610331  0.395181  0.750000  1
  S  S10  1  0.389669  0.604819  0.250000  1
  S  S11  1  0.110331  0.604819  0.750000  1
  N  N12  1  0.083762  0.888287  0.250000  1
  N  N13  1  0.416238  0.888287  0.750000  1
  N  N14  1  0.583762  0.111713  0.250000  1
  N  N15  1  0.916238  0.111713  0.750000  1
