# generated using pymatgen
data_Li3AlGeO5
_symmetry_space_group_name_H-M   'P 1'
_cell_length_a   4.94963894
_cell_length_b   5.45517129
_cell_length_c   16.00565673
_cell_angle_alpha   90.00000000
_cell_angle_beta   90.00000000
_cell_angle_gamma   90.00000000
_symmetry_Int_Tables_number   1
_chemical_formula_structural   Li3AlGeO5
_chemical_formula_sum   'Li12 Al4 Ge4 O20'
_cell_volume   432.17078995
_cell_formula_units_Z   4
loop_
 _symmetry_equiv_pos_site_id
 _symmetry_equiv_pos_as_xyz
  1  'x, y, z'
loop_
 _atom_site_type_symbol
 _atom_site_label
 _atom_site_symmetry_multiplicity
 _atom_site_fract_x
 _atom_site_fract_y
 _atom_site_fract_z
 _atom_site_occupancy
  Li  Li0  1  0.490487  0.321120  0.400731  1
  Li  Li1  1  0.990487  0.678880  0.599269  1
  Li  Li2  1  0.990487  0.178880  0.900731  1
  Li  Li3  1  0.490487  0.821120  0.099269  1
  Li  Li4  1  0.492613  0.838082  0.503038  1
  Li  Li5  1  0.992613  0.161918  0.496962  1
  Li  Li6  1  0.992613  0.661918  0.003038  1
  Li  Li7  1  0.492613  0.338082  0.996962  1
  Li  Li8  1  0.490549  0.836034  0.699147  1
  Li  Li9  1  0.990549  0.163966  0.300853  1
  Li  Li10  1  0.990549  0.663966  0.199147  1
  Li  Li11  1  0.490549  0.336034  0.800853  1
  Al  Al12  1  0.490001  0.324360  0.201895  1
  Al  Al13  1  0.990001  0.675640  0.798105  1
  Al  Al14  1  0.990001  0.175640  0.701895  1
  Al  Al15  1  0.490001  0.824360  0.298105  1
  Ge  Ge16  1  0.994999  0.160597  0.097437  1
  Ge  Ge17  1  0.494999  0.839403  0.902563  1
  Ge  Ge18  1  0.494999  0.339403  0.597437  1
  Ge  Ge19  1  0.994999  0.660597  0.402563  1
  O  O20  1  0.583822  0.136988  0.288138  1
  O  O21  1  0.130920  0.811065  0.890183  1
  O  O22  1  0.130920  0.311065  0.609817  1
  O  O23  1  0.630920  0.188935  0.109817  1
  O  O24  1  0.094824  0.316363  0.007953  1
  O  O25  1  0.594824  0.683637  0.992047  1
  O  O26  1  0.594824  0.183637  0.507953  1
  O  O27  1  0.094824  0.816363  0.492047  1
  O  O28  1  0.090864  0.853668  0.103152  1
  O  O29  1  0.590864  0.146332  0.896848  1
  O  O30  1  0.590864  0.646332  0.603152  1
  O  O31  1  0.090864  0.353668  0.396848  1
  O  O32  1  0.127922  0.314149  0.190669  1
  O  O33  1  0.627922  0.685851  0.809331  1
  O  O34  1  0.627922  0.185851  0.690669  1
  O  O35  1  0.127922  0.814149  0.309331  1
  O  O36  1  0.083822  0.363012  0.788138  1
  O  O37  1  0.583822  0.636988  0.211862  1
  O  O38  1  0.630920  0.688935  0.390183  1
  O  O39  1  0.083822  0.863012  0.711862  1
