# generated using pymatgen
data_KZn4(BO3)3
_symmetry_space_group_name_H-M   'P 1'
_cell_length_a   7.05019656
_cell_length_b   5.05523881
_cell_length_c   12.77338576
_cell_angle_alpha   90.00000000
_cell_angle_beta   94.02036487
_cell_angle_gamma   90.00000000
_symmetry_Int_Tables_number   1
_chemical_formula_structural   KZn4(BO3)3
_chemical_formula_sum   'K2 Zn8 B6 O18'
_cell_volume   454.12864646
_cell_formula_units_Z   2
loop_
 _symmetry_equiv_pos_site_id
 _symmetry_equiv_pos_as_xyz
  1  'x, y, z'
loop_
 _atom_site_type_symbol
 _atom_site_label
 _atom_site_symmetry_multiplicity
 _atom_site_fract_x
 _atom_site_fract_y
 _atom_site_fract_z
 _atom_site_occupancy
  K  K0  1  0.000000  0.809432  0.250000  1
  K  K1  1  0.000000  0.190568  0.750000  1
  Zn  Zn2  1  0.511160  0.851199  0.376684  1
  Zn  Zn3  1  0.488840  0.851199  0.123316  1
  Zn  Zn4  1  0.488840  0.148801  0.623316  1
  Zn  Zn5  1  0.511160  0.148801  0.876684  1
  Zn  Zn6  1  0.790726  0.337957  0.441458  1
  Zn  Zn7  1  0.209274  0.337957  0.058542  1
  Zn  Zn8  1  0.209274  0.662043  0.558542  1
  Zn  Zn9  1  0.790726  0.662043  0.941458  1
  B  B10  1  0.814496  0.852852  0.548737  1
  B  B11  1  0.185504  0.852852  0.951263  1
  B  B12  1  0.185504  0.147148  0.451263  1
  B  B13  1  0.814496  0.147148  0.048737  1
  B  B14  1  0.500000  0.347041  0.250000  1
  B  B15  1  0.500000  0.652959  0.750000  1
  O  O16  1  0.739932  0.108172  0.566741  1
  O  O17  1  0.260068  0.108172  0.933259  1
  O  O18  1  0.032574  0.237598  0.391831  1
  O  O19  1  0.967426  0.237598  0.108169  1
  O  O20  1  0.591104  0.790103  0.832620  1
  O  O21  1  0.408896  0.790103  0.667380  1
  O  O22  1  0.408896  0.209897  0.167380  1
  O  O23  1  0.591104  0.209897  0.332620  1
  O  O24  1  0.500000  0.377637  0.750000  1
  O  O25  1  0.500000  0.622363  0.250000  1
  O  O26  1  0.724930  0.293452  0.966526  1
  O  O27  1  0.275070  0.293452  0.533474  1
  O  O28  1  0.275070  0.706548  0.033474  1
  O  O29  1  0.724930  0.706548  0.466526  1
  O  O30  1  0.739932  0.891828  0.066741  1
  O  O31  1  0.260068  0.891828  0.433259  1
  O  O32  1  0.032574  0.762402  0.891831  1
  O  O33  1  0.967426  0.762402  0.608169  1
