# generated using pymatgen
data_Rb2SiAs2
_symmetry_space_group_name_H-M   'P 1'
_cell_length_a   8.55761994
_cell_length_b   8.55761994
_cell_length_c   8.55761994
_cell_angle_alpha   135.46708495
_cell_angle_beta   128.73514071
_cell_angle_gamma   70.21029419
_symmetry_Int_Tables_number   1
_chemical_formula_structural   Rb2SiAs2
_chemical_formula_sum   'Rb4 Si2 As4'
_cell_volume   336.16162028
_cell_formula_units_Z   2
loop_
 _symmetry_equiv_pos_site_id
 _symmetry_equiv_pos_as_xyz
  1  'x, y, z'
loop_
 _atom_site_type_symbol
 _atom_site_label
 _atom_site_symmetry_multiplicity
 _atom_site_fract_x
 _atom_site_fract_y
 _atom_site_fract_z
 _atom_site_occupancy
  Rb  Rb0  1  0.977291  0.643722  0.333569  1
  Rb  Rb1  1  0.022709  0.356278  0.666431  1
  Rb  Rb2  1  0.689847  0.856278  0.833569  1
  Rb  Rb3  1  0.310153  0.143722  0.166431  1
  Si  Si4  1  0.500000  0.750000  0.250000  1
  Si  Si5  1  0.500000  0.250000  0.750000  1
  As  As6  1  0.561202  0.403357  0.157845  1
  As  As7  1  0.438798  0.596643  0.842155  1
  As  As8  1  0.245512  0.903357  0.342155  1
  As  As9  1  0.754488  0.096643  0.657845  1
