# generated using pymatgen
data_HoCuPbSe3
_symmetry_space_group_name_H-M   'P 1'
_cell_length_a   4.05787976
_cell_length_b   10.60629409
_cell_length_c   13.66680257
_cell_angle_alpha   90.00000000
_cell_angle_beta   90.00000000
_cell_angle_gamma   90.00000000
_symmetry_Int_Tables_number   1
_chemical_formula_structural   HoCuPbSe3
_chemical_formula_sum   'Ho4 Cu4 Pb4 Se12'
_cell_volume   588.20641941
_cell_formula_units_Z   4
loop_
 _symmetry_equiv_pos_site_id
 _symmetry_equiv_pos_as_xyz
  1  'x, y, z'
loop_
 _atom_site_type_symbol
 _atom_site_label
 _atom_site_symmetry_multiplicity
 _atom_site_fract_x
 _atom_site_fract_y
 _atom_site_fract_z
 _atom_site_occupancy
  Ho  Ho0  1  0.750000  0.478100  0.255600  1
  Ho  Ho1  1  0.250000  0.521900  0.744400  1
  Ho  Ho2  1  0.750000  0.978100  0.244400  1
  Ho  Ho3  1  0.250000  0.021900  0.755600  1
  Cu  Cu4  1  0.250000  0.235054  0.278220  1
  Cu  Cu5  1  0.750000  0.764946  0.721780  1
  Cu  Cu6  1  0.250000  0.735054  0.221780  1
  Cu  Cu7  1  0.750000  0.264946  0.778220  1
  Pb  Pb8  1  0.750000  0.223497  0.493953  1
  Pb  Pb9  1  0.250000  0.776503  0.506047  1
  Pb  Pb10  1  0.750000  0.723497  0.006047  1
  Pb  Pb11  1  0.250000  0.276503  0.993953  1
  Se  Se12  1  0.750000  0.955045  0.615013  1
  Se  Se13  1  0.250000  0.044955  0.384987  1
  Se  Se14  1  0.750000  0.455045  0.884987  1
  Se  Se15  1  0.250000  0.544955  0.115013  1
  Se  Se16  1  0.250000  0.912488  0.107713  1
  Se  Se17  1  0.750000  0.087512  0.892287  1
  Se  Se18  1  0.250000  0.412488  0.392287  1
  Se  Se19  1  0.750000  0.587512  0.607713  1
  Se  Se20  1  0.750000  0.731377  0.330493  1
  Se  Se21  1  0.250000  0.268623  0.669507  1
  Se  Se22  1  0.750000  0.231377  0.169507  1
  Se  Se23  1  0.250000  0.768623  0.830493  1
