# generated using pymatgen
data_SrAl12O19
_symmetry_space_group_name_H-M   'P 1'
_cell_length_a   5.62655671
_cell_length_b   5.62655671
_cell_length_c   22.15984005
_cell_angle_alpha   90.00000000
_cell_angle_beta   90.00000000
_cell_angle_gamma   120.00000000
_symmetry_Int_Tables_number   1
_chemical_formula_structural   SrAl12O19
_chemical_formula_sum   'Sr2 Al24 O38'
_cell_volume   607.55087965
_cell_formula_units_Z   2
loop_
 _symmetry_equiv_pos_site_id
 _symmetry_equiv_pos_as_xyz
  1  'x, y, z'
loop_
 _atom_site_type_symbol
 _atom_site_label
 _atom_site_symmetry_multiplicity
 _atom_site_fract_x
 _atom_site_fract_y
 _atom_site_fract_z
 _atom_site_occupancy
  Sr  Sr0  1  0.333333  0.666667  0.750000  1
  Sr  Sr1  1  0.666667  0.333333  0.250000  1
  Al  Al2  1  0.333333  0.666667  0.309568  1
  Al  Al3  1  0.666667  0.333333  0.809568  1
  Al  Al4  1  0.666667  0.333333  0.690432  1
  Al  Al5  1  0.333333  0.666667  0.190432  1
  Al  Al6  1  0.168256  0.831744  0.608786  1
  Al  Al7  1  0.168256  0.336511  0.608786  1
  Al  Al8  1  0.663489  0.831744  0.608786  1
  Al  Al9  1  0.336511  0.168256  0.108786  1
  Al  Al10  1  0.831744  0.663489  0.391214  1
  Al  Al11  1  0.831744  0.168256  0.108786  1
  Al  Al12  1  0.831744  0.663489  0.108786  1
  Al  Al13  1  0.168256  0.831744  0.891214  1
  Al  Al14  1  0.663489  0.831744  0.891214  1
  Al  Al15  1  0.336511  0.168256  0.391214  1
  Al  Al16  1  0.831744  0.168256  0.391214  1
  Al  Al17  1  0.168256  0.336511  0.891214  1
  Al  Al18  1  0.333333  0.666667  0.471792  1
  Al  Al19  1  0.666667  0.333333  0.971792  1
  Al  Al20  1  0.666667  0.333333  0.528208  1
  Al  Al21  1  0.333333  0.666667  0.028208  1
  Al  Al22  1  0.000000  0.000000  0.750000  1
  Al  Al23  1  0.000000  0.000000  0.250000  1
  Al  Al24  1  0.000000  0.000000  0.500000  1
  Al  Al25  1  0.000000  0.000000  0.000000  1
  O  O26  1  0.502466  0.497534  0.351756  1
  O  O27  1  0.502466  0.004931  0.351756  1
  O  O28  1  0.995069  0.497534  0.351756  1
  O  O29  1  0.004931  0.502466  0.851756  1
  O  O30  1  0.497534  0.995069  0.648244  1
  O  O31  1  0.497534  0.502466  0.851756  1
  O  O32  1  0.497534  0.995069  0.851756  1
  O  O33  1  0.502466  0.497534  0.148244  1
  O  O34  1  0.995069  0.497534  0.148244  1
  O  O35  1  0.004931  0.502466  0.648244  1
  O  O36  1  0.497534  0.502466  0.648244  1
  O  O37  1  0.502466  0.004931  0.148244  1
  O  O38  1  0.154933  0.845067  0.448082  1
  O  O39  1  0.154933  0.309866  0.448082  1
  O  O40  1  0.690134  0.845067  0.448082  1
  O  O41  1  0.636806  0.818403  0.250000  1
  O  O42  1  0.309866  0.154933  0.948082  1
  O  O43  1  0.845067  0.154933  0.948082  1
  O  O44  1  0.845067  0.690134  0.948082  1
  O  O45  1  0.154933  0.845067  0.051918  1
  O  O46  1  0.690134  0.845067  0.051918  1
  O  O47  1  0.309866  0.154933  0.551918  1
  O  O48  1  0.845067  0.154933  0.551918  1
  O  O49  1  0.154933  0.309866  0.051918  1
  O  O50  1  0.818403  0.636806  0.750000  1
  O  O51  1  0.181597  0.818403  0.250000  1
  O  O52  1  0.000000  0.000000  0.149288  1
  O  O53  1  0.000000  0.000000  0.649288  1
  O  O54  1  0.000000  0.000000  0.850712  1
  O  O55  1  0.000000  0.000000  0.350712  1
  O  O56  1  0.333333  0.666667  0.945665  1
  O  O57  1  0.666667  0.333333  0.445665  1
  O  O58  1  0.666667  0.333333  0.054335  1
  O  O59  1  0.333333  0.666667  0.554335  1
  O  O60  1  0.181597  0.363194  0.250000  1
  O  O61  1  0.818403  0.181597  0.750000  1
  O  O62  1  0.363194  0.181597  0.750000  1
  O  O63  1  0.845067  0.690134  0.551918  1
