# generated using pymatgen
data_K2Ta2(OF2)3
_symmetry_space_group_name_H-M   'P 1'
_cell_length_a   5.68397250
_cell_length_b   10.42909235
_cell_length_c   14.77338936
_cell_angle_alpha   90.00000000
_cell_angle_beta   90.00000000
_cell_angle_gamma   90.00000000
_symmetry_Int_Tables_number   1
_chemical_formula_structural   K2Ta2(OF2)3
_chemical_formula_sum   'K8 Ta8 O12 F24'
_cell_volume   875.74693348
_cell_formula_units_Z   4
loop_
 _symmetry_equiv_pos_site_id
 _symmetry_equiv_pos_as_xyz
  1  'x, y, z'
loop_
 _atom_site_type_symbol
 _atom_site_label
 _atom_site_symmetry_multiplicity
 _atom_site_fract_x
 _atom_site_fract_y
 _atom_site_fract_z
 _atom_site_occupancy
  K  K0  1  0.250000  0.742764  0.290704  1
  K  K1  1  0.750000  0.257236  0.709296  1
  K  K2  1  0.250000  0.242764  0.209296  1
  K  K3  1  0.750000  0.757236  0.790704  1
  K  K4  1  0.250000  0.942686  0.601265  1
  K  K5  1  0.750000  0.057314  0.398735  1
  K  K6  1  0.250000  0.442686  0.898735  1
  K  K7  1  0.750000  0.557314  0.101265  1
  Ta  Ta8  1  0.250000  0.782894  0.008491  1
  Ta  Ta9  1  0.750000  0.217106  0.991509  1
  Ta  Ta10  1  0.250000  0.282894  0.491509  1
  Ta  Ta11  1  0.750000  0.717106  0.508491  1
  Ta  Ta12  1  0.250000  0.565723  0.647463  1
  Ta  Ta13  1  0.750000  0.434277  0.352537  1
  Ta  Ta14  1  0.250000  0.065723  0.852537  1
  Ta  Ta15  1  0.750000  0.934277  0.147463  1
  O  O16  1  0.999124  0.367463  0.428129  1
  O  O17  1  0.499124  0.632537  0.571871  1
  O  O18  1  0.500876  0.867463  0.071871  1
  O  O19  1  0.000876  0.132537  0.928129  1
  O  O20  1  0.000876  0.632537  0.571871  1
  O  O21  1  0.500876  0.367463  0.428129  1
  O  O22  1  0.499124  0.132537  0.928129  1
  O  O23  1  0.999124  0.867463  0.071871  1
  O  O24  1  0.250000  0.897037  0.905837  1
  O  O25  1  0.750000  0.102963  0.094163  1
  O  O26  1  0.250000  0.397037  0.594163  1
  O  O27  1  0.750000  0.602963  0.405837  1
  F  F28  1  0.250000  0.647560  0.104736  1
  F  F29  1  0.750000  0.352440  0.895264  1
  F  F30  1  0.250000  0.147560  0.395264  1
  F  F31  1  0.750000  0.852440  0.604736  1
  F  F32  1  0.750000  0.767008  0.214507  1
  F  F33  1  0.250000  0.232992  0.785493  1
  F  F34  1  0.750000  0.267008  0.285493  1
  F  F35  1  0.250000  0.732992  0.714507  1
  F  F36  1  0.985304  0.986968  0.239548  1
  F  F37  1  0.485304  0.013032  0.760452  1
  F  F38  1  0.514696  0.486968  0.260452  1
  F  F39  1  0.014696  0.513032  0.739548  1
  F  F40  1  0.014696  0.013032  0.760452  1
  F  F41  1  0.514696  0.986968  0.239548  1
  F  F42  1  0.485304  0.513032  0.739548  1
  F  F43  1  0.985304  0.486968  0.260452  1
  F  F44  1  0.983752  0.832638  0.447692  1
  F  F45  1  0.483752  0.167362  0.552308  1
  F  F46  1  0.516248  0.332638  0.052308  1
  F  F47  1  0.016248  0.667362  0.947692  1
  F  F48  1  0.016248  0.167362  0.552308  1
  F  F49  1  0.516248  0.832638  0.447692  1
  F  F50  1  0.483752  0.667362  0.947692  1
  F  F51  1  0.983752  0.332638  0.052308  1
