# generated using pymatgen
data_Ca4SmB3O10
_symmetry_space_group_name_H-M   'P 1'
_cell_length_a   9.05494636
_cell_length_b   9.05494636
_cell_length_c   3.60416138
_cell_angle_alpha   84.91633205
_cell_angle_beta   95.08366795
_cell_angle_gamma   53.60837770
_symmetry_Int_Tables_number   1
_chemical_formula_structural   Ca4SmB3O10
_chemical_formula_sum   'Ca4 Sm1 B3 O10'
_cell_volume   233.24409287
_cell_formula_units_Z   1
loop_
 _symmetry_equiv_pos_site_id
 _symmetry_equiv_pos_as_xyz
  1  'x, y, z'
loop_
 _atom_site_type_symbol
 _atom_site_label
 _atom_site_symmetry_multiplicity
 _atom_site_fract_x
 _atom_site_fract_y
 _atom_site_fract_z
 _atom_site_occupancy
  Ca  Ca0  1  0.551826  0.084480  0.338189  1
  Ca  Ca1  1  0.915520  0.448174  0.338189  1
  Ca  Ca2  1  0.470392  0.755557  0.669721  1
  Ca  Ca3  1  0.244443  0.529608  0.669721  1
  Sm  Sm4  1  0.999238  0.000762  0.997419  1
  B  B5  1  0.243434  0.146358  0.915948  1
  B  B6  1  0.853642  0.756566  0.915948  1
  B  B7  1  0.622368  0.377632  0.295892  1
  O  O8  1  0.796041  0.203959  0.391062  1
  O  O9  1  0.462125  0.388720  0.248429  1
  O  O10  1  0.174022  0.825978  0.577581  1
  O  O11  1  0.053850  0.233882  0.913747  1
  O  O12  1  0.766118  0.946150  0.913747  1
  O  O13  1  0.762292  0.698238  0.725717  1
  O  O14  1  0.301762  0.237708  0.725717  1
  O  O15  1  0.033385  0.623839  0.113232  1
  O  O16  1  0.376161  0.966615  0.113232  1
  O  O17  1  0.611280  0.537875  0.248429  1
