# generated using pymatgen
data_Al2Si(O2F)2
_symmetry_space_group_name_H-M   'P 1'
_cell_length_a   4.70801500
_cell_length_b   8.49746300
_cell_length_c   8.88879200
_cell_angle_alpha   90.00000000
_cell_angle_beta   90.00000000
_cell_angle_gamma   90.00000000
_symmetry_Int_Tables_number   1
_chemical_formula_structural   Al2Si(O2F)2
_chemical_formula_sum   'Al8 Si4 O16 F8'
_cell_volume   355.60664176
_cell_formula_units_Z   4
loop_
 _symmetry_equiv_pos_site_id
 _symmetry_equiv_pos_as_xyz
  1  'x, y, z'
loop_
 _atom_site_type_symbol
 _atom_site_label
 _atom_site_symmetry_multiplicity
 _atom_site_fract_x
 _atom_site_fract_y
 _atom_site_fract_z
 _atom_site_occupancy
  Al  Al0  1  0.097160  0.916758  0.130494  1
  Al  Al1  1  0.597160  0.083242  0.369506  1
  Al  Al2  1  0.902840  0.416758  0.869506  1
  Al  Al3  1  0.402840  0.583242  0.630494  1
  Al  Al4  1  0.597160  0.416758  0.369506  1
  Al  Al5  1  0.097160  0.583242  0.130494  1
  Al  Al6  1  0.402840  0.916758  0.630494  1
  Al  Al7  1  0.902840  0.083242  0.869506  1
  Si  Si8  1  0.603655  0.750000  0.939948  1
  Si  Si9  1  0.103655  0.250000  0.560052  1
  Si  Si10  1  0.396345  0.250000  0.060052  1
  Si  Si11  1  0.896345  0.750000  0.439948  1
  O  O12  1  0.459927  0.250000  0.244042  1
  O  O13  1  0.791576  0.592853  0.988517  1
  O  O14  1  0.708424  0.907147  0.488517  1
  O  O15  1  0.208424  0.092853  0.011483  1
  O  O16  1  0.959927  0.750000  0.255958  1
  O  O17  1  0.291576  0.407147  0.511483  1
  O  O18  1  0.040073  0.250000  0.744042  1
  O  O19  1  0.540073  0.750000  0.755958  1
  O  O20  1  0.708424  0.592853  0.488517  1
  O  O21  1  0.208424  0.407147  0.011483  1
  O  O22  1  0.291576  0.092853  0.511483  1
  O  O23  1  0.791576  0.907147  0.988517  1
  O  O24  1  0.201263  0.750000  0.532697  1
  O  O25  1  0.701263  0.250000  0.967303  1
  O  O26  1  0.798737  0.250000  0.467303  1
  O  O27  1  0.298737  0.750000  0.032697  1
  F  F28  1  0.098667  0.944322  0.752395  1
  F  F29  1  0.598667  0.055678  0.747605  1
  F  F30  1  0.598667  0.444322  0.747605  1
  F  F31  1  0.401333  0.555678  0.252395  1
  F  F32  1  0.901333  0.055678  0.247605  1
  F  F33  1  0.401333  0.944322  0.252395  1
  F  F34  1  0.098667  0.555678  0.752395  1
  F  F35  1  0.901333  0.444322  0.247605  1
