# generated using pymatgen
data_K6Na3GaSb4
_symmetry_space_group_name_H-M   'P 1'
_cell_length_a   10.29223614
_cell_length_b   10.29223614
_cell_length_c   10.60133523
_cell_angle_alpha   90.00000000
_cell_angle_beta   90.00000000
_cell_angle_gamma   120.00000000
_symmetry_Int_Tables_number   1
_chemical_formula_structural   K6Na3GaSb4
_chemical_formula_sum   'K12 Na6 Ga2 Sb8'
_cell_volume   972.54718979
_cell_formula_units_Z   2
loop_
 _symmetry_equiv_pos_site_id
 _symmetry_equiv_pos_as_xyz
  1  'x, y, z'
loop_
 _atom_site_type_symbol
 _atom_site_label
 _atom_site_symmetry_multiplicity
 _atom_site_fract_x
 _atom_site_fract_y
 _atom_site_fract_z
 _atom_site_occupancy
  K  K0  1  0.414052  0.207026  0.459465  1
  K  K1  1  0.792974  0.585948  0.040535  1
  K  K2  1  0.207026  0.414052  0.540535  1
  K  K3  1  0.585948  0.792974  0.959465  1
  K  K4  1  0.207026  0.414052  0.959465  1
  K  K5  1  0.207026  0.792974  0.959465  1
  K  K6  1  0.792974  0.585948  0.459465  1
  K  K7  1  0.207026  0.792974  0.540535  1
  K  K8  1  0.792974  0.207026  0.040535  1
  K  K9  1  0.585948  0.792974  0.540535  1
  K  K10  1  0.414052  0.207026  0.040535  1
  K  K11  1  0.792974  0.207026  0.459465  1
  Na  Na12  1  0.230443  0.115222  0.750000  1
  Na  Na13  1  0.884778  0.769557  0.750000  1
  Na  Na14  1  0.115222  0.884778  0.250000  1
  Na  Na15  1  0.769557  0.884778  0.250000  1
  Na  Na16  1  0.884778  0.115222  0.750000  1
  Na  Na17  1  0.115222  0.230443  0.250000  1
  Ga  Ga18  1  0.333333  0.666667  0.250000  1
  Ga  Ga19  1  0.666667  0.333333  0.750000  1
  Sb  Sb20  1  0.481548  0.963097  0.250000  1
  Sb  Sb21  1  0.518452  0.481548  0.750000  1
  Sb  Sb22  1  0.963097  0.481548  0.750000  1
  Sb  Sb23  1  0.036903  0.518452  0.250000  1
  Sb  Sb24  1  0.481548  0.518452  0.250000  1
  Sb  Sb25  1  0.518452  0.036903  0.750000  1
  Sb  Sb26  1  0.000000  0.000000  0.000000  1
  Sb  Sb27  1  0.000000  0.000000  0.500000  1
