# generated using pymatgen
data_NaTaGeO5
_symmetry_space_group_name_H-M   'P 1'
_cell_length_a   5.70294184
_cell_length_b   5.70294184
_cell_length_c   7.51781754
_cell_angle_alpha   74.72168330
_cell_angle_beta   105.27831670
_cell_angle_gamma   75.94725210
_symmetry_Int_Tables_number   1
_chemical_formula_structural   NaTaGeO5
_chemical_formula_sum   'Na2 Ta2 Ge2 O10'
_cell_volume   214.33680797
_cell_formula_units_Z   2
loop_
 _symmetry_equiv_pos_site_id
 _symmetry_equiv_pos_as_xyz
  1  'x, y, z'
loop_
 _atom_site_type_symbol
 _atom_site_label
 _atom_site_symmetry_multiplicity
 _atom_site_fract_x
 _atom_site_fract_y
 _atom_site_fract_z
 _atom_site_occupancy
  Na  Na0  1  0.675904  0.675904  0.750000  1
  Na  Na1  1  0.324096  0.324096  0.250000  1
  Ta  Ta2  1  0.000000  0.000000  0.500000  1
  Ta  Ta3  1  0.000000  0.000000  0.000000  1
  Ge  Ge4  1  0.680060  0.680060  0.250000  1
  Ge  Ge5  1  0.319940  0.319940  0.750000  1
  O  O6  1  0.063434  0.063434  0.250000  1
  O  O7  1  0.936566  0.936566  0.750000  1
  O  O8  1  0.297413  0.119022  0.606435  1
  O  O9  1  0.119022  0.297413  0.893565  1
  O  O10  1  0.702587  0.880978  0.393565  1
  O  O11  1  0.880978  0.702587  0.106435  1
  O  O12  1  0.754602  0.359855  0.404976  1
  O  O13  1  0.359855  0.754602  0.095024  1
  O  O14  1  0.245398  0.640145  0.595024  1
  O  O15  1  0.640145  0.245398  0.904976  1
