# generated using pymatgen
data_NdAlGe2O7
_symmetry_space_group_name_H-M   'P 1'
_cell_length_a   7.32912725
_cell_length_b   6.59616131
_cell_length_c   12.88719494
_cell_angle_alpha   90.00000000
_cell_angle_beta   117.73395985
_cell_angle_gamma   90.00000000
_symmetry_Int_Tables_number   1
_chemical_formula_structural   NdAlGe2O7
_chemical_formula_sum   'Nd4 Al4 Ge8 O28'
_cell_volume   551.44611007
_cell_formula_units_Z   4
loop_
 _symmetry_equiv_pos_site_id
 _symmetry_equiv_pos_as_xyz
  1  'x, y, z'
loop_
 _atom_site_type_symbol
 _atom_site_label
 _atom_site_symmetry_multiplicity
 _atom_site_fract_x
 _atom_site_fract_y
 _atom_site_fract_z
 _atom_site_occupancy
  Nd  Nd0  1  0.761786  0.852194  0.526885  1
  Nd  Nd1  1  0.238214  0.352194  0.973115  1
  Nd  Nd2  1  0.238214  0.147806  0.473115  1
  Nd  Nd3  1  0.761786  0.647806  0.026885  1
  Al  Al4  1  0.786398  0.601357  0.770544  1
  Al  Al5  1  0.786398  0.898643  0.270544  1
  Al  Al6  1  0.213602  0.398643  0.229456  1
  Al  Al7  1  0.213602  0.101357  0.729456  1
  Ge  Ge8  1  0.789860  0.158052  0.049802  1
  Ge  Ge9  1  0.302830  0.589241  0.719574  1
  Ge  Ge10  1  0.789860  0.341948  0.549802  1
  Ge  Ge11  1  0.210140  0.841948  0.950198  1
  Ge  Ge12  1  0.697170  0.410759  0.280426  1
  Ge  Ge13  1  0.302830  0.910759  0.219574  1
  Ge  Ge14  1  0.697170  0.089241  0.780426  1
  Ge  Ge15  1  0.210140  0.658052  0.450198  1
  O  O16  1  0.573071  0.620004  0.803453  1
  O  O17  1  0.426929  0.120004  0.696547  1
  O  O18  1  0.426929  0.379996  0.196547  1
  O  O19  1  0.573071  0.879996  0.303453  1
  O  O20  1  0.160034  0.817059  0.687309  1
  O  O21  1  0.839966  0.317059  0.812691  1
  O  O22  1  0.839966  0.182941  0.312691  1
  O  O23  1  0.160034  0.682941  0.187309  1
  O  O24  1  0.224322  0.382950  0.776570  1
  O  O25  1  0.775678  0.882950  0.723430  1
  O  O26  1  0.775678  0.617050  0.223430  1
  O  O27  1  0.224322  0.117050  0.276570  1
  O  O28  1  0.406731  0.826075  0.475626  1
  O  O29  1  0.593269  0.326075  0.024374  1
  O  O30  1  0.593269  0.173925  0.524374  1
  O  O31  1  0.406731  0.673925  0.975626  1
  O  O32  1  0.248944  0.998466  0.072856  1
  O  O33  1  0.751056  0.498466  0.427144  1
  O  O34  1  0.751056  0.001534  0.927144  1
  O  O35  1  0.248944  0.501534  0.572856  1
  O  O36  1  0.006339  0.659312  0.914831  1
  O  O37  1  0.993661  0.159312  0.585169  1
  O  O38  1  0.993661  0.340688  0.085169  1
  O  O39  1  0.006339  0.840688  0.414831  1
  O  O40  1  0.205357  0.051518  0.864671  1
  O  O41  1  0.794643  0.551518  0.635329  1
  O  O42  1  0.794643  0.948482  0.135329  1
  O  O43  1  0.205357  0.448482  0.364671  1
