# generated using pymatgen
data_Na2BeSiO4
_symmetry_space_group_name_H-M   'P 1'
_cell_length_a   4.96259500
_cell_length_b   9.96591100
_cell_length_c   14.00428000
_cell_angle_alpha   90.00000000
_cell_angle_beta   90.00000000
_cell_angle_gamma   90.00000000
_symmetry_Int_Tables_number   1
_chemical_formula_structural   Na2BeSiO4
_chemical_formula_sum   'Na16 Be8 Si8 O32'
_cell_volume   692.60659641
_cell_formula_units_Z   8
loop_
 _symmetry_equiv_pos_site_id
 _symmetry_equiv_pos_as_xyz
  1  'x, y, z'
loop_
 _atom_site_type_symbol
 _atom_site_label
 _atom_site_symmetry_multiplicity
 _atom_site_fract_x
 _atom_site_fract_y
 _atom_site_fract_z
 _atom_site_occupancy
  Na  Na0  1  0.971537  0.727835  0.699949  1
  Na  Na1  1  0.028463  0.272165  0.199949  1
  Na  Na2  1  0.028463  0.227835  0.699949  1
  Na  Na3  1  0.971537  0.772165  0.199949  1
  Na  Na4  1  0.468368  0.732512  0.831068  1
  Na  Na5  1  0.531632  0.267488  0.331068  1
  Na  Na6  1  0.531632  0.232512  0.831068  1
  Na  Na7  1  0.468368  0.767488  0.331068  1
  Na  Na8  1  0.477923  0.996990  0.957788  1
  Na  Na9  1  0.007877  0.010749  0.074488  1
  Na  Na10  1  0.992123  0.989251  0.574488  1
  Na  Na11  1  0.992123  0.510749  0.074488  1
  Na  Na12  1  0.522077  0.003010  0.457788  1
  Na  Na13  1  0.477923  0.503010  0.457788  1
  Na  Na14  1  0.522077  0.496990  0.957788  1
  Na  Na15  1  0.007877  0.489251  0.574488  1
  Be  Be16  1  0.992975  0.768222  0.449724  1
  Be  Be17  1  0.007025  0.231778  0.949724  1
  Be  Be18  1  0.007025  0.268222  0.449724  1
  Be  Be19  1  0.992975  0.731778  0.949724  1
  Be  Be20  1  0.473577  0.986298  0.705441  1
  Be  Be21  1  0.526423  0.013702  0.205441  1
  Be  Be22  1  0.526423  0.486298  0.705441  1
  Be  Be23  1  0.473577  0.513702  0.205441  1
  Si  Si24  1  0.974317  0.983209  0.825730  1
  Si  Si25  1  0.490912  0.766116  0.080002  1
  Si  Si26  1  0.509088  0.233884  0.580002  1
  Si  Si27  1  0.509088  0.266116  0.080002  1
  Si  Si28  1  0.490912  0.733884  0.580002  1
  Si  Si29  1  0.974317  0.516791  0.325730  1
  Si  Si30  1  0.025683  0.483209  0.825730  1
  Si  Si31  1  0.025683  0.016791  0.325730  1
  O  O32  1  0.119763  0.913844  0.412154  1
  O  O33  1  0.703417  0.511125  0.804105  1
  O  O34  1  0.296583  0.488875  0.304105  1
  O  O35  1  0.296583  0.011125  0.804105  1
  O  O36  1  0.703417  0.988875  0.304105  1
  O  O37  1  0.202008  0.513160  0.727997  1
  O  O38  1  0.797992  0.486840  0.227997  1
  O  O39  1  0.797992  0.013160  0.727997  1
  O  O40  1  0.202008  0.986840  0.227997  1
  O  O41  1  0.620483  0.592950  0.620930  1
  O  O42  1  0.379517  0.407050  0.120930  1
  O  O43  1  0.379517  0.092950  0.620930  1
  O  O44  1  0.620483  0.907050  0.120930  1
  O  O45  1  0.119763  0.586156  0.912154  1
  O  O46  1  0.880237  0.413844  0.412154  1
  O  O47  1  0.880237  0.086156  0.912154  1
  O  O48  1  0.226866  0.692679  0.514620  1
  O  O49  1  0.773134  0.307321  0.014620  1
  O  O50  1  0.773134  0.192679  0.514620  1
  O  O51  1  0.226866  0.807321  0.014620  1
  O  O52  1  0.724292  0.691821  0.015062  1
  O  O53  1  0.275708  0.308179  0.515062  1
  O  O54  1  0.275708  0.191821  0.015062  1
  O  O55  1  0.724292  0.808179  0.515062  1
  O  O56  1  0.914542  0.826145  0.857101  1
  O  O57  1  0.085458  0.173855  0.357101  1
  O  O58  1  0.085458  0.326145  0.857101  1
  O  O59  1  0.914542  0.673855  0.357101  1
  O  O60  1  0.402758  0.669132  0.169840  1
  O  O61  1  0.597242  0.169132  0.169840  1
  O  O62  1  0.597242  0.330868  0.669840  1
  O  O63  1  0.402758  0.830868  0.669840  1
