# generated using pymatgen
data_Ba5Er8Zn4O21
_symmetry_space_group_name_H-M   'P 1'
_cell_length_a   10.17599884
_cell_length_b   10.17599884
_cell_length_c   10.17599884
_cell_angle_alpha   94.53468445
_cell_angle_beta   94.53468445
_cell_angle_gamma   147.33863234
_symmetry_Int_Tables_number   1
_chemical_formula_structural   Ba5Er8Zn4O21
_chemical_formula_sum   'Ba5 Er8 Zn4 O21'
_cell_volume   545.72862903
_cell_formula_units_Z   1
loop_
 _symmetry_equiv_pos_site_id
 _symmetry_equiv_pos_as_xyz
  1  'x, y, z'
loop_
 _atom_site_type_symbol
 _atom_site_label
 _atom_site_symmetry_multiplicity
 _atom_site_fract_x
 _atom_site_fract_y
 _atom_site_fract_z
 _atom_site_occupancy
  Ba  Ba0  1  0.139927  0.464507  0.604435  1
  Ba  Ba1  1  0.535493  0.139927  0.675420  1
  Ba  Ba2  1  0.464507  0.860073  0.324580  1
  Ba  Ba3  1  0.860073  0.535493  0.395565  1
  Ba  Ba4  1  0.000000  0.000000  0.000000  1
  Er  Er5  1  0.358365  0.588762  0.947127  1
  Er  Er6  1  0.411238  0.358365  0.769603  1
  Er  Er7  1  0.588762  0.641635  0.230397  1
  Er  Er8  1  0.641635  0.411238  0.052873  1
  Er  Er9  1  0.168177  0.752481  0.920658  1
  Er  Er10  1  0.247519  0.168177  0.415696  1
  Er  Er11  1  0.752481  0.831823  0.584304  1
  Er  Er12  1  0.831823  0.247519  0.079342  1
  Zn  Zn13  1  0.249927  0.959411  0.209338  1
  Zn  Zn14  1  0.040589  0.249927  0.290516  1
  Zn  Zn15  1  0.959411  0.750073  0.709484  1
  Zn  Zn16  1  0.750073  0.040589  0.790662  1
  O  O17  1  0.505744  0.100400  0.107850  1
  O  O18  1  0.397894  0.505744  0.405345  1
  O  O19  1  0.100400  0.992550  0.594655  1
  O  O20  1  0.992550  0.397894  0.892150  1
  O  O21  1  0.494256  0.899600  0.892150  1
  O  O22  1  0.602106  0.494256  0.594655  1
  O  O23  1  0.899600  0.007450  0.405345  1
  O  O24  1  0.007450  0.602106  0.107850  1
  O  O25  1  0.700781  0.926520  0.129140  1
  O  O26  1  0.571641  0.700781  0.774261  1
  O  O27  1  0.926520  0.797380  0.225739  1
  O  O28  1  0.797380  0.571641  0.870860  1
  O  O29  1  0.299219  0.073480  0.870860  1
  O  O30  1  0.428359  0.299219  0.225739  1
  O  O31  1  0.073480  0.202620  0.774261  1
  O  O32  1  0.202620  0.428359  0.129140  1
  O  O33  1  0.961194  0.371017  0.332211  1
  O  O34  1  0.500000  0.500000  0.000000  1
  O  O35  1  0.038806  0.628983  0.667789  1
  O  O36  1  0.371017  0.038806  0.409823  1
  O  O37  1  0.628983  0.961194  0.590177  1
