# generated using pymatgen
data_Ba5Ho8Zn4O21
_symmetry_space_group_name_H-M   'P 1'
_cell_length_a   10.20909243
_cell_length_b   10.20909243
_cell_length_c   10.20909243
_cell_angle_alpha   94.53245328
_cell_angle_beta   94.53245328
_cell_angle_gamma   147.34687600
_symmetry_Int_Tables_number   1
_chemical_formula_structural   Ba5Ho8Zn4O21
_chemical_formula_sum   'Ba5 Ho8 Zn4 O21'
_cell_volume   550.95821021
_cell_formula_units_Z   1
loop_
 _symmetry_equiv_pos_site_id
 _symmetry_equiv_pos_as_xyz
  1  'x, y, z'
loop_
 _atom_site_type_symbol
 _atom_site_label
 _atom_site_symmetry_multiplicity
 _atom_site_fract_x
 _atom_site_fract_y
 _atom_site_fract_z
 _atom_site_occupancy
  Ba  Ba0  1  0.139554  0.464642  0.604196  1
  Ba  Ba1  1  0.535358  0.139554  0.674912  1
  Ba  Ba2  1  0.464642  0.860446  0.325088  1
  Ba  Ba3  1  0.860446  0.535358  0.395804  1
  Ba  Ba4  1  0.000000  0.000000  0.000000  1
  Ho  Ho5  1  0.358074  0.588686  0.946760  1
  Ho  Ho6  1  0.411314  0.358074  0.769388  1
  Ho  Ho7  1  0.588686  0.641926  0.230612  1
  Ho  Ho8  1  0.641926  0.411314  0.053240  1
  Ho  Ho9  1  0.168082  0.752593  0.920676  1
  Ho  Ho10  1  0.247407  0.168082  0.415489  1
  Ho  Ho11  1  0.752593  0.831918  0.584511  1
  Ho  Ho12  1  0.831918  0.247407  0.079324  1
  Zn  Zn13  1  0.250334  0.959484  0.209818  1
  Zn  Zn14  1  0.040516  0.250334  0.290850  1
  Zn  Zn15  1  0.959484  0.749666  0.709150  1
  Zn  Zn16  1  0.749666  0.040516  0.790182  1
  O  O17  1  0.505519  0.100004  0.108508  1
  O  O18  1  0.397011  0.505519  0.405515  1
  O  O19  1  0.100004  0.991495  0.594485  1
  O  O20  1  0.991495  0.397011  0.891492  1
  O  O21  1  0.494481  0.899996  0.891492  1
  O  O22  1  0.602989  0.494481  0.594485  1
  O  O23  1  0.899996  0.008505  0.405515  1
  O  O24  1  0.008505  0.602989  0.108508  1
  O  O25  1  0.701391  0.927139  0.129494  1
  O  O26  1  0.571897  0.701391  0.774252  1
  O  O27  1  0.927139  0.797645  0.225748  1
  O  O28  1  0.797645  0.571897  0.870506  1
  O  O29  1  0.298609  0.072861  0.870506  1
  O  O30  1  0.428103  0.298609  0.225748  1
  O  O31  1  0.072861  0.202355  0.774252  1
  O  O32  1  0.202355  0.428103  0.129494  1
  O  O33  1  0.961923  0.371513  0.333436  1
  O  O34  1  0.500000  0.500000  0.000000  1
  O  O35  1  0.038077  0.628487  0.666564  1
  O  O36  1  0.371513  0.038077  0.409590  1
  O  O37  1  0.628487  0.961923  0.590410  1
