# generated using pymatgen
data_BaCa2(PN2)6
_symmetry_space_group_name_H-M   'P 1'
_cell_length_a   10.01648646
_cell_length_b   10.01648646
_cell_length_c   10.01648646
_cell_angle_alpha   90.00000000
_cell_angle_beta   90.00000000
_cell_angle_gamma   90.00000000
_symmetry_Int_Tables_number   1
_chemical_formula_structural   BaCa2(PN2)6
_chemical_formula_sum   'Ba4 Ca8 P24 N48'
_cell_volume   1004.95409658
_cell_formula_units_Z   4
loop_
 _symmetry_equiv_pos_site_id
 _symmetry_equiv_pos_as_xyz
  1  'x, y, z'
loop_
 _atom_site_type_symbol
 _atom_site_label
 _atom_site_symmetry_multiplicity
 _atom_site_fract_x
 _atom_site_fract_y
 _atom_site_fract_z
 _atom_site_occupancy
  Ba  Ba0  1  0.000000  0.500000  0.500000  1
  Ba  Ba1  1  0.500000  0.500000  0.000000  1
  Ba  Ba2  1  0.500000  0.000000  0.500000  1
  Ba  Ba3  1  0.000000  0.000000  0.000000  1
  Ca  Ca4  1  0.375091  0.124909  0.875091  1
  Ca  Ca5  1  0.124909  0.875091  0.375091  1
  Ca  Ca6  1  0.875091  0.375091  0.124909  1
  Ca  Ca7  1  0.624909  0.624909  0.624909  1
  Ca  Ca8  1  0.624909  0.875091  0.124909  1
  Ca  Ca9  1  0.875091  0.124909  0.624909  1
  Ca  Ca10  1  0.124909  0.624909  0.875091  1
  Ca  Ca11  1  0.375091  0.375091  0.375091  1
  P  P12  1  0.689888  0.346718  0.380463  1
  P  P13  1  0.189888  0.153282  0.619537  1
  P  P14  1  0.310112  0.846718  0.119537  1
  P  P15  1  0.153282  0.619537  0.189888  1
  P  P16  1  0.119537  0.310112  0.846718  1
  P  P17  1  0.619537  0.189888  0.153282  1
  P  P18  1  0.346718  0.380463  0.689888  1
  P  P19  1  0.380463  0.689888  0.346718  1
  P  P20  1  0.846718  0.119537  0.310112  1
  P  P21  1  0.653282  0.880463  0.810112  1
  P  P22  1  0.880463  0.810112  0.653282  1
  P  P23  1  0.810112  0.653282  0.880463  1
  P  P24  1  0.310112  0.653282  0.619537  1
  P  P25  1  0.810112  0.846718  0.380463  1
  P  P26  1  0.689888  0.153282  0.880463  1
  P  P27  1  0.846718  0.380463  0.810112  1
  P  P28  1  0.880463  0.689888  0.153282  1
  P  P29  1  0.380463  0.810112  0.846718  1
  P  P30  1  0.653282  0.619537  0.310112  1
  P  P31  1  0.619537  0.310112  0.653282  1
  P  P32  1  0.153282  0.880463  0.689888  1
  P  P33  1  0.346718  0.119537  0.189888  1
  P  P34  1  0.119537  0.189888  0.346718  1
  P  P35  1  0.189888  0.346718  0.119537  1
  N  N36  1  0.715134  0.506969  0.411471  1
  N  N37  1  0.215134  0.993031  0.588529  1
  N  N38  1  0.284866  0.006969  0.088529  1
  N  N39  1  0.993031  0.588529  0.215134  1
  N  N40  1  0.088529  0.284866  0.006969  1
  N  N41  1  0.588529  0.215134  0.993031  1
  N  N42  1  0.506969  0.411471  0.715134  1
  N  N43  1  0.411471  0.715134  0.506969  1
  N  N44  1  0.006969  0.088529  0.284866  1
  N  N45  1  0.493031  0.911471  0.784866  1
  N  N46  1  0.911471  0.784866  0.493031  1
  N  N47  1  0.784866  0.493031  0.911471  1
  N  N48  1  0.284866  0.493031  0.588529  1
  N  N49  1  0.784866  0.006969  0.411471  1
  N  N50  1  0.715134  0.993031  0.911471  1
  N  N51  1  0.006969  0.411471  0.784866  1
  N  N52  1  0.911471  0.715134  0.993031  1
  N  N53  1  0.411471  0.784866  0.006969  1
  N  N54  1  0.493031  0.588529  0.284866  1
  N  N55  1  0.588529  0.284866  0.493031  1
  N  N56  1  0.165480  0.731056  0.621097  1
  N  N57  1  0.993031  0.911471  0.715134  1
  N  N58  1  0.088529  0.215134  0.506969  1
  N  N59  1  0.215134  0.506969  0.088529  1
  N  N60  1  0.834520  0.268944  0.378903  1
  N  N61  1  0.334520  0.231056  0.621097  1
  N  N62  1  0.165480  0.768944  0.121097  1
  N  N63  1  0.231056  0.621097  0.334520  1
  N  N64  1  0.121097  0.165480  0.768944  1
  N  N65  1  0.621097  0.334520  0.231056  1
  N  N66  1  0.268944  0.378903  0.834520  1
  N  N67  1  0.378903  0.834520  0.268944  1
  N  N68  1  0.768944  0.121097  0.165480  1
  N  N69  1  0.731056  0.878903  0.665480  1
  N  N70  1  0.878903  0.665480  0.731056  1
  N  N71  1  0.665480  0.731056  0.878903  1
  N  N72  1  0.334520  0.268944  0.121097  1
  N  N73  1  0.121097  0.334520  0.268944  1
  N  N74  1  0.268944  0.121097  0.334520  1
  N  N75  1  0.231056  0.878903  0.834520  1
  N  N76  1  0.621097  0.165480  0.731056  1
  N  N77  1  0.731056  0.621097  0.165480  1
  N  N78  1  0.378903  0.665480  0.768944  1
  N  N79  1  0.878903  0.834520  0.231056  1
  N  N80  1  0.768944  0.378903  0.665480  1
  N  N81  1  0.834520  0.231056  0.878903  1
  N  N82  1  0.665480  0.768944  0.378903  1
  N  N83  1  0.506969  0.088529  0.215134  1
