# generated using pymatgen
data_Ho4Si2S3O7
_symmetry_space_group_name_H-M   'P 1'
_cell_length_a   10.71719864
_cell_length_b   10.71719864
_cell_length_c   10.71719864
_cell_angle_alpha   113.83848115
_cell_angle_beta   113.83848115
_cell_angle_gamma   101.05087685
_symmetry_Int_Tables_number   1
_chemical_formula_structural   Ho4Si2S3O7
_chemical_formula_sum   'Ho16 Si8 S12 O28'
_cell_volume   932.56735956
_cell_formula_units_Z   4
loop_
 _symmetry_equiv_pos_site_id
 _symmetry_equiv_pos_as_xyz
  1  'x, y, z'
loop_
 _atom_site_type_symbol
 _atom_site_label
 _atom_site_symmetry_multiplicity
 _atom_site_fract_x
 _atom_site_fract_y
 _atom_site_fract_z
 _atom_site_occupancy
  Ho  Ho0  1  0.172315  0.827685  0.000000  1
  Ho  Ho1  1  0.577685  0.077685  0.155370  1
  Ho  Ho2  1  0.922315  0.422315  0.844630  1
  Ho  Ho3  1  0.827685  0.172315  0.000000  1
  Ho  Ho4  1  0.577685  0.422315  0.500000  1
  Ho  Ho5  1  0.172315  0.172315  0.344630  1
  Ho  Ho6  1  0.827685  0.827685  0.655370  1
  Ho  Ho7  1  0.922315  0.077685  0.500000  1
  Ho  Ho8  1  0.230766  0.466317  0.764449  1
  Ho  Ho9  1  0.701867  0.466317  0.235551  1
  Ho  Ho10  1  0.533683  0.298133  0.764449  1
  Ho  Ho11  1  0.216317  0.480766  0.264449  1
  Ho  Ho12  1  0.216317  0.951867  0.735551  1
  Ho  Ho13  1  0.048133  0.783683  0.264449  1
  Ho  Ho14  1  0.519234  0.783683  0.735551  1
  Ho  Ho15  1  0.533683  0.769234  0.235551  1
  Si  Si16  1  0.095621  0.220730  0.874891  1
  Si  Si17  1  0.345839  0.220730  0.125109  1
  Si  Si18  1  0.779270  0.654161  0.874891  1
  Si  Si19  1  0.970730  0.345622  0.374891  1
  Si  Si20  1  0.970730  0.595839  0.625109  1
  Si  Si21  1  0.404161  0.029270  0.374891  1
  Si  Si22  1  0.654379  0.029270  0.625109  1
  Si  Si23  1  0.779270  0.904379  0.125109  1
  S  S24  1  0.229083  0.625000  0.104083  1
  S  S25  1  0.375000  0.770917  0.895917  1
  S  S26  1  0.875000  0.479083  0.104083  1
  S  S27  1  0.520917  0.125000  0.895917  1
  S  S28  1  0.520917  0.625000  0.395917  1
  S  S29  1  0.375000  0.479083  0.604083  1
  S  S30  1  0.875000  0.770917  0.395917  1
  S  S31  1  0.229083  0.125000  0.604083  1
  S  S32  1  0.250000  0.750000  0.500000  1
  S  S33  1  0.500000  0.500000  0.000000  1
  S  S34  1  0.000000  0.000000  0.000000  1
  S  S35  1  0.750000  0.250000  0.500000  1
  O  O36  1  0.065868  0.299008  0.766860  1
  O  O37  1  0.532147  0.299008  0.233140  1
  O  O38  1  0.700992  0.467853  0.766860  1
  O  O39  1  0.049008  0.315868  0.266860  1
  O  O40  1  0.049008  0.782147  0.733140  1
  O  O41  1  0.217853  0.950992  0.266860  1
  O  O42  1  0.684132  0.950992  0.733140  1
  O  O43  1  0.700992  0.934132  0.233140  1
  O  O44  1  0.274567  0.274567  0.000000  1
  O  O45  1  0.024567  0.524567  0.500000  1
  O  O46  1  0.475433  0.975433  0.500000  1
  O  O47  1  0.725433  0.725433  0.000000  1
  O  O48  1  0.724986  0.207564  0.765221  1
  O  O49  1  0.442343  0.959765  0.234779  1
  O  O50  1  0.040235  0.557657  0.765221  1
  O  O51  1  0.709765  0.974986  0.017422  1
  O  O52  1  0.957564  0.692343  0.982578  1
  O  O53  1  0.307657  0.042436  0.017422  1
  O  O54  1  0.025014  0.290235  0.982578  1
  O  O55  1  0.792436  0.275014  0.234779  1
  O  O56  1  0.025014  0.042436  0.734779  1
  O  O57  1  0.307657  0.290235  0.265221  1
  O  O58  1  0.709765  0.692343  0.734779  1
  O  O59  1  0.040235  0.275014  0.482578  1
  O  O60  1  0.792436  0.557657  0.517422  1
  O  O61  1  0.442343  0.207564  0.482578  1
  O  O62  1  0.724986  0.959765  0.517422  1
  O  O63  1  0.957564  0.974986  0.265221  1
