# generated using pymatgen
data_TlSnPS4
_symmetry_space_group_name_H-M   'P 1'
_cell_length_a   6.79843854
_cell_length_b   8.95834409
_cell_length_c   12.22810690
_cell_angle_alpha   90.00000000
_cell_angle_beta   90.00000000
_cell_angle_gamma   90.00000000
_symmetry_Int_Tables_number   1
_chemical_formula_structural   TlSnPS4
_chemical_formula_sum   'Tl4 Sn4 P4 S16'
_cell_volume   744.72535849
_cell_formula_units_Z   4
loop_
 _symmetry_equiv_pos_site_id
 _symmetry_equiv_pos_as_xyz
  1  'x, y, z'
loop_
 _atom_site_type_symbol
 _atom_site_label
 _atom_site_symmetry_multiplicity
 _atom_site_fract_x
 _atom_site_fract_y
 _atom_site_fract_z
 _atom_site_occupancy
  Tl  Tl0  1  0.997620  0.632124  0.109855  1
  Tl  Tl1  1  0.497620  0.367876  0.890145  1
  Tl  Tl2  1  0.997620  0.867876  0.609855  1
  Tl  Tl3  1  0.497620  0.132124  0.390145  1
  Sn  Sn4  1  0.047148  0.114586  0.129361  1
  Sn  Sn5  1  0.547148  0.885414  0.870639  1
  Sn  Sn6  1  0.047148  0.385414  0.629361  1
  Sn  Sn7  1  0.547148  0.614586  0.370639  1
  P  P8  1  0.976500  0.131244  0.845149  1
  P  P9  1  0.476500  0.868756  0.154851  1
  P  P10  1  0.976500  0.368756  0.345149  1
  P  P11  1  0.476500  0.631244  0.654851  1
  S  S12  1  0.993309  0.196688  0.457329  1
  S  S13  1  0.493309  0.803312  0.542671  1
  S  S14  1  0.993309  0.303312  0.957329  1
  S  S15  1  0.493309  0.696688  0.042671  1
  S  S16  1  0.724177  0.866585  0.251422  1
  S  S17  1  0.224177  0.133415  0.748578  1
  S  S18  1  0.724177  0.633415  0.751422  1
  S  S19  1  0.224177  0.366585  0.248578  1
  S  S20  1  0.951316  0.931427  0.929671  1
  S  S21  1  0.451316  0.068573  0.070329  1
  S  S22  1  0.951316  0.568573  0.429671  1
  S  S23  1  0.451316  0.431427  0.570329  1
  S  S24  1  0.241331  0.843843  0.256290  1
  S  S25  1  0.741331  0.156157  0.743710  1
  S  S26  1  0.241331  0.656157  0.756290  1
  S  S27  1  0.741331  0.343843  0.243710  1
