# generated using pymatgen
data_NaNd(SO4)2
_symmetry_space_group_name_H-M   'P 1'
_cell_length_a   6.38013218
_cell_length_b   7.02654246
_cell_length_c   7.21977135
_cell_angle_alpha   99.29153216
_cell_angle_beta   96.24330605
_cell_angle_gamma   90.96090708
_symmetry_Int_Tables_number   1
_chemical_formula_structural   NaNd(SO4)2
_chemical_formula_sum   'Na2 Nd2 S4 O16'
_cell_volume   317.32877553
_cell_formula_units_Z   2
loop_
 _symmetry_equiv_pos_site_id
 _symmetry_equiv_pos_as_xyz
  1  'x, y, z'
loop_
 _atom_site_type_symbol
 _atom_site_label
 _atom_site_symmetry_multiplicity
 _atom_site_fract_x
 _atom_site_fract_y
 _atom_site_fract_z
 _atom_site_occupancy
  Na  Na0  1  0.944197  0.306034  0.712279  1
  Na  Na1  1  0.055803  0.693966  0.287721  1
  Nd  Nd2  1  0.363072  0.195169  0.204893  1
  Nd  Nd3  1  0.636928  0.804831  0.795107  1
  S  S4  1  0.869097  0.182331  0.213818  1
  S  S5  1  0.130903  0.817669  0.786182  1
  S  S6  1  0.441173  0.286174  0.715185  1
  S  S7  1  0.558827  0.713826  0.284815  1
  O  O8  1  0.592624  0.455566  0.747500  1
  O  O9  1  0.407376  0.544434  0.252500  1
  O  O10  1  0.293633  0.288876  0.540379  1
  O  O11  1  0.706367  0.711124  0.459621  1
  O  O12  1  0.755029  0.256669  0.377034  1
  O  O13  1  0.244971  0.743331  0.622966  1
  O  O14  1  0.999619  0.337389  0.157079  1
  O  O15  1  0.000381  0.662611  0.842921  1
  O  O16  1  0.981241  0.970898  0.749565  1
  O  O17  1  0.018759  0.029102  0.250435  1
  O  O18  1  0.301697  0.895287  0.942704  1
  O  O19  1  0.698303  0.104713  0.057296  1
  O  O20  1  0.685117  0.706708  0.122605  1
  O  O21  1  0.314883  0.293292  0.877395  1
  O  O22  1  0.433836  0.890410  0.309302  1
  O  O23  1  0.566164  0.109590  0.690698  1
