# generated using pymatgen
data_Sr2TbRuO6
_symmetry_space_group_name_H-M   'P 1'
_cell_length_a   5.82291124
_cell_length_b   5.89708095
_cell_length_c   10.07661632
_cell_angle_alpha   90.00000000
_cell_angle_beta   124.87591063
_cell_angle_gamma   90.00000000
_symmetry_Int_Tables_number   1
_chemical_formula_structural   Sr2TbRuO6
_chemical_formula_sum   'Sr4 Tb2 Ru2 O12'
_cell_volume   283.86613702
_cell_formula_units_Z   2
loop_
 _symmetry_equiv_pos_site_id
 _symmetry_equiv_pos_as_xyz
  1  'x, y, z'
loop_
 _atom_site_type_symbol
 _atom_site_label
 _atom_site_symmetry_multiplicity
 _atom_site_fract_x
 _atom_site_fract_y
 _atom_site_fract_z
 _atom_site_occupancy
  Sr  Sr0  1  0.759749  0.461667  0.750606  1
  Sr  Sr1  1  0.240251  0.961667  0.749394  1
  Sr  Sr2  1  0.759749  0.038333  0.250606  1
  Sr  Sr3  1  0.240251  0.538333  0.249394  1
  Tb  Tb4  1  0.500000  0.500000  0.000000  1
  Tb  Tb5  1  0.500000  0.000000  0.500000  1
  Ru  Ru6  1  0.000000  0.000000  0.000000  1
  Ru  Ru7  1  0.000000  0.500000  0.500000  1
  O  O8  1  0.231010  0.197788  0.960256  1
  O  O9  1  0.768990  0.697788  0.539744  1
  O  O10  1  0.768990  0.802212  0.039744  1
  O  O11  1  0.231010  0.302212  0.460256  1
  O  O12  1  0.152212  0.728017  0.957549  1
  O  O13  1  0.847788  0.228017  0.542451  1
  O  O14  1  0.847788  0.271983  0.042451  1
  O  O15  1  0.152212  0.771983  0.457549  1
  O  O16  1  0.310389  0.521288  0.733203  1
  O  O17  1  0.689611  0.021288  0.766797  1
  O  O18  1  0.689611  0.478712  0.266797  1
  O  O19  1  0.310389  0.978712  0.233203  1
