# generated using pymatgen
data_KBe2BO3F2
_symmetry_space_group_name_H-M   'P 1'
_cell_length_a   6.97543521
_cell_length_b   6.97543521
_cell_length_c   6.97543521
_cell_angle_alpha   37.25187922
_cell_angle_beta   37.25187922
_cell_angle_gamma   37.25187922
_symmetry_Int_Tables_number   1
_chemical_formula_structural   KBe2BO3F2
_chemical_formula_sum   'K1 Be2 B1 O3 F2'
_cell_volume   111.47990821
_cell_formula_units_Z   1
loop_
 _symmetry_equiv_pos_site_id
 _symmetry_equiv_pos_as_xyz
  1  'x, y, z'
loop_
 _atom_site_type_symbol
 _atom_site_label
 _atom_site_symmetry_multiplicity
 _atom_site_fract_x
 _atom_site_fract_y
 _atom_site_fract_z
 _atom_site_occupancy
  K  K0  1  0.000000  0.000000  0.000000  1
  Be  Be1  1  0.803681  0.803681  0.803681  1
  Be  Be2  1  0.196319  0.196319  0.196319  1
  B  B3  1  0.500000  0.500000  0.500000  1
  O  O4  1  0.809441  0.190559  0.500000  1
  O  O5  1  0.500000  0.809441  0.190559  1
  O  O6  1  0.190559  0.500000  0.809441  1
  F  F7  1  0.724328  0.724328  0.724328  1
  F  F8  1  0.275672  0.275672  0.275672  1
