# generated using pymatgen
data_Mg4P6SN12
_symmetry_space_group_name_H-M   'P 1'
_cell_length_a   7.22610479
_cell_length_b   7.22610479
_cell_length_c   7.22610479
_cell_angle_alpha   109.47122063
_cell_angle_beta   109.47122063
_cell_angle_gamma   109.47122063
_symmetry_Int_Tables_number   1
_chemical_formula_structural   Mg4P6SN12
_chemical_formula_sum   'Mg4 P6 S1 N12'
_cell_volume   290.46303792
_cell_formula_units_Z   1
loop_
 _symmetry_equiv_pos_site_id
 _symmetry_equiv_pos_as_xyz
  1  'x, y, z'
loop_
 _atom_site_type_symbol
 _atom_site_label
 _atom_site_symmetry_multiplicity
 _atom_site_fract_x
 _atom_site_fract_y
 _atom_site_fract_z
 _atom_site_occupancy
  Mg  Mg0  1  0.342393  0.342393  0.342393  1
  Mg  Mg1  1  1.000000  1.000000  0.657607  1
  Mg  Mg2  1  1.000000  0.657607  1.000000  1
  Mg  Mg3  1  0.657607  1.000000  0.000000  1
  P  P4  1  0.750000  0.500000  0.250000  1
  P  P5  1  0.250000  0.500000  0.750000  1
  P  P6  1  0.500000  0.750000  0.250000  1
  P  P7  1  0.750000  0.250000  0.500000  1
  P  P8  1  0.250000  0.750000  0.500000  1
  P  P9  1  0.500000  0.250000  0.750000  1
  S  S10  1  0.000000  0.000000  0.000000  1
  N  N11  1  0.439256  1.000000  0.725330  1
  N  N12  1  0.274670  0.274670  0.713926  1
  N  N13  1  0.560744  0.286074  0.560744  1
  N  N14  1  0.286074  0.560744  0.560744  1
  N  N15  1  0.560744  0.560744  0.286074  1
  N  N16  1  0.439256  0.725330  0.000000  1
  N  N17  1  0.725330  0.439256  1.000000  1
  N  N18  1  1.000000  0.725330  0.439256  1
  N  N19  1  0.713926  0.274670  0.274670  1
  N  N20  1  0.274670  0.713926  0.274670  1
  N  N21  1  0.725330  1.000000  0.439256  1
  N  N22  1  1.000000  0.439256  0.725330  1
