# generated using pymatgen
data_Tl2Cd2(SO4)3
_symmetry_space_group_name_H-M   'P 1'
_cell_length_a   10.59570263
_cell_length_b   10.59570263
_cell_length_c   10.59570263
_cell_angle_alpha   90.00000000
_cell_angle_beta   90.00000000
_cell_angle_gamma   90.00000000
_symmetry_Int_Tables_number   1
_chemical_formula_structural   Tl2Cd2(SO4)3
_chemical_formula_sum   'Tl8 Cd8 S12 O48'
_cell_volume   1189.56802970
_cell_formula_units_Z   4
loop_
 _symmetry_equiv_pos_site_id
 _symmetry_equiv_pos_as_xyz
  1  'x, y, z'
loop_
 _atom_site_type_symbol
 _atom_site_label
 _atom_site_symmetry_multiplicity
 _atom_site_fract_x
 _atom_site_fract_y
 _atom_site_fract_z
 _atom_site_occupancy
  Tl  Tl0  1  0.053034  0.053034  0.053034  1
  Tl  Tl1  1  0.946966  0.553034  0.446966  1
  Tl  Tl2  1  0.553034  0.446966  0.946966  1
  Tl  Tl3  1  0.446966  0.946966  0.553034  1
  Tl  Tl4  1  0.815987  0.815987  0.815987  1
  Tl  Tl5  1  0.315987  0.684013  0.184013  1
  Tl  Tl6  1  0.684013  0.184013  0.315987  1
  Tl  Tl7  1  0.184013  0.315987  0.684013  1
  Cd  Cd8  1  0.413451  0.086549  0.913451  1
  Cd  Cd9  1  0.086549  0.913451  0.413451  1
  Cd  Cd10  1  0.913451  0.413451  0.086549  1
  Cd  Cd11  1  0.586549  0.586549  0.586549  1
  Cd  Cd12  1  0.669843  0.830157  0.169843  1
  Cd  Cd13  1  0.830157  0.169843  0.669843  1
  Cd  Cd14  1  0.169843  0.669843  0.830157  1
  Cd  Cd15  1  0.330157  0.330157  0.330157  1
  S  S16  1  0.225991  0.374996  0.013840  1
  S  S17  1  0.725991  0.125004  0.986160  1
  S  S18  1  0.774009  0.874996  0.486160  1
  S  S19  1  0.125004  0.986160  0.725991  1
  S  S20  1  0.486160  0.774009  0.874996  1
  S  S21  1  0.986160  0.725991  0.125004  1
  S  S22  1  0.374996  0.013840  0.225991  1
  S  S23  1  0.013840  0.225991  0.374996  1
  S  S24  1  0.874996  0.486160  0.774009  1
  S  S25  1  0.625004  0.513840  0.274009  1
  S  S26  1  0.513840  0.274009  0.625004  1
  S  S27  1  0.274009  0.625004  0.513840  1
  O  O28  1  0.255346  0.416007  0.145474  1
  O  O29  1  0.755346  0.083993  0.854526  1
  O  O30  1  0.744654  0.916007  0.354526  1
  O  O31  1  0.083993  0.854526  0.755346  1
  O  O32  1  0.354526  0.744654  0.916007  1
  O  O33  1  0.854526  0.755346  0.083993  1
  O  O34  1  0.416007  0.145474  0.255346  1
  O  O35  1  0.145474  0.255346  0.416007  1
  O  O36  1  0.916007  0.354526  0.744654  1
  O  O37  1  0.583993  0.645474  0.244654  1
  O  O38  1  0.645474  0.244654  0.583993  1
  O  O39  1  0.244654  0.583993  0.645474  1
  O  O40  1  0.238488  0.485916  0.928675  1
  O  O41  1  0.738488  0.014084  0.071325  1
  O  O42  1  0.761512  0.985916  0.571325  1
  O  O43  1  0.014084  0.071325  0.738488  1
  O  O44  1  0.571325  0.761512  0.985916  1
  O  O45  1  0.071325  0.738488  0.014084  1
  O  O46  1  0.492683  0.905597  0.822652  1
  O  O47  1  0.485916  0.928675  0.238488  1
  O  O48  1  0.985916  0.571325  0.761512  1
  O  O49  1  0.514084  0.428675  0.261512  1
  O  O50  1  0.428675  0.261512  0.514084  1
  O  O51  1  0.261512  0.514084  0.428675  1
  O  O52  1  0.094403  0.322652  0.007317  1
  O  O53  1  0.594403  0.177348  0.992683  1
  O  O54  1  0.905597  0.822652  0.492683  1
  O  O55  1  0.177348  0.992683  0.594403  1
  O  O56  1  0.183965  0.723203  0.470984  1
  O  O57  1  0.470984  0.183965  0.723203  1
  O  O58  1  0.723203  0.470984  0.183965  1
  O  O59  1  0.776797  0.529016  0.683965  1
  O  O60  1  0.970984  0.316035  0.276797  1
  O  O61  1  0.276797  0.970984  0.316035  1
  O  O62  1  0.029016  0.816035  0.223203  1
  O  O63  1  0.529016  0.683965  0.776797  1
  O  O64  1  0.223203  0.029016  0.816035  1
  O  O65  1  0.683965  0.776797  0.529016  1
  O  O66  1  0.816035  0.223203  0.029016  1
  O  O67  1  0.316035  0.276797  0.970984  1
  O  O68  1  0.405597  0.677348  0.507317  1
  O  O69  1  0.507317  0.405597  0.677348  1
  O  O70  1  0.677348  0.507317  0.405597  1
  O  O71  1  0.822652  0.492683  0.905597  1
  O  O72  1  0.007317  0.094403  0.322652  1
  O  O73  1  0.322652  0.007317  0.094403  1
  O  O74  1  0.992683  0.594403  0.177348  1
  O  O75  1  0.928675  0.238488  0.485916  1
