# generated using pymatgen
data_Ba3B(PO4)3
_symmetry_space_group_name_H-M   'P 1'
_cell_length_a   13.90258458
_cell_length_b   13.90258458
_cell_length_c   13.90258458
_cell_angle_alpha   150.00648048
_cell_angle_beta   117.23893692
_cell_angle_gamma   71.10806763
_symmetry_Int_Tables_number   1
_chemical_formula_structural   Ba3B(PO4)3
_chemical_formula_sum   'Ba12 B4 P12 O48'
_cell_volume   1178.28049947
_cell_formula_units_Z   4
loop_
 _symmetry_equiv_pos_site_id
 _symmetry_equiv_pos_as_xyz
  1  'x, y, z'
loop_
 _atom_site_type_symbol
 _atom_site_label
 _atom_site_symmetry_multiplicity
 _atom_site_fract_x
 _atom_site_fract_y
 _atom_site_fract_z
 _atom_site_occupancy
  Ba  Ba0  1  0.930688  0.750000  0.180688  1
  Ba  Ba1  1  0.569312  0.250000  0.319312  1
  Ba  Ba2  1  0.069312  0.250000  0.819312  1
  Ba  Ba3  1  0.430688  0.750000  0.680688  1
  Ba  Ba4  1  0.288922  0.826553  0.263574  1
  Ba  Ba5  1  0.211078  0.974652  0.037631  1
  Ba  Ba6  1  0.937021  0.673447  0.462369  1
  Ba  Ba7  1  0.562979  0.525348  0.236426  1
  Ba  Ba8  1  0.711078  0.173447  0.736426  1
  Ba  Ba9  1  0.788922  0.025348  0.962369  1
  Ba  Ba10  1  0.062979  0.326553  0.537631  1
  Ba  Ba11  1  0.437021  0.474652  0.763574  1
  B  B12  1  0.332839  0.082839  0.750000  1
  B  B13  1  0.667161  0.917161  0.250000  1
  B  B14  1  0.832839  0.582839  0.750000  1
  B  B15  1  0.167161  0.417161  0.250000  1
  P  P16  1  0.535281  0.994782  0.711491  1
  P  P17  1  0.964719  0.176210  0.959501  1
  P  P18  1  0.216709  0.505218  0.540499  1
  P  P19  1  0.283291  0.323790  0.788509  1
  P  P20  1  0.464719  0.005218  0.288509  1
  P  P21  1  0.035281  0.823790  0.040499  1
  P  P22  1  0.783291  0.494782  0.459501  1
  P  P23  1  0.716709  0.676210  0.211491  1
  P  P24  1  0.175730  0.750000  0.425730  1
  P  P25  1  0.324270  0.250000  0.074270  1
  P  P26  1  0.824270  0.250000  0.574270  1
  P  P27  1  0.675730  0.750000  0.925730  1
  O  O28  1  0.429421  0.148850  0.322367  1
  O  O29  1  0.929421  0.107055  0.780571  1
  O  O30  1  0.326484  0.648850  0.719429  1
  O  O31  1  0.173516  0.392945  0.822367  1
  O  O32  1  0.547677  0.884054  0.166337  1
  O  O33  1  0.952323  0.618660  0.836377  1
  O  O34  1  0.782283  0.615946  0.663623  1
  O  O35  1  0.717717  0.881340  0.333663  1
  O  O36  1  0.452323  0.115946  0.833663  1
  O  O37  1  0.047677  0.381340  0.163623  1
  O  O38  1  0.217717  0.384054  0.336377  1
  O  O39  1  0.282283  0.118660  0.666337  1
  O  O40  1  0.794397  0.716385  0.919059  1
  O  O41  1  0.705603  0.124662  0.421988  1
  O  O42  1  0.131959  0.764223  0.977146  1
  O  O43  1  0.797326  0.375338  0.580941  1
  O  O44  1  0.205603  0.283615  0.080941  1
  O  O45  1  0.294397  0.875338  0.578012  1
  O  O46  1  0.297326  0.216385  0.921988  1
  O  O47  1  0.202674  0.624662  0.419059  1
  O  O48  1  0.826484  0.607055  0.177633  1
  O  O49  1  0.570579  0.851150  0.677633  1
  O  O50  1  0.673516  0.351150  0.280571  1
  O  O51  1  0.070579  0.892945  0.219429  1
  O  O52  1  0.619156  0.524286  0.003664  1
  O  O53  1  0.880844  0.384509  0.405130  1
  O  O54  1  0.979379  0.975714  0.094870  1
  O  O55  1  0.520621  0.115491  0.496336  1
  O  O56  1  0.380844  0.475714  0.996336  1
  O  O57  1  0.119156  0.615491  0.594870  1
  O  O58  1  0.020621  0.024286  0.905130  1
  O  O59  1  0.479379  0.884509  0.503664  1
  O  O60  1  0.587785  0.571135  0.715308  1
  O  O61  1  0.912215  0.127523  0.483350  1
  O  O62  1  0.644173  0.928865  0.016650  1
  O  O63  1  0.855827  0.372477  0.784692  1
  O  O64  1  0.412215  0.428865  0.284692  1
  O  O65  1  0.087785  0.872477  0.516650  1
  O  O66  1  0.355827  0.071135  0.983350  1
  O  O67  1  0.144173  0.627523  0.215308  1
  O  O68  1  0.212922  0.345187  0.477146  1
  O  O69  1  0.287078  0.264223  0.632264  1
  O  O70  1  0.631959  0.154813  0.867736  1
  O  O71  1  0.868041  0.235777  0.022854  1
  O  O72  1  0.787078  0.654813  0.522854  1
  O  O73  1  0.712922  0.735777  0.367736  1
  O  O74  1  0.368041  0.845187  0.132264  1
  O  O75  1  0.702674  0.783615  0.078012  1
