# generated using pymatgen
data_BaNa2Al4(SiO4)4
_symmetry_space_group_name_H-M   'P 1'
_cell_length_a   10.77495611
_cell_length_b   10.77495611
_cell_length_c   10.77495611
_cell_angle_alpha   132.45226009
_cell_angle_beta   124.22383716
_cell_angle_gamma   76.26668113
_symmetry_Int_Tables_number   1
_chemical_formula_structural   BaNa2Al4(SiO4)4
_chemical_formula_sum   'Ba2 Na4 Al8 Si8 O32'
_cell_volume   742.16439283
_cell_formula_units_Z   2
loop_
 _symmetry_equiv_pos_site_id
 _symmetry_equiv_pos_as_xyz
  1  'x, y, z'
loop_
 _atom_site_type_symbol
 _atom_site_label
 _atom_site_symmetry_multiplicity
 _atom_site_fract_x
 _atom_site_fract_y
 _atom_site_fract_z
 _atom_site_occupancy
  Ba  Ba0  1  0.153912  0.653912  0.500000  1
  Ba  Ba1  1  0.653912  0.153912  0.500000  1
  Na  Na2  1  0.231749  0.864373  0.286615  1
  Na  Na3  1  0.077758  0.364373  0.632624  1
  Na  Na4  1  0.577758  0.945134  0.713385  1
  Na  Na5  1  0.731749  0.445134  0.367376  1
  Al  Al6  1  0.249063  0.133690  0.256760  1
  Al  Al7  1  0.876930  0.992303  0.743240  1
  Al  Al8  1  0.754277  0.032120  0.164581  1
  Al  Al9  1  0.749063  0.492303  0.115373  1
  Al  Al10  1  0.367539  0.532120  0.277843  1
  Al  Al11  1  0.254277  0.089696  0.722157  1
  Al  Al12  1  0.867539  0.589696  0.835419  1
  Al  Al13  1  0.376930  0.633690  0.884627  1
  Si  Si14  1  0.939356  0.822724  0.270091  1
  Si  Si15  1  0.558281  0.730700  0.294463  1
  Si  Si16  1  0.436237  0.263818  0.705537  1
  Si  Si17  1  0.058281  0.763818  0.827581  1
  Si  Si18  1  0.936237  0.230700  0.172419  1
  Si  Si19  1  0.052633  0.322724  0.883368  1
  Si  Si20  1  0.439356  0.169265  0.116632  1
  Si  Si21  1  0.552633  0.669265  0.729909  1
  O  O22  1  0.879974  0.407901  0.224038  1
  O  O23  1  0.183863  0.655936  0.775962  1
  O  O24  1  0.379974  0.155936  0.472073  1
  O  O25  1  0.683863  0.907901  0.527927  1
  O  O26  1  0.116583  0.900360  0.473036  1
  O  O27  1  0.427324  0.643547  0.526964  1
  O  O28  1  0.616583  0.143547  0.216223  1
  O  O29  1  0.927324  0.400360  0.783777  1
  O  O30  1  0.461093  0.363514  0.201588  1
  O  O31  1  0.161926  0.259505  0.798412  1
  O  O32  1  0.961093  0.759505  0.097579  1
  O  O33  1  0.661926  0.863514  0.902421  1
  O  O34  1  0.485669  0.776883  0.152352  1
  O  O35  1  0.624531  0.333317  0.847648  1
  O  O36  1  0.985669  0.833317  0.708786  1
  O  O37  1  0.124531  0.276883  0.291214  1
  O  O38  1  0.836486  0.969483  0.305731  1
  O  O39  1  0.663752  0.530755  0.694269  1
  O  O40  1  0.336486  0.030755  0.867003  1
  O  O41  1  0.163752  0.469483  0.132997  1
  O  O42  1  0.347820  0.419393  0.777405  1
  O  O43  1  0.641988  0.570415  0.222595  1
  O  O44  1  0.891456  0.193097  0.269573  1
  O  O45  1  0.923524  0.621883  0.730427  1
  O  O46  1  0.391456  0.121883  0.698359  1
  O  O47  1  0.423524  0.693097  0.301641  1
  O  O48  1  0.366660  0.154604  0.205377  1
  O  O49  1  0.949227  0.161283  0.794623  1
  O  O50  1  0.866660  0.661283  0.212056  1
  O  O51  1  0.449227  0.654604  0.787944  1
  O  O52  1  0.141988  0.919393  0.071573  1
  O  O53  1  0.847820  0.070415  0.928427  1
