# generated using pymatgen
data_Li2ZrTeO6
_symmetry_space_group_name_H-M   'P 1'
_cell_length_a   5.57863139
_cell_length_b   5.57863139
_cell_length_c   5.57863139
_cell_angle_alpha   56.09074112
_cell_angle_beta   56.09074112
_cell_angle_gamma   56.09074112
_symmetry_Int_Tables_number   1
_chemical_formula_structural   Li2ZrTeO6
_chemical_formula_sum   'Li2 Zr1 Te1 O6'
_cell_volume   111.64954518
_cell_formula_units_Z   1
loop_
 _symmetry_equiv_pos_site_id
 _symmetry_equiv_pos_as_xyz
  1  'x, y, z'
loop_
 _atom_site_type_symbol
 _atom_site_label
 _atom_site_symmetry_multiplicity
 _atom_site_fract_x
 _atom_site_fract_y
 _atom_site_fract_z
 _atom_site_occupancy
  Li  Li0  1  0.723520  0.723520  0.723520  1
  Li  Li1  1  0.212588  0.212588  0.212588  1
  Zr  Zr2  1  0.999139  0.999139  0.999139  1
  Te  Te3  1  0.503740  0.503740  0.503740  1
  O  O4  1  0.391784  0.758869  0.139469  1
  O  O5  1  0.873370  0.611262  0.284259  1
  O  O6  1  0.611262  0.284259  0.873370  1
  O  O7  1  0.284259  0.873370  0.611262  1
  O  O8  1  0.139469  0.391784  0.758869  1
  O  O9  1  0.758869  0.139469  0.391784  1
