# generated using pymatgen
data_K3Nb2CuSe12
_symmetry_space_group_name_H-M   'P 1'
_cell_length_a   9.70771126
_cell_length_b   13.90756736
_cell_length_c   17.68974413
_cell_angle_alpha   90.00000000
_cell_angle_beta   118.35263045
_cell_angle_gamma   90.00000000
_symmetry_Int_Tables_number   1
_chemical_formula_structural   K3Nb2CuSe12
_chemical_formula_sum   'K12 Nb8 Cu4 Se48'
_cell_volume   2101.80647075
_cell_formula_units_Z   4
loop_
 _symmetry_equiv_pos_site_id
 _symmetry_equiv_pos_as_xyz
  1  'x, y, z'
loop_
 _atom_site_type_symbol
 _atom_site_label
 _atom_site_symmetry_multiplicity
 _atom_site_fract_x
 _atom_site_fract_y
 _atom_site_fract_z
 _atom_site_occupancy
  K  K0  1  0.641548  0.409879  0.728251  1
  K  K1  1  0.358452  0.909879  0.771749  1
  K  K2  1  0.358452  0.590121  0.271749  1
  K  K3  1  0.641548  0.090121  0.228251  1
  K  K4  1  0.836420  0.102657  0.842002  1
  K  K5  1  0.163580  0.602657  0.657998  1
  K  K6  1  0.163580  0.897343  0.157998  1
  K  K7  1  0.836420  0.397343  0.342002  1
  K  K8  1  0.736606  0.916484  0.493790  1
  K  K9  1  0.263394  0.083516  0.506210  1
  K  K10  1  0.263394  0.416484  0.006210  1
  K  K11  1  0.736606  0.583516  0.993790  1
  Nb  Nb12  1  0.910279  0.275584  0.077750  1
  Nb  Nb13  1  0.290252  0.274903  0.776743  1
  Nb  Nb14  1  0.709748  0.774903  0.723257  1
  Nb  Nb15  1  0.709748  0.725097  0.223257  1
  Nb  Nb16  1  0.290252  0.225097  0.276743  1
  Nb  Nb17  1  0.910279  0.224416  0.577750  1
  Nb  Nb18  1  0.089721  0.724416  0.922250  1
  Nb  Nb19  1  0.089721  0.775584  0.422250  1
  Cu  Cu20  1  0.610072  0.195945  0.423085  1
  Cu  Cu21  1  0.389928  0.695945  0.076915  1
  Cu  Cu22  1  0.389928  0.804055  0.576915  1
  Cu  Cu23  1  0.610072  0.304055  0.923085  1
  Se  Se24  1  0.992883  0.819354  0.754315  1
  Se  Se25  1  0.901779  0.410331  0.565303  1
  Se  Se26  1  0.098221  0.910331  0.934697  1
  Se  Se27  1  0.098221  0.589669  0.434697  1
  Se  Se28  1  0.901779  0.089669  0.065303  1
  Se  Se29  1  0.628662  0.235726  0.564746  1
  Se  Se30  1  0.371338  0.735726  0.935254  1
  Se  Se31  1  0.371338  0.764274  0.435254  1
  Se  Se32  1  0.438295  0.297061  0.199969  1
  Se  Se33  1  0.561705  0.797061  0.300031  1
  Se  Se34  1  0.561705  0.702939  0.800031  1
  Se  Se35  1  0.438295  0.202939  0.699969  1
  Se  Se36  1  0.427181  0.073296  0.339510  1
  Se  Se37  1  0.572819  0.573296  0.160490  1
  Se  Se38  1  0.572819  0.926704  0.660490  1
  Se  Se39  1  0.427181  0.426704  0.839510  1
  Se  Se40  1  0.166792  0.278753  0.370252  1
  Se  Se41  1  0.833208  0.778753  0.129748  1
  Se  Se42  1  0.833208  0.721247  0.629748  1
  Se  Se43  1  0.166792  0.221247  0.870252  1
  Se  Se44  1  0.501506  0.389181  0.505151  1
  Se  Se45  1  0.498494  0.889181  0.994849  1
  Se  Se46  1  0.498494  0.610819  0.494849  1
  Se  Se47  1  0.501506  0.110819  0.005151  1
  Se  Se48  1  0.863849  0.331251  0.935954  1
  Se  Se49  1  0.136151  0.831251  0.564046  1
  Se  Se50  1  0.136151  0.668749  0.064046  1
  Se  Se51  1  0.863849  0.168749  0.435954  1
  Se  Se52  1  0.882486  0.073086  0.657556  1
  Se  Se53  1  0.860549  0.891446  0.327926  1
  Se  Se54  1  0.860549  0.608554  0.827926  1
  Se  Se55  1  0.139451  0.108554  0.672074  1
  Se  Se56  1  0.157832  0.164105  0.108962  1
  Se  Se57  1  0.842168  0.664105  0.391038  1
  Se  Se58  1  0.842168  0.835895  0.891038  1
  Se  Se59  1  0.157832  0.335895  0.608962  1
  Se  Se60  1  0.007117  0.180646  0.245685  1
  Se  Se61  1  0.992883  0.680646  0.254315  1
  Se  Se62  1  0.628662  0.264274  0.064746  1
  Se  Se63  1  0.007117  0.319354  0.745685  1
  Se  Se64  1  0.496826  0.360301  0.361598  1
  Se  Se65  1  0.503174  0.860301  0.138402  1
  Se  Se66  1  0.503174  0.639699  0.638402  1
  Se  Se67  1  0.496826  0.139699  0.861598  1
  Se  Se68  1  0.882486  0.426914  0.157556  1
  Se  Se69  1  0.117514  0.926914  0.342444  1
  Se  Se70  1  0.117514  0.573086  0.842444  1
  Se  Se71  1  0.139451  0.391446  0.172074  1
