# generated using pymatgen
data_Rb2PO3F
_symmetry_space_group_name_H-M   'P 1'
_cell_length_a   6.23589342
_cell_length_b   8.06642477
_cell_length_c   10.69361021
_cell_angle_alpha   90.00000000
_cell_angle_beta   90.00000000
_cell_angle_gamma   90.00000000
_symmetry_Int_Tables_number   1
_chemical_formula_structural   Rb2PO3F
_chemical_formula_sum   'Rb8 P4 O12 F4'
_cell_volume   537.90319190
_cell_formula_units_Z   4
loop_
 _symmetry_equiv_pos_site_id
 _symmetry_equiv_pos_as_xyz
  1  'x, y, z'
loop_
 _atom_site_type_symbol
 _atom_site_label
 _atom_site_symmetry_multiplicity
 _atom_site_fract_x
 _atom_site_fract_y
 _atom_site_fract_z
 _atom_site_occupancy
  Rb  Rb0  1  0.250000  0.676295  0.577350  1
  Rb  Rb1  1  0.750000  0.323705  0.422650  1
  Rb  Rb2  1  0.250000  0.176295  0.922650  1
  Rb  Rb3  1  0.750000  0.823705  0.077350  1
  Rb  Rb4  1  0.250000  0.507078  0.218029  1
  Rb  Rb5  1  0.750000  0.492922  0.781971  1
  Rb  Rb6  1  0.250000  0.007078  0.281971  1
  Rb  Rb7  1  0.750000  0.992922  0.718029  1
  P  P8  1  0.250000  0.742096  0.913839  1
  P  P9  1  0.750000  0.257904  0.086161  1
  P  P10  1  0.250000  0.242096  0.586161  1
  P  P11  1  0.750000  0.757904  0.413839  1
  O  O12  1  0.750000  0.188409  0.953448  1
  O  O13  1  0.250000  0.811591  0.046552  1
  O  O14  1  0.250000  0.311591  0.453448  1
  O  O15  1  0.750000  0.688409  0.546552  1
  O  O16  1  0.956449  0.230100  0.159200  1
  O  O17  1  0.456449  0.769900  0.840800  1
  O  O18  1  0.543551  0.730100  0.340800  1
  O  O19  1  0.043551  0.269900  0.659200  1
  O  O20  1  0.043551  0.769900  0.840800  1
  O  O21  1  0.543551  0.230100  0.159200  1
  O  O22  1  0.456449  0.269900  0.659200  1
  O  O23  1  0.956449  0.730100  0.340800  1
  F  F24  1  0.750000  0.963855  0.437015  1
  F  F25  1  0.250000  0.036145  0.562985  1
  F  F26  1  0.250000  0.536145  0.937015  1
  F  F27  1  0.750000  0.463855  0.062985  1
