# generated using pymatgen
data_CaMgB2O5
_symmetry_space_group_name_H-M   'P 1'
_cell_length_a   5.57114029
_cell_length_b   11.21884282
_cell_length_c   12.40379859
_cell_angle_alpha   90.00000000
_cell_angle_beta   101.73650481
_cell_angle_gamma   90.00000000
_symmetry_Int_Tables_number   1
_chemical_formula_structural   CaMgB2O5
_chemical_formula_sum   'Ca8 Mg8 B16 O40'
_cell_volume   759.05106099
_cell_formula_units_Z   8
loop_
 _symmetry_equiv_pos_site_id
 _symmetry_equiv_pos_as_xyz
  1  'x, y, z'
loop_
 _atom_site_type_symbol
 _atom_site_label
 _atom_site_symmetry_multiplicity
 _atom_site_fract_x
 _atom_site_fract_y
 _atom_site_fract_z
 _atom_site_occupancy
  Ca  Ca0  1  0.370500  0.619421  0.407943  1
  Ca  Ca1  1  0.129500  0.119421  0.592057  1
  Ca  Ca2  1  0.629500  0.380579  0.592057  1
  Ca  Ca3  1  0.870500  0.880579  0.407943  1
  Ca  Ca4  1  0.651608  0.372306  0.089006  1
  Ca  Ca5  1  0.848392  0.872306  0.910994  1
  Ca  Ca6  1  0.348392  0.627694  0.910994  1
  Ca  Ca7  1  0.151608  0.127694  0.089006  1
  Mg  Mg8  1  0.255270  0.372969  0.263515  1
  Mg  Mg9  1  0.244730  0.872969  0.736485  1
  Mg  Mg10  1  0.744730  0.627031  0.736485  1
  Mg  Mg11  1  0.755270  0.127031  0.263515  1
  Mg  Mg12  1  0.748146  0.627298  0.237787  1
  Mg  Mg13  1  0.751854  0.127298  0.762213  1
  Mg  Mg14  1  0.251854  0.372702  0.762213  1
  Mg  Mg15  1  0.248146  0.872702  0.237787  1
  B  B16  1  0.852659  0.619445  0.011429  1
  B  B17  1  0.128549  0.375857  0.490587  1
  B  B18  1  0.371451  0.875857  0.509413  1
  B  B19  1  0.871451  0.624143  0.509413  1
  B  B20  1  0.628549  0.124143  0.490587  1
  B  B21  1  0.647341  0.119445  0.988571  1
  B  B22  1  0.147341  0.380555  0.988571  1
  B  B23  1  0.352659  0.880555  0.011429  1
  B  B24  1  0.791889  0.382378  0.326449  1
  B  B25  1  0.708111  0.882378  0.673551  1
  B  B26  1  0.208111  0.617622  0.673551  1
  B  B27  1  0.291889  0.117622  0.326449  1
  B  B28  1  0.201680  0.625374  0.174354  1
  B  B29  1  0.298320  0.125374  0.825646  1
  B  B30  1  0.798320  0.374626  0.825646  1
  B  B31  1  0.701680  0.874626  0.174354  1
  O  O32  1  0.812429  0.668811  0.404883  1
  O  O33  1  0.313727  0.419093  0.929669  1
  O  O34  1  0.813727  0.080907  0.929669  1
  O  O35  1  0.686273  0.580907  0.070331  1
  O  O36  1  0.803260  0.092753  0.432837  1
  O  O37  1  0.696740  0.592753  0.567163  1
  O  O38  1  0.196740  0.907247  0.567163  1
  O  O39  1  0.303260  0.407247  0.432837  1
  O  O40  1  0.716454  0.157933  0.095061  1
  O  O41  1  0.783546  0.657933  0.904939  1
  O  O42  1  0.283546  0.842067  0.904939  1
  O  O43  1  0.186273  0.919093  0.070331  1
  O  O44  1  0.216454  0.342067  0.095061  1
  O  O45  1  0.312429  0.831189  0.404883  1
  O  O46  1  0.187571  0.331189  0.595117  1
  O  O47  1  0.687571  0.168811  0.595117  1
  O  O48  1  0.894079  0.802041  0.218414  1
  O  O49  1  0.605921  0.302041  0.781586  1
  O  O50  1  0.105921  0.197959  0.781586  1
  O  O51  1  0.394079  0.697959  0.218414  1
  O  O52  1  0.405011  0.195802  0.267638  1
  O  O53  1  0.094989  0.695802  0.732362  1
  O  O54  1  0.594989  0.804198  0.732362  1
  O  O55  1  0.905011  0.304198  0.267638  1
  O  O56  1  0.599055  0.949138  0.240473  1
  O  O57  1  0.900945  0.449138  0.759527  1
  O  O58  1  0.400945  0.050862  0.759527  1
  O  O59  1  0.099055  0.550862  0.240473  1
  O  O60  1  0.104036  0.045640  0.274041  1
  O  O61  1  0.395964  0.545640  0.725959  1
  O  O62  1  0.895964  0.954360  0.725959  1
  O  O63  1  0.604036  0.454360  0.274041  1
  O  O64  1  0.607949  0.870390  0.058478  1
  O  O65  1  0.892051  0.370390  0.941522  1
  O  O66  1  0.392051  0.129610  0.941522  1
  O  O67  1  0.107949  0.629610  0.058478  1
  O  O68  1  0.373565  0.111804  0.442374  1
  O  O69  1  0.126435  0.611804  0.557626  1
  O  O70  1  0.873565  0.388196  0.442374  1
  O  O71  1  0.626435  0.888196  0.557626  1
