# generated using pymatgen
data_Sr(GaTe2)2
_symmetry_space_group_name_H-M   'P 1'
_cell_length_a   6.82667729
_cell_length_b   6.82667729
_cell_length_c   11.90829864
_cell_angle_alpha   90.00000000
_cell_angle_beta   90.00000000
_cell_angle_gamma   120.20521368
_symmetry_Int_Tables_number   1
_chemical_formula_structural   Sr(GaTe2)2
_chemical_formula_sum   'Sr2 Ga4 Te8'
_cell_volume   479.62003008
_cell_formula_units_Z   2
loop_
 _symmetry_equiv_pos_site_id
 _symmetry_equiv_pos_as_xyz
  1  'x, y, z'
loop_
 _atom_site_type_symbol
 _atom_site_label
 _atom_site_symmetry_multiplicity
 _atom_site_fract_x
 _atom_site_fract_y
 _atom_site_fract_z
 _atom_site_occupancy
  Sr  Sr0  1  0.500000  0.500000  0.250000  1
  Sr  Sr1  1  0.500000  0.500000  0.750000  1
  Ga  Ga2  1  0.238661  0.758386  1.000000  1
  Ga  Ga3  1  0.761339  0.241614  0.000000  1
  Ga  Ga4  1  0.241614  0.761339  0.500000  1
  Ga  Ga5  1  0.758386  0.238661  0.500000  1
  Te  Te6  1  0.190310  0.343576  0.500000  1
  Te  Te7  1  0.809690  0.656424  0.500000  1
  Te  Te8  1  0.343576  0.190310  0.000000  1
  Te  Te9  1  0.656424  0.809690  0.000000  1
  Te  Te10  1  1.000000  0.500000  0.826334  1
  Te  Te11  1  0.500000  0.000000  0.673666  1
  Te  Te12  1  1.000000  0.500000  0.173666  1
  Te  Te13  1  0.500000  0.000000  0.326334  1
