# generated using pymatgen
data_KLi3Si12(SnO15)2
_symmetry_space_group_name_H-M   'P 1'
_cell_length_a   10.15712120
_cell_length_b   10.15712120
_cell_length_c   14.51307200
_cell_angle_alpha   90.00000000
_cell_angle_beta   90.00000000
_cell_angle_gamma   120.00000000
_symmetry_Int_Tables_number   1
_chemical_formula_structural   KLi3Si12(SnO15)2
_chemical_formula_sum   'K2 Li6 Si24 Sn4 O60'
_cell_volume   1296.67533937
_cell_formula_units_Z   2
loop_
 _symmetry_equiv_pos_site_id
 _symmetry_equiv_pos_as_xyz
  1  'x, y, z'
loop_
 _atom_site_type_symbol
 _atom_site_label
 _atom_site_symmetry_multiplicity
 _atom_site_fract_x
 _atom_site_fract_y
 _atom_site_fract_z
 _atom_site_occupancy
  K  K0  1  0.000000  0.000000  0.250000  1
  K  K1  1  0.000000  0.000000  0.750000  1
  Li  Li2  1  0.500000  0.500000  0.250000  1
  Li  Li3  1  0.500000  0.000000  0.750000  1
  Li  Li4  1  0.000000  0.500000  0.750000  1
  Li  Li5  1  0.500000  0.500000  0.750000  1
  Li  Li6  1  0.500000  0.000000  0.250000  1
  Li  Li7  1  0.000000  0.500000  0.250000  1
  Si  Si8  1  0.762158  0.118285  0.891259  1
  Si  Si9  1  0.881715  0.643873  0.891259  1
  Si  Si10  1  0.356127  0.237842  0.891259  1
  Si  Si11  1  0.643873  0.762158  0.891259  1
  Si  Si12  1  0.237842  0.356127  0.608741  1
  Si  Si13  1  0.237842  0.881715  0.891259  1
  Si  Si14  1  0.118285  0.356127  0.891259  1
  Si  Si15  1  0.881715  0.237842  0.608741  1
  Si  Si16  1  0.356127  0.118285  0.608741  1
  Si  Si17  1  0.643873  0.881715  0.608741  1
  Si  Si18  1  0.118285  0.762158  0.608741  1
  Si  Si19  1  0.762158  0.643873  0.608741  1
  Si  Si20  1  0.237842  0.881715  0.108741  1
  Si  Si21  1  0.118285  0.356127  0.108741  1
  Si  Si22  1  0.643873  0.762158  0.108741  1
  Si  Si23  1  0.237842  0.356127  0.391259  1
  Si  Si24  1  0.762158  0.643873  0.391259  1
  Si  Si25  1  0.762158  0.118285  0.108741  1
  Si  Si26  1  0.881715  0.643873  0.108741  1
  Si  Si27  1  0.118285  0.762158  0.391259  1
  Si  Si28  1  0.643873  0.881715  0.391259  1
  Si  Si29  1  0.356127  0.118285  0.391259  1
  Si  Si30  1  0.881715  0.237842  0.391259  1
  Si  Si31  1  0.356127  0.237842  0.108741  1
  Sn  Sn32  1  0.333333  0.666667  0.250000  1
  Sn  Sn33  1  0.666667  0.333333  0.250000  1
  Sn  Sn34  1  0.666667  0.333333  0.750000  1
  Sn  Sn35  1  0.333333  0.666667  0.750000  1
  O  O36  1  0.222241  0.278592  0.132707  1
  O  O37  1  0.157815  0.656528  0.672714  1
  O  O38  1  0.157815  0.501287  0.827286  1
  O  O39  1  0.498713  0.842185  0.672714  1
  O  O40  1  0.501287  0.157815  0.672714  1
  O  O41  1  0.656528  0.498713  0.672714  1
  O  O42  1  0.343472  0.501287  0.672714  1
  O  O43  1  0.656528  0.157815  0.827286  1
  O  O44  1  0.501287  0.343472  0.827286  1
  O  O45  1  0.498713  0.656528  0.827286  1
  O  O46  1  0.343472  0.842185  0.827286  1
  O  O47  1  0.842185  0.498713  0.827286  1
  O  O48  1  0.157815  0.656528  0.327286  1
  O  O49  1  0.343472  0.501287  0.327286  1
  O  O50  1  0.498713  0.842185  0.327286  1
  O  O51  1  0.501287  0.157815  0.327286  1
  O  O52  1  0.842185  0.498713  0.172714  1
  O  O53  1  0.842185  0.343472  0.327286  1
  O  O54  1  0.656528  0.498713  0.327286  1
  O  O55  1  0.343472  0.842185  0.172714  1
  O  O56  1  0.498713  0.656528  0.172714  1
  O  O57  1  0.501287  0.343472  0.172714  1
  O  O58  1  0.656528  0.157815  0.172714  1
  O  O59  1  0.056351  0.278592  0.632707  1
  O  O60  1  0.777759  0.056351  0.632707  1
  O  O61  1  0.943649  0.721408  0.632707  1
  O  O62  1  0.278592  0.222241  0.632707  1
  O  O63  1  0.721408  0.777759  0.632707  1
  O  O64  1  0.222241  0.278592  0.867293  1
  O  O65  1  0.222241  0.943649  0.632707  1
  O  O66  1  0.133295  0.400533  0.000000  1
  O  O67  1  0.732762  0.133295  0.000000  1
  O  O68  1  0.400533  0.267238  0.000000  1
  O  O69  1  0.599467  0.732762  0.000000  1
  O  O70  1  0.267238  0.866705  0.000000  1
  O  O71  1  0.732762  0.599467  0.500000  1
  O  O72  1  0.866705  0.267238  0.500000  1
  O  O73  1  0.866705  0.599467  0.000000  1
  O  O74  1  0.400533  0.133295  0.500000  1
  O  O75  1  0.599467  0.866705  0.500000  1
  O  O76  1  0.267238  0.400533  0.500000  1
  O  O77  1  0.133295  0.732762  0.500000  1
  O  O78  1  0.842185  0.343472  0.672714  1
  O  O79  1  0.943649  0.222241  0.132707  1
  O  O80  1  0.278592  0.056351  0.132707  1
  O  O81  1  0.721408  0.943649  0.132707  1
  O  O82  1  0.056351  0.777759  0.132707  1
  O  O83  1  0.943649  0.721408  0.367293  1
  O  O84  1  0.777759  0.056351  0.367293  1
  O  O85  1  0.777759  0.721408  0.132707  1
  O  O86  1  0.278592  0.222241  0.367293  1
  O  O87  1  0.721408  0.777759  0.367293  1
  O  O88  1  0.056351  0.278592  0.367293  1
  O  O89  1  0.222241  0.943649  0.367293  1
  O  O90  1  0.777759  0.721408  0.867293  1
  O  O91  1  0.056351  0.777759  0.867293  1
  O  O92  1  0.721408  0.943649  0.867293  1
  O  O93  1  0.278592  0.056351  0.867293  1
  O  O94  1  0.943649  0.222241  0.867293  1
  O  O95  1  0.157815  0.501287  0.172714  1
