# generated using pymatgen
data_Sr3ZnPtO6
_symmetry_space_group_name_H-M   'P 1'
_cell_length_a   6.77185123
_cell_length_b   6.77185123
_cell_length_c   6.77185123
_cell_angle_alpha   91.47305958
_cell_angle_beta   91.47305958
_cell_angle_gamma   91.47305958
_symmetry_Int_Tables_number   1
_chemical_formula_structural   Sr3ZnPtO6
_chemical_formula_sum   'Sr6 Zn2 Pt2 O12'
_cell_volume   310.23007885
_cell_formula_units_Z   2
loop_
 _symmetry_equiv_pos_site_id
 _symmetry_equiv_pos_as_xyz
  1  'x, y, z'
loop_
 _atom_site_type_symbol
 _atom_site_label
 _atom_site_symmetry_multiplicity
 _atom_site_fract_x
 _atom_site_fract_y
 _atom_site_fract_z
 _atom_site_occupancy
  Sr  Sr0  1  0.886603  0.613397  0.250000  1
  Sr  Sr1  1  0.250000  0.886603  0.613397  1
  Sr  Sr2  1  0.386603  0.750000  0.113397  1
  Sr  Sr3  1  0.113397  0.386603  0.750000  1
  Sr  Sr4  1  0.750000  0.113397  0.386603  1
  Sr  Sr5  1  0.613397  0.250000  0.886603  1
  Zn  Zn6  1  0.250000  0.250000  0.250000  1
  Zn  Zn7  1  0.750000  0.750000  0.750000  1
  Pt  Pt8  1  0.000000  0.000000  0.000000  1
  Pt  Pt9  1  0.500000  0.500000  0.500000  1
  O  O10  1  0.786837  0.460373  0.593201  1
  O  O11  1  0.593201  0.786837  0.460373  1
  O  O12  1  0.460373  0.593201  0.786837  1
  O  O13  1  0.906799  0.039627  0.713163  1
  O  O14  1  0.713163  0.906799  0.039627  1
  O  O15  1  0.039627  0.713163  0.906799  1
  O  O16  1  0.213163  0.539627  0.406799  1
  O  O17  1  0.406799  0.213163  0.539627  1
  O  O18  1  0.539627  0.406799  0.213163  1
  O  O19  1  0.093201  0.960373  0.286837  1
  O  O20  1  0.960373  0.286837  0.093201  1
  O  O21  1  0.286837  0.093201  0.960373  1
