# generated using pymatgen
data_Er4Si2S3O7
_symmetry_space_group_name_H-M   'P 1'
_cell_length_a   10.67867344
_cell_length_b   10.67867344
_cell_length_c   10.67867344
_cell_angle_alpha   113.78751760
_cell_angle_beta   113.78751760
_cell_angle_gamma   101.14590389
_symmetry_Int_Tables_number   1
_chemical_formula_structural   Er4Si2S3O7
_chemical_formula_sum   'Er16 Si8 S12 O28'
_cell_volume   922.87600781
_cell_formula_units_Z   4
loop_
 _symmetry_equiv_pos_site_id
 _symmetry_equiv_pos_as_xyz
  1  'x, y, z'
loop_
 _atom_site_type_symbol
 _atom_site_label
 _atom_site_symmetry_multiplicity
 _atom_site_fract_x
 _atom_site_fract_y
 _atom_site_fract_z
 _atom_site_occupancy
  Er  Er0  1  0.172411  0.827589  0.000000  1
  Er  Er1  1  0.577589  0.077589  0.155177  1
  Er  Er2  1  0.922411  0.422411  0.844823  1
  Er  Er3  1  0.827589  0.172411  0.000000  1
  Er  Er4  1  0.577589  0.422411  0.500000  1
  Er  Er5  1  0.172411  0.172411  0.344823  1
  Er  Er6  1  0.827589  0.827589  0.655177  1
  Er  Er7  1  0.922411  0.077589  0.500000  1
  Er  Er8  1  0.048366  0.783824  0.264542  1
  Er  Er9  1  0.519283  0.783824  0.735458  1
  Er  Er10  1  0.216176  0.480717  0.264542  1
  Er  Er11  1  0.533824  0.298366  0.764542  1
  Er  Er12  1  0.533824  0.769283  0.235458  1
  Er  Er13  1  0.230717  0.466176  0.764542  1
  Er  Er14  1  0.701634  0.466176  0.235458  1
  Er  Er15  1  0.216176  0.951634  0.735458  1
  Si  Si16  1  0.654646  0.029445  0.625201  1
  Si  Si17  1  0.404244  0.029445  0.374799  1
  Si  Si18  1  0.970555  0.595756  0.625201  1
  Si  Si19  1  0.779445  0.904646  0.125201  1
  Si  Si20  1  0.779445  0.654244  0.874799  1
  Si  Si21  1  0.345756  0.220555  0.125201  1
  Si  Si22  1  0.095354  0.220555  0.874799  1
  Si  Si23  1  0.970555  0.345354  0.374799  1
  S  S24  1  0.750000  0.250000  0.500000  1
  S  S25  1  1.000000  0.000000  0.000000  1
  S  S26  1  0.500000  0.500000  0.000000  1
  S  S27  1  0.250000  0.750000  0.500000  1
  S  S28  1  0.229337  0.125000  0.604337  1
  S  S29  1  0.875000  0.770663  0.395663  1
  S  S30  1  0.375000  0.479337  0.604337  1
  S  S31  1  0.520663  0.625000  0.395663  1
  S  S32  1  0.520663  0.125000  0.895663  1
  S  S33  1  0.875000  0.479337  0.104337  1
  S  S34  1  0.375000  0.770663  0.895663  1
  S  S35  1  0.229337  0.625000  0.104337  1
  O  O36  1  0.024888  0.524888  0.500000  1
  O  O37  1  0.274888  0.274888  0.000000  1
  O  O38  1  0.725112  0.725112  0.000000  1
  O  O39  1  0.475112  0.975112  0.500000  1
  O  O40  1  0.217311  0.951033  0.266278  1
  O  O41  1  0.684754  0.951033  0.733722  1
  O  O42  1  0.048967  0.315246  0.266278  1
  O  O43  1  0.701033  0.467311  0.766278  1
  O  O44  1  0.701033  0.934754  0.233722  1
  O  O45  1  0.065246  0.298967  0.766278  1
  O  O46  1  0.532689  0.298967  0.233722  1
  O  O47  1  0.048967  0.782689  0.733722  1
  O  O48  1  0.307561  0.290537  0.265808  1
  O  O49  1  0.024730  0.041753  0.734192  1
  O  O50  1  0.958247  0.975270  0.265808  1
  O  O51  1  0.791753  0.557561  0.517024  1
  O  O52  1  0.040537  0.274730  0.482976  1
  O  O53  1  0.725270  0.959463  0.517024  1
  O  O54  1  0.442439  0.208247  0.482976  1
  O  O55  1  0.709462  0.692439  0.734192  1
  O  O56  1  0.442439  0.959462  0.234192  1
  O  O57  1  0.725270  0.208247  0.765808  1
  O  O58  1  0.791753  0.274730  0.234192  1
  O  O59  1  0.958247  0.692439  0.982976  1
  O  O60  1  0.709462  0.975270  0.017024  1
  O  O61  1  0.024730  0.290537  0.982976  1
  O  O62  1  0.307561  0.041753  0.017024  1
  O  O63  1  0.040537  0.557561  0.765808  1
