# generated using pymatgen
data_BaCuAs2O7
_symmetry_space_group_name_H-M   'P 1'
_cell_length_a   6.01172420
_cell_length_b   8.52500233
_cell_length_c   14.33297994
_cell_angle_alpha   90.00000000
_cell_angle_beta   112.74363062
_cell_angle_gamma   90.00000000
_symmetry_Int_Tables_number   1
_chemical_formula_structural   BaCuAs2O7
_chemical_formula_sum   'Ba4 Cu4 As8 O28'
_cell_volume   677.44784426
_cell_formula_units_Z   4
loop_
 _symmetry_equiv_pos_site_id
 _symmetry_equiv_pos_as_xyz
  1  'x, y, z'
loop_
 _atom_site_type_symbol
 _atom_site_label
 _atom_site_symmetry_multiplicity
 _atom_site_fract_x
 _atom_site_fract_y
 _atom_site_fract_z
 _atom_site_occupancy
  Ba  Ba0  1  0.501954  0.349001  0.212797  1
  Ba  Ba1  1  0.498046  0.849001  0.287203  1
  Ba  Ba2  1  0.498046  0.650999  0.787203  1
  Ba  Ba3  1  0.501954  0.150999  0.712797  1
  Cu  Cu4  1  0.152988  0.358751  0.878921  1
  Cu  Cu5  1  0.152988  0.141249  0.378921  1
  Cu  Cu6  1  0.847012  0.641249  0.121079  1
  Cu  Cu7  1  0.847012  0.858751  0.621079  1
  As  As8  1  0.905441  0.465814  0.657126  1
  As  As9  1  0.164591  0.680568  0.994506  1
  As  As10  1  0.905441  0.034186  0.157126  1
  As  As11  1  0.094559  0.534186  0.342874  1
  As  As12  1  0.835409  0.319432  0.005494  1
  As  As13  1  0.164591  0.819432  0.494506  1
  As  As14  1  0.835409  0.180568  0.505494  1
  As  As15  1  0.094559  0.965814  0.842874  1
  O  O16  1  0.200107  0.588098  0.893596  1
  O  O17  1  0.799893  0.088098  0.606404  1
  O  O18  1  0.799893  0.411902  0.106404  1
  O  O19  1  0.200107  0.911902  0.393596  1
  O  O20  1  0.872656  0.649418  0.986966  1
  O  O21  1  0.127344  0.149418  0.513034  1
  O  O22  1  0.127344  0.350582  0.013034  1
  O  O23  1  0.872656  0.850582  0.486966  1
  O  O24  1  0.392898  0.658201  0.107779  1
  O  O25  1  0.607102  0.158201  0.392221  1
  O  O26  1  0.607102  0.341799  0.892221  1
  O  O27  1  0.392898  0.841799  0.607779  1
  O  O28  1  0.172941  0.886587  0.966765  1
  O  O29  1  0.827059  0.386587  0.533235  1
  O  O30  1  0.827059  0.113413  0.033235  1
  O  O31  1  0.172941  0.613413  0.466765  1
  O  O32  1  0.836588  0.627310  0.261087  1
  O  O33  1  0.163412  0.127310  0.238913  1
  O  O34  1  0.163412  0.372690  0.738913  1
  O  O35  1  0.836588  0.872690  0.761087  1
  O  O36  1  0.666655  0.443506  0.689973  1
  O  O37  1  0.333345  0.943506  0.810027  1
  O  O38  1  0.333345  0.556494  0.310027  1
  O  O39  1  0.666655  0.056494  0.189973  1
  O  O40  1  0.001499  0.346316  0.348808  1
  O  O41  1  0.998501  0.846316  0.151192  1
  O  O42  1  0.998501  0.653684  0.651192  1
  O  O43  1  0.001499  0.153684  0.848808  1
