# generated using pymatgen
data_BaLi2P2O7
_symmetry_space_group_name_H-M   'P 1'
_cell_length_a   7.15397913
_cell_length_b   7.15397913
_cell_length_c   13.99632207
_cell_angle_alpha   89.66497576
_cell_angle_beta   90.33502424
_cell_angle_gamma   60.65144683
_symmetry_Int_Tables_number   1
_chemical_formula_structural   BaLi2P2O7
_chemical_formula_sum   'Ba4 Li8 P8 O28'
_cell_volume   624.34464844
_cell_formula_units_Z   4
loop_
 _symmetry_equiv_pos_site_id
 _symmetry_equiv_pos_as_xyz
  1  'x, y, z'
loop_
 _atom_site_type_symbol
 _atom_site_label
 _atom_site_symmetry_multiplicity
 _atom_site_fract_x
 _atom_site_fract_y
 _atom_site_fract_z
 _atom_site_occupancy
  Ba  Ba0  1  0.160608  0.788283  0.621406  1
  Ba  Ba1  1  0.788283  0.160608  0.878594  1
  Ba  Ba2  1  0.839392  0.211717  0.378594  1
  Ba  Ba3  1  0.211717  0.839392  0.121406  1
  Li  Li4  1  0.234111  0.234111  0.750000  1
  Li  Li5  1  0.765889  0.765889  0.250000  1
  Li  Li6  1  0.767434  0.767434  0.750000  1
  Li  Li7  1  0.232566  0.232566  0.250000  1
  Li  Li8  1  0.269262  0.199442  0.508787  1
  Li  Li9  1  0.199442  0.269262  0.991213  1
  Li  Li10  1  0.730738  0.800558  0.491213  1
  Li  Li11  1  0.800558  0.730738  0.008787  1
  P  P12  1  0.850336  0.409453  0.634715  1
  P  P13  1  0.409453  0.850336  0.865285  1
  P  P14  1  0.149664  0.590547  0.365285  1
  P  P15  1  0.590547  0.149664  0.134715  1
  P  P16  1  0.575741  0.213911  0.619465  1
  P  P17  1  0.213911  0.575741  0.880535  1
  P  P18  1  0.424259  0.786089  0.380535  1
  P  P19  1  0.786089  0.424259  0.119465  1
  O  O20  1  0.990894  0.236678  0.562753  1
  O  O21  1  0.236678  0.990894  0.937247  1
  O  O22  1  0.009106  0.763322  0.437247  1
  O  O23  1  0.763322  0.009106  0.062753  1
  O  O24  1  0.939399  0.283150  0.198853  1
  O  O25  1  0.283150  0.939399  0.301147  1
  O  O26  1  0.060601  0.716850  0.801147  1
  O  O27  1  0.716850  0.060601  0.698853  1
  O  O28  1  0.887116  0.364294  0.020412  1
  O  O29  1  0.364293  0.887116  0.479588  1
  O  O30  1  0.112884  0.635707  0.979588  1
  O  O31  1  0.635706  0.112884  0.520412  1
  O  O32  1  0.680653  0.666858  0.134527  1
  O  O33  1  0.666858  0.680653  0.365473  1
  O  O34  1  0.319347  0.333142  0.865473  1
  O  O35  1  0.333142  0.319347  0.634527  1
  O  O36  1  0.574200  0.388531  0.121989  1
  O  O37  1  0.388531  0.574200  0.378011  1
  O  O38  1  0.425800  0.611469  0.878011  1
  O  O39  1  0.611469  0.425800  0.621989  1
  O  O40  1  0.364051  0.189759  0.113030  1
  O  O41  1  0.189759  0.364051  0.386970  1
  O  O42  1  0.635949  0.810241  0.886970  1
  O  O43  1  0.810241  0.635949  0.613030  1
  O  O44  1  0.652901  0.080513  0.239058  1
  O  O45  1  0.080513  0.652901  0.260942  1
  O  O46  1  0.347099  0.919487  0.760942  1
  O  O47  1  0.919487  0.347099  0.739058  1
