# generated using pymatgen
data_SnSe
_symmetry_space_group_name_H-M   'P 1'
_cell_length_a   4.21940320
_cell_length_b   4.52401876
_cell_length_c   11.78980050
_cell_angle_alpha   90.00000000
_cell_angle_beta   90.00000000
_cell_angle_gamma   90.00000000
_symmetry_Int_Tables_number   1
_chemical_formula_structural   SnSe
_chemical_formula_sum   'Sn4 Se4'
_cell_volume   225.05148417
_cell_formula_units_Z   4
loop_
 _symmetry_equiv_pos_site_id
 _symmetry_equiv_pos_as_xyz
  1  'x, y, z'
loop_
 _atom_site_type_symbol
 _atom_site_label
 _atom_site_symmetry_multiplicity
 _atom_site_fract_x
 _atom_site_fract_y
 _atom_site_fract_z
 _atom_site_occupancy
  Sn  Sn0  1  0.250000  0.400280  0.621878  1
  Sn  Sn1  1  0.750000  0.599720  0.378122  1
  Sn  Sn2  1  0.750000  0.900280  0.878122  1
  Sn  Sn3  1  0.250000  0.099720  0.121878  1
  Se  Se4  1  0.250000  0.014384  0.355145  1
  Se  Se5  1  0.750000  0.985616  0.644855  1
  Se  Se6  1  0.750000  0.514384  0.144855  1
  Se  Se7  1  0.250000  0.485616  0.855145  1
