# generated using pymatgen
data_Na2MgSiO4
_symmetry_space_group_name_H-M   'P 1'
_cell_length_a   5.33561050
_cell_length_b   5.57139408
_cell_length_c   8.82391910
_cell_angle_alpha   90.00000000
_cell_angle_beta   127.02211514
_cell_angle_gamma   90.00000000
_symmetry_Int_Tables_number   1
_chemical_formula_structural   Na2MgSiO4
_chemical_formula_sum   'Na4 Mg2 Si2 O8'
_cell_volume   209.42656171
_cell_formula_units_Z   2
loop_
 _symmetry_equiv_pos_site_id
 _symmetry_equiv_pos_as_xyz
  1  'x, y, z'
loop_
 _atom_site_type_symbol
 _atom_site_label
 _atom_site_symmetry_multiplicity
 _atom_site_fract_x
 _atom_site_fract_y
 _atom_site_fract_z
 _atom_site_occupancy
  Na  Na0  1  0.737938  0.332851  0.249553  1
  Na  Na1  1  0.486282  0.183015  0.494575  1
  Na  Na2  1  0.737938  0.667149  0.749553  1
  Na  Na3  1  0.486282  0.816985  0.994575  1
  Mg  Mg4  1  0.001559  0.185930  0.000353  1
  Mg  Mg5  1  0.001559  0.814070  0.500353  1
  Si  Si6  1  0.252713  0.312593  0.747624  1
  Si  Si7  1  0.252713  0.687407  0.247624  1
  O  O8  1  0.301646  0.789701  0.439865  1
  O  O9  1  0.301646  0.210299  0.939865  1
  O  O10  1  0.982368  0.845100  0.056916  1
  O  O11  1  0.982368  0.154900  0.556916  1
  O  O12  1  0.588761  0.287352  0.777625  1
  O  O13  1  0.148213  0.599321  0.717039  1
  O  O14  1  0.148213  0.400679  0.217039  1
  O  O15  1  0.588761  0.712648  0.277625  1
