# generated using pymatgen
data_K5Nb4O12F
_symmetry_space_group_name_H-M   'P 1'
_cell_length_a   5.17842723
_cell_length_b   12.05450305
_cell_length_c   12.94239197
_cell_angle_alpha   90.00000000
_cell_angle_beta   110.98367424
_cell_angle_gamma   90.00000000
_symmetry_Int_Tables_number   1
_chemical_formula_structural   K5Nb4O12F
_chemical_formula_sum   'K10 Nb8 O24 F2'
_cell_volume   754.32926413
_cell_formula_units_Z   2
loop_
 _symmetry_equiv_pos_site_id
 _symmetry_equiv_pos_as_xyz
  1  'x, y, z'
loop_
 _atom_site_type_symbol
 _atom_site_label
 _atom_site_symmetry_multiplicity
 _atom_site_fract_x
 _atom_site_fract_y
 _atom_site_fract_z
 _atom_site_occupancy
  K  K0  1  0.408231  0.669686  0.350187  1
  K  K1  1  0.000000  0.500000  0.500000  1
  K  K2  1  0.591769  0.169686  0.149813  1
  K  K3  1  0.000000  0.000000  0.000000  1
  K  K4  1  0.408231  0.830314  0.850187  1
  K  K5  1  0.591769  0.330314  0.649813  1
  K  K6  1  0.276916  0.146075  0.829833  1
  K  K7  1  0.723084  0.646075  0.670167  1
  K  K8  1  0.276916  0.353925  0.329833  1
  K  K9  1  0.723084  0.853925  0.170167  1
  Nb  Nb10  1  0.328157  0.012805  0.355427  1
  Nb  Nb11  1  0.671843  0.512805  0.144573  1
  Nb  Nb12  1  0.671843  0.987195  0.644573  1
  Nb  Nb13  1  0.328157  0.487195  0.855427  1
  Nb  Nb14  1  0.934570  0.142803  0.476880  1
  Nb  Nb15  1  0.065430  0.642803  0.023120  1
  Nb  Nb16  1  0.065430  0.857197  0.523120  1
  Nb  Nb17  1  0.934570  0.357197  0.976880  1
  O  O18  1  0.849907  0.372636  0.115692  1
  O  O19  1  0.150093  0.627364  0.884308  1
  O  O20  1  0.683227  0.021539  0.782297  1
  O  O21  1  0.316773  0.521539  0.717703  1
  O  O22  1  0.316773  0.978461  0.217703  1
  O  O23  1  0.683227  0.478461  0.282297  1
  O  O24  1  0.078562  0.218548  0.999083  1
  O  O25  1  0.921438  0.718548  0.500917  1
  O  O26  1  0.921438  0.781452  0.000917  1
  O  O27  1  0.078562  0.281452  0.499083  1
  O  O28  1  0.003469  0.102897  0.330910  1
  O  O29  1  0.996531  0.602897  0.169090  1
  O  O30  1  0.150093  0.872636  0.384308  1
  O  O31  1  0.003469  0.397103  0.830910  1
  O  O32  1  0.550971  0.161003  0.380224  1
  O  O33  1  0.449029  0.661003  0.119776  1
  O  O34  1  0.449029  0.838997  0.619776  1
  O  O35  1  0.550971  0.338997  0.880224  1
  O  O36  1  0.283134  0.458742  0.038688  1
  O  O37  1  0.716866  0.958742  0.461312  1
  O  O38  1  0.716866  0.541258  0.961312  1
  O  O39  1  0.283134  0.041258  0.538688  1
  O  O40  1  0.996531  0.897103  0.669090  1
  O  O41  1  0.849907  0.127364  0.615692  1
  F  F42  1  0.500000  0.500000  0.500000  1
  F  F43  1  0.500000  0.000000  0.000000  1
