# generated using pymatgen
data_SrLiAlF6
_symmetry_space_group_name_H-M   'P 1'
_cell_length_a   5.16532585
_cell_length_b   5.16532585
_cell_length_c   10.35333082
_cell_angle_alpha   90.00000000
_cell_angle_beta   90.00000000
_cell_angle_gamma   120.00000000
_symmetry_Int_Tables_number   1
_chemical_formula_structural   SrLiAlF6
_chemical_formula_sum   'Sr2 Li2 Al2 F12'
_cell_volume   239.22478400
_cell_formula_units_Z   2
loop_
 _symmetry_equiv_pos_site_id
 _symmetry_equiv_pos_as_xyz
  1  'x, y, z'
loop_
 _atom_site_type_symbol
 _atom_site_label
 _atom_site_symmetry_multiplicity
 _atom_site_fract_x
 _atom_site_fract_y
 _atom_site_fract_z
 _atom_site_occupancy
  Sr  Sr0  1  0.000000  0.000000  0.000000  1
  Sr  Sr1  1  0.000000  0.000000  0.500000  1
  Li  Li2  1  0.333333  0.666667  0.250000  1
  Li  Li3  1  0.666667  0.333333  0.750000  1
  Al  Al4  1  0.666667  0.333333  0.250000  1
  Al  Al5  1  0.333333  0.666667  0.750000  1
  F  F6  1  0.386488  0.032132  0.148590  1
  F  F7  1  0.613512  0.645644  0.648590  1
  F  F8  1  0.354356  0.967868  0.648590  1
  F  F9  1  0.032132  0.386488  0.648590  1
  F  F10  1  0.967868  0.613512  0.351410  1
  F  F11  1  0.967868  0.354356  0.148590  1
  F  F12  1  0.645644  0.613512  0.148590  1
  F  F13  1  0.645644  0.032132  0.351410  1
  F  F14  1  0.032132  0.645644  0.851410  1
  F  F15  1  0.386488  0.354356  0.351410  1
  F  F16  1  0.613512  0.967868  0.851410  1
  F  F17  1  0.354356  0.386488  0.851410  1
