# generated using pymatgen
data_Be3N2
_symmetry_space_group_name_H-M   'P 1'
_cell_length_a   2.84837849
_cell_length_b   2.84837849
_cell_length_c   9.76500036
_cell_angle_alpha   90.00000000
_cell_angle_beta   90.00000000
_cell_angle_gamma   120.00000000
_symmetry_Int_Tables_number   1
_chemical_formula_structural   Be3N2
_chemical_formula_sum   'Be6 N4'
_cell_volume   68.61171744
_cell_formula_units_Z   2
loop_
 _symmetry_equiv_pos_site_id
 _symmetry_equiv_pos_as_xyz
  1  'x, y, z'
loop_
 _atom_site_type_symbol
 _atom_site_label
 _atom_site_symmetry_multiplicity
 _atom_site_fract_x
 _atom_site_fract_y
 _atom_site_fract_z
 _atom_site_occupancy
  Be  Be0  1  0.333333  0.666667  0.078297  1
  Be  Be1  1  0.666667  0.333333  0.578297  1
  Be  Be2  1  0.666667  0.333333  0.921703  1
  Be  Be3  1  0.333333  0.666667  0.421703  1
  Be  Be4  1  0.000000  0.000000  0.250000  1
  Be  Be5  1  0.000000  0.000000  0.750000  1
  N  N6  1  0.000000  0.000000  0.000000  1
  N  N7  1  0.000000  0.000000  0.500000  1
  N  N8  1  0.333333  0.666667  0.250000  1
  N  N9  1  0.666667  0.333333  0.750000  1
