# generated using pymatgen
data_LiScSiO4
_symmetry_space_group_name_H-M   'P 1'
_cell_length_a   4.86424600
_cell_length_b   6.03278800
_cell_length_c   10.52991500
_cell_angle_alpha   90.00000000
_cell_angle_beta   90.00000000
_cell_angle_gamma   90.00000000
_symmetry_Int_Tables_number   1
_chemical_formula_structural   LiScSiO4
_chemical_formula_sum   'Li4 Sc4 Si4 O16'
_cell_volume   308.99998605
_cell_formula_units_Z   4
loop_
 _symmetry_equiv_pos_site_id
 _symmetry_equiv_pos_as_xyz
  1  'x, y, z'
loop_
 _atom_site_type_symbol
 _atom_site_label
 _atom_site_symmetry_multiplicity
 _atom_site_fract_x
 _atom_site_fract_y
 _atom_site_fract_z
 _atom_site_occupancy
  Li  Li0  1  0.000000  0.000000  0.000000  1
  Li  Li1  1  0.500000  0.000000  0.500000  1
  Li  Li2  1  0.000000  0.500000  0.000000  1
  Li  Li3  1  0.500000  0.500000  0.500000  1
  Sc  Sc4  1  0.505435  0.250000  0.225312  1
  Sc  Sc5  1  0.994565  0.250000  0.725312  1
  Sc  Sc6  1  0.494565  0.750000  0.774688  1
  Sc  Sc7  1  0.005435  0.750000  0.274688  1
  Si  Si8  1  0.566257  0.750000  0.091542  1
  Si  Si9  1  0.433743  0.250000  0.908458  1
  Si  Si10  1  0.933743  0.750000  0.591542  1
  Si  Si11  1  0.066257  0.250000  0.408458  1
  O  O12  1  0.784387  0.539583  0.668777  1
  O  O13  1  0.215613  0.460417  0.331223  1
  O  O14  1  0.715613  0.539583  0.168777  1
  O  O15  1  0.784387  0.960417  0.668777  1
  O  O16  1  0.284387  0.039583  0.831223  1
  O  O17  1  0.766448  0.250000  0.899152  1
  O  O18  1  0.284387  0.460417  0.831223  1
  O  O19  1  0.215613  0.039583  0.331223  1
  O  O20  1  0.233552  0.750000  0.100848  1
  O  O21  1  0.733552  0.250000  0.399152  1
  O  O22  1  0.804481  0.750000  0.448097  1
  O  O23  1  0.266448  0.750000  0.600848  1
  O  O24  1  0.695519  0.750000  0.948097  1
  O  O25  1  0.304481  0.250000  0.051903  1
  O  O26  1  0.195519  0.250000  0.551903  1
  O  O27  1  0.715613  0.960417  0.168777  1
