# generated using pymatgen
data_Na2Cd3Si3O10
_symmetry_space_group_name_H-M   'P 1'
_cell_length_a   8.79468499
_cell_length_b   8.79468499
_cell_length_c   11.15158458
_cell_angle_alpha   85.80098224
_cell_angle_beta   94.19901776
_cell_angle_gamma   145.69272124
_symmetry_Int_Tables_number   1
_chemical_formula_structural   Na2Cd3Si3O10
_chemical_formula_sum   'Na4 Cd6 Si6 O20'
_cell_volume   484.72246600
_cell_formula_units_Z   2
loop_
 _symmetry_equiv_pos_site_id
 _symmetry_equiv_pos_as_xyz
  1  'x, y, z'
loop_
 _atom_site_type_symbol
 _atom_site_label
 _atom_site_symmetry_multiplicity
 _atom_site_fract_x
 _atom_site_fract_y
 _atom_site_fract_z
 _atom_site_occupancy
  Na  Na0  1  0.188752  0.284609  0.532181  1
  Na  Na1  1  0.284609  0.188752  0.967819  1
  Na  Na2  1  0.811248  0.715391  0.467819  1
  Na  Na3  1  0.715391  0.811248  0.032181  1
  Cd  Cd4  1  0.370568  0.053594  0.705115  1
  Cd  Cd5  1  0.053594  0.370568  0.794885  1
  Cd  Cd6  1  0.629432  0.946406  0.294885  1
  Cd  Cd7  1  0.946406  0.629432  0.205115  1
  Cd  Cd8  1  0.000000  0.500000  0.500000  1
  Cd  Cd9  1  0.500000  0.000000  0.000000  1
  Si  Si10  1  0.541556  0.842658  0.601558  1
  Si  Si11  1  0.842658  0.541556  0.898442  1
  Si  Si12  1  0.458444  0.157342  0.398442  1
  Si  Si13  1  0.157342  0.458444  0.101558  1
  Si  Si14  1  0.819435  0.819435  0.750000  1
  Si  Si15  1  0.180565  0.180565  0.250000  1
  O  O16  1  0.848293  0.163516  0.604048  1
  O  O17  1  0.163516  0.848293  0.895952  1
  O  O18  1  0.151707  0.836484  0.395952  1
  O  O19  1  0.836484  0.151707  0.104048  1
  O  O20  1  0.314855  0.753404  0.671234  1
  O  O21  1  0.753404  0.314855  0.828766  1
  O  O22  1  0.685145  0.246596  0.328766  1
  O  O23  1  0.246596  0.685145  0.171234  1
  O  O24  1  0.551295  0.675484  0.673311  1
  O  O25  1  0.675484  0.551295  0.826689  1
  O  O26  1  0.448705  0.324516  0.326689  1
  O  O27  1  0.324516  0.448705  0.173311  1
  O  O28  1  0.031704  0.940442  0.652265  1
  O  O29  1  0.940442  0.031704  0.847735  1
  O  O30  1  0.968296  0.059558  0.347735  1
  O  O31  1  0.059558  0.968296  0.152265  1
  O  O32  1  0.708880  0.412506  0.032150  1
  O  O33  1  0.412506  0.708880  0.467850  1
  O  O34  1  0.291120  0.587494  0.967850  1
  O  O35  1  0.587494  0.291120  0.532150  1
