# generated using pymatgen
data_Tl2S
_symmetry_space_group_name_H-M   'P 1'
_cell_length_a   9.69436378
_cell_length_b   9.69436378
_cell_length_c   9.69436378
_cell_angle_alpha   81.51809148
_cell_angle_beta   81.51809148
_cell_angle_gamma   81.51809148
_symmetry_Int_Tables_number   1
_chemical_formula_structural   Tl2S
_chemical_formula_sum   'Tl18 S9'
_cell_volume   883.86861330
_cell_formula_units_Z   9
loop_
 _symmetry_equiv_pos_site_id
 _symmetry_equiv_pos_as_xyz
  1  'x, y, z'
loop_
 _atom_site_type_symbol
 _atom_site_label
 _atom_site_symmetry_multiplicity
 _atom_site_fract_x
 _atom_site_fract_y
 _atom_site_fract_z
 _atom_site_occupancy
  Tl  Tl0  1  0.669170  0.032829  0.011501  1
  Tl  Tl1  1  0.011501  0.669170  0.032829  1
  Tl  Tl2  1  0.032829  0.011501  0.669170  1
  Tl  Tl3  1  0.373984  0.701892  0.676935  1
  Tl  Tl4  1  0.676935  0.373984  0.701892  1
  Tl  Tl5  1  0.701892  0.676935  0.373984  1
  Tl  Tl6  1  0.040786  0.371382  0.341470  1
  Tl  Tl7  1  0.341470  0.040786  0.371382  1
  Tl  Tl8  1  0.371382  0.341470  0.040786  1
  Tl  Tl9  1  0.320545  0.659020  0.293568  1
  Tl  Tl10  1  0.659020  0.293568  0.320545  1
  Tl  Tl11  1  0.293568  0.320545  0.659020  1
  Tl  Tl12  1  0.651261  0.991005  0.629612  1
  Tl  Tl13  1  0.991005  0.629612  0.651261  1
  Tl  Tl14  1  0.629612  0.651261  0.991005  1
  Tl  Tl15  1  0.987444  0.286684  0.957533  1
  Tl  Tl16  1  0.286684  0.957533  0.987444  1
  Tl  Tl17  1  0.957533  0.987444  0.286684  1
  S  S18  1  0.682766  0.343133  0.011509  1
  S  S19  1  0.343133  0.011509  0.682766  1
  S  S20  1  0.011509  0.682766  0.343133  1
  S  S21  1  0.320142  0.646537  0.982047  1
  S  S22  1  0.646537  0.982047  0.320142  1
  S  S23  1  0.982047  0.320142  0.646537  1
  S  S24  1  0.351247  0.351247  0.351247  1
  S  S25  1  0.684083  0.684083  0.684083  1
  S  S26  1  0.976317  0.976317  0.976317  1
