# generated using pymatgen
data_Ca3TaGa3(SiO7)2
_symmetry_space_group_name_H-M   'P 1'
_cell_length_a   8.21188192
_cell_length_b   8.21188192
_cell_length_c   5.02681213
_cell_angle_alpha   90.00000000
_cell_angle_beta   90.00000000
_cell_angle_gamma   120.00000000
_symmetry_Int_Tables_number   1
_chemical_formula_structural   Ca3TaGa3(SiO7)2
_chemical_formula_sum   'Ca3 Ta1 Ga3 Si2 O14'
_cell_volume   293.56797541
_cell_formula_units_Z   1
loop_
 _symmetry_equiv_pos_site_id
 _symmetry_equiv_pos_as_xyz
  1  'x, y, z'
loop_
 _atom_site_type_symbol
 _atom_site_label
 _atom_site_symmetry_multiplicity
 _atom_site_fract_x
 _atom_site_fract_y
 _atom_site_fract_z
 _atom_site_occupancy
  Ca  Ca0  1  0.000000  0.422195  0.000000  1
  Ca  Ca1  1  0.577805  0.577805  0.000000  1
  Ca  Ca2  1  0.422195  0.000000  0.000000  1
  Ta  Ta3  1  0.000000  0.000000  0.000000  1
  Ga  Ga4  1  0.256815  0.256815  0.500000  1
  Ga  Ga5  1  0.743185  0.000000  0.500000  1
  Ga  Ga6  1  0.000000  0.743185  0.500000  1
  Si  Si7  1  0.333333  0.666667  0.550374  1
  Si  Si8  1  0.666667  0.333333  0.449626  1
  O  O9  1  0.086285  0.225323  0.234844  1
  O  O10  1  0.774677  0.860962  0.234844  1
  O  O11  1  0.139038  0.913715  0.234844  1
  O  O12  1  0.860962  0.774677  0.765156  1
  O  O13  1  0.913715  0.139038  0.765156  1
  O  O14  1  0.225323  0.086285  0.765156  1
  O  O15  1  0.323819  0.478361  0.690468  1
  O  O16  1  0.521639  0.845458  0.690468  1
  O  O17  1  0.154542  0.676181  0.690468  1
  O  O18  1  0.333333  0.666667  0.229943  1
  O  O19  1  0.666667  0.333333  0.770057  1
  O  O20  1  0.478361  0.323819  0.309532  1
  O  O21  1  0.676181  0.154542  0.309532  1
  O  O22  1  0.845458  0.521639  0.309532  1
