# generated using pymatgen
data_Ba3Y(BO3)3
_symmetry_space_group_name_H-M   'P 1'
_cell_length_a   9.50763560
_cell_length_b   9.50763560
_cell_length_c   18.11366402
_cell_angle_alpha   90.00000000
_cell_angle_beta   90.00000000
_cell_angle_gamma   120.00000000
_symmetry_Int_Tables_number   1
_chemical_formula_structural   Ba3Y(BO3)3
_chemical_formula_sum   'Ba18 Y6 B18 O54'
_cell_volume   1418.01882366
_cell_formula_units_Z   6
loop_
 _symmetry_equiv_pos_site_id
 _symmetry_equiv_pos_as_xyz
  1  'x, y, z'
loop_
 _atom_site_type_symbol
 _atom_site_label
 _atom_site_symmetry_multiplicity
 _atom_site_fract_x
 _atom_site_fract_y
 _atom_site_fract_z
 _atom_site_occupancy
  Ba  Ba0  1  0.333333  0.666667  0.278102  1
  Ba  Ba1  1  0.000000  0.651309  0.132117  1
  Ba  Ba2  1  0.651309  0.000000  0.132117  1
  Ba  Ba3  1  0.348691  0.000000  0.632117  1
  Ba  Ba4  1  0.000000  0.348691  0.632117  1
  Ba  Ba5  1  0.348691  0.348691  0.132117  1
  Ba  Ba6  1  0.651309  0.651309  0.632117  1
  Ba  Ba7  1  0.666667  0.333333  0.778102  1
  Ba  Ba8  1  0.333333  0.666667  0.778102  1
  Ba  Ba9  1  0.666667  0.333333  0.278102  1
  Ba  Ba10  1  0.000000  0.000000  0.717078  1
  Ba  Ba11  1  0.000000  0.000000  0.217078  1
  Ba  Ba12  1  0.317001  0.317001  0.369258  1
  Ba  Ba13  1  0.000000  0.317001  0.869258  1
  Ba  Ba14  1  0.317001  0.000000  0.869258  1
  Ba  Ba15  1  0.682999  0.000000  0.369258  1
  Ba  Ba16  1  0.000000  0.682999  0.369258  1
  Ba  Ba17  1  0.682999  0.682999  0.869258  1
  Y  Y18  1  0.000000  0.000000  0.003596  1
  Y  Y19  1  0.000000  0.000000  0.503596  1
  Y  Y20  1  0.666667  0.333333  0.997687  1
  Y  Y21  1  0.333333  0.666667  0.497687  1
  Y  Y22  1  0.666667  0.333333  0.497687  1
  Y  Y23  1  0.333333  0.666667  0.997687  1
  B  B24  1  0.659670  0.659670  0.421071  1
  B  B25  1  0.000000  0.659670  0.921071  1
  B  B26  1  0.659670  0.000000  0.921071  1
  B  B27  1  0.340330  0.000000  0.421071  1
  B  B28  1  0.000000  0.340330  0.421071  1
  B  B29  1  0.340330  0.340330  0.921071  1
  B  B30  1  0.667399  0.667399  0.249837  1
  B  B31  1  0.000000  0.667399  0.749837  1
  B  B32  1  0.667399  0.000000  0.749837  1
  B  B33  1  0.332601  0.000000  0.249837  1
  B  B34  1  0.000000  0.332601  0.249837  1
  B  B35  1  0.332601  0.332601  0.749837  1
  B  B36  1  0.673974  0.673974  0.075132  1
  B  B37  1  0.000000  0.673974  0.575132  1
  B  B38  1  0.673974  0.000000  0.575132  1
  B  B39  1  0.326026  0.000000  0.075132  1
  B  B40  1  0.000000  0.326026  0.075132  1
  B  B41  1  0.326026  0.326026  0.575132  1
  O  O42  1  0.853137  0.667285  0.750289  1
  O  O43  1  0.000000  0.805382  0.930930  1
  O  O44  1  0.805382  0.000000  0.930930  1
  O  O45  1  0.194618  0.000000  0.430930  1
  O  O46  1  0.000000  0.194618  0.430930  1
  O  O47  1  0.660840  0.146600  0.915718  1
  O  O48  1  0.181104  0.181104  0.585114  1
  O  O49  1  0.000000  0.181104  0.085114  1
  O  O50  1  0.181104  0.000000  0.085114  1
  O  O51  1  0.818896  0.000000  0.585114  1
  O  O52  1  0.000000  0.818896  0.585114  1
  O  O53  1  0.818896  0.818896  0.085114  1
  O  O54  1  0.325841  0.471845  0.570420  1
  O  O55  1  0.853995  0.325841  0.070420  1
  O  O56  1  0.471845  0.146005  0.070420  1
  O  O57  1  0.528155  0.853995  0.570420  1
  O  O58  1  0.146005  0.674159  0.570420  1
  O  O59  1  0.674159  0.528155  0.070420  1
  O  O60  1  0.146005  0.471845  0.070420  1
  O  O61  1  0.325841  0.853995  0.070420  1
  O  O62  1  0.528155  0.674159  0.070420  1
  O  O63  1  0.471845  0.325841  0.570420  1
  O  O64  1  0.853995  0.528155  0.570420  1
  O  O65  1  0.674159  0.146005  0.570420  1
  O  O66  1  0.185852  0.332715  0.750289  1
  O  O67  1  0.853137  0.185852  0.250289  1
  O  O68  1  0.332715  0.146863  0.250289  1
  O  O69  1  0.667285  0.853137  0.750289  1
  O  O70  1  0.146863  0.814148  0.750289  1
  O  O71  1  0.814148  0.667285  0.250289  1
  O  O72  1  0.146863  0.332715  0.250289  1
  O  O73  1  0.185852  0.853137  0.250289  1
  O  O74  1  0.667285  0.814148  0.250289  1
  O  O75  1  0.332715  0.185852  0.750289  1
  O  O76  1  0.805382  0.805382  0.430930  1
  O  O77  1  0.814148  0.146863  0.750289  1
  O  O78  1  0.479467  0.479467  0.749634  1
  O  O79  1  0.000000  0.479467  0.249634  1
  O  O80  1  0.479467  0.000000  0.249634  1
  O  O81  1  0.520533  0.000000  0.749634  1
  O  O82  1  0.000000  0.520533  0.749634  1
  O  O83  1  0.520533  0.520533  0.249634  1
  O  O84  1  0.339160  0.485760  0.915718  1
  O  O85  1  0.853400  0.339160  0.415718  1
  O  O86  1  0.485760  0.146600  0.415718  1
  O  O87  1  0.514240  0.853400  0.915718  1
  O  O88  1  0.146600  0.660840  0.915718  1
  O  O89  1  0.660840  0.514240  0.415718  1
  O  O90  1  0.146600  0.485760  0.415718  1
  O  O91  1  0.339160  0.853400  0.415718  1
  O  O92  1  0.514240  0.660840  0.415718  1
  O  O93  1  0.485760  0.339160  0.915718  1
  O  O94  1  0.853400  0.514240  0.915718  1
  O  O95  1  0.194618  0.194618  0.930930  1
