# generated using pymatgen
data_Cs2Zr(SiO3)3
_symmetry_space_group_name_H-M   'P 1'
_cell_length_a   7.33231141
_cell_length_b   7.33231141
_cell_length_c   10.43867082
_cell_angle_alpha   90.00000000
_cell_angle_beta   90.00000000
_cell_angle_gamma   120.00000000
_symmetry_Int_Tables_number   1
_chemical_formula_structural   Cs2Zr(SiO3)3
_chemical_formula_sum   'Cs4 Zr2 Si6 O18'
_cell_volume   486.02391263
_cell_formula_units_Z   2
loop_
 _symmetry_equiv_pos_site_id
 _symmetry_equiv_pos_as_xyz
  1  'x, y, z'
loop_
 _atom_site_type_symbol
 _atom_site_label
 _atom_site_symmetry_multiplicity
 _atom_site_fract_x
 _atom_site_fract_y
 _atom_site_fract_z
 _atom_site_occupancy
  Cs  Cs0  1  0.333333  0.666667  0.436333  1
  Cs  Cs1  1  0.666667  0.333333  0.936333  1
  Cs  Cs2  1  0.666667  0.333333  0.563667  1
  Cs  Cs3  1  0.333333  0.666667  0.063667  1
  Zr  Zr4  1  0.000000  0.000000  0.500000  1
  Zr  Zr5  1  0.000000  0.000000  0.000000  1
  Si  Si6  1  0.610160  0.764579  0.750000  1
  Si  Si7  1  0.845581  0.610160  0.250000  1
  Si  Si8  1  0.764579  0.154419  0.250000  1
  Si  Si9  1  0.235421  0.845581  0.750000  1
  Si  Si10  1  0.154419  0.389840  0.750000  1
  Si  Si11  1  0.389840  0.235421  0.250000  1
  O  O12  1  0.260246  0.196989  0.382030  1
  O  O13  1  0.063257  0.260246  0.882030  1
  O  O14  1  0.196989  0.936743  0.882030  1
  O  O15  1  0.803011  0.063257  0.382030  1
  O  O16  1  0.936743  0.739754  0.382030  1
  O  O17  1  0.739754  0.803011  0.882030  1
  O  O18  1  0.739754  0.803011  0.617970  1
  O  O19  1  0.936743  0.739754  0.117970  1
  O  O20  1  0.803011  0.063257  0.117970  1
  O  O21  1  0.196989  0.936743  0.617970  1
  O  O22  1  0.063257  0.260246  0.617970  1
  O  O23  1  0.260246  0.196989  0.117970  1
  O  O24  1  0.511736  0.094704  0.250000  1
  O  O25  1  0.417031  0.511736  0.750000  1
  O  O26  1  0.094704  0.582969  0.750000  1
  O  O27  1  0.905296  0.417031  0.250000  1
  O  O28  1  0.582969  0.488264  0.250000  1
  O  O29  1  0.488264  0.905296  0.750000  1
