# generated using pymatgen
data_LiNbZnO4
_symmetry_space_group_name_H-M   'P 1'
_cell_length_a   6.17186676
_cell_length_b   6.17186676
_cell_length_c   8.50517296
_cell_angle_alpha   90.00000000
_cell_angle_beta   90.00000000
_cell_angle_gamma   90.00000000
_symmetry_Int_Tables_number   1
_chemical_formula_structural   LiNbZnO4
_chemical_formula_sum   'Li4 Nb4 Zn4 O16'
_cell_volume   323.97853216
_cell_formula_units_Z   4
loop_
 _symmetry_equiv_pos_site_id
 _symmetry_equiv_pos_as_xyz
  1  'x, y, z'
loop_
 _atom_site_type_symbol
 _atom_site_label
 _atom_site_symmetry_multiplicity
 _atom_site_fract_x
 _atom_site_fract_y
 _atom_site_fract_z
 _atom_site_occupancy
  Li  Li0  1  0.000000  0.219041  0.500000  1
  Li  Li1  1  0.780959  0.000000  0.750000  1
  Li  Li2  1  0.219041  0.000000  0.250000  1
  Li  Li3  1  0.000000  0.780959  0.000000  1
  Nb  Nb4  1  0.500000  0.213121  0.500000  1
  Nb  Nb5  1  0.786879  0.500000  0.750000  1
  Nb  Nb6  1  0.213121  0.500000  0.250000  1
  Nb  Nb7  1  0.500000  0.786879  0.000000  1
  Zn  Zn8  1  0.259167  0.259167  0.875000  1
  Zn  Zn9  1  0.740833  0.259167  0.125000  1
  Zn  Zn10  1  0.259167  0.740833  0.625000  1
  Zn  Zn11  1  0.740833  0.740833  0.375000  1
  O  O12  1  0.263314  0.983420  0.996775  1
  O  O13  1  0.016580  0.263314  0.246775  1
  O  O14  1  0.983420  0.736686  0.746775  1
  O  O15  1  0.263314  0.016580  0.503225  1
  O  O16  1  0.736686  0.983420  0.003225  1
  O  O17  1  0.736686  0.016580  0.496775  1
  O  O18  1  0.983420  0.263314  0.753225  1
  O  O19  1  0.016580  0.736686  0.253225  1
  O  O20  1  0.265885  0.517361  0.016480  1
  O  O21  1  0.482639  0.265885  0.266480  1
  O  O22  1  0.517361  0.734115  0.766480  1
  O  O23  1  0.265885  0.482639  0.483520  1
  O  O24  1  0.734115  0.517361  0.983520  1
  O  O25  1  0.734115  0.482639  0.516480  1
  O  O26  1  0.517361  0.265885  0.733520  1
  O  O27  1  0.482639  0.734115  0.233520  1
