# generated using pymatgen
data_Na2ZnSi3O8
_symmetry_space_group_name_H-M   'P 1'
_cell_length_a   6.48052801
_cell_length_b   8.74969700
_cell_length_c   6.76923577
_cell_angle_alpha   90.00000000
_cell_angle_beta   103.57537824
_cell_angle_gamma   90.00000000
_symmetry_Int_Tables_number   1
_chemical_formula_structural   Na2ZnSi3O8
_chemical_formula_sum   'Na4 Zn2 Si6 O16'
_cell_volume   373.11008996
_cell_formula_units_Z   2
loop_
 _symmetry_equiv_pos_site_id
 _symmetry_equiv_pos_as_xyz
  1  'x, y, z'
loop_
 _atom_site_type_symbol
 _atom_site_label
 _atom_site_symmetry_multiplicity
 _atom_site_fract_x
 _atom_site_fract_y
 _atom_site_fract_z
 _atom_site_occupancy
  Na  Na0  1  0.408198  0.633464  0.529147  1
  Na  Na1  1  0.591802  0.133464  0.470853  1
  Na  Na2  1  0.168853  0.190590  0.779387  1
  Na  Na3  1  0.831147  0.690590  0.220613  1
  Zn  Zn4  1  0.963114  0.502111  0.611003  1
  Zn  Zn5  1  0.036886  0.002111  0.388997  1
  Si  Si6  1  0.750234  0.314141  0.900014  1
  Si  Si7  1  0.249766  0.814141  0.099986  1
  Si  Si8  1  0.594272  0.996528  0.988570  1
  Si  Si9  1  0.405728  0.496528  0.011430  1
  Si  Si10  1  0.855616  0.832296  0.732320  1
  Si  Si11  1  0.144384  0.332296  0.267680  1
  O  O12  1  0.579466  0.171156  0.890947  1
  O  O13  1  0.420534  0.671156  0.109053  1
  O  O14  1  0.782543  0.337571  0.673663  1
  O  O15  1  0.217457  0.837571  0.326337  1
  O  O16  1  0.024403  0.769002  0.942632  1
  O  O17  1  0.975597  0.269002  0.057368  1
  O  O18  1  0.940918  0.985417  0.644632  1
  O  O19  1  0.059082  0.485417  0.355368  1
  O  O20  1  0.791887  0.690797  0.574453  1
  O  O21  1  0.208113  0.190797  0.425547  1
  O  O22  1  0.249423  0.480134  0.791868  1
  O  O23  1  0.750577  0.980134  0.208132  1
  O  O24  1  0.361670  0.377500  0.186137  1
  O  O25  1  0.638330  0.877500  0.813863  1
  O  O26  1  0.653057  0.464583  0.995163  1
  O  O27  1  0.346943  0.964583  0.004837  1
