# generated using pymatgen
data_BaHo2ZnO5
_symmetry_space_group_name_H-M   'P 1'
_cell_length_a   5.74187297
_cell_length_b   7.12283818
_cell_length_c   12.40011577
_cell_angle_alpha   90.00000000
_cell_angle_beta   90.00000000
_cell_angle_gamma   90.00000000
_symmetry_Int_Tables_number   1
_chemical_formula_structural   BaHo2ZnO5
_chemical_formula_sum   'Ba4 Ho8 Zn4 O20'
_cell_volume   507.14529180
_cell_formula_units_Z   4
loop_
 _symmetry_equiv_pos_site_id
 _symmetry_equiv_pos_as_xyz
  1  'x, y, z'
loop_
 _atom_site_type_symbol
 _atom_site_label
 _atom_site_symmetry_multiplicity
 _atom_site_fract_x
 _atom_site_fract_y
 _atom_site_fract_z
 _atom_site_occupancy
  Ba  Ba0  1  0.750000  0.077241  0.101692  1
  Ba  Ba1  1  0.750000  0.422759  0.601692  1
  Ba  Ba2  1  0.250000  0.577241  0.398308  1
  Ba  Ba3  1  0.250000  0.922759  0.898308  1
  Ho  Ho4  1  0.250000  0.399814  0.074386  1
  Ho  Ho5  1  0.750000  0.618487  0.208094  1
  Ho  Ho6  1  0.750000  0.881513  0.708094  1
  Ho  Ho7  1  0.250000  0.118487  0.291906  1
  Ho  Ho8  1  0.750000  0.600186  0.925614  1
  Ho  Ho9  1  0.750000  0.899814  0.425614  1
  Ho  Ho10  1  0.250000  0.100186  0.574386  1
  Ho  Ho11  1  0.250000  0.381513  0.791906  1
  Zn  Zn12  1  0.250000  0.808282  0.150018  1
  Zn  Zn13  1  0.750000  0.191718  0.849982  1
  Zn  Zn14  1  0.750000  0.308282  0.349982  1
  Zn  Zn15  1  0.250000  0.691718  0.650018  1
  O  O16  1  0.250000  0.423758  0.600699  1
  O  O17  1  0.750000  0.576242  0.399301  1
  O  O18  1  0.750000  0.923758  0.899301  1
  O  O19  1  0.250000  0.076242  0.100699  1
  O  O20  1  0.999899  0.858871  0.275385  1
  O  O21  1  0.499899  0.141129  0.724615  1
  O  O22  1  0.000101  0.358871  0.224615  1
  O  O23  1  0.500101  0.641129  0.775385  1
  O  O24  1  0.000101  0.141129  0.724615  1
  O  O25  1  0.500101  0.858871  0.275385  1
  O  O26  1  0.999899  0.641129  0.775385  1
  O  O27  1  0.499899  0.358871  0.224615  1
  O  O28  1  0.499099  0.662331  0.066214  1
  O  O29  1  0.999099  0.337669  0.933786  1
  O  O30  1  0.500901  0.162331  0.433786  1
  O  O31  1  0.000901  0.837669  0.566214  1
  O  O32  1  0.999099  0.162331  0.433786  1
  O  O33  1  0.499099  0.837669  0.566214  1
  O  O34  1  0.000901  0.662331  0.066214  1
  O  O35  1  0.500901  0.337669  0.933786  1
