# generated using pymatgen
data_LiCa3RuO6
_symmetry_space_group_name_H-M   'P 1'
_cell_length_a   6.47996104
_cell_length_b   6.47996104
_cell_length_c   6.47996104
_cell_angle_alpha   91.94371237
_cell_angle_beta   91.94371237
_cell_angle_gamma   91.94371237
_symmetry_Int_Tables_number   1
_chemical_formula_structural   LiCa3RuO6
_chemical_formula_sum   'Li2 Ca6 Ru2 O12'
_cell_volume   271.61231636
_cell_formula_units_Z   2
loop_
 _symmetry_equiv_pos_site_id
 _symmetry_equiv_pos_as_xyz
  1  'x, y, z'
loop_
 _atom_site_type_symbol
 _atom_site_label
 _atom_site_symmetry_multiplicity
 _atom_site_fract_x
 _atom_site_fract_y
 _atom_site_fract_z
 _atom_site_occupancy
  Li  Li0  1  0.250000  0.250000  0.250000  1
  Li  Li1  1  0.750000  0.750000  0.750000  1
  Ca  Ca2  1  0.250000  0.894593  0.605407  1
  Ca  Ca3  1  0.894593  0.605407  0.250000  1
  Ca  Ca4  1  0.394593  0.750000  0.105407  1
  Ca  Ca5  1  0.105407  0.394593  0.750000  1
  Ca  Ca6  1  0.750000  0.105407  0.394593  1
  Ca  Ca7  1  0.605407  0.250000  0.894593  1
  Ru  Ru8  1  0.000000  0.000000  0.000000  1
  Ru  Ru9  1  0.500000  0.500000  0.500000  1
  O  O10  1  0.577068  0.791546  0.450093  1
  O  O11  1  0.708454  0.922932  0.049907  1
  O  O12  1  0.049907  0.708454  0.922932  1
  O  O13  1  0.922932  0.049907  0.708454  1
  O  O14  1  0.450093  0.577068  0.791546  1
  O  O15  1  0.791546  0.450093  0.577068  1
  O  O16  1  0.549907  0.422932  0.208454  1
  O  O17  1  0.208454  0.549907  0.422932  1
  O  O18  1  0.077068  0.950093  0.291546  1
  O  O19  1  0.950093  0.291546  0.077068  1
  O  O20  1  0.291546  0.077068  0.950093  1
  O  O21  1  0.422932  0.208454  0.549907  1
