# generated using pymatgen
data_Ca3Al2(SiO4)3
_symmetry_space_group_name_H-M   'P 1'
_cell_length_a   10.36545002
_cell_length_b   10.36545002
_cell_length_c   10.36545002
_cell_angle_alpha   109.47122063
_cell_angle_beta   109.47122063
_cell_angle_gamma   109.47122063
_symmetry_Int_Tables_number   1
_chemical_formula_structural   Ca3Al2(SiO4)3
_chemical_formula_sum   'Ca12 Al8 Si12 O48'
_cell_volume   857.31928866
_cell_formula_units_Z   4
loop_
 _symmetry_equiv_pos_site_id
 _symmetry_equiv_pos_as_xyz
  1  'x, y, z'
loop_
 _atom_site_type_symbol
 _atom_site_label
 _atom_site_symmetry_multiplicity
 _atom_site_fract_x
 _atom_site_fract_y
 _atom_site_fract_z
 _atom_site_occupancy
  Ca  Ca0  1  0.250000  0.875000  0.625000  1
  Ca  Ca1  1  0.875000  0.625000  0.250000  1
  Ca  Ca2  1  0.625000  0.875000  0.750000  1
  Ca  Ca3  1  0.875000  0.750000  0.625000  1
  Ca  Ca4  1  0.625000  0.250000  0.875000  1
  Ca  Ca5  1  0.750000  0.625000  0.875000  1
  Ca  Ca6  1  0.750000  0.125000  0.375000  1
  Ca  Ca7  1  0.125000  0.375000  0.750000  1
  Ca  Ca8  1  0.375000  0.125000  0.250000  1
  Ca  Ca9  1  0.125000  0.250000  0.375000  1
  Ca  Ca10  1  0.375000  0.750000  0.125000  1
  Ca  Ca11  1  0.250000  0.375000  0.125000  1
  Al  Al12  1  0.500000  0.000000  0.000000  1
  Al  Al13  1  0.000000  0.000000  0.000000  1
  Al  Al14  1  0.000000  0.500000  0.000000  1
  Al  Al15  1  0.000000  0.000000  0.500000  1
  Al  Al16  1  0.000000  0.500000  0.500000  1
  Al  Al17  1  0.500000  0.000000  0.500000  1
  Al  Al18  1  0.500000  0.500000  0.000000  1
  Al  Al19  1  0.500000  0.500000  0.500000  1
  Si  Si20  1  0.250000  0.125000  0.875000  1
  Si  Si21  1  0.875000  0.250000  0.125000  1
  Si  Si22  1  0.625000  0.750000  0.375000  1
  Si  Si23  1  0.250000  0.625000  0.375000  1
  Si  Si24  1  0.375000  0.625000  0.750000  1
  Si  Si25  1  0.750000  0.375000  0.625000  1
  Si  Si26  1  0.875000  0.125000  0.750000  1
  Si  Si27  1  0.125000  0.750000  0.875000  1
  Si  Si28  1  0.125000  0.875000  0.250000  1
  Si  Si29  1  0.625000  0.375000  0.250000  1
  Si  Si30  1  0.375000  0.250000  0.625000  1
  Si  Si31  1  0.750000  0.875000  0.125000  1
  O  O32  1  0.506748  0.393469  0.810772  1
  O  O33  1  0.106531  0.613279  0.417303  1
  O  O34  1  0.689228  0.082697  0.695976  1
  O  O35  1  0.993252  0.804024  0.886721  1
  O  O36  1  0.993252  0.689228  0.106531  1
  O  O37  1  0.804024  0.886721  0.993252  1
  O  O38  1  0.082697  0.886721  0.393469  1
  O  O39  1  0.886721  0.993252  0.804024  1
  O  O40  1  0.417303  0.810772  0.804024  1
  O  O41  1  0.613279  0.695976  0.506748  1
  O  O42  1  0.695976  0.506748  0.613279  1
  O  O43  1  0.106531  0.993252  0.689228  1
  O  O44  1  0.886721  0.393469  0.082697  1
  O  O45  1  0.804024  0.417303  0.810772  1
  O  O46  1  0.689228  0.106531  0.993252  1
  O  O47  1  0.393469  0.082697  0.886721  1
  O  O48  1  0.810772  0.804024  0.417303  1
  O  O49  1  0.417303  0.106531  0.613279  1
  O  O50  1  0.082697  0.695976  0.689228  1
  O  O51  1  0.582697  0.189228  0.195976  1
  O  O52  1  0.695976  0.689228  0.082697  1
  O  O53  1  0.810772  0.506748  0.393469  1
  O  O54  1  0.613279  0.417303  0.106531  1
  O  O55  1  0.506748  0.613279  0.695976  1
  O  O56  1  0.493252  0.606531  0.189228  1
  O  O57  1  0.893469  0.386721  0.582697  1
  O  O58  1  0.310772  0.917303  0.304024  1
  O  O59  1  0.006748  0.195976  0.113279  1
  O  O60  1  0.006748  0.310772  0.893469  1
  O  O61  1  0.195976  0.113279  0.006748  1
  O  O62  1  0.917303  0.113279  0.606531  1
  O  O63  1  0.113279  0.006748  0.195976  1
  O  O64  1  0.493252  0.386721  0.304024  1
  O  O65  1  0.386721  0.582697  0.893469  1
  O  O66  1  0.189228  0.493252  0.606531  1
  O  O67  1  0.606531  0.189228  0.493252  1
  O  O68  1  0.304024  0.310772  0.917303  1
  O  O69  1  0.917303  0.304024  0.310772  1
  O  O70  1  0.582697  0.893469  0.386721  1
  O  O71  1  0.189228  0.195976  0.582697  1
  O  O72  1  0.606531  0.917303  0.113279  1
  O  O73  1  0.310772  0.893469  0.006748  1
  O  O74  1  0.195976  0.582697  0.189228  1
  O  O75  1  0.113279  0.606531  0.917303  1
  O  O76  1  0.893469  0.006748  0.310772  1
  O  O77  1  0.304024  0.493252  0.386721  1
  O  O78  1  0.386721  0.304024  0.493252  1
  O  O79  1  0.393469  0.810772  0.506748  1
