# generated using pymatgen
data_Na6Mg2C4SO16
_symmetry_space_group_name_H-M   'P 1'
_cell_length_a   9.93960430
_cell_length_b   9.93960430
_cell_length_c   9.93960430
_cell_angle_alpha   60.00000000
_cell_angle_beta   60.00000000
_cell_angle_gamma   60.00000000
_symmetry_Int_Tables_number   1
_chemical_formula_structural   Na6Mg2C4SO16
_chemical_formula_sum   'Na12 Mg4 C8 S2 O32'
_cell_volume   694.37214134
_cell_formula_units_Z   2
loop_
 _symmetry_equiv_pos_site_id
 _symmetry_equiv_pos_as_xyz
  1  'x, y, z'
loop_
 _atom_site_type_symbol
 _atom_site_label
 _atom_site_symmetry_multiplicity
 _atom_site_fract_x
 _atom_site_fract_y
 _atom_site_fract_z
 _atom_site_occupancy
  Na  Na0  1  0.031946  0.468054  0.468054  1
  Na  Na1  1  0.468054  0.468054  0.031946  1
  Na  Na2  1  0.031946  0.468054  0.031946  1
  Na  Na3  1  0.468054  0.031946  0.468054  1
  Na  Na4  1  0.031946  0.031946  0.468054  1
  Na  Na5  1  0.468054  0.031946  0.031946  1
  Na  Na6  1  0.218054  0.781946  0.781946  1
  Na  Na7  1  0.781946  0.781946  0.218054  1
  Na  Na8  1  0.218054  0.781946  0.218054  1
  Na  Na9  1  0.781946  0.218054  0.781946  1
  Na  Na10  1  0.218054  0.218054  0.781946  1
  Na  Na11  1  0.781946  0.218054  0.218054  1
  Mg  Mg12  1  0.625000  0.625000  0.625000  1
  Mg  Mg13  1  0.125000  0.625000  0.625000  1
  Mg  Mg14  1  0.625000  0.625000  0.125000  1
  Mg  Mg15  1  0.625000  0.125000  0.625000  1
  C  C16  1  0.778188  0.407271  0.407271  1
  C  C17  1  0.842729  0.471812  0.842729  1
  C  C18  1  0.842729  0.842729  0.471812  1
  C  C19  1  0.842729  0.842729  0.842729  1
  C  C20  1  0.471812  0.842729  0.842729  1
  C  C21  1  0.407271  0.778188  0.407271  1
  C  C22  1  0.407271  0.407271  0.778188  1
  C  C23  1  0.407271  0.407271  0.407271  1
  S  S24  1  0.250000  0.250000  0.250000  1
  S  S25  1  1.000000  1.000000  1.000000  1
  O  O26  1  0.188455  0.188455  0.188455  1
  O  O27  1  0.815366  0.061545  0.061545  1
  O  O28  1  0.061545  0.061545  0.061545  1
  O  O29  1  0.188455  0.434634  0.188455  1
  O  O30  1  0.188455  0.188455  0.434634  1
  O  O31  1  0.434634  0.188455  0.188455  1
  O  O32  1  0.061545  0.061545  0.815366  1
  O  O33  1  0.061545  0.815366  0.061545  1
  O  O34  1  0.436065  0.263844  0.520244  1
  O  O35  1  0.263844  0.436065  0.779847  1
  O  O36  1  0.779847  0.520244  0.263844  1
  O  O37  1  0.779847  0.263844  0.436065  1
  O  O38  1  0.263844  0.520244  0.436065  1
  O  O39  1  0.520244  0.436065  0.263844  1
  O  O40  1  0.520244  0.263844  0.779847  1
  O  O41  1  0.779847  0.436065  0.520244  1
  O  O42  1  0.436065  0.520244  0.779847  1
  O  O43  1  0.263844  0.779847  0.520244  1
  O  O44  1  0.729756  0.470153  0.813935  1
  O  O45  1  0.813935  0.470153  0.986156  1
  O  O46  1  0.986156  0.470153  0.729756  1
  O  O47  1  0.813935  0.729756  0.470153  1
  O  O48  1  0.470153  0.813935  0.729756  1
  O  O49  1  0.729756  0.986156  0.470153  1
  O  O50  1  0.729756  0.813935  0.986156  1
  O  O51  1  0.986156  0.729756  0.813935  1
  O  O52  1  0.470153  0.986156  0.813935  1
  O  O53  1  0.470153  0.729756  0.986156  1
  O  O54  1  0.986156  0.813935  0.470153  1
  O  O55  1  0.813935  0.986156  0.729756  1
  O  O56  1  0.520244  0.779847  0.436065  1
  O  O57  1  0.436065  0.779847  0.263844  1
