# generated using pymatgen
data_MnAg4(SbS3)2
_symmetry_space_group_name_H-M   'P 1'
_cell_length_a   6.73285732
_cell_length_b   8.01126537
_cell_length_c   12.46910030
_cell_angle_alpha   90.00000000
_cell_angle_beta   121.07770724
_cell_angle_gamma   90.00000000
_symmetry_Int_Tables_number   1
_chemical_formula_structural   MnAg4(SbS3)2
_chemical_formula_sum   'Mn2 Ag8 Sb4 S12'
_cell_volume   576.03223188
_cell_formula_units_Z   2
loop_
 _symmetry_equiv_pos_site_id
 _symmetry_equiv_pos_as_xyz
  1  'x, y, z'
loop_
 _atom_site_type_symbol
 _atom_site_label
 _atom_site_symmetry_multiplicity
 _atom_site_fract_x
 _atom_site_fract_y
 _atom_site_fract_z
 _atom_site_occupancy
  Mn  Mn0  1  0.500000  0.500000  0.500000  1
  Mn  Mn1  1  0.500000  0.000000  0.000000  1
  Ag  Ag2  1  0.766228  0.967700  0.527615  1
  Ag  Ag3  1  0.766228  0.532300  0.027615  1
  Ag  Ag4  1  0.233772  0.032300  0.472385  1
  Ag  Ag5  1  0.251726  0.703730  0.182995  1
  Ag  Ag6  1  0.748274  0.203730  0.317005  1
  Ag  Ag7  1  0.748274  0.296270  0.817005  1
  Ag  Ag8  1  0.251726  0.796270  0.682995  1
  Ag  Ag9  1  0.233772  0.467700  0.972385  1
  Sb  Sb10  1  0.161711  0.149683  0.188636  1
  Sb  Sb11  1  0.161711  0.350317  0.688636  1
  Sb  Sb12  1  0.838289  0.850317  0.811364  1
  Sb  Sb13  1  0.838289  0.649683  0.311364  1
  S  S14  1  0.596510  0.907044  0.219397  1
  S  S15  1  0.237531  0.741891  0.894264  1
  S  S16  1  0.403490  0.407044  0.280603  1
  S  S17  1  0.403490  0.092956  0.780603  1
  S  S18  1  0.596510  0.592956  0.719397  1
  S  S19  1  0.156750  0.174568  0.986035  1
  S  S20  1  0.843250  0.674568  0.513965  1
  S  S21  1  0.843250  0.825432  0.013965  1
  S  S22  1  0.156750  0.325432  0.486035  1
  S  S23  1  0.237531  0.758109  0.394264  1
  S  S24  1  0.762469  0.258109  0.105736  1
  S  S25  1  0.762469  0.241891  0.605736  1
