# generated using pymatgen
data_Na2ZnP2O7
_symmetry_space_group_name_H-M   'P 1'
_cell_length_a   7.83377751
_cell_length_b   7.83377751
_cell_length_c   10.42038230
_cell_angle_alpha   90.00000000
_cell_angle_beta   90.00000000
_cell_angle_gamma   90.00000000
_symmetry_Int_Tables_number   1
_chemical_formula_structural   Na2ZnP2O7
_chemical_formula_sum   'Na8 Zn4 P8 O28'
_cell_volume   639.47875121
_cell_formula_units_Z   4
loop_
 _symmetry_equiv_pos_site_id
 _symmetry_equiv_pos_as_xyz
  1  'x, y, z'
loop_
 _atom_site_type_symbol
 _atom_site_label
 _atom_site_symmetry_multiplicity
 _atom_site_fract_x
 _atom_site_fract_y
 _atom_site_fract_z
 _atom_site_occupancy
  Na  Na0  1  0.806078  0.193922  0.500000  1
  Na  Na1  1  0.645929  0.645929  0.500000  1
  Na  Na2  1  0.145929  0.854071  0.000000  1
  Na  Na3  1  0.193922  0.806078  0.500000  1
  Na  Na4  1  0.854071  0.145929  0.000000  1
  Na  Na5  1  0.693922  0.693922  0.000000  1
  Na  Na6  1  0.306078  0.306078  0.000000  1
  Na  Na7  1  0.354071  0.354071  0.500000  1
  Zn  Zn8  1  0.500000  0.000000  0.250000  1
  Zn  Zn9  1  0.000000  0.500000  0.250000  1
  Zn  Zn10  1  0.000000  0.500000  0.750000  1
  Zn  Zn11  1  0.500000  0.000000  0.750000  1
  P  P12  1  0.361910  0.638090  0.788678  1
  P  P13  1  0.638090  0.361910  0.788678  1
  P  P14  1  0.861910  0.861910  0.711322  1
  P  P15  1  0.361910  0.638090  0.211322  1
  P  P16  1  0.861910  0.861910  0.288678  1
  P  P17  1  0.138090  0.138090  0.711322  1
  P  P18  1  0.138090  0.138090  0.288678  1
  P  P19  1  0.638090  0.361910  0.211322  1
  O  O20  1  0.080456  0.306029  0.353190  1
  O  O21  1  0.919544  0.693971  0.353190  1
  O  O22  1  0.306029  0.080456  0.646810  1
  O  O23  1  0.806029  0.419544  0.853190  1
  O  O24  1  0.193971  0.580456  0.853190  1
  O  O25  1  0.419544  0.806029  0.146810  1
  O  O26  1  0.580456  0.193971  0.146810  1
  O  O27  1  0.693971  0.919544  0.646810  1
  O  O28  1  0.919544  0.693971  0.646810  1
  O  O29  1  0.080456  0.306029  0.646810  1
  O  O30  1  0.693971  0.919544  0.353190  1
  O  O31  1  0.193971  0.580456  0.146810  1
  O  O32  1  0.806029  0.419544  0.146810  1
  O  O33  1  0.580456  0.193971  0.853190  1
  O  O34  1  0.419544  0.806029  0.853190  1
  O  O35  1  0.306029  0.080456  0.353190  1
  O  O36  1  0.863504  0.863504  0.856519  1
  O  O37  1  0.136496  0.136496  0.856519  1
  O  O38  1  0.863504  0.863504  0.143481  1
  O  O39  1  0.363504  0.636496  0.356519  1
  O  O40  1  0.000000  0.000000  0.345406  1
  O  O41  1  0.500000  0.500000  0.845406  1
  O  O42  1  0.500000  0.500000  0.154594  1
  O  O43  1  0.000000  0.000000  0.654594  1
  O  O44  1  0.136496  0.136496  0.143481  1
  O  O45  1  0.363504  0.636496  0.643481  1
  O  O46  1  0.636496  0.363504  0.643481  1
  O  O47  1  0.636496  0.363504  0.356519  1
