# generated using pymatgen
data_Sm4Si2S3O7
_symmetry_space_group_name_H-M   'P 1'
_cell_length_a   10.96802996
_cell_length_b   10.96802996
_cell_length_c   10.96802996
_cell_angle_alpha   114.14810148
_cell_angle_beta   114.14810148
_cell_angle_gamma   100.47501066
_symmetry_Int_Tables_number   1
_chemical_formula_structural   Sm4Si2S3O7
_chemical_formula_sum   'Sm16 Si8 S12 O28'
_cell_volume   997.34471364
_cell_formula_units_Z   4
loop_
 _symmetry_equiv_pos_site_id
 _symmetry_equiv_pos_as_xyz
  1  'x, y, z'
loop_
 _atom_site_type_symbol
 _atom_site_label
 _atom_site_symmetry_multiplicity
 _atom_site_fract_x
 _atom_site_fract_y
 _atom_site_fract_z
 _atom_site_occupancy
  Sm  Sm0  1  0.171727  0.828273  0.000000  1
  Sm  Sm1  1  0.578273  0.078273  0.156545  1
  Sm  Sm2  1  0.921727  0.421727  0.843455  1
  Sm  Sm3  1  0.828273  0.171727  0.000000  1
  Sm  Sm4  1  0.578273  0.421727  0.500000  1
  Sm  Sm5  1  0.171727  0.171727  0.343455  1
  Sm  Sm6  1  0.828273  0.828273  0.656545  1
  Sm  Sm7  1  0.921727  0.078273  0.500000  1
  Sm  Sm8  1  0.045978  0.782370  0.263608  1
  Sm  Sm9  1  0.518762  0.782370  0.736392  1
  Sm  Sm10  1  0.217630  0.481238  0.263608  1
  Sm  Sm11  1  0.532370  0.295978  0.763608  1
  Sm  Sm12  1  0.532370  0.768762  0.236392  1
  Sm  Sm13  1  0.231238  0.467630  0.763608  1
  Sm  Sm14  1  0.704022  0.467630  0.236392  1
  Sm  Sm15  1  0.217630  0.954022  0.736392  1
  Si  Si16  1  0.652463  0.027896  0.624567  1
  Si  Si17  1  0.403329  0.027896  0.375433  1
  Si  Si18  1  0.972104  0.596671  0.624567  1
  Si  Si19  1  0.777896  0.902463  0.124567  1
  Si  Si20  1  0.777896  0.653329  0.875433  1
  Si  Si21  1  0.346671  0.222104  0.124567  1
  Si  Si22  1  0.097537  0.222104  0.875433  1
  Si  Si23  1  0.972104  0.347537  0.375433  1
  S  S24  1  0.750000  0.250000  0.500000  1
  S  S25  1  0.000000  0.000000  0.000000  1
  S  S26  1  0.500000  0.500000  0.000000  1
  S  S27  1  0.250000  0.750000  0.500000  1
  S  S28  1  0.227227  0.125000  0.602227  1
  S  S29  1  0.875000  0.772773  0.397773  1
  S  S30  1  0.375000  0.477227  0.602227  1
  S  S31  1  0.522773  0.625000  0.397773  1
  S  S32  1  0.522773  0.125000  0.897773  1
  S  S33  1  0.875000  0.477227  0.102227  1
  S  S34  1  0.375000  0.772773  0.897773  1
  S  S35  1  0.227227  0.625000  0.102227  1
  O  O36  1  0.022636  0.522636  0.500000  1
  O  O37  1  0.272636  0.272636  0.000000  1
  O  O38  1  0.727364  0.727364  0.000000  1
  O  O39  1  0.477364  0.977364  0.500000  1
  O  O40  1  0.221109  0.950475  0.270634  1
  O  O41  1  0.679841  0.950475  0.729366  1
  O  O42  1  0.049525  0.320159  0.270634  1
  O  O43  1  0.700475  0.471109  0.770634  1
  O  O44  1  0.700475  0.929841  0.229366  1
  O  O45  1  0.070159  0.299525  0.770634  1
  O  O46  1  0.528891  0.299525  0.229366  1
  O  O47  1  0.049525  0.778891  0.729366  1
  O  O48  1  0.308771  0.288688  0.261716  1
  O  O49  1  0.026972  0.047055  0.738284  1
  O  O50  1  0.952945  0.973028  0.261716  1
  O  O51  1  0.797055  0.558771  0.520083  1
  O  O52  1  0.038688  0.276972  0.479917  1
  O  O53  1  0.723028  0.961312  0.520083  1
  O  O54  1  0.441229  0.202945  0.479917  1
  O  O55  1  0.711312  0.691229  0.738284  1
  O  O56  1  0.441229  0.961312  0.238284  1
  O  O57  1  0.723028  0.202945  0.761716  1
  O  O58  1  0.797055  0.276972  0.238284  1
  O  O59  1  0.952945  0.691229  0.979917  1
  O  O60  1  0.711312  0.973028  0.020083  1
  O  O61  1  0.026972  0.288688  0.979917  1
  O  O62  1  0.308771  0.047055  0.020083  1
  O  O63  1  0.038688  0.558771  0.761716  1
