# generated using pymatgen
data_CaBPO5
_symmetry_space_group_name_H-M   'P 1'
_cell_length_a   6.69802702
_cell_length_b   6.69802702
_cell_length_c   6.80427993
_cell_angle_alpha   90.00000000
_cell_angle_beta   90.00000000
_cell_angle_gamma   120.00000000
_symmetry_Int_Tables_number   1
_chemical_formula_structural   CaBPO5
_chemical_formula_sum   'Ca3 B3 P3 O15'
_cell_volume   264.36660547
_cell_formula_units_Z   3
loop_
 _symmetry_equiv_pos_site_id
 _symmetry_equiv_pos_as_xyz
  1  'x, y, z'
loop_
 _atom_site_type_symbol
 _atom_site_label
 _atom_site_symmetry_multiplicity
 _atom_site_fract_x
 _atom_site_fract_y
 _atom_site_fract_z
 _atom_site_occupancy
  Ca  Ca0  1  0.000000  0.602073  0.166667  1
  Ca  Ca1  1  0.602073  0.000000  0.833333  1
  Ca  Ca2  1  0.397927  0.397927  0.500000  1
  B  B3  1  0.898233  0.898233  0.500000  1
  B  B4  1  0.000000  0.101767  0.166667  1
  B  B5  1  0.101767  0.000000  0.833333  1
  P  P6  1  0.000000  0.582430  0.666667  1
  P  P7  1  0.582430  0.000000  0.333333  1
  P  P8  1  0.417570  0.417570  0.000000  1
  O  O9  1  0.000000  0.046574  0.666667  1
  O  O10  1  0.953426  0.953426  0.000000  1
  O  O11  1  0.046574  0.000000  0.333333  1
  O  O12  1  0.464886  0.602908  0.849357  1
  O  O13  1  0.397092  0.861979  0.182690  1
  O  O14  1  0.138021  0.535114  0.516023  1
  O  O15  1  0.348962  0.192246  0.872364  1
  O  O16  1  0.807754  0.156716  0.205697  1
  O  O17  1  0.843284  0.651038  0.539031  1
  O  O18  1  0.156716  0.807754  0.794303  1
  O  O19  1  0.651038  0.843284  0.460969  1
  O  O20  1  0.192246  0.348962  0.127636  1
  O  O21  1  0.602908  0.464886  0.150643  1
  O  O22  1  0.535114  0.138021  0.483977  1
  O  O23  1  0.861979  0.397092  0.817310  1
