# generated using pymatgen
data_Na2Ca(SO4)2
_symmetry_space_group_name_H-M   'P 1'
_cell_length_a   6.61750106
_cell_length_b   6.61750106
_cell_length_c   8.69985949
_cell_angle_alpha   72.94830339
_cell_angle_beta   107.05169661
_cell_angle_gamma   101.67430067
_symmetry_Int_Tables_number   1
_chemical_formula_structural   Na2Ca(SO4)2
_chemical_formula_sum   'Na4 Ca2 S4 O16'
_cell_volume   345.38596607
_cell_formula_units_Z   2
loop_
 _symmetry_equiv_pos_site_id
 _symmetry_equiv_pos_as_xyz
  1  'x, y, z'
loop_
 _atom_site_type_symbol
 _atom_site_label
 _atom_site_symmetry_multiplicity
 _atom_site_fract_x
 _atom_site_fract_y
 _atom_site_fract_z
 _atom_site_occupancy
  Na  Na0  1  0.304665  0.586057  0.562159  1
  Na  Na1  1  0.695335  0.413943  0.437841  1
  Na  Na2  1  0.586057  0.304665  0.937841  1
  Na  Na3  1  0.413943  0.695335  0.062159  1
  Ca  Ca4  1  0.061173  0.061173  0.250000  1
  Ca  Ca5  1  0.938827  0.938827  0.750000  1
  S  S6  1  0.968145  0.600225  0.186027  1
  S  S7  1  0.031855  0.399775  0.813973  1
  S  S8  1  0.600225  0.968145  0.313973  1
  S  S9  1  0.399775  0.031855  0.686027  1
  O  O10  1  0.261030  0.481522  0.868743  1
  O  O11  1  0.481522  0.261030  0.631257  1
  O  O12  1  0.738970  0.518478  0.131257  1
  O  O13  1  0.518478  0.738970  0.368743  1
  O  O14  1  0.000166  0.326061  0.659902  1
  O  O15  1  0.326061  0.000166  0.840098  1
  O  O16  1  0.999834  0.673939  0.340098  1
  O  O17  1  0.673939  0.999834  0.159902  1
  O  O18  1  0.894721  0.569357  0.776728  1
  O  O19  1  0.569357  0.894721  0.723272  1
  O  O20  1  0.788408  0.036667  0.440752  1
  O  O21  1  0.036667  0.788408  0.059248  1
  O  O22  1  0.211592  0.963333  0.559248  1
  O  O23  1  0.963333  0.211592  0.940752  1
  O  O24  1  0.430643  0.105279  0.276728  1
  O  O25  1  0.105279  0.430643  0.223272  1
