# generated using pymatgen
data_CaCu(Si2O5)2
_symmetry_space_group_name_H-M   'P 1'
_cell_length_a   7.37657141
_cell_length_b   7.37657141
_cell_length_c   15.43472322
_cell_angle_alpha   90.00000000
_cell_angle_beta   90.00000000
_cell_angle_gamma   90.00000000
_symmetry_Int_Tables_number   1
_chemical_formula_structural   CaCu(Si2O5)2
_chemical_formula_sum   'Ca4 Cu4 Si16 O40'
_cell_volume   839.86203136
_cell_formula_units_Z   4
loop_
 _symmetry_equiv_pos_site_id
 _symmetry_equiv_pos_as_xyz
  1  'x, y, z'
loop_
 _atom_site_type_symbol
 _atom_site_label
 _atom_site_symmetry_multiplicity
 _atom_site_fract_x
 _atom_site_fract_y
 _atom_site_fract_z
 _atom_site_occupancy
  Ca  Ca0  1  0.500000  0.500000  0.500000  1
  Ca  Ca1  1  0.000000  0.000000  0.500000  1
  Ca  Ca2  1  0.000000  0.000000  0.000000  1
  Ca  Ca3  1  0.500000  0.500000  0.000000  1
  Cu  Cu4  1  0.500000  0.000000  0.583901  1
  Cu  Cu5  1  0.000000  0.500000  0.916099  1
  Cu  Cu6  1  0.000000  0.500000  0.416099  1
  Cu  Cu7  1  0.500000  0.000000  0.083901  1
  Si  Si8  1  0.176070  0.251892  0.647980  1
  Si  Si9  1  0.823930  0.748108  0.647980  1
  Si  Si10  1  0.251892  0.176070  0.852020  1
  Si  Si11  1  0.751892  0.323930  0.647980  1
  Si  Si12  1  0.248108  0.676070  0.647980  1
  Si  Si13  1  0.323930  0.751892  0.852020  1
  Si  Si14  1  0.676070  0.248108  0.852020  1
  Si  Si15  1  0.748108  0.823930  0.852020  1
  Si  Si16  1  0.323930  0.248108  0.352020  1
  Si  Si17  1  0.676070  0.751892  0.352020  1
  Si  Si18  1  0.248108  0.323930  0.147980  1
  Si  Si19  1  0.748108  0.176070  0.352020  1
  Si  Si20  1  0.251892  0.823930  0.352020  1
  Si  Si21  1  0.176070  0.748108  0.147980  1
  Si  Si22  1  0.823930  0.251892  0.147980  1
  Si  Si23  1  0.751892  0.676070  0.147980  1
  O  O24  1  0.254918  0.101163  0.582704  1
  O  O25  1  0.745082  0.898837  0.582704  1
  O  O26  1  0.101163  0.254918  0.917296  1
  O  O27  1  0.601163  0.245082  0.582704  1
  O  O28  1  0.398837  0.754918  0.582704  1
  O  O29  1  0.245082  0.601163  0.917296  1
  O  O30  1  0.754918  0.398837  0.917296  1
  O  O31  1  0.898837  0.745082  0.917296  1
  O  O32  1  0.245082  0.398837  0.417296  1
  O  O33  1  0.754918  0.601163  0.417296  1
  O  O34  1  0.398837  0.245082  0.082704  1
  O  O35  1  0.898837  0.254918  0.417296  1
  O  O36  1  0.101163  0.745082  0.417296  1
  O  O37  1  0.254918  0.898837  0.082704  1
  O  O38  1  0.745082  0.101163  0.082704  1
  O  O39  1  0.247245  0.043498  0.373045  1
  O  O40  1  0.601163  0.754918  0.082704  1
  O  O41  1  0.747245  0.543498  0.626955  1
  O  O42  1  0.456502  0.252755  0.873045  1
  O  O43  1  0.956502  0.247245  0.626955  1
  O  O44  1  0.043498  0.752755  0.626955  1
  O  O45  1  0.247245  0.956502  0.873045  1
  O  O46  1  0.752755  0.043498  0.873045  1
  O  O47  1  0.543498  0.747245  0.873045  1
  O  O48  1  0.710159  0.710159  0.250000  1
  O  O49  1  0.789841  0.210159  0.250000  1
  O  O50  1  0.210159  0.789841  0.250000  1
  O  O51  1  0.289841  0.289841  0.250000  1
  O  O52  1  0.789841  0.789841  0.750000  1
  O  O53  1  0.710159  0.289841  0.750000  1
  O  O54  1  0.289841  0.710159  0.750000  1
  O  O55  1  0.210159  0.210159  0.750000  1
  O  O56  1  0.956502  0.752755  0.126955  1
  O  O57  1  0.747245  0.456502  0.126955  1
  O  O58  1  0.252755  0.543498  0.126955  1
  O  O59  1  0.456502  0.747245  0.373045  1
  O  O60  1  0.543498  0.252755  0.373045  1
  O  O61  1  0.043498  0.247245  0.126955  1
  O  O62  1  0.752755  0.956502  0.373045  1
  O  O63  1  0.252755  0.456502  0.626955  1
