# generated using pymatgen
data_RbAlSiO4
_symmetry_space_group_name_H-M   'P 1'
_cell_length_a   5.37988397
_cell_length_b   8.90839629
_cell_length_c   9.34334749
_cell_angle_alpha   90.00000000
_cell_angle_beta   90.00000000
_cell_angle_gamma   90.00000000
_symmetry_Int_Tables_number   1
_chemical_formula_structural   RbAlSiO4
_chemical_formula_sum   'Rb4 Al4 Si4 O16'
_cell_volume   447.79056492
_cell_formula_units_Z   4
loop_
 _symmetry_equiv_pos_site_id
 _symmetry_equiv_pos_as_xyz
  1  'x, y, z'
loop_
 _atom_site_type_symbol
 _atom_site_label
 _atom_site_symmetry_multiplicity
 _atom_site_fract_x
 _atom_site_fract_y
 _atom_site_fract_z
 _atom_site_occupancy
  Rb  Rb0  1  0.487943  0.001183  0.301368  1
  Rb  Rb1  1  0.987943  0.998817  0.698632  1
  Rb  Rb2  1  0.987943  0.498817  0.801368  1
  Rb  Rb3  1  0.487943  0.501183  0.198632  1
  Al  Al4  1  0.011548  0.814841  0.083942  1
  Al  Al5  1  0.511548  0.185159  0.916058  1
  Al  Al6  1  0.511548  0.685159  0.583942  1
  Al  Al7  1  0.011548  0.314841  0.416058  1
  Si  Si8  1  0.012067  0.692205  0.415226  1
  Si  Si9  1  0.512067  0.307795  0.584774  1
  Si  Si10  1  0.512067  0.807795  0.915226  1
  Si  Si11  1  0.012067  0.192205  0.084774  1
  O  O12  1  0.089119  0.753525  0.256524  1
  O  O13  1  0.589119  0.246475  0.743476  1
  O  O14  1  0.589119  0.746475  0.756524  1
  O  O15  1  0.089119  0.253525  0.243476  1
  O  O16  1  0.218388  0.755093  0.531141  1
  O  O17  1  0.718388  0.244907  0.468859  1
  O  O18  1  0.718388  0.744907  0.031141  1
  O  O19  1  0.218388  0.255093  0.968859  1
  O  O20  1  0.736700  0.755600  0.462399  1
  O  O21  1  0.236700  0.244400  0.537601  1
  O  O22  1  0.236700  0.744400  0.962399  1
  O  O23  1  0.736700  0.255600  0.037601  1
  O  O24  1  0.011966  0.010060  0.088737  1
  O  O25  1  0.511966  0.989940  0.911263  1
  O  O26  1  0.511966  0.489940  0.588737  1
  O  O27  1  0.011966  0.510060  0.411263  1
