# generated using pymatgen
data_NaLiGe4O9
_symmetry_space_group_name_H-M   'P 1'
_cell_length_a   4.74219203
_cell_length_b   9.47570591
_cell_length_c   16.18773578
_cell_angle_alpha   90.00000000
_cell_angle_beta   90.00000000
_cell_angle_gamma   90.00000000
_symmetry_Int_Tables_number   1
_chemical_formula_structural   NaLiGe4O9
_chemical_formula_sum   'Na4 Li4 Ge16 O36'
_cell_volume   727.40589584
_cell_formula_units_Z   4
loop_
 _symmetry_equiv_pos_site_id
 _symmetry_equiv_pos_as_xyz
  1  'x, y, z'
loop_
 _atom_site_type_symbol
 _atom_site_label
 _atom_site_symmetry_multiplicity
 _atom_site_fract_x
 _atom_site_fract_y
 _atom_site_fract_z
 _atom_site_occupancy
  Na  Na0  1  0.523840  0.981496  0.045482  1
  Na  Na1  1  0.523840  0.481496  0.454518  1
  Na  Na2  1  0.476160  0.981496  0.545482  1
  Na  Na3  1  0.476160  0.481496  0.954518  1
  Li  Li4  1  0.457067  0.267031  0.265100  1
  Li  Li5  1  0.542933  0.767031  0.734900  1
  Li  Li6  1  0.542933  0.267031  0.765100  1
  Li  Li7  1  0.457067  0.767031  0.234900  1
  Ge  Ge8  1  0.007643  0.290296  0.595443  1
  Ge  Ge9  1  0.992357  0.790296  0.404557  1
  Ge  Ge10  1  0.992357  0.290296  0.095443  1
  Ge  Ge11  1  0.007643  0.790296  0.904557  1
  Ge  Ge12  1  0.501818  0.499263  0.654905  1
  Ge  Ge13  1  0.498182  0.999263  0.345095  1
  Ge  Ge14  1  0.498182  0.499263  0.154905  1
  Ge  Ge15  1  0.501818  0.999263  0.845095  1
  Ge  Ge16  1  0.991416  0.707808  0.597889  1
  Ge  Ge17  1  0.991416  0.207808  0.902111  1
  Ge  Ge18  1  0.008584  0.707808  0.097889  1
  Ge  Ge19  1  0.008584  0.207808  0.402111  1
  Ge  Ge20  1  0.999420  0.501123  0.293470  1
  Ge  Ge21  1  0.000580  0.001123  0.706530  1
  Ge  Ge22  1  0.000580  0.501123  0.793470  1
  Ge  Ge23  1  0.999420  0.001123  0.206530  1
  O  O24  1  0.735143  0.337017  0.663615  1
  O  O25  1  0.264857  0.837017  0.336385  1
  O  O26  1  0.264857  0.337017  0.163615  1
  O  O27  1  0.735143  0.837017  0.836385  1
  O  O28  1  0.735327  0.587585  0.737879  1
  O  O29  1  0.264673  0.087585  0.262121  1
  O  O30  1  0.855449  0.621841  0.369350  1
  O  O31  1  0.735327  0.087585  0.762121  1
  O  O32  1  0.728540  0.585066  0.571206  1
  O  O33  1  0.271460  0.085066  0.428794  1
  O  O34  1  0.271460  0.585066  0.071206  1
  O  O35  1  0.264673  0.587585  0.237879  1
  O  O36  1  0.157191  0.261939  0.996685  1
  O  O37  1  0.842809  0.761939  0.003315  1
  O  O38  1  0.842809  0.261939  0.496685  1
  O  O39  1  0.157191  0.761939  0.503315  1
  O  O40  1  0.171303  0.865349  0.143207  1
  O  O41  1  0.828697  0.365349  0.856793  1
  O  O42  1  0.828697  0.865349  0.643207  1
  O  O43  1  0.171303  0.365349  0.356793  1
  O  O44  1  0.277257  0.912561  0.927151  1
  O  O45  1  0.722743  0.412561  0.072849  1
  O  O46  1  0.722743  0.912561  0.427151  1
  O  O47  1  0.277257  0.412561  0.572849  1
  O  O48  1  0.278658  0.916621  0.758123  1
  O  O49  1  0.721342  0.416621  0.241877  1
  O  O50  1  0.721342  0.916621  0.258123  1
  O  O51  1  0.278658  0.416621  0.741877  1
  O  O52  1  0.275465  0.164003  0.837463  1
  O  O53  1  0.724535  0.664003  0.162537  1
  O  O54  1  0.724535  0.164003  0.337463  1
  O  O55  1  0.275465  0.664003  0.662537  1
  O  O56  1  0.855449  0.121841  0.130650  1
  O  O57  1  0.144551  0.621841  0.869350  1
  O  O58  1  0.144551  0.121841  0.630650  1
  O  O59  1  0.728540  0.085066  0.928794  1
