# generated using pymatgen
data_Na7In4P9O32
_symmetry_space_group_name_H-M   'P 1'
_cell_length_a   14.49174767
_cell_length_b   14.49174767
_cell_length_c   6.70941288
_cell_angle_alpha   90.00000000
_cell_angle_beta   90.00000000
_cell_angle_gamma   90.00000000
_symmetry_Int_Tables_number   1
_chemical_formula_structural   Na7In4P9O32
_chemical_formula_sum   'Na14 In8 P18 O64'
_cell_volume   1409.04883455
_cell_formula_units_Z   2
loop_
 _symmetry_equiv_pos_site_id
 _symmetry_equiv_pos_as_xyz
  1  'x, y, z'
loop_
 _atom_site_type_symbol
 _atom_site_label
 _atom_site_symmetry_multiplicity
 _atom_site_fract_x
 _atom_site_fract_y
 _atom_site_fract_z
 _atom_site_occupancy
  Na  Na0  1  0.590844  0.240993  0.635846  1
  Na  Na1  1  0.409156  0.759007  0.635846  1
  Na  Na2  1  0.240993  0.409156  0.364154  1
  Na  Na3  1  0.759007  0.590844  0.364154  1
  Na  Na4  1  0.740993  0.090844  0.135846  1
  Na  Na5  1  0.909156  0.740993  0.864154  1
  Na  Na6  1  0.090844  0.259007  0.864154  1
  Na  Na7  1  0.259007  0.909156  0.135846  1
  Na  Na8  1  0.000000  0.500000  0.133564  1
  Na  Na9  1  0.500000  0.000000  0.866436  1
  Na  Na10  1  0.500000  0.000000  0.366436  1
  Na  Na11  1  0.000000  0.500000  0.633564  1
  Na  Na12  1  0.000000  0.000000  0.000000  1
  Na  Na13  1  0.500000  0.500000  0.500000  1
  In  In14  1  0.879498  0.195865  0.611767  1
  In  In15  1  0.120502  0.804135  0.611767  1
  In  In16  1  0.195865  0.120502  0.388233  1
  In  In17  1  0.804135  0.879498  0.388233  1
  In  In18  1  0.695865  0.379498  0.111767  1
  In  In19  1  0.620502  0.695865  0.888233  1
  In  In20  1  0.379498  0.304135  0.888233  1
  In  In21  1  0.304135  0.620502  0.111767  1
  P  P22  1  0.748435  0.395206  0.626461  1
  P  P23  1  0.251565  0.604794  0.626461  1
  P  P24  1  0.395206  0.251565  0.373539  1
  P  P25  1  0.604794  0.748435  0.373539  1
  P  P26  1  0.895206  0.248435  0.126461  1
  P  P27  1  0.751565  0.895206  0.873539  1
  P  P28  1  0.248435  0.104794  0.873539  1
  P  P29  1  0.104794  0.751565  0.126461  1
  P  P30  1  0.804518  0.559618  0.878701  1
  P  P31  1  0.195482  0.440382  0.878701  1
  P  P32  1  0.559618  0.195482  0.121299  1
  P  P33  1  0.440382  0.804518  0.121299  1
  P  P34  1  0.059618  0.304518  0.378701  1
  P  P35  1  0.695482  0.059618  0.621299  1
  P  P36  1  0.304518  0.940382  0.621299  1
  P  P37  1  0.940382  0.695482  0.378701  1
  P  P38  1  0.000000  0.000000  0.500000  1
  P  P39  1  0.500000  0.500000  0.000000  1
  O  O40  1  0.838469  0.341727  0.609574  1
  O  O41  1  0.161531  0.658273  0.609574  1
  O  O42  1  0.341727  0.161531  0.390426  1
  O  O43  1  0.658273  0.838469  0.390426  1
  O  O44  1  0.841727  0.338469  0.109574  1
  O  O45  1  0.661531  0.841727  0.890426  1
  O  O46  1  0.338469  0.158273  0.890426  1
  O  O47  1  0.158273  0.661531  0.109574  1
  O  O48  1  0.694636  0.407801  0.431744  1
  O  O49  1  0.305364  0.592199  0.431744  1
  O  O50  1  0.407801  0.305364  0.568256  1
  O  O51  1  0.592199  0.694636  0.568256  1
  O  O52  1  0.907801  0.194636  0.931744  1
  O  O53  1  0.805364  0.907801  0.068256  1
  O  O54  1  0.194636  0.092199  0.068256  1
  O  O55  1  0.092199  0.805364  0.931744  1
  O  O56  1  0.682838  0.360600  0.789829  1
  O  O57  1  0.317162  0.639400  0.789829  1
  O  O58  1  0.360600  0.317162  0.210171  1
  O  O59  1  0.639400  0.682838  0.210171  1
  O  O60  1  0.860600  0.182838  0.289829  1
  O  O61  1  0.817162  0.860600  0.710171  1
  O  O62  1  0.182838  0.139400  0.710171  1
  O  O63  1  0.139400  0.817162  0.289829  1
  O  O64  1  0.776595  0.501781  0.677742  1
  O  O65  1  0.762511  0.655935  0.838746  1
  O  O66  1  0.223405  0.498219  0.677742  1
  O  O67  1  0.498219  0.776595  0.322258  1
  O  O68  1  0.001781  0.276595  0.177742  1
  O  O69  1  0.723405  0.001781  0.822258  1
  O  O70  1  0.276595  0.998219  0.822258  1
  O  O71  1  0.998219  0.723405  0.177742  1
  O  O72  1  0.759796  0.513340  0.059697  1
  O  O73  1  0.240204  0.486660  0.059697  1
  O  O74  1  0.513340  0.240204  0.940303  1
  O  O75  1  0.486660  0.759796  0.940303  1
  O  O76  1  0.013340  0.259796  0.559697  1
  O  O77  1  0.740204  0.013340  0.440303  1
  O  O78  1  0.259796  0.986660  0.440303  1
  O  O79  1  0.986660  0.740204  0.559697  1
  O  O80  1  0.437867  0.557677  0.142969  1
  O  O81  1  0.442323  0.437867  0.857031  1
  O  O82  1  0.557677  0.562133  0.857031  1
  O  O83  1  0.562133  0.442323  0.142969  1
  O  O84  1  0.937867  0.942323  0.357031  1
  O  O85  1  0.062133  0.057677  0.357031  1
  O  O86  1  0.057677  0.937867  0.642969  1
  O  O87  1  0.942323  0.062133  0.642969  1
  O  O88  1  0.933976  0.591298  0.385014  1
  O  O89  1  0.408702  0.933976  0.614986  1
  O  O90  1  0.591298  0.066024  0.614986  1
  O  O91  1  0.066024  0.408702  0.385014  1
  O  O92  1  0.433976  0.908702  0.114986  1
  O  O93  1  0.566024  0.091298  0.114986  1
  O  O94  1  0.091298  0.433976  0.885014  1
  O  O95  1  0.908702  0.566024  0.885014  1
  O  O96  1  0.844065  0.737489  0.338746  1
  O  O97  1  0.262511  0.844065  0.661254  1
  O  O98  1  0.737489  0.155935  0.661254  1
  O  O99  1  0.155935  0.262511  0.338746  1
  O  O100  1  0.344065  0.762511  0.161254  1
  O  O101  1  0.655935  0.237489  0.161254  1
  O  O102  1  0.237489  0.344065  0.838746  1
  O  O103  1  0.501781  0.223405  0.322258  1
