# generated using pymatgen
data_Ca2CO3F2
_symmetry_space_group_name_H-M   'P 1'
_cell_length_a   6.70872248
_cell_length_b   7.54761853
_cell_length_c   7.73786718
_cell_angle_alpha   90.00000000
_cell_angle_beta   90.00000000
_cell_angle_gamma   90.00000000
_symmetry_Int_Tables_number   1
_chemical_formula_structural   Ca2CO3F2
_chemical_formula_sum   'Ca8 C4 O12 F8'
_cell_volume   391.80596143
_cell_formula_units_Z   4
loop_
 _symmetry_equiv_pos_site_id
 _symmetry_equiv_pos_as_xyz
  1  'x, y, z'
loop_
 _atom_site_type_symbol
 _atom_site_label
 _atom_site_symmetry_multiplicity
 _atom_site_fract_x
 _atom_site_fract_y
 _atom_site_fract_z
 _atom_site_occupancy
  Ca  Ca0  1  0.539201  0.336871  0.172923  1
  Ca  Ca1  1  0.039201  0.163129  0.327077  1
  Ca  Ca2  1  0.960799  0.336871  0.827077  1
  Ca  Ca3  1  0.460799  0.163129  0.672923  1
  Ca  Ca4  1  0.460799  0.663129  0.827077  1
  Ca  Ca5  1  0.960799  0.836871  0.672923  1
  Ca  Ca6  1  0.039201  0.663129  0.172923  1
  Ca  Ca7  1  0.539201  0.836871  0.327077  1
  C  C8  1  0.750000  0.466891  0.500000  1
  C  C9  1  0.250000  0.033109  0.000000  1
  C  C10  1  0.250000  0.533109  0.500000  1
  C  C11  1  0.750000  0.966891  0.000000  1
  O  O12  1  0.326583  0.449110  0.629574  1
  O  O13  1  0.173417  0.449110  0.370426  1
  O  O14  1  0.826583  0.050890  0.870426  1
  O  O15  1  0.673417  0.550890  0.370426  1
  O  O16  1  0.326583  0.949110  0.870426  1
  O  O17  1  0.826583  0.550890  0.629574  1
  O  O18  1  0.173417  0.949110  0.129574  1
  O  O19  1  0.250000  0.206262  0.000000  1
  O  O20  1  0.750000  0.793738  0.000000  1
  O  O21  1  0.250000  0.706262  0.500000  1
  O  O22  1  0.750000  0.293738  0.500000  1
  O  O23  1  0.673417  0.050890  0.129574  1
  F  F24  1  0.897182  0.379370  0.121308  1
  F  F25  1  0.397182  0.120630  0.378692  1
  F  F26  1  0.602818  0.379370  0.878692  1
  F  F27  1  0.102818  0.120630  0.621308  1
  F  F28  1  0.897182  0.879370  0.378692  1
  F  F29  1  0.397182  0.620630  0.121308  1
  F  F30  1  0.602818  0.879370  0.621308  1
  F  F31  1  0.102818  0.620630  0.878692  1
