# generated using pymatgen
data_As2S3
_symmetry_space_group_name_H-M   'P 1'
_cell_length_a   4.60064395
_cell_length_b   11.00697896
_cell_length_c   12.25978541
_cell_angle_alpha   90.00000000
_cell_angle_beta   111.73521419
_cell_angle_gamma   90.00000000
_symmetry_Int_Tables_number   1
_chemical_formula_structural   As2S3
_chemical_formula_sum   'As8 S12'
_cell_volume   576.68811144
_cell_formula_units_Z   4
loop_
 _symmetry_equiv_pos_site_id
 _symmetry_equiv_pos_as_xyz
  1  'x, y, z'
loop_
 _atom_site_type_symbol
 _atom_site_label
 _atom_site_symmetry_multiplicity
 _atom_site_fract_x
 _atom_site_fract_y
 _atom_site_fract_z
 _atom_site_occupancy
  As  As0  1  0.136187  0.817779  0.980082  1
  As  As1  1  0.863813  0.317779  0.519918  1
  As  As2  1  0.863813  0.182221  0.019918  1
  As  As3  1  0.136187  0.682221  0.480082  1
  As  As4  1  0.425137  0.689974  0.769895  1
  As  As5  1  0.574863  0.189974  0.730105  1
  As  As6  1  0.574863  0.310026  0.230105  1
  As  As7  1  0.425137  0.810026  0.269895  1
  S  S8  1  0.556531  0.774703  0.622475  1
  S  S9  1  0.443469  0.274703  0.877525  1
  S  S10  1  0.443469  0.225297  0.377525  1
  S  S11  1  0.556531  0.725297  0.122475  1
  S  S12  1  0.342567  0.873026  0.842456  1
  S  S13  1  0.657433  0.373026  0.657544  1
  S  S14  1  0.657433  0.126974  0.157544  1
  S  S15  1  0.342567  0.626974  0.342456  1
  S  S16  1  0.905578  0.862603  0.405532  1
  S  S17  1  0.094422  0.362603  0.094468  1
  S  S18  1  0.094422  0.137397  0.594468  1
  S  S19  1  0.905578  0.637397  0.905532  1
