# generated using pymatgen
data_CaSiSnO5
_symmetry_space_group_name_H-M   'P 1'
_cell_length_a   5.63706220
_cell_length_b   5.63706220
_cell_length_c   7.26657657
_cell_angle_alpha   76.02259800
_cell_angle_beta   103.97740200
_cell_angle_gamma   74.13210669
_symmetry_Int_Tables_number   1
_chemical_formula_structural   CaSiSnO5
_chemical_formula_sum   'Ca2 Si2 Sn2 O10'
_cell_volume   203.49314026
_cell_formula_units_Z   2
loop_
 _symmetry_equiv_pos_site_id
 _symmetry_equiv_pos_as_xyz
  1  'x, y, z'
loop_
 _atom_site_type_symbol
 _atom_site_label
 _atom_site_symmetry_multiplicity
 _atom_site_fract_x
 _atom_site_fract_y
 _atom_site_fract_z
 _atom_site_occupancy
  Ca  Ca0  1  0.837076  0.837076  0.750000  1
  Ca  Ca1  1  0.162924  0.162924  0.250000  1
  Si  Si2  1  0.819018  0.819018  0.250000  1
  Si  Si3  1  0.180982  0.180982  0.750000  1
  Sn  Sn4  1  0.500000  0.500000  0.000000  1
  Sn  Sn5  1  0.500000  0.500000  0.500000  1
  O  O6  1  0.177182  0.395032  0.871974  1
  O  O7  1  0.395032  0.177182  0.628026  1
  O  O8  1  0.822818  0.604968  0.128026  1
  O  O9  1  0.604968  0.822818  0.371974  1
  O  O10  1  0.108886  0.759949  0.410902  1
  O  O11  1  0.759949  0.108886  0.089098  1
  O  O12  1  0.588613  0.588613  0.750000  1
  O  O13  1  0.411387  0.411387  0.250000  1
  O  O14  1  0.240051  0.891114  0.910902  1
  O  O15  1  0.891114  0.240051  0.589098  1
