# generated using pymatgen
data_LiGa(SiO3)2
_symmetry_space_group_name_H-M   'P 1'
_cell_length_a   5.31479873
_cell_length_b   8.72647883
_cell_length_c   9.28348086
_cell_angle_alpha   90.00000000
_cell_angle_beta   101.82368952
_cell_angle_gamma   90.00000000
_symmetry_Int_Tables_number   1
_chemical_formula_structural   LiGa(SiO3)2
_chemical_formula_sum   'Li4 Ga4 Si8 O24'
_cell_volume   421.42764109
_cell_formula_units_Z   4
loop_
 _symmetry_equiv_pos_site_id
 _symmetry_equiv_pos_as_xyz
  1  'x, y, z'
loop_
 _atom_site_type_symbol
 _atom_site_label
 _atom_site_symmetry_multiplicity
 _atom_site_fract_x
 _atom_site_fract_y
 _atom_site_fract_z
 _atom_site_occupancy
  Li  Li0  1  0.988976  0.006606  0.752882  1
  Li  Li1  1  0.511024  0.506606  0.247118  1
  Li  Li2  1  0.011024  0.993394  0.247118  1
  Li  Li3  1  0.488976  0.493394  0.752882  1
  Ga  Ga4  1  0.986792  0.647432  0.749644  1
  Ga  Ga5  1  0.486792  0.852568  0.749644  1
  Ga  Ga6  1  0.013208  0.352568  0.250356  1
  Ga  Ga7  1  0.513208  0.147432  0.250356  1
  Si  Si8  1  0.777074  0.660029  0.047725  1
  Si  Si9  1  0.202879  0.660144  0.452031  1
  Si  Si10  1  0.297121  0.160144  0.547969  1
  Si  Si11  1  0.797121  0.339856  0.547969  1
  Si  Si12  1  0.702879  0.839856  0.452031  1
  Si  Si13  1  0.722926  0.160029  0.952275  1
  Si  Si14  1  0.277074  0.839971  0.047725  1
  Si  Si15  1  0.222926  0.339971  0.952275  1
  O  O16  1  0.698248  0.989891  0.883824  1
  O  O17  1  0.790227  0.167558  0.134949  1
  O  O18  1  0.709773  0.667558  0.865051  1
  O  O19  1  0.209773  0.832442  0.865051  1
  O  O20  1  0.290227  0.332442  0.134949  1
  O  O21  1  0.266558  0.665898  0.635251  1
  O  O22  1  0.233442  0.165898  0.364749  1
  O  O23  1  0.733442  0.334102  0.364749  1
  O  O24  1  0.766558  0.834102  0.635251  1
  O  O25  1  0.466202  0.264721  0.892065  1
  O  O26  1  0.801752  0.489891  0.116176  1
  O  O27  1  0.301752  0.010109  0.116176  1
  O  O28  1  0.910225  0.726278  0.396058  1
  O  O29  1  0.589775  0.226278  0.603942  1
  O  O30  1  0.089775  0.273722  0.603942  1
  O  O31  1  0.410225  0.773722  0.396058  1
  O  O32  1  0.533798  0.735279  0.107935  1
  O  O33  1  0.033798  0.764721  0.107935  1
  O  O34  1  0.229488  0.495179  0.377757  1
  O  O35  1  0.966202  0.235279  0.892065  1
  O  O36  1  0.729488  0.004821  0.377757  1
  O  O37  1  0.770512  0.504821  0.622243  1
  O  O38  1  0.270512  0.995179  0.622243  1
  O  O39  1  0.198248  0.510109  0.883824  1
