# generated using pymatgen
data_Ca3Cu3(PO4)4
_symmetry_space_group_name_H-M   'P 1'
_cell_length_a   9.02638958
_cell_length_b   4.96732362
_cell_length_c   16.66487313
_cell_angle_alpha   90.00000000
_cell_angle_beta   117.77501516
_cell_angle_gamma   90.00000000
_symmetry_Int_Tables_number   1
_chemical_formula_structural   Ca3Cu3(PO4)4
_chemical_formula_sum   'Ca6 Cu6 P8 O32'
_cell_volume   661.11335754
_cell_formula_units_Z   2
loop_
 _symmetry_equiv_pos_site_id
 _symmetry_equiv_pos_as_xyz
  1  'x, y, z'
loop_
 _atom_site_type_symbol
 _atom_site_label
 _atom_site_symmetry_multiplicity
 _atom_site_fract_x
 _atom_site_fract_y
 _atom_site_fract_z
 _atom_site_occupancy
  Ca  Ca0  1  0.800792  0.969719  0.765328  1
  Ca  Ca1  1  0.199208  0.469719  0.734672  1
  Ca  Ca2  1  0.199208  0.030281  0.234672  1
  Ca  Ca3  1  0.800792  0.530281  0.265328  1
  Ca  Ca4  1  0.500000  0.500000  0.000000  1
  Ca  Ca5  1  0.500000  0.000000  0.500000  1
  Cu  Cu6  1  0.292019  0.969543  0.620073  1
  Cu  Cu7  1  0.707981  0.469543  0.879927  1
  Cu  Cu8  1  0.707981  0.030457  0.379927  1
  Cu  Cu9  1  0.292019  0.530457  0.120073  1
  Cu  Cu10  1  0.000000  0.500000  0.500000  1
  Cu  Cu11  1  0.000000  0.000000  0.000000  1
  P  P12  1  0.462412  0.512522  0.340104  1
  P  P13  1  0.537588  0.012522  0.159896  1
  P  P14  1  0.537588  0.487478  0.659896  1
  P  P15  1  0.462412  0.987478  0.840104  1
  P  P16  1  0.936352  0.491227  0.093653  1
  P  P17  1  0.063648  0.991227  0.406347  1
  P  P18  1  0.063648  0.508773  0.906347  1
  P  P19  1  0.936352  0.008773  0.593653  1
  O  O20  1  0.320421  0.459044  0.240099  1
  O  O21  1  0.679579  0.959044  0.259901  1
  O  O22  1  0.679579  0.540956  0.759901  1
  O  O23  1  0.320421  0.040956  0.740099  1
  O  O24  1  0.465592  0.678822  0.857137  1
  O  O25  1  0.534408  0.178822  0.642863  1
  O  O26  1  0.534408  0.321178  0.142863  1
  O  O27  1  0.465592  0.821178  0.357137  1
  O  O28  1  0.636137  0.423015  0.349999  1
  O  O29  1  0.363863  0.923015  0.150001  1
  O  O30  1  0.363863  0.576985  0.650001  1
  O  O31  1  0.636137  0.076985  0.849999  1
  O  O32  1  0.408019  0.351415  0.399622  1
  O  O33  1  0.591981  0.851415  0.100378  1
  O  O34  1  0.591981  0.648585  0.600378  1
  O  O35  1  0.408019  0.148585  0.899622  1
  O  O36  1  0.071372  0.308262  0.082259  1
  O  O37  1  0.928628  0.808262  0.417741  1
  O  O38  1  0.928628  0.691738  0.917741  1
  O  O39  1  0.071372  0.191738  0.582259  1
  O  O40  1  0.932889  0.093499  0.680404  1
  O  O41  1  0.067111  0.593499  0.819596  1
  O  O42  1  0.067111  0.906501  0.319596  1
  O  O43  1  0.932889  0.406501  0.180404  1
  O  O44  1  0.764756  0.444551  0.009076  1
  O  O45  1  0.235244  0.944551  0.490924  1
  O  O46  1  0.235244  0.555449  0.990924  1
  O  O47  1  0.764756  0.055449  0.509076  1
  O  O48  1  0.997726  0.711056  0.600419  1
  O  O49  1  0.002274  0.211056  0.899581  1
  O  O50  1  0.002274  0.288944  0.399581  1
  O  O51  1  0.997726  0.788944  0.100419  1
