# generated using pymatgen
data_KLiSO4
_symmetry_space_group_name_H-M   'P 1'
_cell_length_a   5.21371853
_cell_length_b   5.21371853
_cell_length_c   8.81856424
_cell_angle_alpha   90.00000000
_cell_angle_beta   90.00000000
_cell_angle_gamma   120.00000000
_symmetry_Int_Tables_number   1
_chemical_formula_structural   KLiSO4
_chemical_formula_sum   'K2 Li2 S2 O8'
_cell_volume   207.59824514
_cell_formula_units_Z   2
loop_
 _symmetry_equiv_pos_site_id
 _symmetry_equiv_pos_as_xyz
  1  'x, y, z'
loop_
 _atom_site_type_symbol
 _atom_site_label
 _atom_site_symmetry_multiplicity
 _atom_site_fract_x
 _atom_site_fract_y
 _atom_site_fract_z
 _atom_site_occupancy
  K  K0  1  0.000000  0.000000  0.989910  1
  K  K1  1  0.000000  0.000000  0.489910  1
  Li  Li2  1  0.333333  0.666667  0.802668  1
  Li  Li3  1  0.666667  0.333333  0.302668  1
  S  S4  1  0.333333  0.666667  0.192339  1
  S  S5  1  0.666667  0.333333  0.692339  1
  O  O6  1  0.600695  0.660371  0.247274  1
  O  O7  1  0.660371  0.059676  0.747274  1
  O  O8  1  0.333333  0.666667  0.023260  1
  O  O9  1  0.059676  0.399305  0.247274  1
  O  O10  1  0.666667  0.333333  0.523260  1
  O  O11  1  0.339629  0.940324  0.247274  1
  O  O12  1  0.399305  0.339629  0.747274  1
  O  O13  1  0.940324  0.600695  0.747274  1
