# generated using pymatgen
data_RbLiSO4
_symmetry_space_group_name_H-M   'P 1'
_cell_length_a   5.36733148
_cell_length_b   8.89412357
_cell_length_c   10.71178450
_cell_angle_alpha   90.00000000
_cell_angle_beta   120.08138242
_cell_angle_gamma   90.00000000
_symmetry_Int_Tables_number   1
_chemical_formula_structural   RbLiSO4
_chemical_formula_sum   'Rb4 Li4 S4 O16'
_cell_volume   442.48372561
_cell_formula_units_Z   4
loop_
 _symmetry_equiv_pos_site_id
 _symmetry_equiv_pos_as_xyz
  1  'x, y, z'
loop_
 _atom_site_type_symbol
 _atom_site_label
 _atom_site_symmetry_multiplicity
 _atom_site_fract_x
 _atom_site_fract_y
 _atom_site_fract_z
 _atom_site_occupancy
  Rb  Rb0  1  0.990668  0.504388  0.224384  1
  Rb  Rb1  1  0.009332  0.004388  0.275616  1
  Rb  Rb2  1  0.009332  0.495612  0.775616  1
  Rb  Rb3  1  0.990668  0.995612  0.724384  1
  Li  Li4  1  0.333338  0.678577  0.590297  1
  Li  Li5  1  0.333338  0.821423  0.090297  1
  Li  Li6  1  0.666662  0.321423  0.409703  1
  Li  Li7  1  0.666662  0.178577  0.909703  1
  S  S8  1  0.668361  0.706426  0.422717  1
  S  S9  1  0.331639  0.206426  0.077283  1
  S  S10  1  0.331639  0.293574  0.577283  1
  S  S11  1  0.668361  0.793574  0.922717  1
  O  O12  1  0.628747  0.747593  0.547135  1
  O  O13  1  0.628747  0.752407  0.047135  1
  O  O14  1  0.371253  0.252407  0.452865  1
  O  O15  1  0.371253  0.247593  0.952865  1
  O  O16  1  0.431379  0.774542  0.288358  1
  O  O17  1  0.568621  0.274542  0.211642  1
  O  O18  1  0.568621  0.225458  0.711642  1
  O  O19  1  0.431379  0.725458  0.788358  1
  O  O20  1  0.660878  0.959585  0.906258  1
  O  O21  1  0.339122  0.459585  0.593742  1
  O  O22  1  0.339122  0.040415  0.093742  1
  O  O23  1  0.660878  0.540415  0.406258  1
  O  O24  1  0.952921  0.734656  0.950563  1
  O  O25  1  0.047079  0.234656  0.549437  1
  O  O26  1  0.047079  0.265344  0.049437  1
  O  O27  1  0.952921  0.765344  0.450563  1
