# generated using pymatgen
data_SrLi2Ta2O7
_symmetry_space_group_name_H-M   'P 1'
_cell_length_a   9.68669650
_cell_length_b   9.68669650
_cell_length_c   9.68669650
_cell_angle_alpha   156.27388491
_cell_angle_beta   156.27388491
_cell_angle_gamma   33.80266581
_symmetry_Int_Tables_number   1
_chemical_formula_structural   SrLi2Ta2O7
_chemical_formula_sum   'Sr1 Li2 Ta2 O7'
_cell_volume   147.00918149
_cell_formula_units_Z   1
loop_
 _symmetry_equiv_pos_site_id
 _symmetry_equiv_pos_as_xyz
  1  'x, y, z'
loop_
 _atom_site_type_symbol
 _atom_site_label
 _atom_site_symmetry_multiplicity
 _atom_site_fract_x
 _atom_site_fract_y
 _atom_site_fract_z
 _atom_site_occupancy
  Sr  Sr0  1  0.000000  0.000000  0.000000  1
  Li  Li1  1  0.750000  0.250000  0.500000  1
  Li  Li2  1  0.250000  0.750000  0.500000  1
  Ta  Ta3  1  0.614074  0.614074  0.000000  1
  Ta  Ta4  1  0.385926  0.385926  0.000000  1
  O  O5  1  0.500000  0.500000  0.000000  1
  O  O6  1  0.103733  0.603733  0.500000  1
  O  O7  1  0.603733  0.103733  0.500000  1
  O  O8  1  0.896267  0.396267  0.500000  1
  O  O9  1  0.396267  0.896267  0.500000  1
  O  O10  1  0.283670  0.283670  0.000000  1
  O  O11  1  0.716330  0.716330  0.000000  1
