# generated using pymatgen
data_Na2MgAlF7
_symmetry_space_group_name_H-M   'P 1'
_cell_length_a   7.23119034
_cell_length_b   7.23119034
_cell_length_c   7.23119034
_cell_angle_alpha   120.66427865
_cell_angle_beta   118.15712113
_cell_angle_gamma   91.03723492
_symmetry_Int_Tables_number   1
_chemical_formula_structural   Na2MgAlF7
_chemical_formula_sum   'Na4 Mg2 Al2 F14'
_cell_volume   269.54689271
_cell_formula_units_Z   2
loop_
 _symmetry_equiv_pos_site_id
 _symmetry_equiv_pos_as_xyz
  1  'x, y, z'
loop_
 _atom_site_type_symbol
 _atom_site_label
 _atom_site_symmetry_multiplicity
 _atom_site_fract_x
 _atom_site_fract_y
 _atom_site_fract_z
 _atom_site_occupancy
  Na  Na0  1  0.000000  0.500000  0.000000  1
  Na  Na1  1  0.000000  0.000000  0.500000  1
  Na  Na2  1  1.000000  0.500000  0.500000  1
  Na  Na3  1  0.500000  0.000000  0.500000  1
  Mg  Mg4  1  0.500000  0.500000  0.500000  1
  Mg  Mg5  1  0.500000  0.000000  0.000000  1
  Al  Al6  1  0.500000  0.500000  0.000000  1
  Al  Al7  1  0.000000  0.000000  0.000000  1
  F  F8  1  0.612434  0.250000  0.362434  1
  F  F9  1  0.387566  0.750000  0.637566  1
  F  F10  1  0.192983  0.414193  0.778790  1
  F  F11  1  0.807017  0.585807  0.221210  1
  F  F12  1  0.864597  0.085807  0.778790  1
  F  F13  1  0.135403  0.914193  0.221210  1
  F  F14  1  0.456311  0.573313  0.254091  1
  F  F15  1  0.543689  0.797780  0.117002  1
  F  F16  1  0.180778  0.297780  0.254091  1
  F  F17  1  0.819222  0.073313  0.117002  1
  F  F18  1  0.819222  0.702220  0.745909  1
  F  F19  1  0.180778  0.926687  0.882998  1
  F  F20  1  0.543689  0.426687  0.745909  1
  F  F21  1  0.456311  0.202220  0.882998  1
