# generated using pymatgen
data_NaAgO
_symmetry_space_group_name_H-M   'P 1'
_cell_length_a   7.18074467
_cell_length_b   7.18074467
_cell_length_c   7.18074467
_cell_angle_alpha   96.12109592
_cell_angle_beta   96.12109592
_cell_angle_gamma   141.88186254
_symmetry_Int_Tables_number   1
_chemical_formula_structural   NaAgO
_chemical_formula_sum   'Na4 Ag4 O4'
_cell_volume   216.02787111
_cell_formula_units_Z   4
loop_
 _symmetry_equiv_pos_site_id
 _symmetry_equiv_pos_as_xyz
  1  'x, y, z'
loop_
 _atom_site_type_symbol
 _atom_site_label
 _atom_site_symmetry_multiplicity
 _atom_site_fract_x
 _atom_site_fract_y
 _atom_site_fract_z
 _atom_site_occupancy
  Na  Na0  1  0.000000  0.660202  0.660202  1
  Na  Na1  1  0.660202  1.000000  0.660202  1
  Na  Na2  1  0.339798  1.000000  0.339798  1
  Na  Na3  1  0.000000  0.339798  0.339798  1
  Ag  Ag4  1  0.342683  0.657317  0.000000  1
  Ag  Ag5  1  0.657317  0.657317  0.314633  1
  Ag  Ag6  1  0.342683  0.342683  0.685367  1
  Ag  Ag7  1  0.657317  0.342683  1.000000  1
  O  O8  1  0.500000  0.191052  0.691052  1
  O  O9  1  0.191052  0.500000  0.691052  1
  O  O10  1  0.808948  0.500000  0.308948  1
  O  O11  1  0.500000  0.808948  0.308948  1
