# generated using pymatgen
data_Na2Mg(CO3)2
_symmetry_space_group_name_H-M   'P 1'
_cell_length_a   6.24704509
_cell_length_b   6.24704509
_cell_length_c   6.24704509
_cell_angle_alpha   47.16290601
_cell_angle_beta   47.16290601
_cell_angle_gamma   47.16290601
_symmetry_Int_Tables_number   1
_chemical_formula_structural   Na2Mg(CO3)2
_chemical_formula_sum   'Na2 Mg1 C2 O6'
_cell_volume   119.87488670
_cell_formula_units_Z   1
loop_
 _symmetry_equiv_pos_site_id
 _symmetry_equiv_pos_as_xyz
  1  'x, y, z'
loop_
 _atom_site_type_symbol
 _atom_site_label
 _atom_site_symmetry_multiplicity
 _atom_site_fract_x
 _atom_site_fract_y
 _atom_site_fract_z
 _atom_site_occupancy
  Na  Na0  1  0.798925  0.798925  0.798925  1
  Na  Na1  1  0.201075  0.201075  0.201075  1
  Mg  Mg2  1  0.000000  0.000000  0.000000  1
  C  C3  1  0.409036  0.409036  0.409036  1
  C  C4  1  0.590964  0.590964  0.590964  1
  O  O5  1  0.300137  0.665555  0.803350  1
  O  O6  1  0.665555  0.803350  0.300137  1
  O  O7  1  0.803350  0.300137  0.665555  1
  O  O8  1  0.699863  0.334445  0.196650  1
  O  O9  1  0.196650  0.699863  0.334445  1
  O  O10  1  0.334445  0.196650  0.699863  1
