# generated using pymatgen
data_AgHgAsS3
_symmetry_space_group_name_H-M   'P 1'
_cell_length_a   6.68711710
_cell_length_b   6.68711710
_cell_length_c   7.92357103
_cell_angle_alpha   78.48617295
_cell_angle_beta   101.51382705
_cell_angle_gamma   61.03095514
_symmetry_Int_Tables_number   1
_chemical_formula_structural   AgHgAsS3
_chemical_formula_sum   'Ag2 Hg2 As2 S6'
_cell_volume   285.03482620
_cell_formula_units_Z   2
loop_
 _symmetry_equiv_pos_site_id
 _symmetry_equiv_pos_as_xyz
  1  'x, y, z'
loop_
 _atom_site_type_symbol
 _atom_site_label
 _atom_site_symmetry_multiplicity
 _atom_site_fract_x
 _atom_site_fract_y
 _atom_site_fract_z
 _atom_site_occupancy
  Ag  Ag0  1  0.036267  0.024473  0.755675  1
  Ag  Ag1  1  0.975527  0.963733  0.255675  1
  Hg  Hg2  1  0.729787  0.658671  0.794777  1
  Hg  Hg3  1  0.341329  0.270213  0.294777  1
  As  As4  1  0.386421  0.336888  0.789956  1
  As  As5  1  0.663112  0.613579  0.289956  1
  S  S6  1  0.770883  0.991866  0.936556  1
  S  S7  1  0.008134  0.229117  0.436556  1
  S  S8  1  0.741458  0.816127  0.474232  1
  S  S9  1  0.406287  0.561878  0.416404  1
  S  S10  1  0.438122  0.593713  0.916404  1
  S  S11  1  0.183873  0.258542  0.974232  1
