# generated using pymatgen
data_RbLiB4O7
_symmetry_space_group_name_H-M   'P 1'
_cell_length_a   8.81126991
_cell_length_b   11.45887555
_cell_length_c   13.07206186
_cell_angle_alpha   90.00000000
_cell_angle_beta   90.00000000
_cell_angle_gamma   90.00000000
_symmetry_Int_Tables_number   1
_chemical_formula_structural   RbLiB4O7
_chemical_formula_sum   'Rb8 Li8 B32 O56'
_cell_volume   1319.85007687
_cell_formula_units_Z   8
loop_
 _symmetry_equiv_pos_site_id
 _symmetry_equiv_pos_as_xyz
  1  'x, y, z'
loop_
 _atom_site_type_symbol
 _atom_site_label
 _atom_site_symmetry_multiplicity
 _atom_site_fract_x
 _atom_site_fract_y
 _atom_site_fract_z
 _atom_site_occupancy
  Rb  Rb0  1  0.366228  0.454581  0.099790  1
  Rb  Rb1  1  0.866228  0.045419  0.900210  1
  Rb  Rb2  1  0.633772  0.954581  0.400210  1
  Rb  Rb3  1  0.133772  0.545419  0.599790  1
  Rb  Rb4  1  0.691656  0.373396  0.792567  1
  Rb  Rb5  1  0.191656  0.126604  0.207433  1
  Rb  Rb6  1  0.308344  0.873396  0.707433  1
  Rb  Rb7  1  0.808344  0.626604  0.292567  1
  Li  Li8  1  0.754800  0.672817  0.807896  1
  Li  Li9  1  0.254800  0.827183  0.192104  1
  Li  Li10  1  0.245200  0.172817  0.692104  1
  Li  Li11  1  0.745200  0.327183  0.307896  1
  Li  Li12  1  0.081525  0.646066  0.881275  1
  Li  Li13  1  0.581525  0.853934  0.118725  1
  Li  Li14  1  0.918475  0.146066  0.618725  1
  Li  Li15  1  0.418475  0.353934  0.381275  1
  B  B16  1  0.364103  0.724049  0.987758  1
  B  B17  1  0.864103  0.775951  0.012242  1
  B  B18  1  0.635897  0.224049  0.512242  1
  B  B19  1  0.135897  0.275951  0.487758  1
  B  B20  1  0.430166  0.597479  0.836343  1
  B  B21  1  0.930166  0.902521  0.163657  1
  B  B22  1  0.569834  0.097479  0.663657  1
  B  B23  1  0.069834  0.402521  0.336343  1
  B  B24  1  0.237506  0.421817  0.841454  1
  B  B25  1  0.737506  0.078183  0.158546  1
  B  B26  1  0.762494  0.921817  0.658546  1
  B  B27  1  0.262494  0.578183  0.341454  1
  B  B28  1  0.065340  0.255419  0.806009  1
  B  B29  1  0.565340  0.244581  0.193991  1
  B  B30  1  0.934660  0.755419  0.693991  1
  B  B31  1  0.434660  0.744581  0.306009  1
  B  B32  1  0.008748  0.391103  0.953086  1
  B  B33  1  0.508748  0.108897  0.046914  1
  B  B34  1  0.991252  0.891103  0.546914  1
  B  B35  1  0.491252  0.608897  0.453086  1
  B  B36  1  0.994833  0.379323  0.144450  1
  B  B37  1  0.494833  0.120677  0.855550  1
  B  B38  1  0.005167  0.879323  0.355550  1
  B  B39  1  0.505167  0.620677  0.644450  1
  B  B40  1  0.799474  0.487081  0.052467  1
  B  B41  1  0.299474  0.012919  0.947533  1
  B  B42  1  0.200526  0.987081  0.447533  1
  B  B43  1  0.700526  0.512919  0.552467  1
  B  B44  1  0.628497  0.643608  0.979191  1
  B  B45  1  0.128497  0.856392  0.020809  1
  B  B46  1  0.371503  0.143608  0.520809  1
  B  B47  1  0.871503  0.356392  0.479191  1
  O  O48  1  0.320994  0.669692  0.898086  1
  O  O49  1  0.820994  0.830308  0.101914  1
  O  O50  1  0.679006  0.169692  0.601914  1
  O  O51  1  0.179006  0.330308  0.398086  1
  O  O52  1  0.434485  0.651755  0.733007  1
  O  O53  1  0.934485  0.848245  0.266993  1
  O  O54  1  0.565515  0.151755  0.766993  1
  O  O55  1  0.065515  0.348245  0.233007  1
  O  O56  1  0.370659  0.476313  0.820393  1
  O  O57  1  0.870659  0.023687  0.179607  1
  O  O58  1  0.629341  0.976313  0.679607  1
  O  O59  1  0.129341  0.523687  0.320393  1
  O  O60  1  0.206258  0.316918  0.790091  1
  O  O61  1  0.706258  0.183082  0.209909  1
  O  O62  1  0.793742  0.816918  0.709909  1
  O  O63  1  0.293742  0.683082  0.290091  1
  O  O64  1  0.033140  0.166098  0.744315  1
  O  O65  1  0.533140  0.333902  0.255685  1
  O  O66  1  0.966860  0.666098  0.755685  1
  O  O67  1  0.466860  0.833902  0.244315  1
  O  O68  1  0.973884  0.291781  0.885972  1
  O  O69  1  0.473884  0.208219  0.114028  1
  O  O70  1  0.026116  0.791781  0.614028  1
  O  O71  1  0.526116  0.708219  0.385972  1
  O  O72  1  0.131697  0.466388  0.909002  1
  O  O73  1  0.631697  0.033612  0.090998  1
  O  O74  1  0.868303  0.966388  0.590998  1
  O  O75  1  0.368303  0.533612  0.409002  1
  O  O76  1  0.872106  0.464251  0.962540  1
  O  O77  1  0.372106  0.035749  0.037460  1
  O  O78  1  0.127894  0.964251  0.537460  1
  O  O79  1  0.627894  0.535749  0.462540  1
  O  O80  1  0.062103  0.348838  0.053946  1
  O  O81  1  0.562103  0.151162  0.946054  1
  O  O82  1  0.937897  0.848838  0.446054  1
  O  O83  1  0.437897  0.651162  0.553946  1
  O  O84  1  0.857113  0.441424  0.145252  1
  O  O85  1  0.357113  0.058576  0.854748  1
  O  O86  1  0.142887  0.941424  0.354748  1
  O  O87  1  0.642887  0.558576  0.645252  1
  O  O88  1  0.673359  0.555901  0.058913  1
  O  O89  1  0.173359  0.944099  0.941087  1
  O  O90  1  0.326641  0.055901  0.441087  1
  O  O91  1  0.826641  0.444099  0.558913  1
  O  O92  1  0.579732  0.591861  0.882567  1
  O  O93  1  0.079732  0.908139  0.117433  1
  O  O94  1  0.420268  0.091861  0.617433  1
  O  O95  1  0.920268  0.408139  0.382567  1
  O  O96  1  0.762397  0.716118  0.952966  1
  O  O97  1  0.262397  0.783882  0.047034  1
  O  O98  1  0.237603  0.216118  0.547034  1
  O  O99  1  0.737603  0.283882  0.452966  1
  O  O100  1  0.509484  0.717046  0.026306  1
  O  O101  1  0.009484  0.782954  0.973694  1
  O  O102  1  0.490516  0.217046  0.473694  1
  O  O103  1  0.990516  0.282954  0.526306  1
