# generated using pymatgen
data_Sr3LiRuO6
_symmetry_space_group_name_H-M   'P 1'
_cell_length_a   6.75347929
_cell_length_b   6.75347929
_cell_length_c   6.75347929
_cell_angle_alpha   92.27915811
_cell_angle_beta   92.27915811
_cell_angle_gamma   92.27915811
_symmetry_Int_Tables_number   1
_chemical_formula_structural   Sr3LiRuO6
_chemical_formula_sum   'Sr6 Li2 Ru2 O12'
_cell_volume   307.27169112
_cell_formula_units_Z   2
loop_
 _symmetry_equiv_pos_site_id
 _symmetry_equiv_pos_as_xyz
  1  'x, y, z'
loop_
 _atom_site_type_symbol
 _atom_site_label
 _atom_site_symmetry_multiplicity
 _atom_site_fract_x
 _atom_site_fract_y
 _atom_site_fract_z
 _atom_site_occupancy
  Sr  Sr0  1  0.250000  0.891695  0.608305  1
  Sr  Sr1  1  0.891695  0.608305  0.250000  1
  Sr  Sr2  1  0.391695  0.750000  0.108305  1
  Sr  Sr3  1  0.108305  0.391695  0.750000  1
  Sr  Sr4  1  0.750000  0.108305  0.391695  1
  Sr  Sr5  1  0.608305  0.250000  0.891695  1
  Li  Li6  1  0.250000  0.250000  0.250000  1
  Li  Li7  1  0.750000  0.750000  0.750000  1
  Ru  Ru8  1  0.000000  0.000000  0.000000  1
  Ru  Ru9  1  0.500000  0.500000  0.500000  1
  O  O10  1  0.582631  0.780316  0.452529  1
  O  O11  1  0.719684  0.917369  0.047471  1
  O  O12  1  0.047471  0.719684  0.917369  1
  O  O13  1  0.917369  0.047471  0.719684  1
  O  O14  1  0.452529  0.582631  0.780316  1
  O  O15  1  0.780316  0.452529  0.582631  1
  O  O16  1  0.547471  0.417369  0.219684  1
  O  O17  1  0.219684  0.547471  0.417369  1
  O  O18  1  0.082631  0.952529  0.280316  1
  O  O19  1  0.952529  0.280316  0.082631  1
  O  O20  1  0.280316  0.082631  0.952529  1
  O  O21  1  0.417369  0.219684  0.547471  1
