# generated using pymatgen
data_Ca5P3O12F
_symmetry_space_group_name_H-M   'P 1'
_cell_length_a   9.50088730
_cell_length_b   9.50088730
_cell_length_c   6.91984831
_cell_angle_alpha   90.00000000
_cell_angle_beta   90.00000000
_cell_angle_gamma   120.00000000
_symmetry_Int_Tables_number   1
_chemical_formula_structural   Ca5P3O12F
_chemical_formula_sum   'Ca10 P6 O24 F2'
_cell_volume   540.94802405
_cell_formula_units_Z   2
loop_
 _symmetry_equiv_pos_site_id
 _symmetry_equiv_pos_as_xyz
  1  'x, y, z'
loop_
 _atom_site_type_symbol
 _atom_site_label
 _atom_site_symmetry_multiplicity
 _atom_site_fract_x
 _atom_site_fract_y
 _atom_site_fract_z
 _atom_site_occupancy
  Ca  Ca0  1  0.754048  0.755403  0.250000  1
  Ca  Ca1  1  0.001355  0.245952  0.250000  1
  Ca  Ca2  1  0.755403  0.001355  0.750000  1
  Ca  Ca3  1  0.998645  0.754048  0.750000  1
  Ca  Ca4  1  0.245952  0.244597  0.750000  1
  Ca  Ca5  1  0.244597  0.998645  0.250000  1
  Ca  Ca6  1  0.333333  0.666667  0.498915  1
  Ca  Ca7  1  0.666667  0.333333  0.998915  1
  Ca  Ca8  1  0.666667  0.333333  0.501085  1
  Ca  Ca9  1  0.333333  0.666667  0.001085  1
  P  P10  1  0.630727  0.029004  0.250000  1
  P  P11  1  0.970996  0.601723  0.250000  1
  P  P12  1  0.601723  0.630727  0.750000  1
  P  P13  1  0.369273  0.970996  0.750000  1
  P  P14  1  0.029004  0.398277  0.750000  1
  P  P15  1  0.398277  0.369273  0.250000  1
  O  O16  1  0.671211  0.513914  0.750000  1
  O  O17  1  0.465586  0.877505  0.750000  1
  O  O18  1  0.340756  0.256966  0.430436  1
  O  O19  1  0.083790  0.340756  0.930436  1
  O  O20  1  0.256966  0.916210  0.930436  1
  O  O21  1  0.743034  0.083790  0.430436  1
  O  O22  1  0.916210  0.659244  0.430436  1
  O  O23  1  0.659244  0.743034  0.930436  1
  O  O24  1  0.659244  0.743034  0.569564  1
  O  O25  1  0.916210  0.659244  0.069564  1
  O  O26  1  0.743034  0.083790  0.069564  1
  O  O27  1  0.256966  0.916210  0.569564  1
  O  O28  1  0.122495  0.588082  0.750000  1
  O  O29  1  0.340756  0.256966  0.069564  1
  O  O30  1  0.411918  0.534414  0.750000  1
  O  O31  1  0.877505  0.411918  0.250000  1
  O  O32  1  0.328789  0.486086  0.250000  1
  O  O33  1  0.842703  0.328789  0.750000  1
  O  O34  1  0.486086  0.157297  0.750000  1
  O  O35  1  0.513914  0.842703  0.250000  1
  O  O36  1  0.157297  0.671211  0.250000  1
  O  O37  1  0.083790  0.340756  0.569564  1
  O  O38  1  0.588082  0.465586  0.250000  1
  O  O39  1  0.534414  0.122495  0.250000  1
  F  F40  1  0.000000  0.000000  0.250000  1
  F  F41  1  0.000000  0.000000  0.750000  1
