# generated using pymatgen
data_KCa10(PO4)7
_symmetry_space_group_name_H-M   'P 1'
_cell_length_a   13.94147189
_cell_length_b   13.94147189
_cell_length_c   13.94147189
_cell_angle_alpha   44.71720567
_cell_angle_beta   44.71720567
_cell_angle_gamma   44.71720567
_symmetry_Int_Tables_number   1
_chemical_formula_structural   KCa10(PO4)7
_chemical_formula_sum   'K2 Ca20 P14 O56'
_cell_volume   1220.26825265
_cell_formula_units_Z   2
loop_
 _symmetry_equiv_pos_site_id
 _symmetry_equiv_pos_as_xyz
  1  'x, y, z'
loop_
 _atom_site_type_symbol
 _atom_site_label
 _atom_site_symmetry_multiplicity
 _atom_site_fract_x
 _atom_site_fract_y
 _atom_site_fract_z
 _atom_site_occupancy
  K  K0  1  0.451309  0.451309  0.451309  1
  K  K1  1  0.951309  0.951309  0.951309  1
  Ca  Ca2  1  0.132922  0.132922  0.132922  1
  Ca  Ca3  1  0.632922  0.632922  0.632922  1
  Ca  Ca4  1  0.786999  0.186571  0.224457  1
  Ca  Ca5  1  0.186571  0.224457  0.786999  1
  Ca  Ca6  1  0.224457  0.786999  0.186571  1
  Ca  Ca7  1  0.286999  0.724457  0.686571  1
  Ca  Ca8  1  0.724457  0.686571  0.286999  1
  Ca  Ca9  1  0.686571  0.286999  0.724457  1
  Ca  Ca10  1  0.559641  0.568549  0.975371  1
  Ca  Ca11  1  0.568549  0.975371  0.559641  1
  Ca  Ca12  1  0.975371  0.559641  0.568549  1
  Ca  Ca13  1  0.059641  0.475371  0.068549  1
  Ca  Ca14  1  0.475371  0.068549  0.059641  1
  Ca  Ca15  1  0.068549  0.059641  0.475371  1
  Ca  Ca16  1  0.659251  0.692312  0.067381  1
  Ca  Ca17  1  0.692312  0.067381  0.659251  1
  Ca  Ca18  1  0.067381  0.659251  0.692312  1
  Ca  Ca19  1  0.159251  0.567381  0.192312  1
  Ca  Ca20  1  0.567381  0.192312  0.159251  1
  Ca  Ca21  1  0.192312  0.159251  0.567381  1
  P  P22  1  0.903444  0.447442  0.950404  1
  P  P23  1  0.447442  0.950404  0.903444  1
  P  P24  1  0.950404  0.903444  0.447442  1
  P  P25  1  0.403444  0.450404  0.947442  1
  P  P26  1  0.450404  0.947442  0.403444  1
  P  P27  1  0.947442  0.403444  0.450404  1
  P  P28  1  0.812587  0.319340  0.363892  1
  P  P29  1  0.319340  0.363892  0.812587  1
  P  P30  1  0.363892  0.812587  0.319340  1
  P  P31  1  0.312587  0.863892  0.819340  1
  P  P32  1  0.863892  0.819340  0.312587  1
  P  P33  1  0.819340  0.312587  0.863892  1
  P  P34  1  0.365599  0.365599  0.365599  1
  P  P35  1  0.865599  0.865599  0.865599  1
  O  O36  1  0.731511  0.494307  0.039597  1
  O  O37  1  0.494307  0.039597  0.731511  1
  O  O38  1  0.039597  0.731511  0.494307  1
  O  O39  1  0.231511  0.539597  0.994307  1
  O  O40  1  0.539597  0.994307  0.231511  1
  O  O41  1  0.994307  0.231511  0.539597  1
  O  O42  1  0.960389  0.507314  0.780433  1
  O  O43  1  0.507314  0.780433  0.960389  1
  O  O44  1  0.780433  0.960389  0.507314  1
  O  O45  1  0.460389  0.280433  0.007314  1
  O  O46  1  0.280433  0.007314  0.460389  1
  O  O47  1  0.007314  0.460389  0.280433  1
  O  O48  1  0.941806  0.512865  0.969043  1
  O  O49  1  0.512865  0.969043  0.941806  1
  O  O50  1  0.969043  0.941806  0.512865  1
  O  O51  1  0.441806  0.469043  0.012865  1
  O  O52  1  0.469043  0.012865  0.441806  1
  O  O53  1  0.012865  0.441806  0.469043  1
  O  O54  1  0.983660  0.272733  0.015315  1
  O  O55  1  0.272733  0.015315  0.983660  1
  O  O56  1  0.015315  0.983660  0.272733  1
  O  O57  1  0.483660  0.515315  0.772733  1
  O  O58  1  0.740786  0.492213  0.299402  1
  O  O59  1  0.515315  0.772733  0.483660  1
  O  O60  1  0.987009  0.264585  0.268861  1
  O  O61  1  0.264585  0.268861  0.987009  1
  O  O62  1  0.268861  0.987009  0.264585  1
  O  O63  1  0.487009  0.768861  0.764585  1
  O  O64  1  0.768861  0.764585  0.487009  1
  O  O65  1  0.764585  0.487009  0.768861  1
  O  O66  1  0.792781  0.236048  0.528665  1
  O  O67  1  0.236048  0.528665  0.792781  1
  O  O68  1  0.528665  0.792781  0.236048  1
  O  O69  1  0.292781  0.028665  0.736048  1
  O  O70  1  0.028665  0.736048  0.292781  1
  O  O71  1  0.736048  0.292781  0.028665  1
  O  O72  1  0.824094  0.824094  0.824094  1
  O  O73  1  0.324094  0.324094  0.324094  1
  O  O74  1  0.742475  0.021270  0.872978  1
  O  O75  1  0.872978  0.742475  0.021270  1
  O  O76  1  0.021270  0.872978  0.742475  1
  O  O77  1  0.372978  0.521270  0.242475  1
  O  O78  1  0.242475  0.372978  0.521270  1
  O  O79  1  0.521270  0.242475  0.372978  1
  O  O80  1  0.765369  0.244665  0.866060  1
  O  O81  1  0.866060  0.765369  0.244665  1
  O  O82  1  0.244665  0.866060  0.765369  1
  O  O83  1  0.366060  0.744665  0.265369  1
  O  O84  1  0.265369  0.366060  0.744665  1
  O  O85  1  0.744665  0.265369  0.366060  1
  O  O86  1  0.992213  0.240786  0.799402  1
  O  O87  1  0.799402  0.992213  0.240786  1
  O  O88  1  0.240786  0.799402  0.992213  1
  O  O89  1  0.299402  0.740786  0.492213  1
  O  O90  1  0.492213  0.299402  0.740786  1
  O  O91  1  0.772733  0.483660  0.515315  1
