# generated using pymatgen
data_Sr6B(PO4)5
_symmetry_space_group_name_H-M   'P 1'
_cell_length_a   11.89450271
_cell_length_b   11.89450271
_cell_length_c   11.89450271
_cell_angle_alpha   130.84581851
_cell_angle_beta   130.84581851
_cell_angle_gamma   72.05815580
_symmetry_Int_Tables_number   1
_chemical_formula_structural   Sr6B(PO4)5
_chemical_formula_sum   'Sr12 B2 P10 O40'
_cell_volume   941.69456235
_cell_formula_units_Z   2
loop_
 _symmetry_equiv_pos_site_id
 _symmetry_equiv_pos_as_xyz
  1  'x, y, z'
loop_
 _atom_site_type_symbol
 _atom_site_label
 _atom_site_symmetry_multiplicity
 _atom_site_fract_x
 _atom_site_fract_y
 _atom_site_fract_z
 _atom_site_occupancy
  Sr  Sr0  1  0.722811  0.222811  0.945622  1
  Sr  Sr1  1  0.222811  0.277189  0.500000  1
  Sr  Sr2  1  0.277189  0.777189  0.054378  1
  Sr  Sr3  1  0.777189  0.722811  0.500000  1
  Sr  Sr4  1  0.330867  0.535236  0.195053  1
  Sr  Sr5  1  0.340183  0.135815  0.804947  1
  Sr  Sr6  1  0.840183  0.035236  0.204368  1
  Sr  Sr7  1  0.464764  0.659817  0.795632  1
  Sr  Sr8  1  0.864185  0.669133  0.204368  1
  Sr  Sr9  1  0.964764  0.169133  0.804947  1
  Sr  Sr10  1  0.364185  0.159817  0.195053  1
  Sr  Sr11  1  0.830867  0.635815  0.795632  1
  B  B12  1  0.750000  0.250000  0.500000  1
  B  B13  1  0.250000  0.750000  0.500000  1
  P  P14  1  0.128681  0.446523  0.273040  1
  P  P15  1  0.173483  0.855641  0.726960  1
  P  P16  1  0.673483  0.946523  0.317843  1
  P  P17  1  0.553477  0.826517  0.682157  1
  P  P18  1  0.144359  0.871319  0.317843  1
  P  P19  1  0.053477  0.371319  0.726960  1
  P  P20  1  0.644359  0.326517  0.273040  1
  P  P21  1  0.628681  0.355641  0.682157  1
  P  P22  1  0.500000  0.500000  0.000000  1
  P  P23  1  0.000000  0.000000  0.000000  1
  O  O24  1  0.971522  0.798063  0.155678  1
  O  O25  1  0.530222  0.985755  0.744777  1
  O  O26  1  0.240978  0.785445  0.255223  1
  O  O27  1  0.030222  0.285445  0.544467  1
  O  O28  1  0.740978  0.485755  0.455533  1
  O  O29  1  0.714555  0.259022  0.744777  1
  O  O30  1  0.958379  0.381624  0.128128  1
  O  O31  1  0.253496  0.830251  0.871872  1
  O  O32  1  0.753496  0.881624  0.423245  1
  O  O33  1  0.618376  0.746504  0.576755  1
  O  O34  1  0.169749  0.041621  0.423245  1
  O  O35  1  0.118376  0.541621  0.871872  1
  O  O36  1  0.669749  0.246504  0.128128  1
  O  O37  1  0.471522  0.315843  0.173459  1
  O  O38  1  0.201937  0.357616  0.173459  1
  O  O39  1  0.184157  0.028478  0.826541  1
  O  O40  1  0.684157  0.857616  0.155678  1
  O  O41  1  0.642384  0.815843  0.844322  1
  O  O42  1  0.514245  0.969778  0.255223  1
  O  O43  1  0.142384  0.298063  0.826541  1
  O  O44  1  0.214555  0.469778  0.455533  1
  O  O45  1  0.014245  0.759022  0.544467  1
  O  O46  1  0.631699  0.307665  0.521026  1
  O  O47  1  0.692335  0.213361  0.324033  1
  O  O48  1  0.889327  0.368301  0.675967  1
  O  O49  1  0.192335  0.868301  0.478974  1
  O  O50  1  0.389327  0.713361  0.521026  1
  O  O51  1  0.786639  0.110673  0.478974  1
  O  O52  1  0.286639  0.807665  0.675967  1
  O  O53  1  0.131699  0.610673  0.324033  1
  O  O54  1  0.983296  0.826296  0.897719  1
  O  O55  1  0.173704  0.071423  0.157000  1
  O  O56  1  0.914423  0.016704  0.843000  1
  O  O57  1  0.673704  0.516704  0.102281  1
  O  O58  1  0.414423  0.571423  0.897719  1
  O  O59  1  0.928577  0.085577  0.102281  1
  O  O60  1  0.428577  0.326296  0.843000  1
  O  O61  1  0.483296  0.585577  0.157000  1
  O  O62  1  0.701937  0.528478  0.844322  1
  O  O63  1  0.458379  0.330251  0.576755  1
