# generated using pymatgen
data_NaCdPO4
_symmetry_space_group_name_H-M   'P 1'
_cell_length_a   5.11992846
_cell_length_b   6.61131648
_cell_length_c   11.03060079
_cell_angle_alpha   90.00000000
_cell_angle_beta   90.00000000
_cell_angle_gamma   90.00000000
_symmetry_Int_Tables_number   1
_chemical_formula_structural   NaCdPO4
_chemical_formula_sum   'Na4 Cd4 P4 O16'
_cell_volume   373.37996189
_cell_formula_units_Z   4
loop_
 _symmetry_equiv_pos_site_id
 _symmetry_equiv_pos_as_xyz
  1  'x, y, z'
loop_
 _atom_site_type_symbol
 _atom_site_label
 _atom_site_symmetry_multiplicity
 _atom_site_fract_x
 _atom_site_fract_y
 _atom_site_fract_z
 _atom_site_occupancy
  Na  Na0  1  0.000000  0.000000  0.000000  1
  Na  Na1  1  0.000000  0.500000  0.000000  1
  Na  Na2  1  0.500000  0.500000  0.500000  1
  Na  Na3  1  0.500000  0.000000  0.500000  1
  Cd  Cd4  1  0.515162  0.250000  0.214523  1
  Cd  Cd5  1  0.484838  0.750000  0.785477  1
  Cd  Cd6  1  0.984838  0.250000  0.714523  1
  Cd  Cd7  1  0.015162  0.750000  0.285477  1
  P  P8  1  0.068127  0.250000  0.396968  1
  P  P9  1  0.431873  0.250000  0.896968  1
  P  P10  1  0.931873  0.750000  0.603032  1
  P  P11  1  0.568127  0.750000  0.103032  1
  O  O12  1  0.191784  0.063153  0.330074  1
  O  O13  1  0.808216  0.563153  0.669926  1
  O  O14  1  0.308216  0.063153  0.830074  1
  O  O15  1  0.691784  0.563153  0.169926  1
  O  O16  1  0.324776  0.250000  0.029255  1
  O  O17  1  0.675224  0.750000  0.970745  1
  O  O18  1  0.175224  0.250000  0.529255  1
  O  O19  1  0.824776  0.750000  0.470745  1
  O  O20  1  0.808216  0.936847  0.669926  1
  O  O21  1  0.191784  0.436847  0.330074  1
  O  O22  1  0.691784  0.936847  0.169926  1
  O  O23  1  0.308216  0.436847  0.830074  1
  O  O24  1  0.266324  0.750000  0.106536  1
  O  O25  1  0.733676  0.250000  0.893464  1
  O  O26  1  0.233676  0.750000  0.606536  1
  O  O27  1  0.766324  0.250000  0.393464  1
