# generated using pymatgen
data_Sr3Pr2(BO3)4
_symmetry_space_group_name_H-M   'P 1'
_cell_length_a   7.40318749
_cell_length_b   8.90328569
_cell_length_c   16.79600361
_cell_angle_alpha   90.00000000
_cell_angle_beta   90.00000000
_cell_angle_gamma   90.00000000
_symmetry_Int_Tables_number   1
_chemical_formula_structural   Sr3Pr2(BO3)4
_chemical_formula_sum   'Sr12 Pr8 B16 O48'
_cell_volume   1107.06983361
_cell_formula_units_Z   4
loop_
 _symmetry_equiv_pos_site_id
 _symmetry_equiv_pos_as_xyz
  1  'x, y, z'
loop_
 _atom_site_type_symbol
 _atom_site_label
 _atom_site_symmetry_multiplicity
 _atom_site_fract_x
 _atom_site_fract_y
 _atom_site_fract_z
 _atom_site_occupancy
  Sr  Sr0  1  0.320672  0.849560  0.927300  1
  Sr  Sr1  1  0.679328  0.150440  0.427300  1
  Sr  Sr2  1  0.179328  0.349560  0.427300  1
  Sr  Sr3  1  0.820672  0.650440  0.927300  1
  Sr  Sr4  1  0.036849  0.827560  0.722127  1
  Sr  Sr5  1  0.963151  0.172440  0.222127  1
  Sr  Sr6  1  0.463151  0.327560  0.222127  1
  Sr  Sr7  1  0.536849  0.672440  0.722127  1
  Sr  Sr8  1  0.306866  0.851810  0.175546  1
  Sr  Sr9  1  0.693134  0.148190  0.675546  1
  Sr  Sr10  1  0.806866  0.648190  0.175546  1
  Sr  Sr11  1  0.193134  0.351810  0.675546  1
  Pr  Pr12  1  0.031163  0.829255  0.383646  1
  Pr  Pr13  1  0.968837  0.170745  0.883646  1
  Pr  Pr14  1  0.468837  0.329255  0.883646  1
  Pr  Pr15  1  0.531163  0.670745  0.383646  1
  Pr  Pr16  1  0.315520  0.965710  0.554672  1
  Pr  Pr17  1  0.684480  0.034290  0.054672  1
  Pr  Pr18  1  0.184480  0.465710  0.054672  1
  Pr  Pr19  1  0.815520  0.534290  0.554672  1
  B  B20  1  0.162237  0.561963  0.261439  1
  B  B21  1  0.014985  0.870805  0.048933  1
  B  B22  1  0.985015  0.129195  0.548933  1
  B  B23  1  0.485015  0.370805  0.548933  1
  B  B24  1  0.514985  0.629195  0.048933  1
  B  B25  1  0.721692  0.855764  0.552439  1
  B  B26  1  0.278308  0.144236  0.052439  1
  B  B27  1  0.778308  0.355764  0.052439  1
  B  B28  1  0.221692  0.644236  0.552439  1
  B  B29  1  0.673478  0.951728  0.845602  1
  B  B30  1  0.326522  0.048272  0.345602  1
  B  B31  1  0.826522  0.451728  0.345602  1
  B  B32  1  0.173478  0.548272  0.845602  1
  B  B33  1  0.662237  0.938037  0.261439  1
  B  B34  1  0.337763  0.061963  0.761439  1
  B  B35  1  0.837763  0.438037  0.761439  1
  O  O36  1  0.809497  0.991419  0.792758  1
  O  O37  1  0.247596  0.219856  0.980798  1
  O  O38  1  0.747596  0.280144  0.980798  1
  O  O39  1  0.252404  0.719856  0.480798  1
  O  O40  1  0.616663  0.759780  0.045585  1
  O  O41  1  0.267870  0.718928  0.621302  1
  O  O42  1  0.732130  0.281072  0.121302  1
  O  O43  1  0.232130  0.218928  0.121302  1
  O  O44  1  0.767870  0.781072  0.621302  1
  O  O45  1  0.460948  0.555006  0.978858  1
  O  O46  1  0.539052  0.444994  0.478858  1
  O  O47  1  0.039052  0.055006  0.478858  1
  O  O48  1  0.960948  0.944994  0.978858  1
  O  O49  1  0.452560  0.573488  0.121280  1
  O  O50  1  0.547440  0.426512  0.621280  1
  O  O51  1  0.047440  0.073488  0.621280  1
  O  O52  1  0.952560  0.926512  0.121280  1
  O  O53  1  0.116663  0.740220  0.045585  1
  O  O54  1  0.883337  0.259780  0.545585  1
  O  O55  1  0.383337  0.240220  0.545585  1
  O  O56  1  0.882815  0.560856  0.400570  1
  O  O57  1  0.117185  0.439144  0.900570  1
  O  O58  1  0.617185  0.060856  0.900570  1
  O  O59  1  0.382815  0.939144  0.400570  1
  O  O60  1  0.103559  0.691459  0.847828  1
  O  O61  1  0.896441  0.308541  0.347828  1
  O  O62  1  0.396441  0.191459  0.347828  1
  O  O63  1  0.603559  0.808541  0.847828  1
  O  O64  1  0.690503  0.491419  0.292758  1
  O  O65  1  0.309497  0.508581  0.792758  1
  O  O66  1  0.752404  0.780144  0.480798  1
  O  O67  1  0.190503  0.008581  0.292758  1
  O  O68  1  0.884163  0.538602  0.702362  1
  O  O69  1  0.115837  0.461398  0.202362  1
  O  O70  1  0.615837  0.038602  0.202362  1
  O  O71  1  0.384163  0.961398  0.702362  1
  O  O72  1  0.082611  0.704171  0.261059  1
  O  O73  1  0.917389  0.295829  0.761059  1
  O  O74  1  0.417389  0.204171  0.761059  1
  O  O75  1  0.582611  0.795829  0.261059  1
  O  O76  1  0.708819  0.471143  0.819220  1
  O  O77  1  0.291181  0.528857  0.319220  1
  O  O78  1  0.791181  0.971143  0.319220  1
  O  O79  1  0.208819  0.028857  0.819220  1
  O  O80  1  0.863327  0.492806  0.052675  1
  O  O81  1  0.136673  0.507194  0.552675  1
  O  O82  1  0.636673  0.992806  0.552675  1
  O  O83  1  0.363327  0.007194  0.052675  1
