# generated using pymatgen
data_Sr3GaO4F
_symmetry_space_group_name_H-M   'P 1'
_cell_length_a   7.51718691
_cell_length_b   7.51718691
_cell_length_c   7.51718691
_cell_angle_alpha   125.79059146
_cell_angle_beta   125.79059146
_cell_angle_gamma   80.23259025
_symmetry_Int_Tables_number   1
_chemical_formula_structural   Sr3GaO4F
_chemical_formula_sum   'Sr6 Ga2 O8 F2'
_cell_volume   269.73701669
_cell_formula_units_Z   2
loop_
 _symmetry_equiv_pos_site_id
 _symmetry_equiv_pos_as_xyz
  1  'x, y, z'
loop_
 _atom_site_type_symbol
 _atom_site_label
 _atom_site_symmetry_multiplicity
 _atom_site_fract_x
 _atom_site_fract_y
 _atom_site_fract_z
 _atom_site_occupancy
  Sr  Sr0  1  0.332567  0.832567  0.165133  1
  Sr  Sr1  1  0.832567  0.667433  0.500000  1
  Sr  Sr2  1  0.167433  0.332567  0.500000  1
  Sr  Sr3  1  0.667433  0.167433  0.834867  1
  Sr  Sr4  1  0.750000  0.750000  0.000000  1
  Sr  Sr5  1  0.250000  0.250000  0.000000  1
  Ga  Ga6  1  0.250000  0.750000  0.500000  1
  Ga  Ga7  1  0.750000  0.250000  0.500000  1
  O  O8  1  0.996679  0.496679  0.205130  1
  O  O9  1  0.708451  0.208451  0.205130  1
  O  O10  1  0.003321  0.503321  0.794870  1
  O  O11  1  0.503321  0.708451  0.500000  1
  O  O12  1  0.208451  0.003321  0.500000  1
  O  O13  1  0.496679  0.291549  0.500000  1
  O  O14  1  0.791549  0.996679  0.500000  1
  O  O15  1  0.291549  0.791549  0.794870  1
  F  F16  1  0.000000  0.000000  0.000000  1
  F  F17  1  0.500000  0.500000  0.000000  1
