# generated using pymatgen
data_Li16Nb2N8O
_symmetry_space_group_name_H-M   'P 1'
_cell_length_a   9.19828933
_cell_length_b   9.19828933
_cell_length_c   9.19828933
_cell_angle_alpha   38.11314953
_cell_angle_beta   38.11314953
_cell_angle_gamma   38.11314953
_symmetry_Int_Tables_number   1
_chemical_formula_structural   Li16Nb2N8O
_chemical_formula_sum   'Li16 Nb2 N8 O1'
_cell_volume   266.18971504
_cell_formula_units_Z   1
loop_
 _symmetry_equiv_pos_site_id
 _symmetry_equiv_pos_as_xyz
  1  'x, y, z'
loop_
 _atom_site_type_symbol
 _atom_site_label
 _atom_site_symmetry_multiplicity
 _atom_site_fract_x
 _atom_site_fract_y
 _atom_site_fract_z
 _atom_site_occupancy
  Li  Li0  1  0.417204  0.417204  0.417204  1
  Li  Li1  1  0.582796  0.582796  0.582796  1
  Li  Li2  1  0.077715  0.077715  0.077715  1
  Li  Li3  1  0.922285  0.922285  0.922285  1
  Li  Li4  1  0.683285  0.055664  0.332355  1
  Li  Li5  1  0.055664  0.332355  0.683285  1
  Li  Li6  1  0.332355  0.683285  0.055664  1
  Li  Li7  1  0.316715  0.944336  0.667645  1
  Li  Li8  1  0.944336  0.667645  0.316715  1
  Li  Li9  1  0.667645  0.316715  0.944336  1
  Li  Li10  1  0.831567  0.420928  0.172685  1
  Li  Li11  1  0.827315  0.168433  0.579072  1
  Li  Li12  1  0.579072  0.827315  0.168433  1
  Li  Li13  1  0.168433  0.579072  0.827315  1
  Li  Li14  1  0.172685  0.831567  0.420928  1
  Li  Li15  1  0.420928  0.172685  0.831567  1
  Nb  Nb16  1  0.750625  0.750625  0.750625  1
  Nb  Nb17  1  0.249375  0.249375  0.249375  1
  N  N18  1  0.673292  0.673292  0.673292  1
  N  N19  1  0.326708  0.326708  0.326708  1
  N  N20  1  0.088263  0.463964  0.774177  1
  N  N21  1  0.463964  0.774177  0.088263  1
  N  N22  1  0.774177  0.088263  0.463964  1
  N  N23  1  0.911737  0.536036  0.225823  1
  N  N24  1  0.536036  0.225823  0.911737  1
  N  N25  1  0.225823  0.911737  0.536036  1
  O  O26  1  0.000000  0.000000  0.000000  1
