# generated using pymatgen
data_NaMgPO4
_symmetry_space_group_name_H-M   'P 1'
_cell_length_a   6.93217338
_cell_length_b   8.89949678
_cell_length_c   15.50652850
_cell_angle_alpha   90.00000000
_cell_angle_beta   90.00000000
_cell_angle_gamma   90.00000000
_symmetry_Int_Tables_number   1
_chemical_formula_structural   NaMgPO4
_chemical_formula_sum   'Na12 Mg12 P12 O48'
_cell_volume   956.64200924
_cell_formula_units_Z   12
loop_
 _symmetry_equiv_pos_site_id
 _symmetry_equiv_pos_as_xyz
  1  'x, y, z'
loop_
 _atom_site_type_symbol
 _atom_site_label
 _atom_site_symmetry_multiplicity
 _atom_site_fract_x
 _atom_site_fract_y
 _atom_site_fract_z
 _atom_site_occupancy
  Na  Na0  1  0.446481  0.608583  0.155558  1
  Na  Na1  1  0.946481  0.891417  0.844442  1
  Na  Na2  1  0.553519  0.108583  0.344442  1
  Na  Na3  1  0.053519  0.391417  0.655558  1
  Na  Na4  1  0.536255  0.598828  0.486293  1
  Na  Na5  1  0.036255  0.901172  0.513707  1
  Na  Na6  1  0.463745  0.098828  0.013707  1
  Na  Na7  1  0.963745  0.401172  0.986293  1
  Na  Na8  1  0.520952  0.601023  0.819925  1
  Na  Na9  1  0.020952  0.898977  0.180075  1
  Na  Na10  1  0.479048  0.101023  0.680075  1
  Na  Na11  1  0.979048  0.398977  0.319925  1
  Mg  Mg12  1  0.305632  0.266035  0.487777  1
  Mg  Mg13  1  0.805632  0.233965  0.512223  1
  Mg  Mg14  1  0.694368  0.766035  0.012223  1
  Mg  Mg15  1  0.194368  0.733965  0.987777  1
  Mg  Mg16  1  0.702695  0.273404  0.151416  1
  Mg  Mg17  1  0.202695  0.226596  0.848584  1
  Mg  Mg18  1  0.297305  0.773404  0.348584  1
  Mg  Mg19  1  0.797305  0.726596  0.651416  1
  Mg  Mg20  1  0.720550  0.255745  0.826731  1
  Mg  Mg21  1  0.220550  0.244255  0.173269  1
  Mg  Mg22  1  0.279450  0.755745  0.673269  1
  Mg  Mg23  1  0.779450  0.744255  0.326731  1
  P  P24  1  0.537779  0.429367  0.648670  1
  P  P25  1  0.037779  0.070633  0.351330  1
  P  P26  1  0.462221  0.929367  0.851330  1
  P  P27  1  0.962221  0.570633  0.148670  1
  P  P28  1  0.470576  0.430463  0.984093  1
  P  P29  1  0.970576  0.069537  0.015907  1
  P  P30  1  0.529424  0.930463  0.515907  1
  P  P31  1  0.029424  0.569537  0.484093  1
  P  P32  1  0.492802  0.435395  0.314367  1
  P  P33  1  0.992802  0.064605  0.685633  1
  P  P34  1  0.507198  0.935395  0.185633  1
  P  P35  1  0.007198  0.564605  0.814367  1
  O  O36  1  0.017647  0.630784  0.578678  1
  O  O37  1  0.517647  0.869216  0.421322  1
  O  O38  1  0.982353  0.130784  0.921322  1
  O  O39  1  0.482353  0.369216  0.078678  1
  O  O40  1  0.833175  0.635397  0.767214  1
  O  O41  1  0.333175  0.864603  0.232786  1
  O  O42  1  0.166825  0.135397  0.732786  1
  O  O43  1  0.666825  0.364603  0.267214  1
  O  O44  1  0.777797  0.613171  0.098311  1
  O  O45  1  0.277797  0.886829  0.901689  1
  O  O46  1  0.222203  0.113171  0.401689  1
  O  O47  1  0.722203  0.386829  0.598311  1
  O  O48  1  0.849099  0.614522  0.431372  1
  O  O49  1  0.349099  0.885478  0.568628  1
  O  O50  1  0.150901  0.114522  0.068628  1
  O  O51  1  0.650901  0.385478  0.931372  1
  O  O52  1  0.981959  0.388779  0.815734  1
  O  O53  1  0.481959  0.111221  0.184266  1
  O  O54  1  0.018041  0.888779  0.684266  1
  O  O55  1  0.518041  0.611221  0.315734  1
  O  O56  1  0.211376  0.635329  0.441407  1
  O  O57  1  0.010435  0.626863  0.907950  1
  O  O58  1  0.989565  0.126863  0.592050  1
  O  O59  1  0.489565  0.373137  0.407950  1
  O  O60  1  0.043672  0.392899  0.483474  1
  O  O61  1  0.543672  0.107101  0.516526  1
  O  O62  1  0.956328  0.892899  0.016526  1
  O  O63  1  0.456328  0.607101  0.983474  1
  O  O64  1  0.956815  0.631208  0.242089  1
  O  O65  1  0.456815  0.868792  0.757911  1
  O  O66  1  0.043185  0.131208  0.257911  1
  O  O67  1  0.543185  0.368792  0.742089  1
  O  O68  1  0.975557  0.393318  0.146947  1
  O  O69  1  0.475557  0.106682  0.853053  1
  O  O70  1  0.024443  0.893318  0.353053  1
  O  O71  1  0.524443  0.606682  0.646947  1
  O  O72  1  0.360147  0.364507  0.601151  1
  O  O73  1  0.860147  0.135493  0.398849  1
  O  O74  1  0.639853  0.864507  0.898849  1
  O  O75  1  0.139853  0.635493  0.101151  1
  O  O76  1  0.306078  0.398380  0.264063  1
  O  O77  1  0.806078  0.101620  0.735937  1
  O  O78  1  0.693922  0.898380  0.235937  1
  O  O79  1  0.193922  0.601620  0.764063  1
  O  O80  1  0.288624  0.364671  0.941407  1
  O  O81  1  0.788624  0.135329  0.058593  1
  O  O82  1  0.711376  0.864671  0.558593  1
  O  O83  1  0.510435  0.873137  0.092050  1
