# generated using pymatgen
data_Na2Zn2Si2O7
_symmetry_space_group_name_H-M   'P 1'
_cell_length_a   5.35358266
_cell_length_b   5.35358266
_cell_length_c   13.82079300
_cell_angle_alpha   90.00000000
_cell_angle_beta   90.00000000
_cell_angle_gamma   122.25992156
_symmetry_Int_Tables_number   1
_chemical_formula_structural   Na2Zn2Si2O7
_chemical_formula_sum   'Na4 Zn4 Si4 O14'
_cell_volume   334.96940789
_cell_formula_units_Z   2
loop_
 _symmetry_equiv_pos_site_id
 _symmetry_equiv_pos_as_xyz
  1  'x, y, z'
loop_
 _atom_site_type_symbol
 _atom_site_label
 _atom_site_symmetry_multiplicity
 _atom_site_fract_x
 _atom_site_fract_y
 _atom_site_fract_z
 _atom_site_occupancy
  Na  Na0  1  0.942558  0.014721  0.250000  1
  Na  Na1  1  0.014721  0.942558  0.750000  1
  Na  Na2  1  0.992232  0.992232  0.500000  1
  Na  Na3  1  0.992232  0.992232  1.000000  1
  Zn  Zn4  1  0.228197  0.657211  0.420006  1
  Zn  Zn5  1  0.657211  0.228197  0.579994  1
  Zn  Zn6  1  0.228197  0.657211  0.079994  1
  Zn  Zn7  1  0.657211  0.228197  0.920006  1
  Si  Si8  1  0.571040  0.331650  0.359675  1
  Si  Si9  1  0.331650  0.571040  0.640325  1
  Si  Si10  1  0.571040  0.331650  0.140325  1
  Si  Si11  1  0.331650  0.571040  0.859675  1
  O  O12  1  0.278514  0.351738  0.370987  1
  O  O13  1  0.351738  0.278514  0.629013  1
  O  O14  1  0.278514  0.351738  0.129013  1
  O  O15  1  0.351738  0.278514  0.870987  1
  O  O16  1  0.549857  0.082261  0.436642  1
  O  O17  1  0.082261  0.549857  0.563358  1
  O  O18  1  0.549857  0.082261  0.063358  1
  O  O19  1  0.082261  0.549857  0.936642  1
  O  O20  1  0.875833  0.651443  0.374015  1
  O  O21  1  0.651443  0.875833  0.625985  1
  O  O22  1  0.875833  0.651443  0.125985  1
  O  O23  1  0.651443  0.875833  0.874015  1
  O  O24  1  0.192180  0.562789  0.750000  1
  O  O25  1  0.562789  0.192180  0.250000  1
