# generated using pymatgen
data_K3SiN(OF2)3
_symmetry_space_group_name_H-M   'P 1'
_cell_length_a   5.72195471
_cell_length_b   5.72195471
_cell_length_c   14.89028600
_cell_angle_alpha   90.00000000
_cell_angle_beta   90.00000000
_cell_angle_gamma   120.00000000
_symmetry_Int_Tables_number   1
_chemical_formula_structural   K3SiN(OF2)3
_chemical_formula_sum   'K6 Si2 N2 O6 F12'
_cell_volume   422.20415456
_cell_formula_units_Z   2
loop_
 _symmetry_equiv_pos_site_id
 _symmetry_equiv_pos_as_xyz
  1  'x, y, z'
loop_
 _atom_site_type_symbol
 _atom_site_label
 _atom_site_symmetry_multiplicity
 _atom_site_fract_x
 _atom_site_fract_y
 _atom_site_fract_z
 _atom_site_occupancy
  K  K0  1  0.666667  0.333333  0.087975  1
  K  K1  1  0.333333  0.666667  0.587975  1
  K  K2  1  0.333333  0.666667  0.912025  1
  K  K3  1  0.666667  0.333333  0.412025  1
  K  K4  1  0.000000  0.000000  0.750000  1
  K  K5  1  0.000000  0.000000  0.250000  1
  Si  Si6  1  0.000000  0.000000  0.000000  1
  Si  Si7  1  0.000000  0.000000  0.500000  1
  N  N8  1  0.666667  0.333333  0.750000  1
  N  N9  1  0.333333  0.666667  0.250000  1
  O  O10  1  0.538522  0.077044  0.750000  1
  O  O11  1  0.538522  0.461478  0.750000  1
  O  O12  1  0.461478  0.538522  0.250000  1
  O  O13  1  0.077044  0.538522  0.250000  1
  O  O14  1  0.922956  0.461478  0.750000  1
  O  O15  1  0.461478  0.922956  0.250000  1
  F  F16  1  0.716714  0.858357  0.066613  1
  F  F17  1  0.283286  0.141643  0.566613  1
  F  F18  1  0.141643  0.858357  0.433387  1
  F  F19  1  0.141643  0.283286  0.066613  1
  F  F20  1  0.858357  0.716714  0.566613  1
  F  F21  1  0.858357  0.141643  0.566613  1
  F  F22  1  0.141643  0.858357  0.066613  1
  F  F23  1  0.858357  0.716714  0.933387  1
  F  F24  1  0.141643  0.283286  0.433387  1
  F  F25  1  0.858357  0.141643  0.933387  1
  F  F26  1  0.283286  0.141643  0.933387  1
  F  F27  1  0.716714  0.858357  0.433387  1
