# generated using pymatgen
data_Na2ZrSi4O11
_symmetry_space_group_name_H-M   'P 1'
_cell_length_a   7.58702924
_cell_length_b   7.58702924
_cell_length_c   8.69353753
_cell_angle_alpha   82.28980701
_cell_angle_beta   97.71019299
_cell_angle_gamma   95.04196403
_symmetry_Int_Tables_number   1
_chemical_formula_structural   Na2ZrSi4O11
_chemical_formula_sum   'Na4 Zr2 Si8 O22'
_cell_volume   490.17272825
_cell_formula_units_Z   2
loop_
 _symmetry_equiv_pos_site_id
 _symmetry_equiv_pos_as_xyz
  1  'x, y, z'
loop_
 _atom_site_type_symbol
 _atom_site_label
 _atom_site_symmetry_multiplicity
 _atom_site_fract_x
 _atom_site_fract_y
 _atom_site_fract_z
 _atom_site_occupancy
  Na  Na0  1  0.924375  0.924375  0.250000  1
  Na  Na1  1  0.075625  0.075625  0.750000  1
  Na  Na2  1  0.605819  0.605819  0.250000  1
  Na  Na3  1  0.394181  0.394181  0.750000  1
  Zr  Zr4  1  0.000000  0.500000  0.500000  1
  Zr  Zr5  1  0.500000  0.000000  0.000000  1
  Si  Si6  1  0.336494  0.807958  0.639273  1
  Si  Si7  1  0.663506  0.192042  0.360727  1
  Si  Si8  1  0.192042  0.663506  0.139273  1
  Si  Si9  1  0.166954  0.267391  0.073083  1
  Si  Si10  1  0.267391  0.166954  0.426917  1
  Si  Si11  1  0.833046  0.732609  0.926917  1
  Si  Si12  1  0.732609  0.833046  0.573083  1
  Si  Si13  1  0.807958  0.336494  0.860727  1
  O  O14  1  0.794183  0.372269  0.354669  1
  O  O15  1  0.372269  0.794183  0.145331  1
  O  O16  1  0.205817  0.627731  0.645331  1
  O  O17  1  0.627731  0.205817  0.854669  1
  O  O18  1  0.895924  0.372797  0.698912  1
  O  O19  1  0.372797  0.895924  0.801088  1
  O  O20  1  0.104076  0.627203  0.301088  1
  O  O21  1  0.627203  0.104076  0.198912  1
  O  O22  1  0.176357  0.286654  0.530913  1
  O  O23  1  0.286654  0.176357  0.969087  1
  O  O24  1  0.823643  0.713346  0.469087  1
  O  O25  1  0.713346  0.823643  0.030913  1
  O  O26  1  0.243934  0.473864  0.086151  1
  O  O27  1  0.473864  0.243934  0.413849  1
  O  O28  1  0.840704  0.840704  0.750000  1
  O  O29  1  0.159296  0.159296  0.250000  1
  O  O30  1  0.753601  0.041283  0.496299  1
  O  O31  1  0.041283  0.753601  0.003701  1
  O  O32  1  0.246399  0.958717  0.503701  1
  O  O33  1  0.958717  0.246399  0.996299  1
  O  O34  1  0.526136  0.756066  0.586151  1
  O  O35  1  0.756066  0.526136  0.913849  1
