# generated using pymatgen
data_NaSn2(PO4)3
_symmetry_space_group_name_H-M   'P 1'
_cell_length_a   9.08191040
_cell_length_b   9.08191040
_cell_length_c   9.08191040
_cell_angle_alpha   57.12453458
_cell_angle_beta   57.12453458
_cell_angle_gamma   57.12453458
_symmetry_Int_Tables_number   1
_chemical_formula_structural   NaSn2(PO4)3
_chemical_formula_sum   'Na2 Sn4 P6 O24'
_cell_volume   494.58659741
_cell_formula_units_Z   2
loop_
 _symmetry_equiv_pos_site_id
 _symmetry_equiv_pos_as_xyz
  1  'x, y, z'
loop_
 _atom_site_type_symbol
 _atom_site_label
 _atom_site_symmetry_multiplicity
 _atom_site_fract_x
 _atom_site_fract_y
 _atom_site_fract_z
 _atom_site_occupancy
  Na  Na0  1  0.000000  0.000000  0.000000  1
  Na  Na1  1  0.500000  0.500000  0.500000  1
  Sn  Sn2  1  0.147173  0.147173  0.147173  1
  Sn  Sn3  1  0.852827  0.852827  0.852827  1
  Sn  Sn4  1  0.354348  0.354348  0.354348  1
  Sn  Sn5  1  0.645652  0.645652  0.645652  1
  P  P6  1  0.541846  0.957078  0.250893  1
  P  P7  1  0.957078  0.250893  0.541846  1
  P  P8  1  0.458154  0.042922  0.749107  1
  P  P9  1  0.042922  0.749107  0.458154  1
  P  P10  1  0.250893  0.541846  0.957078  1
  P  P11  1  0.749107  0.458154  0.042922  1
  O  O12  1  0.762211  0.401577  0.594907  1
  O  O13  1  0.401577  0.594907  0.762211  1
  O  O14  1  0.594907  0.762211  0.401577  1
  O  O15  1  0.237789  0.598423  0.405093  1
  O  O16  1  0.598423  0.405093  0.237789  1
  O  O17  1  0.405093  0.237789  0.598423  1
  O  O18  1  0.938013  0.291177  0.035715  1
  O  O19  1  0.291177  0.035715  0.938013  1
  O  O20  1  0.035715  0.938013  0.291177  1
  O  O21  1  0.061987  0.708823  0.964285  1
  O  O22  1  0.708823  0.964285  0.061987  1
  O  O23  1  0.964285  0.061987  0.708823  1
  O  O24  1  0.022366  0.758453  0.633202  1
  O  O25  1  0.633202  0.022366  0.758453  1
  O  O26  1  0.758453  0.633202  0.022366  1
  O  O27  1  0.977634  0.241547  0.366798  1
  O  O28  1  0.366798  0.977634  0.241547  1
  O  O29  1  0.241547  0.366798  0.977634  1
  O  O30  1  0.510289  0.111264  0.300744  1
  O  O31  1  0.300744  0.510289  0.111264  1
  O  O32  1  0.111264  0.300744  0.510289  1
  O  O33  1  0.489711  0.888736  0.699256  1
  O  O34  1  0.699256  0.489711  0.888736  1
  O  O35  1  0.888736  0.699256  0.489711  1
