# generated using pymatgen
data_LiTiPO5
_symmetry_space_group_name_H-M   'P 1'
_cell_length_a   6.44231566
_cell_length_b   7.34000555
_cell_length_c   7.49596793
_cell_angle_alpha   90.00000000
_cell_angle_beta   90.00000000
_cell_angle_gamma   90.00000000
_symmetry_Int_Tables_number   1
_chemical_formula_structural   LiTiPO5
_chemical_formula_sum   'Li4 Ti4 P4 O20'
_cell_volume   354.45908223
_cell_formula_units_Z   4
loop_
 _symmetry_equiv_pos_site_id
 _symmetry_equiv_pos_as_xyz
  1  'x, y, z'
loop_
 _atom_site_type_symbol
 _atom_site_label
 _atom_site_symmetry_multiplicity
 _atom_site_fract_x
 _atom_site_fract_y
 _atom_site_fract_z
 _atom_site_occupancy
  Li  Li0  1  0.000000  0.000000  0.000000  1
  Li  Li1  1  0.500000  0.500000  0.500000  1
  Li  Li2  1  0.000000  0.500000  0.500000  1
  Li  Li3  1  0.500000  0.000000  0.000000  1
  Ti  Ti4  1  0.750000  0.280837  0.833194  1
  Ti  Ti5  1  0.250000  0.719163  0.166806  1
  Ti  Ti6  1  0.250000  0.780837  0.666806  1
  Ti  Ti7  1  0.750000  0.219163  0.333194  1
  P  P8  1  0.250000  0.374482  0.873793  1
  P  P9  1  0.750000  0.625518  0.126207  1
  P  P10  1  0.750000  0.874482  0.626207  1
  P  P11  1  0.250000  0.125518  0.373793  1
  O  O12  1  0.943387  0.749817  0.628552  1
  O  O13  1  0.556613  0.750183  0.128552  1
  O  O14  1  0.056613  0.249817  0.871448  1
  O  O15  1  0.443387  0.250183  0.371448  1
  O  O16  1  0.056613  0.250183  0.371448  1
  O  O17  1  0.556613  0.749817  0.628552  1
  O  O18  1  0.943387  0.750183  0.128552  1
  O  O19  1  0.443387  0.249817  0.871448  1
  O  O20  1  0.750000  0.152330  0.111920  1
  O  O21  1  0.250000  0.847670  0.888080  1
  O  O22  1  0.250000  0.652330  0.388080  1
  O  O23  1  0.750000  0.347670  0.611920  1
  O  O24  1  0.750000  0.001287  0.793061  1
  O  O25  1  0.250000  0.998713  0.206939  1
  O  O26  1  0.250000  0.501287  0.706939  1
  O  O27  1  0.750000  0.498713  0.293061  1
  O  O28  1  0.250000  0.487948  0.047492  1
  O  O29  1  0.750000  0.512052  0.952508  1
  O  O30  1  0.750000  0.987948  0.452508  1
  O  O31  1  0.250000  0.012052  0.547492  1
