# generated using pymatgen
data_Cs2NaAlF6
_symmetry_space_group_name_H-M   'P 1'
_cell_length_a   10.75842490
_cell_length_b   10.75842490
_cell_length_c   10.75842490
_cell_angle_alpha   33.92177565
_cell_angle_beta   33.92177565
_cell_angle_gamma   33.92177565
_symmetry_Int_Tables_number   1
_chemical_formula_structural   Cs2NaAlF6
_chemical_formula_sum   'Cs4 Na2 Al2 F12'
_cell_volume   345.63140530
_cell_formula_units_Z   2
loop_
 _symmetry_equiv_pos_site_id
 _symmetry_equiv_pos_as_xyz
  1  'x, y, z'
loop_
 _atom_site_type_symbol
 _atom_site_label
 _atom_site_symmetry_multiplicity
 _atom_site_fract_x
 _atom_site_fract_y
 _atom_site_fract_z
 _atom_site_occupancy
  Cs  Cs0  1  0.780532  0.780532  0.780532  1
  Cs  Cs1  1  0.219468  0.219468  0.219468  1
  Cs  Cs2  1  0.371860  0.371860  0.371860  1
  Cs  Cs3  1  0.628140  0.628140  0.628140  1
  Na  Na4  1  0.097897  0.097897  0.097897  1
  Na  Na5  1  0.902103  0.902103  0.902103  1
  Al  Al6  1  0.000000  0.000000  0.000000  1
  Al  Al7  1  0.500000  0.500000  0.500000  1
  F  F8  1  0.253796  0.675300  0.675300  1
  F  F9  1  0.324700  0.746204  0.324700  1
  F  F10  1  0.324700  0.324700  0.746204  1
  F  F11  1  0.675300  0.675300  0.253796  1
  F  F12  1  0.308868  0.899828  0.899828  1
  F  F13  1  0.899828  0.308868  0.899828  1
  F  F14  1  0.899828  0.899828  0.308868  1
  F  F15  1  0.675300  0.253796  0.675300  1
  F  F16  1  0.691132  0.100172  0.100172  1
  F  F17  1  0.100172  0.691132  0.100172  1
  F  F18  1  0.100172  0.100172  0.691132  1
  F  F19  1  0.746204  0.324700  0.324700  1
