# generated using pymatgen
data_Rb3Ti3(PO4)5
_symmetry_space_group_name_H-M   'P 1'
_cell_length_a   6.37670058
_cell_length_b   15.03829461
_cell_length_c   18.62352140
_cell_angle_alpha   90.00000000
_cell_angle_beta   90.00000000
_cell_angle_gamma   90.00000000
_symmetry_Int_Tables_number   1
_chemical_formula_structural   Rb3Ti3(PO4)5
_chemical_formula_sum   'Rb12 Ti12 P20 O80'
_cell_volume   1785.89703413
_cell_formula_units_Z   4
loop_
 _symmetry_equiv_pos_site_id
 _symmetry_equiv_pos_as_xyz
  1  'x, y, z'
loop_
 _atom_site_type_symbol
 _atom_site_label
 _atom_site_symmetry_multiplicity
 _atom_site_fract_x
 _atom_site_fract_y
 _atom_site_fract_z
 _atom_site_occupancy
  Rb  Rb0  1  0.365775  0.223924  0.350929  1
  Rb  Rb1  1  0.634225  0.723924  0.649071  1
  Rb  Rb2  1  0.634225  0.223924  0.850929  1
  Rb  Rb3  1  0.365775  0.723924  0.149071  1
  Rb  Rb4  1  0.342885  0.445275  0.175639  1
  Rb  Rb5  1  0.657115  0.945275  0.824361  1
  Rb  Rb6  1  0.657115  0.445275  0.675639  1
  Rb  Rb7  1  0.342885  0.945275  0.324361  1
  Rb  Rb8  1  0.367055  0.169097  0.152590  1
  Rb  Rb9  1  0.632945  0.669097  0.847410  1
  Rb  Rb10  1  0.632945  0.169097  0.652590  1
  Rb  Rb11  1  0.367055  0.669097  0.347410  1
  Ti  Ti12  1  0.755102  0.332621  0.050803  1
  Ti  Ti13  1  0.244898  0.832621  0.949197  1
  Ti  Ti14  1  0.244898  0.332621  0.550803  1
  Ti  Ti15  1  0.755102  0.832621  0.449197  1
  Ti  Ti16  1  0.748398  0.943240  0.146758  1
  Ti  Ti17  1  0.251602  0.443240  0.853242  1
  Ti  Ti18  1  0.251602  0.943240  0.646758  1
  Ti  Ti19  1  0.748398  0.443240  0.353242  1
  Ti  Ti20  1  0.244899  0.069617  0.954792  1
  Ti  Ti21  1  0.755101  0.569617  0.045208  1
  Ti  Ti22  1  0.755101  0.069617  0.454792  1
  Ti  Ti23  1  0.244899  0.569617  0.545208  1
  P  P24  1  0.857463  0.096237  0.276883  1
  P  P25  1  0.142537  0.596237  0.723117  1
  P  P26  1  0.142537  0.096237  0.776883  1
  P  P27  1  0.857463  0.596237  0.223117  1
  P  P28  1  0.253915  0.301770  0.000750  1
  P  P29  1  0.746085  0.801770  0.999250  1
  P  P30  1  0.746085  0.301770  0.500750  1
  P  P31  1  0.253915  0.801770  0.499250  1
  P  P32  1  0.246773  0.946084  0.101247  1
  P  P33  1  0.753227  0.446084  0.898753  1
  P  P34  1  0.753227  0.946084  0.601247  1
  P  P35  1  0.246773  0.446084  0.398753  1
  P  P36  1  0.745900  0.099404  0.009184  1
  P  P37  1  0.254100  0.599404  0.990816  1
  P  P38  1  0.254100  0.099404  0.509184  1
  P  P39  1  0.745900  0.599404  0.490816  1
  P  P40  1  0.855853  0.287625  0.226518  1
  P  P41  1  0.144147  0.787625  0.773482  1
  P  P42  1  0.144147  0.287625  0.726518  1
  P  P43  1  0.855853  0.787625  0.273482  1
  O  O44  1  0.740079  0.859160  0.068329  1
  O  O45  1  0.259921  0.359160  0.931671  1
  O  O46  1  0.259921  0.859160  0.568329  1
  O  O47  1  0.740079  0.359160  0.431671  1
  O  O48  1  0.442695  0.326153  0.049607  1
  O  O49  1  0.557305  0.826153  0.950393  1
  O  O50  1  0.557305  0.326153  0.549607  1
  O  O51  1  0.442695  0.826153  0.450393  1
  O  O52  1  0.941975  0.076534  0.963589  1
  O  O53  1  0.058025  0.576534  0.036411  1
  O  O54  1  0.058025  0.076534  0.463589  1
  O  O55  1  0.941975  0.576534  0.536411  1
  O  O56  1  0.741538  0.198531  0.028321  1
  O  O57  1  0.258462  0.698531  0.971679  1
  O  O58  1  0.258462  0.198531  0.528321  1
  O  O59  1  0.741538  0.698531  0.471679  1
  O  O60  1  0.741747  0.839696  0.213506  1
  O  O61  1  0.258253  0.339696  0.786494  1
  O  O62  1  0.258253  0.839696  0.713506  1
  O  O63  1  0.741747  0.339696  0.286494  1
  O  O64  1  0.744980  0.023155  0.232833  1
  O  O65  1  0.255020  0.523155  0.767167  1
  O  O66  1  0.255020  0.023155  0.732833  1
  O  O67  1  0.744980  0.523155  0.267167  1
  O  O68  1  0.771734  0.185785  0.236972  1
  O  O69  1  0.228266  0.685785  0.763028  1
  O  O70  1  0.228266  0.185785  0.736972  1
  O  O71  1  0.771734  0.685785  0.263028  1
  O  O72  1  0.751500  0.452351  0.069472  1
  O  O73  1  0.248500  0.952351  0.930528  1
  O  O74  1  0.258468  0.202923  0.981627  1
  O  O75  1  0.248500  0.452351  0.569472  1
  O  O76  1  0.248674  0.102960  0.851565  1
  O  O77  1  0.751326  0.602960  0.148435  1
  O  O78  1  0.751326  0.102960  0.351565  1
  O  O79  1  0.248674  0.602960  0.648435  1
  O  O80  1  0.746675  0.309737  0.154684  1
  O  O81  1  0.253325  0.809737  0.845316  1
  O  O82  1  0.253325  0.309737  0.654684  1
  O  O83  1  0.746675  0.809737  0.345316  1
  O  O84  1  0.092537  0.093596  0.277576  1
  O  O85  1  0.907463  0.593596  0.722424  1
  O  O86  1  0.907463  0.093596  0.777576  1
  O  O87  1  0.092537  0.593596  0.222424  1
  O  O88  1  0.090638  0.792076  0.272930  1
  O  O89  1  0.909362  0.292076  0.727070  1
  O  O90  1  0.909362  0.792076  0.772930  1
  O  O91  1  0.090638  0.292076  0.227070  1
  O  O92  1  0.557664  0.575324  0.540326  1
  O  O93  1  0.442336  0.075324  0.459674  1
  O  O94  1  0.442336  0.575324  0.040326  1
  O  O95  1  0.557664  0.075324  0.959674  1
  O  O96  1  0.738777  0.543917  0.420311  1
  O  O97  1  0.261223  0.043917  0.579689  1
  O  O98  1  0.261223  0.543917  0.920311  1
  O  O99  1  0.738777  0.043917  0.079689  1
  O  O100  1  0.048054  0.444466  0.351000  1
  O  O101  1  0.951946  0.944466  0.649000  1
  O  O102  1  0.951946  0.444466  0.851000  1
  O  O103  1  0.048054  0.944466  0.149000  1
  O  O104  1  0.435689  0.443829  0.346479  1
  O  O105  1  0.564311  0.943829  0.653521  1
  O  O106  1  0.564311  0.443829  0.846479  1
  O  O107  1  0.435689  0.943829  0.153521  1
  O  O108  1  0.750198  0.862024  0.553669  1
  O  O109  1  0.249802  0.362024  0.446331  1
  O  O110  1  0.249802  0.862024  0.053669  1
  O  O111  1  0.750198  0.362024  0.946331  1
  O  O112  1  0.250626  0.533395  0.441944  1
  O  O113  1  0.749374  0.033395  0.558056  1
  O  O114  1  0.749374  0.533395  0.941944  1
  O  O115  1  0.250626  0.033395  0.058056  1
  O  O116  1  0.058063  0.824813  0.453666  1
  O  O117  1  0.941937  0.324813  0.546334  1
  O  O118  1  0.941937  0.824813  0.953666  1
  O  O119  1  0.058063  0.324813  0.046334  1
  O  O120  1  0.258468  0.702923  0.518373  1
  O  O121  1  0.741532  0.202923  0.481627  1
  O  O122  1  0.741532  0.702923  0.018373  1
  O  O123  1  0.751500  0.952351  0.430528  1
