# generated using pymatgen
data_K2LiAlP2
_symmetry_space_group_name_H-M   'P 1'
_cell_length_a   8.62913856
_cell_length_b   8.62913856
_cell_length_c   8.62913856
_cell_angle_alpha   138.43076397
_cell_angle_beta   138.15821921
_cell_angle_gamma   60.45254735
_symmetry_Int_Tables_number   1
_chemical_formula_structural   K2LiAlP2
_chemical_formula_sum   'K4 Li2 Al2 P4'
_cell_volume   281.39355306
_cell_formula_units_Z   2
loop_
 _symmetry_equiv_pos_site_id
 _symmetry_equiv_pos_as_xyz
  1  'x, y, z'
loop_
 _atom_site_type_symbol
 _atom_site_label
 _atom_site_symmetry_multiplicity
 _atom_site_fract_x
 _atom_site_fract_y
 _atom_site_fract_z
 _atom_site_occupancy
  K  K0  1  0.099543  0.826847  0.272696  1
  K  K1  1  0.900457  0.173153  0.727304  1
  K  K2  1  0.445849  0.673153  0.772696  1
  K  K3  1  0.554151  0.326847  0.227304  1
  Li  Li4  1  0.500000  0.250000  0.750000  1
  Li  Li5  1  0.500000  0.750000  0.250000  1
  Al  Al6  1  0.000000  0.250000  0.250000  1
  Al  Al7  1  0.000000  0.750000  0.750000  1
  P  P8  1  0.690583  0.911636  0.778946  1
  P  P9  1  0.132690  0.411636  0.721054  1
  P  P10  1  0.867310  0.588364  0.278946  1
  P  P11  1  0.309417  0.088364  0.221054  1
