# generated using pymatgen
data_Ba4LiMo2N7
_symmetry_space_group_name_H-M   'P 1'
_cell_length_a   10.46506774
_cell_length_b   6.55527708
_cell_length_c   17.46720531
_cell_angle_alpha   90.00000000
_cell_angle_beta   117.29719425
_cell_angle_gamma   90.00000000
_symmetry_Int_Tables_number   1
_chemical_formula_structural   Ba4LiMo2N7
_chemical_formula_sum   'Ba16 Li4 Mo8 N28'
_cell_volume   1064.83478362
_cell_formula_units_Z   4
loop_
 _symmetry_equiv_pos_site_id
 _symmetry_equiv_pos_as_xyz
  1  'x, y, z'
loop_
 _atom_site_type_symbol
 _atom_site_label
 _atom_site_symmetry_multiplicity
 _atom_site_fract_x
 _atom_site_fract_y
 _atom_site_fract_z
 _atom_site_occupancy
  Ba  Ba0  1  0.301868  0.855439  0.378900  1
  Ba  Ba1  1  0.698132  0.855439  0.121100  1
  Ba  Ba2  1  0.698132  0.144561  0.621100  1
  Ba  Ba3  1  0.301868  0.144561  0.878900  1
  Ba  Ba4  1  0.261377  0.281045  0.515595  1
  Ba  Ba5  1  0.738623  0.281045  0.984405  1
  Ba  Ba6  1  0.738623  0.718955  0.484405  1
  Ba  Ba7  1  0.261377  0.718955  0.015595  1
  Ba  Ba8  1  0.151427  0.772451  0.572208  1
  Ba  Ba9  1  0.848573  0.772451  0.927792  1
  Ba  Ba10  1  0.848573  0.227549  0.427792  1
  Ba  Ba11  1  0.151427  0.227549  0.072208  1
  Ba  Ba12  1  0.500000  0.978165  0.750000  1
  Ba  Ba13  1  0.500000  0.021835  0.250000  1
  Ba  Ba14  1  0.000000  0.681734  0.750000  1
  Ba  Ba15  1  0.000000  0.318266  0.250000  1
  Li  Li16  1  0.365804  0.539938  0.240072  1
  Li  Li17  1  0.365804  0.460062  0.740072  1
  Li  Li18  1  0.634196  0.460062  0.759928  1
  Li  Li19  1  0.634196  0.539938  0.259928  1
  Mo  Mo20  1  0.950817  0.774901  0.345146  1
  Mo  Mo21  1  0.049183  0.774901  0.154854  1
  Mo  Mo22  1  0.049183  0.225099  0.654854  1
  Mo  Mo23  1  0.950817  0.225099  0.845146  1
  Mo  Mo24  1  0.517780  0.671262  0.597113  1
  Mo  Mo25  1  0.482220  0.671262  0.902887  1
  Mo  Mo26  1  0.482220  0.328738  0.402887  1
  Mo  Mo27  1  0.517780  0.328738  0.097113  1
  N  N28  1  0.753484  0.182618  0.804830  1
  N  N29  1  0.246516  0.182618  0.695170  1
  N  N30  1  0.246516  0.817382  0.195170  1
  N  N31  1  0.753484  0.817382  0.304830  1
  N  N32  1  0.430422  0.532230  0.652591  1
  N  N33  1  0.569578  0.532230  0.847409  1
  N  N34  1  0.569578  0.467770  0.347409  1
  N  N35  1  0.430422  0.467770  0.152591  1
  N  N36  1  0.016015  0.464399  0.908183  1
  N  N37  1  0.983985  0.464399  0.591817  1
  N  N38  1  0.983985  0.535601  0.091817  1
  N  N39  1  0.016015  0.535601  0.408183  1
  N  N40  1  0.292025  0.722136  0.827578  1
  N  N41  1  0.292025  0.277864  0.327578  1
  N  N42  1  0.707975  0.277864  0.172422  1
  N  N43  1  0.707975  0.722136  0.672422  1
  N  N44  1  0.575435  0.923097  0.935083  1
  N  N45  1  0.424565  0.923097  0.564917  1
  N  N46  1  0.424565  0.076903  0.064917  1
  N  N47  1  0.575435  0.076903  0.435083  1
  N  N48  1  0.055520  0.988401  0.416460  1
  N  N49  1  0.944480  0.988401  0.083540  1
  N  N50  1  0.944480  0.011599  0.583540  1
  N  N51  1  0.055520  0.011599  0.916460  1
  N  N52  1  0.500000  0.500000  0.000000  1
  N  N53  1  0.500000  0.500000  0.500000  1
  N  N54  1  0.000000  0.758105  0.250000  1
  N  N55  1  0.000000  0.241895  0.750000  1
