# generated using pymatgen
data_LiCdBO3
_symmetry_space_group_name_H-M   'P 1'
_cell_length_a   8.43390639
_cell_length_b   8.43390639
_cell_length_c   3.31594672
_cell_angle_alpha   90.00000000
_cell_angle_beta   90.00000000
_cell_angle_gamma   120.00000000
_symmetry_Int_Tables_number   1
_chemical_formula_structural   LiCdBO3
_chemical_formula_sum   'Li3 Cd3 B3 O9'
_cell_volume   204.26583252
_cell_formula_units_Z   3
loop_
 _symmetry_equiv_pos_site_id
 _symmetry_equiv_pos_as_xyz
  1  'x, y, z'
loop_
 _atom_site_type_symbol
 _atom_site_label
 _atom_site_symmetry_multiplicity
 _atom_site_fract_x
 _atom_site_fract_y
 _atom_site_fract_z
 _atom_site_occupancy
  Li  Li0  1  0.957642  0.341402  0.500000  1
  Li  Li1  1  0.383761  0.042358  0.500000  1
  Li  Li2  1  0.658598  0.616239  0.500000  1
  Cd  Cd3  1  0.297266  0.328425  0.000000  1
  Cd  Cd4  1  0.671575  0.968841  0.000000  1
  Cd  Cd5  1  0.031159  0.702734  0.000000  1
  B  B6  1  0.666667  0.333333  0.000000  1
  B  B7  1  0.333333  0.666667  0.500000  1
  B  B8  1  0.000000  0.000000  0.500000  1
  O  O9  1  0.854410  0.396524  0.000000  1
  O  O10  1  0.603476  0.457886  0.000000  1
  O  O11  1  0.542114  0.145590  0.000000  1
  O  O12  1  0.916261  0.809700  0.500000  1
  O  O13  1  0.893439  0.083739  0.500000  1
  O  O14  1  0.190300  0.106561  0.500000  1
  O  O15  1  0.248681  0.771994  0.500000  1
  O  O16  1  0.523313  0.751319  0.500000  1
  O  O17  1  0.228006  0.476687  0.500000  1
