# generated using pymatgen
data_Er2O3
_symmetry_space_group_name_H-M   'P 1'
_cell_length_a   9.13698855
_cell_length_b   9.13698855
_cell_length_c   9.13698855
_cell_angle_alpha   109.47122063
_cell_angle_beta   109.47122063
_cell_angle_gamma   109.47122063
_symmetry_Int_Tables_number   1
_chemical_formula_structural   Er2O3
_chemical_formula_sum   'Er16 O24'
_cell_volume   587.20176368
_cell_formula_units_Z   8
loop_
 _symmetry_equiv_pos_site_id
 _symmetry_equiv_pos_as_xyz
  1  'x, y, z'
loop_
 _atom_site_type_symbol
 _atom_site_label
 _atom_site_symmetry_multiplicity
 _atom_site_fract_x
 _atom_site_fract_y
 _atom_site_fract_z
 _atom_site_occupancy
  Er  Er0  1  0.250000  0.032945  0.782945  1
  Er  Er1  1  0.717055  0.750000  0.467055  1
  Er  Er2  1  0.467055  0.717055  0.750000  1
  Er  Er3  1  0.782945  0.250000  0.032945  1
  Er  Er4  1  0.032945  0.782945  0.250000  1
  Er  Er5  1  0.750000  0.467055  0.717055  1
  Er  Er6  1  0.750000  0.967055  0.217055  1
  Er  Er7  1  0.282945  0.250000  0.532945  1
  Er  Er8  1  0.532945  0.282945  0.250000  1
  Er  Er9  1  0.217055  0.750000  0.967055  1
  Er  Er10  1  0.967055  0.217055  0.750000  1
  Er  Er11  1  0.250000  0.532945  0.282945  1
  Er  Er12  1  0.500000  0.500000  0.000000  1
  Er  Er13  1  0.500000  1.000000  0.500000  1
  Er  Er14  1  1.000000  0.500000  0.500000  1
  Er  Er15  1  0.000000  0.000000  0.000000  1
  O  O16  1  0.011341  0.468371  0.739293  1
  O  O17  1  0.229078  0.272049  0.760707  1
  O  O18  1  0.270922  0.031629  0.042971  1
  O  O19  1  0.227951  0.457029  0.488659  1
  O  O20  1  0.457029  0.488659  0.227951  1
  O  O21  1  0.739293  0.011341  0.468371  1
  O  O22  1  0.272049  0.760707  0.229078  1
  O  O23  1  0.042971  0.270922  0.031629  1
  O  O24  1  0.468371  0.739293  0.011341  1
  O  O25  1  0.760707  0.229078  0.272049  1
  O  O26  1  0.031629  0.042971  0.270922  1
  O  O27  1  0.488659  0.227951  0.457029  1
  O  O28  1  0.988659  0.531629  0.260707  1
  O  O29  1  0.770922  0.727951  0.239293  1
  O  O30  1  0.729078  0.968371  0.957029  1
  O  O31  1  0.772049  0.542971  0.511341  1
  O  O32  1  0.511341  0.772049  0.542971  1
  O  O33  1  0.968371  0.957029  0.729078  1
  O  O34  1  0.239293  0.770922  0.727951  1
  O  O35  1  0.531629  0.260707  0.988659  1
  O  O36  1  0.957029  0.729078  0.968371  1
  O  O37  1  0.727951  0.239293  0.770922  1
  O  O38  1  0.260707  0.988659  0.531629  1
  O  O39  1  0.542971  0.511341  0.772049  1
