# generated using pymatgen
data_BaBe2Si2O7
_symmetry_space_group_name_H-M   'P 1'
_cell_length_a   4.73654132
_cell_length_b   9.91903586
_cell_length_c   11.85051759
_cell_angle_alpha   90.00000000
_cell_angle_beta   90.00000000
_cell_angle_gamma   90.00000000
_symmetry_Int_Tables_number   1
_chemical_formula_structural   BaBe2Si2O7
_chemical_formula_sum   'Ba4 Be8 Si8 O28'
_cell_volume   556.76010736
_cell_formula_units_Z   4
loop_
 _symmetry_equiv_pos_site_id
 _symmetry_equiv_pos_as_xyz
  1  'x, y, z'
loop_
 _atom_site_type_symbol
 _atom_site_label
 _atom_site_symmetry_multiplicity
 _atom_site_fract_x
 _atom_site_fract_y
 _atom_site_fract_z
 _atom_site_occupancy
  Ba  Ba0  1  0.749132  0.151088  0.750000  1
  Ba  Ba1  1  0.250868  0.848912  0.250000  1
  Ba  Ba2  1  0.750868  0.651088  0.750000  1
  Ba  Ba3  1  0.249132  0.348912  0.250000  1
  Be  Be4  1  0.207065  0.663102  0.500277  1
  Be  Be5  1  0.707065  0.836898  0.000277  1
  Be  Be6  1  0.792935  0.336898  0.000277  1
  Be  Be7  1  0.707065  0.836898  0.499723  1
  Be  Be8  1  0.292935  0.163102  0.999723  1
  Be  Be9  1  0.207065  0.663102  0.999723  1
  Be  Be10  1  0.792935  0.336898  0.499723  1
  Be  Be11  1  0.292935  0.163102  0.500277  1
  Si  Si12  1  0.704385  0.589113  0.121621  1
  Si  Si13  1  0.295615  0.410887  0.878379  1
  Si  Si14  1  0.204385  0.910887  0.621621  1
  Si  Si15  1  0.795615  0.089113  0.378379  1
  Si  Si16  1  0.295615  0.410887  0.621621  1
  Si  Si17  1  0.204385  0.910887  0.878379  1
  Si  Si18  1  0.795615  0.089113  0.121621  1
  Si  Si19  1  0.704385  0.589113  0.378379  1
  O  O20  1  0.634298  0.189288  0.468498  1
  O  O21  1  0.284757  0.069555  0.612600  1
  O  O22  1  0.365702  0.810712  0.968498  1
  O  O23  1  0.865702  0.689288  0.468498  1
  O  O24  1  0.634298  0.189288  0.031502  1
  O  O25  1  0.215243  0.569555  0.612600  1
  O  O26  1  0.135671  0.111010  0.112315  1
  O  O27  1  0.715243  0.930445  0.387400  1
  O  O28  1  0.699497  0.143241  0.250000  1
  O  O29  1  0.284757  0.069555  0.887400  1
  O  O30  1  0.784757  0.430445  0.112600  1
  O  O31  1  0.364329  0.611010  0.387685  1
  O  O32  1  0.300503  0.856759  0.750000  1
  O  O33  1  0.134298  0.310712  0.968498  1
  O  O34  1  0.635671  0.388990  0.612315  1
  O  O35  1  0.784757  0.430445  0.387400  1
  O  O36  1  0.135671  0.111010  0.387685  1
  O  O37  1  0.215243  0.569555  0.887400  1
  O  O38  1  0.800503  0.643241  0.250000  1
  O  O39  1  0.715243  0.930445  0.112600  1
  O  O40  1  0.364329  0.611010  0.112315  1
  O  O41  1  0.865702  0.689288  0.031502  1
  O  O42  1  0.199497  0.356759  0.750000  1
  O  O43  1  0.864329  0.888990  0.612315  1
  O  O44  1  0.635671  0.388990  0.887685  1
  O  O45  1  0.365702  0.810712  0.531502  1
  O  O46  1  0.864329  0.888990  0.887685  1
  O  O47  1  0.134298  0.310712  0.531502  1
