# generated using pymatgen
data_SmF3
_symmetry_space_group_name_H-M   'P 1'
_cell_length_a   4.46025394
_cell_length_b   6.67913812
_cell_length_c   7.10106357
_cell_angle_alpha   90.00000000
_cell_angle_beta   90.00000000
_cell_angle_gamma   90.00000000
_symmetry_Int_Tables_number   1
_chemical_formula_structural   SmF3
_chemical_formula_sum   'Sm4 F12'
_cell_volume   211.54531446
_cell_formula_units_Z   4
loop_
 _symmetry_equiv_pos_site_id
 _symmetry_equiv_pos_as_xyz
  1  'x, y, z'
loop_
 _atom_site_type_symbol
 _atom_site_label
 _atom_site_symmetry_multiplicity
 _atom_site_fract_x
 _atom_site_fract_y
 _atom_site_fract_z
 _atom_site_occupancy
  Sm  Sm0  1  0.935173  0.631806  0.750000  1
  Sm  Sm1  1  0.435173  0.868194  0.250000  1
  Sm  Sm2  1  0.564827  0.131806  0.750000  1
  Sm  Sm3  1  0.064827  0.368194  0.250000  1
  F  F4  1  0.079135  0.980403  0.750000  1
  F  F5  1  0.579135  0.519597  0.250000  1
  F  F6  1  0.420865  0.480403  0.750000  1
  F  F7  1  0.920865  0.019597  0.250000  1
  F  F8  1  0.386765  0.164106  0.064149  1
  F  F9  1  0.886765  0.335894  0.935851  1
  F  F10  1  0.113235  0.664106  0.435851  1
  F  F11  1  0.613235  0.835894  0.564149  1
  F  F12  1  0.613235  0.835894  0.935851  1
  F  F13  1  0.113235  0.664106  0.064149  1
  F  F14  1  0.886765  0.335894  0.564149  1
  F  F15  1  0.386765  0.164106  0.435851  1
