# generated using pymatgen
data_Al2ZnSe4
_symmetry_space_group_name_H-M   'P 1'
_cell_length_a   6.78762458
_cell_length_b   6.78762458
_cell_length_c   6.78762458
_cell_angle_alpha   130.97789612
_cell_angle_beta   130.97789612
_cell_angle_gamma   71.84819982
_symmetry_Int_Tables_number   1
_chemical_formula_structural   Al2ZnSe4
_chemical_formula_sum   'Al2 Zn1 Se4'
_cell_volume   174.34518187
_cell_formula_units_Z   1
loop_
 _symmetry_equiv_pos_site_id
 _symmetry_equiv_pos_as_xyz
  1  'x, y, z'
loop_
 _atom_site_type_symbol
 _atom_site_label
 _atom_site_symmetry_multiplicity
 _atom_site_fract_x
 _atom_site_fract_y
 _atom_site_fract_z
 _atom_site_occupancy
  Al  Al0  1  0.250000  0.750000  0.500000  1
  Al  Al1  1  0.500000  0.500000  0.000000  1
  Zn  Zn2  1  0.000000  0.000000  0.000000  1
  Se  Se3  1  0.394825  0.883421  0.014147  1
  Se  Se4  1  0.116579  0.130726  0.511404  1
  Se  Se5  1  0.619322  0.605175  0.488596  1
  Se  Se6  1  0.869274  0.380678  0.985853  1
