# generated using pymatgen
data_KCuO
_symmetry_space_group_name_H-M   'P 1'
_cell_length_a   7.18001885
_cell_length_b   7.18001885
_cell_length_c   7.18001885
_cell_angle_alpha   98.59896251
_cell_angle_beta   98.59896251
_cell_angle_gamma   134.50448720
_symmetry_Int_Tables_number   1
_chemical_formula_structural   KCuO
_chemical_formula_sum   'K4 Cu4 O4'
_cell_volume   243.45465709
_cell_formula_units_Z   4
loop_
 _symmetry_equiv_pos_site_id
 _symmetry_equiv_pos_as_xyz
  1  'x, y, z'
loop_
 _atom_site_type_symbol
 _atom_site_label
 _atom_site_symmetry_multiplicity
 _atom_site_fract_x
 _atom_site_fract_y
 _atom_site_fract_z
 _atom_site_occupancy
  K  K0  1  0.309838  0.000000  0.309838  1
  K  K1  1  0.690162  0.000000  0.690162  1
  K  K2  1  0.000000  0.690162  0.690162  1
  K  K3  1  0.000000  0.309838  0.309838  1
  Cu  Cu4  1  0.361074  0.638926  1.000000  1
  Cu  Cu5  1  0.361074  0.361074  0.722147  1
  Cu  Cu6  1  0.638926  0.361074  0.000000  1
  Cu  Cu7  1  0.638926  0.638926  0.277853  1
  O  O8  1  0.500000  0.221516  0.721516  1
  O  O9  1  0.778484  0.500000  0.278484  1
  O  O10  1  0.221516  0.500000  0.721516  1
  O  O11  1  0.500000  0.778484  0.278484  1
