# generated using pymatgen
data_BaSiO3
_symmetry_space_group_name_H-M   'P 1'
_cell_length_a   4.63802156
_cell_length_b   5.69167359
_cell_length_c   12.70790930
_cell_angle_alpha   90.00000000
_cell_angle_beta   90.00000000
_cell_angle_gamma   90.00000000
_symmetry_Int_Tables_number   1
_chemical_formula_structural   BaSiO3
_chemical_formula_sum   'Ba4 Si4 O12'
_cell_volume   335.46472178
_cell_formula_units_Z   4
loop_
 _symmetry_equiv_pos_site_id
 _symmetry_equiv_pos_as_xyz
  1  'x, y, z'
loop_
 _atom_site_type_symbol
 _atom_site_label
 _atom_site_symmetry_multiplicity
 _atom_site_fract_x
 _atom_site_fract_y
 _atom_site_fract_z
 _atom_site_occupancy
  Ba  Ba0  1  0.729410  0.815600  0.857908  1
  Ba  Ba1  1  0.229410  0.684400  0.142092  1
  Ba  Ba2  1  0.270590  0.315600  0.642092  1
  Ba  Ba3  1  0.770590  0.184400  0.357908  1
  Si  Si4  1  0.181079  0.303472  0.927031  1
  Si  Si5  1  0.681079  0.196528  0.072969  1
  Si  Si6  1  0.818921  0.803472  0.572969  1
  Si  Si7  1  0.318921  0.696528  0.427031  1
  O  O8  1  0.240224  0.580173  0.906356  1
  O  O9  1  0.740224  0.919827  0.093644  1
  O  O10  1  0.759776  0.080173  0.593644  1
  O  O11  1  0.259776  0.419827  0.406356  1
  O  O12  1  0.249512  0.121641  0.832520  1
  O  O13  1  0.749512  0.378359  0.167480  1
  O  O14  1  0.750488  0.621641  0.667480  1
  O  O15  1  0.250488  0.878359  0.332520  1
  O  O16  1  0.670841  0.723176  0.457442  1
  O  O17  1  0.170841  0.776824  0.542558  1
  O  O18  1  0.329159  0.223176  0.042558  1
  O  O19  1  0.829159  0.276824  0.957442  1
