# generated using pymatgen
data_PPdS
_symmetry_space_group_name_H-M   'P 1'
_cell_length_a   5.70915043
_cell_length_b   5.73819714
_cell_length_c   14.87993073
_cell_angle_alpha   90.00000000
_cell_angle_beta   90.00000000
_cell_angle_gamma   90.00000000
_symmetry_Int_Tables_number   1
_chemical_formula_structural   PPdS
_chemical_formula_sum   'P8 Pd8 S8'
_cell_volume   487.46996306
_cell_formula_units_Z   8
loop_
 _symmetry_equiv_pos_site_id
 _symmetry_equiv_pos_as_xyz
  1  'x, y, z'
loop_
 _atom_site_type_symbol
 _atom_site_label
 _atom_site_symmetry_multiplicity
 _atom_site_fract_x
 _atom_site_fract_y
 _atom_site_fract_z
 _atom_site_occupancy
  P  P0  1  0.868690  0.719477  0.574257  1
  P  P1  1  0.868690  0.780523  0.425743  1
  P  P2  1  0.631310  0.280523  0.074257  1
  P  P3  1  0.368689  0.719477  0.925743  1
  P  P4  1  0.368689  0.780523  0.074257  1
  P  P5  1  0.131310  0.219477  0.574257  1
  P  P6  1  0.131310  0.280523  0.425743  1
  P  P7  1  0.631310  0.219477  0.925743  1
  Pd  Pd8  1  0.750747  0.159717  0.398087  1
  Pd  Pd9  1  0.750747  0.340283  0.601913  1
  Pd  Pd10  1  0.749253  0.659717  0.101913  1
  Pd  Pd11  1  0.749253  0.840283  0.898087  1
  Pd  Pd12  1  0.249253  0.840283  0.601913  1
  Pd  Pd13  1  0.249253  0.659717  0.398087  1
  Pd  Pd14  1  0.250747  0.340283  0.898087  1
  Pd  Pd15  1  0.250747  0.159717  0.101913  1
  S  S16  1  0.362452  0.453793  0.640468  1
  S  S17  1  0.137548  0.546207  0.140468  1
  S  S18  1  0.137548  0.953793  0.859532  1
  S  S19  1  0.637548  0.953793  0.640468  1
  S  S20  1  0.862452  0.046207  0.140468  1
  S  S21  1  0.862452  0.453793  0.859532  1
  S  S22  1  0.362452  0.046207  0.359532  1
  S  S23  1  0.637548  0.546207  0.359532  1
