# generated using pymatgen
data_DyTaO4
_symmetry_space_group_name_H-M   'P 1'
_cell_length_a   5.15441023
_cell_length_b   5.51878802
_cell_length_c   5.34478806
_cell_angle_alpha   90.00000000
_cell_angle_beta   96.57975790
_cell_angle_gamma   90.00000000
_symmetry_Int_Tables_number   1
_chemical_formula_structural   DyTaO4
_chemical_formula_sum   'Dy2 Ta2 O8'
_cell_volume   151.03693251
_cell_formula_units_Z   2
loop_
 _symmetry_equiv_pos_site_id
 _symmetry_equiv_pos_as_xyz
  1  'x, y, z'
loop_
 _atom_site_type_symbol
 _atom_site_label
 _atom_site_symmetry_multiplicity
 _atom_site_fract_x
 _atom_site_fract_y
 _atom_site_fract_z
 _atom_site_occupancy
  Dy  Dy0  1  0.000000  0.767089  0.250000  1
  Dy  Dy1  1  0.000000  0.232911  0.750000  1
  Ta  Ta2  1  0.500000  0.693009  0.750000  1
  Ta  Ta3  1  0.500000  0.306991  0.250000  1
  O  O4  1  0.268677  0.564517  0.995163  1
  O  O5  1  0.731323  0.564517  0.504837  1
  O  O6  1  0.731323  0.435483  0.004837  1
  O  O7  1  0.268677  0.435483  0.495163  1
  O  O8  1  0.750430  0.085702  0.399296  1
  O  O9  1  0.249570  0.085702  0.100704  1
  O  O10  1  0.249570  0.914298  0.600704  1
  O  O11  1  0.750430  0.914298  0.899296  1
