# generated using pymatgen
data_K2Cd2O3
_symmetry_space_group_name_H-M   'P 1'
_cell_length_a   6.57101782
_cell_length_b   6.72235629
_cell_length_c   6.89927085
_cell_angle_alpha   90.00000000
_cell_angle_beta   118.18062903
_cell_angle_gamma   90.00000000
_symmetry_Int_Tables_number   1
_chemical_formula_structural   K2Cd2O3
_chemical_formula_sum   'K4 Cd4 O6'
_cell_volume   268.63434403
_cell_formula_units_Z   2
loop_
 _symmetry_equiv_pos_site_id
 _symmetry_equiv_pos_as_xyz
  1  'x, y, z'
loop_
 _atom_site_type_symbol
 _atom_site_label
 _atom_site_symmetry_multiplicity
 _atom_site_fract_x
 _atom_site_fract_y
 _atom_site_fract_z
 _atom_site_occupancy
  K  K0  1  0.844628  0.347250  0.089027  1
  K  K1  1  0.844628  0.152750  0.589027  1
  K  K2  1  0.155372  0.652750  0.910973  1
  K  K3  1  0.155372  0.847250  0.410973  1
  Cd  Cd4  1  0.339676  0.123606  0.079536  1
  Cd  Cd5  1  0.339676  0.376394  0.579536  1
  Cd  Cd6  1  0.660324  0.876394  0.920464  1
  Cd  Cd7  1  0.660324  0.623606  0.420464  1
  O  O8  1  0.000000  0.500000  0.500000  1
  O  O9  1  0.632130  0.599616  0.736905  1
  O  O10  1  0.367870  0.099616  0.763095  1
  O  O11  1  0.367870  0.400384  0.263095  1
  O  O12  1  0.000000  0.000000  0.000000  1
  O  O13  1  0.632130  0.900384  0.236905  1
