# generated using pymatgen
data_AlPO4
_symmetry_space_group_name_H-M   'P 1'
_cell_length_a   5.17722414
_cell_length_b   5.17722414
_cell_length_c   5.17722414
_cell_angle_alpha   121.19741961
_cell_angle_beta   121.19741961
_cell_angle_gamma   87.93822637
_symmetry_Int_Tables_number   1
_chemical_formula_structural   AlPO4
_chemical_formula_sum   'Al1 P1 O4'
_cell_volume   96.28050568
_cell_formula_units_Z   1
loop_
 _symmetry_equiv_pos_site_id
 _symmetry_equiv_pos_as_xyz
  1  'x, y, z'
loop_
 _atom_site_type_symbol
 _atom_site_label
 _atom_site_symmetry_multiplicity
 _atom_site_fract_x
 _atom_site_fract_y
 _atom_site_fract_z
 _atom_site_occupancy
  Al  Al0  1  0.000000  0.000000  0.000000  1
  P  P1  1  0.750000  0.250000  0.500000  1
  O  O2  1  0.959904  0.598433  0.823242  1
  O  O3  1  0.863338  0.040096  0.638528  1
  O  O4  1  0.775191  0.136662  0.176758  1
  O  O5  1  0.401567  0.224809  0.361472  1
