# generated using pymatgen
data_LuAsO4
_symmetry_space_group_name_H-M   'P 1'
_cell_length_a   5.86951330
_cell_length_b   5.86951330
_cell_length_c   5.86951330
_cell_angle_alpha   106.61874171
_cell_angle_beta   106.61874171
_cell_angle_gamma   115.34047068
_symmetry_Int_Tables_number   1
_chemical_formula_structural   LuAsO4
_chemical_formula_sum   'Lu2 As2 O8'
_cell_volume   154.42505775
_cell_formula_units_Z   2
loop_
 _symmetry_equiv_pos_site_id
 _symmetry_equiv_pos_as_xyz
  1  'x, y, z'
loop_
 _atom_site_type_symbol
 _atom_site_label
 _atom_site_symmetry_multiplicity
 _atom_site_fract_x
 _atom_site_fract_y
 _atom_site_fract_z
 _atom_site_occupancy
  Lu  Lu0  1  0.000000  0.000000  0.000000  1
  Lu  Lu1  1  0.250000  0.750000  0.500000  1
  As  As2  1  0.750000  0.250000  0.500000  1
  As  As3  1  0.500000  0.500000  0.000000  1
  O  O4  1  0.864796  0.681372  0.183424  1
  O  O5  1  0.931372  0.247948  0.316576  1
  O  O6  1  0.931372  0.614796  0.683424  1
  O  O7  1  0.497948  0.681372  0.816576  1
  O  O8  1  0.318628  0.502052  0.183424  1
  O  O9  1  0.385204  0.068628  0.316576  1
  O  O10  1  0.752052  0.068628  0.683424  1
  O  O11  1  0.318628  0.135204  0.816576  1
