# generated using pymatgen
data_Hg2SO4
_symmetry_space_group_name_H-M   'P 1'
_cell_length_a   6.34795929
_cell_length_b   4.65612562
_cell_length_c   8.68497515
_cell_angle_alpha   90.00000000
_cell_angle_beta   92.76127193
_cell_angle_gamma   90.00000000
_symmetry_Int_Tables_number   1
_chemical_formula_structural   Hg2SO4
_chemical_formula_sum   'Hg4 S2 O8'
_cell_volume   256.40285797
_cell_formula_units_Z   2
loop_
 _symmetry_equiv_pos_site_id
 _symmetry_equiv_pos_as_xyz
  1  'x, y, z'
loop_
 _atom_site_type_symbol
 _atom_site_label
 _atom_site_symmetry_multiplicity
 _atom_site_fract_x
 _atom_site_fract_y
 _atom_site_fract_z
 _atom_site_occupancy
  Hg  Hg0  1  0.191283  0.071271  0.473196  1
  Hg  Hg1  1  0.808717  0.071271  0.026804  1
  Hg  Hg2  1  0.808717  0.928729  0.526804  1
  Hg  Hg3  1  0.191283  0.928729  0.973196  1
  S  S4  1  0.500000  0.428136  0.250000  1
  S  S5  1  0.500000  0.571864  0.750000  1
  O  O6  1  0.505444  0.768311  0.608414  1
  O  O7  1  0.494556  0.768311  0.891586  1
  O  O8  1  0.494556  0.231689  0.391586  1
  O  O9  1  0.505444  0.231689  0.108414  1
  O  O10  1  0.696183  0.404972  0.763777  1
  O  O11  1  0.303817  0.404972  0.736223  1
  O  O12  1  0.696183  0.595028  0.263777  1
  O  O13  1  0.303817  0.595028  0.236223  1
