# generated using pymatgen
data_HgO
_symmetry_space_group_name_H-M   'P 1'
_cell_length_a   3.75729524
_cell_length_b   3.75729524
_cell_length_c   8.95161279
_cell_angle_alpha   90.00000000
_cell_angle_beta   90.00000000
_cell_angle_gamma   120.00000000
_symmetry_Int_Tables_number   1
_chemical_formula_structural   HgO
_chemical_formula_sum   'Hg3 O3'
_cell_volume   109.44163277
_cell_formula_units_Z   3
loop_
 _symmetry_equiv_pos_site_id
 _symmetry_equiv_pos_as_xyz
  1  'x, y, z'
loop_
 _atom_site_type_symbol
 _atom_site_label
 _atom_site_symmetry_multiplicity
 _atom_site_fract_x
 _atom_site_fract_y
 _atom_site_fract_z
 _atom_site_occupancy
  Hg  Hg0  1  0.227662  0.227662  0.000000  1
  Hg  Hg1  1  0.000000  0.772338  0.666667  1
  Hg  Hg2  1  0.772338  0.000000  0.333333  1
  O  O3  1  0.560642  0.560642  0.500000  1
  O  O4  1  0.000000  0.439358  0.166667  1
  O  O5  1  0.439358  0.000000  0.833333  1
