# generated using pymatgen
data_RbLiF2
_symmetry_space_group_name_H-M   'P 1'
_cell_length_a   6.41436278
_cell_length_b   6.41436278
_cell_length_c   7.95801537
_cell_angle_alpha   87.23169684
_cell_angle_beta   92.76830316
_cell_angle_gamma   55.10721195
_symmetry_Int_Tables_number   1
_chemical_formula_structural   RbLiF2
_chemical_formula_sum   'Rb4 Li4 F8'
_cell_volume   267.09395905
_cell_formula_units_Z   4
loop_
 _symmetry_equiv_pos_site_id
 _symmetry_equiv_pos_as_xyz
  1  'x, y, z'
loop_
 _atom_site_type_symbol
 _atom_site_label
 _atom_site_symmetry_multiplicity
 _atom_site_fract_x
 _atom_site_fract_y
 _atom_site_fract_z
 _atom_site_occupancy
  Rb  Rb0  1  0.675320  0.144950  0.568890  1
  Rb  Rb1  1  0.144950  0.675320  0.931110  1
  Rb  Rb2  1  0.324680  0.855050  0.431110  1
  Rb  Rb3  1  0.855050  0.324680  0.068890  1
  Li  Li4  1  0.558866  0.043771  0.139521  1
  Li  Li5  1  0.441134  0.956229  0.860479  1
  Li  Li6  1  0.956229  0.441134  0.639521  1
  Li  Li7  1  0.043771  0.558866  0.360479  1
  F  F8  1  0.886130  0.886130  0.250000  1
  F  F9  1  0.688738  0.688738  0.750000  1
  F  F10  1  0.113870  0.113870  0.750000  1
  F  F11  1  0.311262  0.311262  0.250000  1
  F  F12  1  0.845612  0.431861  0.416183  1
  F  F13  1  0.431861  0.845612  0.083817  1
  F  F14  1  0.154388  0.568139  0.583817  1
  F  F15  1  0.568139  0.154388  0.916183  1
