# generated using pymatgen
data_Lu2Si2O7
_symmetry_space_group_name_H-M   'P 1'
_cell_length_a   5.57873544
_cell_length_b   5.57873544
_cell_length_c   4.76268252
_cell_angle_alpha   82.60929616
_cell_angle_beta   97.39070384
_cell_angle_gamma   74.69007568
_symmetry_Int_Tables_number   1
_chemical_formula_structural   Lu2Si2O7
_chemical_formula_sum   'Lu2 Si2 O7'
_cell_volume   139.71399016
_cell_formula_units_Z   1
loop_
 _symmetry_equiv_pos_site_id
 _symmetry_equiv_pos_as_xyz
  1  'x, y, z'
loop_
 _atom_site_type_symbol
 _atom_site_label
 _atom_site_symmetry_multiplicity
 _atom_site_fract_x
 _atom_site_fract_y
 _atom_site_fract_z
 _atom_site_occupancy
  Lu  Lu0  1  0.308574  0.308574  0.000000  1
  Lu  Lu1  1  0.691426  0.691426  0.000000  1
  Si  Si2  1  0.779406  0.220594  0.590160  1
  Si  Si3  1  0.220594  0.779406  0.409840  1
  O  O4  1  0.388169  0.916706  0.217356  1
  O  O5  1  0.916706  0.388169  0.782644  1
  O  O6  1  0.611831  0.083294  0.782644  1
  O  O7  1  0.083294  0.611831  0.217356  1
  O  O8  1  0.000000  0.000000  0.500000  1
  O  O9  1  0.386098  0.613902  0.716395  1
  O  O10  1  0.613902  0.386098  0.283605  1
