# generated using pymatgen
data_Dy2Se3
_symmetry_space_group_name_H-M   'P 1'
_cell_length_a   4.02904700
_cell_length_b   11.00081356
_cell_length_c   11.16208974
_cell_angle_alpha   90.00000000
_cell_angle_beta   90.00000000
_cell_angle_gamma   90.00000000
_symmetry_Int_Tables_number   1
_chemical_formula_structural   Dy2Se3
_chemical_formula_sum   'Dy8 Se12'
_cell_volume   494.73501388
_cell_formula_units_Z   4
loop_
 _symmetry_equiv_pos_site_id
 _symmetry_equiv_pos_as_xyz
  1  'x, y, z'
loop_
 _atom_site_type_symbol
 _atom_site_label
 _atom_site_symmetry_multiplicity
 _atom_site_fract_x
 _atom_site_fract_y
 _atom_site_fract_z
 _atom_site_occupancy
  Dy  Dy0  1  0.250000  0.998707  0.806277  1
  Dy  Dy1  1  0.750000  0.001293  0.193723  1
  Dy  Dy2  1  0.750000  0.498707  0.693723  1
  Dy  Dy3  1  0.250000  0.501293  0.306277  1
  Dy  Dy4  1  0.250000  0.187465  0.487153  1
  Dy  Dy5  1  0.750000  0.812535  0.512847  1
  Dy  Dy6  1  0.750000  0.687465  0.012847  1
  Dy  Dy7  1  0.250000  0.312535  0.987153  1
  Se  Se8  1  0.250000  0.304760  0.726330  1
  Se  Se9  1  0.750000  0.695240  0.273670  1
  Se  Se10  1  0.750000  0.804760  0.773670  1
  Se  Se11  1  0.250000  0.195240  0.226330  1
  Se  Se12  1  0.250000  0.944095  0.381224  1
  Se  Se13  1  0.750000  0.055905  0.618776  1
  Se  Se14  1  0.750000  0.444095  0.118776  1
  Se  Se15  1  0.250000  0.555905  0.881224  1
  Se  Se16  1  0.250000  0.874571  0.044456  1
  Se  Se17  1  0.750000  0.125429  0.955544  1
  Se  Se18  1  0.750000  0.374571  0.455544  1
  Se  Se19  1  0.250000  0.625429  0.544456  1
