# generated using pymatgen
data_Sr3CrN4
_symmetry_space_group_name_H-M   'P 1'
_cell_length_a   9.62624717
_cell_length_b   10.23686308
_cell_length_c   11.36235589
_cell_angle_alpha   90.00000000
_cell_angle_beta   90.00000000
_cell_angle_gamma   90.00000000
_symmetry_Int_Tables_number   1
_chemical_formula_structural   Sr3CrN4
_chemical_formula_sum   'Sr24 Cr8 N32'
_cell_volume   1119.67579899
_cell_formula_units_Z   8
loop_
 _symmetry_equiv_pos_site_id
 _symmetry_equiv_pos_as_xyz
  1  'x, y, z'
loop_
 _atom_site_type_symbol
 _atom_site_label
 _atom_site_symmetry_multiplicity
 _atom_site_fract_x
 _atom_site_fract_y
 _atom_site_fract_z
 _atom_site_occupancy
  Sr  Sr0  1  0.528935  0.372387  0.393575  1
  Sr  Sr1  1  0.200159  0.717252  0.384837  1
  Sr  Sr2  1  0.799841  0.782748  0.884837  1
  Sr  Sr3  1  0.299841  0.217252  0.615163  1
  Sr  Sr4  1  0.299841  0.717252  0.884837  1
  Sr  Sr5  1  0.799841  0.282748  0.615163  1
  Sr  Sr6  1  0.200159  0.217252  0.115163  1
  Sr  Sr7  1  0.700159  0.782748  0.384837  1
  Sr  Sr8  1  0.700159  0.282748  0.115163  1
  Sr  Sr9  1  0.028935  0.627613  0.106425  1
  Sr  Sr10  1  0.971065  0.872387  0.606425  1
  Sr  Sr11  1  0.471065  0.127613  0.893575  1
  Sr  Sr12  1  0.471065  0.627613  0.606425  1
  Sr  Sr13  1  0.971065  0.372387  0.893575  1
  Sr  Sr14  1  0.028935  0.127613  0.393575  1
  Sr  Sr15  1  0.528935  0.872387  0.106425  1
  Sr  Sr16  1  0.874176  0.472368  0.358006  1
  Sr  Sr17  1  0.374176  0.527632  0.141994  1
  Sr  Sr18  1  0.625824  0.972368  0.641994  1
  Sr  Sr19  1  0.125824  0.027632  0.858006  1
  Sr  Sr20  1  0.125824  0.527632  0.641994  1
  Sr  Sr21  1  0.625824  0.472368  0.858006  1
  Sr  Sr22  1  0.374176  0.027632  0.358006  1
  Sr  Sr23  1  0.874176  0.972368  0.141994  1
  Cr  Cr24  1  0.696460  0.098180  0.388143  1
  Cr  Cr25  1  0.196460  0.901820  0.111857  1
  Cr  Cr26  1  0.803540  0.598180  0.611857  1
  Cr  Cr27  1  0.303540  0.401820  0.888143  1
  Cr  Cr28  1  0.303540  0.901820  0.611857  1
  Cr  Cr29  1  0.803540  0.098180  0.888143  1
  Cr  Cr30  1  0.196460  0.401820  0.388143  1
  Cr  Cr31  1  0.696460  0.598180  0.111857  1
  N  N32  1  0.786802  0.230590  0.325833  1
  N  N33  1  0.286802  0.769410  0.174167  1
  N  N34  1  0.713198  0.730590  0.674167  1
  N  N35  1  0.213198  0.269410  0.825833  1
  N  N36  1  0.213198  0.769410  0.674167  1
  N  N37  1  0.713198  0.230590  0.825833  1
  N  N38  1  0.286802  0.269410  0.325833  1
  N  N39  1  0.786802  0.730590  0.174167  1
  N  N40  1  0.812293  0.497355  0.033057  1
  N  N41  1  0.312293  0.502645  0.466943  1
  N  N42  1  0.687707  0.997355  0.966943  1
  N  N43  1  0.187707  0.002645  0.533057  1
  N  N44  1  0.187707  0.502645  0.966943  1
  N  N45  1  0.687707  0.497355  0.533057  1
  N  N46  1  0.312293  0.002645  0.033057  1
  N  N47  1  0.620652  0.000719  0.280054  1
  N  N48  1  0.569277  0.154170  0.488267  1
  N  N49  1  0.069277  0.845830  0.011733  1
  N  N50  1  0.930723  0.654170  0.511733  1
  N  N51  1  0.430723  0.345830  0.988267  1
  N  N52  1  0.430723  0.845830  0.511733  1
  N  N53  1  0.930723  0.154170  0.988267  1
  N  N54  1  0.069277  0.345830  0.488267  1
  N  N55  1  0.569277  0.654170  0.011733  1
  N  N56  1  0.620652  0.500719  0.219946  1
  N  N57  1  0.120652  0.499281  0.280054  1
  N  N58  1  0.879348  0.000719  0.780054  1
  N  N59  1  0.379348  0.999281  0.719946  1
  N  N60  1  0.379348  0.499281  0.780054  1
  N  N61  1  0.879348  0.500719  0.719946  1
  N  N62  1  0.120652  0.999281  0.219946  1
  N  N63  1  0.812293  0.997355  0.466943  1
