# generated using pymatgen
data_PtO2
_symmetry_space_group_name_H-M   'P 1'
_cell_length_a   3.16406891
_cell_length_b   3.16406891
_cell_length_c   9.43583650
_cell_angle_alpha   90.00000000
_cell_angle_beta   90.00000000
_cell_angle_gamma   120.00000000
_symmetry_Int_Tables_number   1
_chemical_formula_structural   PtO2
_chemical_formula_sum   'Pt2 O4'
_cell_volume   81.80934315
_cell_formula_units_Z   2
loop_
 _symmetry_equiv_pos_site_id
 _symmetry_equiv_pos_as_xyz
  1  'x, y, z'
loop_
 _atom_site_type_symbol
 _atom_site_label
 _atom_site_symmetry_multiplicity
 _atom_site_fract_x
 _atom_site_fract_y
 _atom_site_fract_z
 _atom_site_occupancy
  Pt  Pt0  1  0.666667  0.333333  0.500003  1
  Pt  Pt1  1  0.333333  0.666667  0.000003  1
  O  O2  1  0.000000  0.000000  0.100462  1
  O  O3  1  0.000000  0.000000  0.600462  1
  O  O4  1  0.333333  0.666667  0.399536  1
  O  O5  1  0.666667  0.333333  0.899536  1
