# generated using pymatgen
data_Sr3GaN3
_symmetry_space_group_name_H-M   'P 1'
_cell_length_a   7.62717985
_cell_length_b   7.62717985
_cell_length_c   5.44643338
_cell_angle_alpha   90.00000000
_cell_angle_beta   90.00000000
_cell_angle_gamma   120.00000000
_symmetry_Int_Tables_number   1
_chemical_formula_structural   Sr3GaN3
_chemical_formula_sum   'Sr6 Ga2 N6'
_cell_volume   274.39159351
_cell_formula_units_Z   2
loop_
 _symmetry_equiv_pos_site_id
 _symmetry_equiv_pos_as_xyz
  1  'x, y, z'
loop_
 _atom_site_type_symbol
 _atom_site_label
 _atom_site_symmetry_multiplicity
 _atom_site_fract_x
 _atom_site_fract_y
 _atom_site_fract_z
 _atom_site_occupancy
  Sr  Sr0  1  0.642236  0.713407  0.750000  1
  Sr  Sr1  1  0.928828  0.642236  0.250000  1
  Sr  Sr2  1  0.713407  0.071172  0.250000  1
  Sr  Sr3  1  0.286593  0.928828  0.750000  1
  Sr  Sr4  1  0.071172  0.357764  0.750000  1
  Sr  Sr5  1  0.357764  0.286593  0.250000  1
  Ga  Ga6  1  0.333333  0.666667  0.250000  1
  Ga  Ga7  1  0.666667  0.333333  0.750000  1
  N  N8  1  0.904910  0.598436  0.750000  1
  N  N9  1  0.306474  0.904910  0.250000  1
  N  N10  1  0.598436  0.693526  0.250000  1
  N  N11  1  0.401564  0.306474  0.750000  1
  N  N12  1  0.693526  0.095090  0.750000  1
  N  N13  1  0.095090  0.401564  0.250000  1
