# generated using pymatgen
data_P4S5
_symmetry_space_group_name_H-M   'P 1'
_cell_length_a   6.79224065
_cell_length_b   12.25714515
_cell_length_c   7.16303265
_cell_angle_alpha   90.00000000
_cell_angle_beta   117.17628059
_cell_angle_gamma   90.00000000
_symmetry_Int_Tables_number   1
_chemical_formula_structural   P4S5
_chemical_formula_sum   'P8 S10'
_cell_volume   530.51393651
_cell_formula_units_Z   2
loop_
 _symmetry_equiv_pos_site_id
 _symmetry_equiv_pos_as_xyz
  1  'x, y, z'
loop_
 _atom_site_type_symbol
 _atom_site_label
 _atom_site_symmetry_multiplicity
 _atom_site_fract_x
 _atom_site_fract_y
 _atom_site_fract_z
 _atom_site_occupancy
  P  P0  1  0.289027  0.750000  0.358781  1
  P  P1  1  0.710973  0.250000  0.641219  1
  P  P2  1  0.855620  0.750000  0.771882  1
  P  P3  1  0.144380  0.250000  0.228118  1
  P  P4  1  0.427959  0.845371  0.846714  1
  P  P5  1  0.572041  0.345371  0.153286  1
  P  P6  1  0.572041  0.154629  0.153286  1
  P  P7  1  0.427959  0.654629  0.846714  1
  S  S8  1  0.634550  0.750000  0.442322  1
  S  S9  1  0.365450  0.250000  0.557678  1
  S  S10  1  0.758858  0.880234  0.909067  1
  S  S11  1  0.241142  0.380234  0.090933  1
  S  S12  1  0.241142  0.119766  0.090933  1
  S  S13  1  0.758858  0.619766  0.909067  1
  S  S14  1  0.230753  0.880225  0.523951  1
  S  S15  1  0.769247  0.380225  0.476049  1
  S  S16  1  0.769247  0.119775  0.476049  1
  S  S17  1  0.230753  0.619775  0.523951  1
