# generated using pymatgen
data_Cd2B2O5
_symmetry_space_group_name_H-M   'P 1'
_cell_length_a   3.52274688
_cell_length_b   6.46814882
_cell_length_c   10.07804092
_cell_angle_alpha   105.80392874
_cell_angle_beta   91.32190686
_cell_angle_gamma   91.26788697
_symmetry_Int_Tables_number   1
_chemical_formula_structural   Cd2B2O5
_chemical_formula_sum   'Cd4 B4 O10'
_cell_volume   220.79921240
_cell_formula_units_Z   2
loop_
 _symmetry_equiv_pos_site_id
 _symmetry_equiv_pos_as_xyz
  1  'x, y, z'
loop_
 _atom_site_type_symbol
 _atom_site_label
 _atom_site_symmetry_multiplicity
 _atom_site_fract_x
 _atom_site_fract_y
 _atom_site_fract_z
 _atom_site_occupancy
  Cd  Cd0  1  0.752326  0.221129  0.874995  1
  Cd  Cd1  1  0.247674  0.778871  0.125005  1
  Cd  Cd2  1  0.772963  0.652474  0.406718  1
  Cd  Cd3  1  0.227037  0.347526  0.593282  1
  B  B4  1  0.673421  0.126449  0.319930  1
  B  B5  1  0.326579  0.873551  0.680070  1
  B  B6  1  0.671724  0.672423  0.844047  1
  B  B7  1  0.328276  0.327577  0.155953  1
  O  O8  1  0.467714  0.154870  0.202815  1
  O  O9  1  0.532286  0.845130  0.797185  1
  O  O10  1  0.268482  0.704654  0.563853  1
  O  O11  1  0.731518  0.295346  0.436147  1
  O  O12  1  0.208724  0.078953  0.697741  1
  O  O13  1  0.791276  0.921047  0.302259  1
  O  O14  1  0.260206  0.288607  0.017481  1
  O  O15  1  0.739794  0.711393  0.982519  1
  O  O16  1  0.276491  0.525504  0.247244  1
  O  O17  1  0.723509  0.474496  0.752756  1
