# generated using pymatgen
data_CsSmO2
_symmetry_space_group_name_H-M   'P 1'
_cell_length_a   3.65310551
_cell_length_b   3.65310551
_cell_length_c   13.83596678
_cell_angle_alpha   90.00000000
_cell_angle_beta   90.00000000
_cell_angle_gamma   120.00000000
_symmetry_Int_Tables_number   1
_chemical_formula_structural   CsSmO2
_chemical_formula_sum   'Cs2 Sm2 O4'
_cell_volume   159.90593155
_cell_formula_units_Z   2
loop_
 _symmetry_equiv_pos_site_id
 _symmetry_equiv_pos_as_xyz
  1  'x, y, z'
loop_
 _atom_site_type_symbol
 _atom_site_label
 _atom_site_symmetry_multiplicity
 _atom_site_fract_x
 _atom_site_fract_y
 _atom_site_fract_z
 _atom_site_occupancy
  Cs  Cs0  1  0.333333  0.666667  0.750000  1
  Cs  Cs1  1  0.666667  0.333333  0.250000  1
  Sm  Sm2  1  0.000000  0.000000  0.500000  1
  Sm  Sm3  1  0.000000  0.000000  0.000000  1
  O  O4  1  0.333333  0.666667  0.084080  1
  O  O5  1  0.666667  0.333333  0.584079  1
  O  O6  1  0.333333  0.666667  0.415921  1
  O  O7  1  0.666667  0.333333  0.915921  1
