# generated using pymatgen
data_K2P2Pd
_symmetry_space_group_name_H-M   'P 1'
_cell_length_a   7.82199599
_cell_length_b   7.82199599
_cell_length_c   5.97537125
_cell_angle_alpha   90.00000000
_cell_angle_beta   90.00000000
_cell_angle_gamma   131.70528693
_symmetry_Int_Tables_number   1
_chemical_formula_structural   K2P2Pd
_chemical_formula_sum   'K4 P4 Pd2'
_cell_volume   272.94463265
_cell_formula_units_Z   2
loop_
 _symmetry_equiv_pos_site_id
 _symmetry_equiv_pos_as_xyz
  1  'x, y, z'
loop_
 _atom_site_type_symbol
 _atom_site_label
 _atom_site_symmetry_multiplicity
 _atom_site_fract_x
 _atom_site_fract_y
 _atom_site_fract_z
 _atom_site_occupancy
  K  K0  1  0.211968  0.788032  0.750000  1
  K  K1  1  0.575242  0.424758  0.750000  1
  K  K2  1  0.788032  0.211968  0.250000  1
  K  K3  1  0.424758  0.575242  0.250000  1
  P  P4  1  0.059455  0.280803  0.750000  1
  P  P5  1  0.280803  0.059455  0.250000  1
  P  P6  1  0.940545  0.719197  0.250000  1
  P  P7  1  0.719197  0.940545  0.750000  1
  Pd  Pd8  1  0.000000  0.000000  0.000000  1
  Pd  Pd9  1  0.000000  0.000000  0.500000  1
