# generated using pymatgen
data_BeO
_symmetry_space_group_name_H-M   'P 1'
_cell_length_a   4.64187573
_cell_length_b   4.64187573
_cell_length_c   2.70097331
_cell_angle_alpha   90.00000000
_cell_angle_beta   90.00000000
_cell_angle_gamma   90.00000000
_symmetry_Int_Tables_number   1
_chemical_formula_structural   BeO
_chemical_formula_sum   'Be4 O4'
_cell_volume   58.19789971
_cell_formula_units_Z   4
loop_
 _symmetry_equiv_pos_site_id
 _symmetry_equiv_pos_as_xyz
  1  'x, y, z'
loop_
 _atom_site_type_symbol
 _atom_site_label
 _atom_site_symmetry_multiplicity
 _atom_site_fract_x
 _atom_site_fract_y
 _atom_site_fract_z
 _atom_site_occupancy
  Be  Be0  1  0.673414  0.326586  0.000000  1
  Be  Be1  1  0.826586  0.826586  0.500000  1
  Be  Be2  1  0.173414  0.173414  0.500000  1
  Be  Be3  1  0.326586  0.673414  0.000000  1
  O  O4  1  0.311353  0.311353  0.000000  1
  O  O5  1  0.811353  0.188647  0.500000  1
  O  O6  1  0.188647  0.811353  0.500000  1
  O  O7  1  0.688647  0.688647  0.000000  1
