# generated using pymatgen
data_LiTbO2
_symmetry_space_group_name_H-M   'P 1'
_cell_length_a   3.41379261
_cell_length_b   5.34285008
_cell_length_c   11.30943555
_cell_angle_alpha   90.00000000
_cell_angle_beta   90.00000000
_cell_angle_gamma   90.00000000
_symmetry_Int_Tables_number   1
_chemical_formula_structural   LiTbO2
_chemical_formula_sum   'Li4 Tb4 O8'
_cell_volume   206.27711655
_cell_formula_units_Z   4
loop_
 _symmetry_equiv_pos_site_id
 _symmetry_equiv_pos_as_xyz
  1  'x, y, z'
loop_
 _atom_site_type_symbol
 _atom_site_label
 _atom_site_symmetry_multiplicity
 _atom_site_fract_x
 _atom_site_fract_y
 _atom_site_fract_z
 _atom_site_occupancy
  Li  Li0  1  0.250000  0.097312  0.566285  1
  Li  Li1  1  0.750000  0.902688  0.433715  1
  Li  Li2  1  0.750000  0.597312  0.933715  1
  Li  Li3  1  0.250000  0.402688  0.066285  1
  Tb  Tb4  1  0.250000  0.453704  0.359450  1
  Tb  Tb5  1  0.750000  0.546296  0.640550  1
  Tb  Tb6  1  0.750000  0.953704  0.140550  1
  Tb  Tb7  1  0.250000  0.046296  0.859450  1
  O  O8  1  0.250000  0.307362  0.705262  1
  O  O9  1  0.750000  0.692638  0.294738  1
  O  O10  1  0.750000  0.807362  0.794738  1
  O  O11  1  0.250000  0.192638  0.205262  1
  O  O12  1  0.250000  0.758194  0.026611  1
  O  O13  1  0.750000  0.241806  0.973389  1
  O  O14  1  0.750000  0.258194  0.473389  1
  O  O15  1  0.250000  0.741806  0.526611  1
