# generated using pymatgen
data_CaGeN2
_symmetry_space_group_name_H-M   'P 1'
_cell_length_a   5.30921777
_cell_length_b   5.30921777
_cell_length_c   5.30921777
_cell_angle_alpha   118.26908385
_cell_angle_beta   118.26908385
_cell_angle_gamma   93.02512768
_symmetry_Int_Tables_number   1
_chemical_formula_structural   CaGeN2
_chemical_formula_sum   'Ca2 Ge2 N4'
_cell_volume   108.42727904
_cell_formula_units_Z   2
loop_
 _symmetry_equiv_pos_site_id
 _symmetry_equiv_pos_as_xyz
  1  'x, y, z'
loop_
 _atom_site_type_symbol
 _atom_site_label
 _atom_site_symmetry_multiplicity
 _atom_site_fract_x
 _atom_site_fract_y
 _atom_site_fract_z
 _atom_site_occupancy
  Ca  Ca0  1  0.500000  0.500000  0.000000  1
  Ca  Ca1  1  0.250000  0.750000  0.500000  1
  Ge  Ge2  1  0.750000  0.250000  0.500000  1
  Ge  Ge3  1  1.000000  0.000000  1.000000  1
  N  N4  1  0.702956  0.625000  0.577956  1
  N  N5  1  0.375000  0.952956  0.077956  1
  N  N6  1  0.047044  0.125000  0.422044  1
  N  N7  1  0.875000  0.297044  0.922044  1
