# generated using pymatgen
data_Al2HgTe4
_symmetry_space_group_name_H-M   'P 1'
_cell_length_a   7.45547067
_cell_length_b   7.45547067
_cell_length_c   7.45547067
_cell_angle_alpha   130.13794799
_cell_angle_beta   130.13794799
_cell_angle_gamma   73.18632843
_symmetry_Int_Tables_number   1
_chemical_formula_structural   Al2HgTe4
_chemical_formula_sum   'Al2 Hg1 Te4'
_cell_volume   236.47820221
_cell_formula_units_Z   1
loop_
 _symmetry_equiv_pos_site_id
 _symmetry_equiv_pos_as_xyz
  1  'x, y, z'
loop_
 _atom_site_type_symbol
 _atom_site_label
 _atom_site_symmetry_multiplicity
 _atom_site_fract_x
 _atom_site_fract_y
 _atom_site_fract_z
 _atom_site_occupancy
  Al  Al0  1  0.250000  0.750000  0.500000  1
  Al  Al1  1  0.500000  0.500000  0.000000  1
  Hg  Hg2  1  0.000000  0.000000  0.000000  1
  Te  Te3  1  0.863775  0.395424  0.982704  1
  Te  Te4  1  0.412720  0.881071  0.017296  1
  Te  Te5  1  0.118929  0.136225  0.531649  1
  Te  Te6  1  0.604576  0.587280  0.468351  1
