# generated using pymatgen
data_CsLiF2
_symmetry_space_group_name_H-M   'P 1'
_cell_length_a   6.71355698
_cell_length_b   6.71355698
_cell_length_c   8.24499231
_cell_angle_alpha   88.29416864
_cell_angle_beta   91.70583136
_cell_angle_gamma   54.34195258
_symmetry_Int_Tables_number   1
_chemical_formula_structural   CsLiF2
_chemical_formula_sum   'Cs4 Li4 F8'
_cell_volume   301.30053942
_cell_formula_units_Z   4
loop_
 _symmetry_equiv_pos_site_id
 _symmetry_equiv_pos_as_xyz
  1  'x, y, z'
loop_
 _atom_site_type_symbol
 _atom_site_label
 _atom_site_symmetry_multiplicity
 _atom_site_fract_x
 _atom_site_fract_y
 _atom_site_fract_z
 _atom_site_occupancy
  Cs  Cs0  1  0.668613  0.148138  0.567366  1
  Cs  Cs1  1  0.148138  0.668613  0.932634  1
  Cs  Cs2  1  0.331387  0.851862  0.432634  1
  Cs  Cs3  1  0.851862  0.331387  0.067366  1
  Li  Li4  1  0.553381  0.045643  0.138790  1
  Li  Li5  1  0.446619  0.954357  0.861210  1
  Li  Li6  1  0.954357  0.446619  0.638790  1
  Li  Li7  1  0.045643  0.553381  0.361210  1
  F  F8  1  0.865679  0.865679  0.250000  1
  F  F9  1  0.679127  0.679127  0.750000  1
  F  F10  1  0.134321  0.134321  0.750000  1
  F  F11  1  0.320873  0.320873  0.250000  1
  F  F12  1  0.867214  0.419804  0.421492  1
  F  F13  1  0.419804  0.867214  0.078508  1
  F  F14  1  0.132786  0.580196  0.578508  1
  F  F15  1  0.580196  0.132786  0.921492  1
