# generated using pymatgen
data_LiTa3O8
_symmetry_space_group_name_H-M   'P 1'
_cell_length_a   7.55570711
_cell_length_b   7.55570711
_cell_length_c   5.10594858
_cell_angle_alpha   89.32880979
_cell_angle_beta   90.67119021
_cell_angle_gamma   78.22019726
_symmetry_Int_Tables_number   1
_chemical_formula_structural   LiTa3O8
_chemical_formula_sum   'Li2 Ta6 O16'
_cell_volume   285.30381958
_cell_formula_units_Z   2
loop_
 _symmetry_equiv_pos_site_id
 _symmetry_equiv_pos_as_xyz
  1  'x, y, z'
loop_
 _atom_site_type_symbol
 _atom_site_label
 _atom_site_symmetry_multiplicity
 _atom_site_fract_x
 _atom_site_fract_y
 _atom_site_fract_z
 _atom_site_occupancy
  Li  Li0  1  0.844756  0.844756  0.750000  1
  Li  Li1  1  0.155244  0.155244  0.250000  1
  Ta  Ta2  1  0.329948  0.329948  0.750000  1
  Ta  Ta3  1  0.670052  0.670052  0.250000  1
  Ta  Ta4  1  0.327836  0.844409  0.744593  1
  Ta  Ta5  1  0.844409  0.327836  0.755407  1
  Ta  Ta6  1  0.672164  0.155591  0.255407  1
  Ta  Ta7  1  0.155591  0.672164  0.244593  1
  O  O8  1  0.313476  0.079421  0.608569  1
  O  O9  1  0.079421  0.313476  0.891431  1
  O  O10  1  0.686524  0.920579  0.391431  1
  O  O11  1  0.920579  0.686524  0.108569  1
  O  O12  1  0.901062  0.195572  0.438582  1
  O  O13  1  0.195572  0.901062  0.061418  1
  O  O14  1  0.098938  0.804428  0.561418  1
  O  O15  1  0.804428  0.098938  0.938582  1
  O  O16  1  0.207523  0.439614  0.424882  1
  O  O17  1  0.439614  0.207523  0.075118  1
  O  O18  1  0.792477  0.560386  0.575118  1
  O  O19  1  0.560386  0.792477  0.924882  1
  O  O20  1  0.697429  0.432314  0.082928  1
  O  O21  1  0.432314  0.697429  0.417072  1
  O  O22  1  0.302571  0.567686  0.917072  1
  O  O23  1  0.567686  0.302571  0.582928  1
