# generated using pymatgen
data_GeF2
_symmetry_space_group_name_H-M   'P 1'
_cell_length_a   4.97134296
_cell_length_b   5.23964378
_cell_length_c   8.24597096
_cell_angle_alpha   90.00000000
_cell_angle_beta   90.00000000
_cell_angle_gamma   90.00000000
_symmetry_Int_Tables_number   1
_chemical_formula_structural   GeF2
_chemical_formula_sum   'Ge4 F8'
_cell_volume   214.79159760
_cell_formula_units_Z   4
loop_
 _symmetry_equiv_pos_site_id
 _symmetry_equiv_pos_as_xyz
  1  'x, y, z'
loop_
 _atom_site_type_symbol
 _atom_site_label
 _atom_site_symmetry_multiplicity
 _atom_site_fract_x
 _atom_site_fract_y
 _atom_site_fract_z
 _atom_site_occupancy
  Ge  Ge0  1  0.273920  0.974677  0.624015  1
  Ge  Ge1  1  0.773920  0.525323  0.375985  1
  Ge  Ge2  1  0.726080  0.474677  0.875985  1
  Ge  Ge3  1  0.226080  0.025323  0.124015  1
  F  F4  1  0.405355  0.746199  0.785274  1
  F  F5  1  0.905355  0.753801  0.214726  1
  F  F6  1  0.594645  0.246199  0.714726  1
  F  F7  1  0.094645  0.253801  0.285274  1
  F  F8  1  0.965555  0.127010  0.969269  1
  F  F9  1  0.465555  0.372990  0.030731  1
  F  F10  1  0.034445  0.627010  0.530731  1
  F  F11  1  0.534445  0.872990  0.469269  1
