# generated using pymatgen
data_TcAgO4
_symmetry_space_group_name_H-M   'P 1'
_cell_length_a   7.04956910
_cell_length_b   7.04956910
_cell_length_c   7.04956910
_cell_angle_alpha   134.66046038
_cell_angle_beta   134.66046038
_cell_angle_gamma   66.05822762
_symmetry_Int_Tables_number   1
_chemical_formula_structural   TcAgO4
_chemical_formula_sum   'Tc2 Ag2 O8'
_cell_volume   174.52695266
_cell_formula_units_Z   2
loop_
 _symmetry_equiv_pos_site_id
 _symmetry_equiv_pos_as_xyz
  1  'x, y, z'
loop_
 _atom_site_type_symbol
 _atom_site_label
 _atom_site_symmetry_multiplicity
 _atom_site_fract_x
 _atom_site_fract_y
 _atom_site_fract_z
 _atom_site_occupancy
  Tc  Tc0  1  0.000000  0.000000  0.000000  1
  Tc  Tc1  1  0.750000  0.250000  0.500000  1
  Ag  Ag2  1  0.500000  0.500000  0.000000  1
  Ag  Ag3  1  0.250000  0.750000  0.500000  1
  O  O4  1  0.952325  0.851141  0.636798  1
  O  O5  1  0.601141  0.464343  0.398816  1
  O  O6  1  0.065527  0.202325  0.601184  1
  O  O7  1  0.214343  0.315527  0.363202  1
  O  O8  1  0.535657  0.934473  0.136798  1
  O  O9  1  0.684473  0.047675  0.898816  1
  O  O10  1  0.148859  0.785657  0.101184  1
  O  O11  1  0.797675  0.398859  0.863202  1
