# generated using pymatgen
data_Na2AsAu
_symmetry_space_group_name_H-M   'P 1'
_cell_length_a   5.71730283
_cell_length_b   5.71730283
_cell_length_c   5.83694752
_cell_angle_alpha   90.00000000
_cell_angle_beta   90.00000000
_cell_angle_gamma   102.64822159
_symmetry_Int_Tables_number   1
_chemical_formula_structural   Na2AsAu
_chemical_formula_sum   'Na4 As2 Au2'
_cell_volume   186.16545477
_cell_formula_units_Z   2
loop_
 _symmetry_equiv_pos_site_id
 _symmetry_equiv_pos_as_xyz
  1  'x, y, z'
loop_
 _atom_site_type_symbol
 _atom_site_label
 _atom_site_symmetry_multiplicity
 _atom_site_fract_x
 _atom_site_fract_y
 _atom_site_fract_z
 _atom_site_occupancy
  Na  Na0  1  0.027318  0.665986  0.250000  1
  Na  Na1  1  0.972682  0.334014  0.750000  1
  Na  Na2  1  0.665986  0.027318  0.250000  1
  Na  Na3  1  0.334014  0.972682  0.750000  1
  As  As4  1  0.791042  0.791042  0.750000  1
  As  As5  1  0.208958  0.208958  0.250000  1
  Au  Au6  1  0.500000  0.500000  0.500000  1
  Au  Au7  1  0.500000  0.500000  0.000000  1
