# generated using pymatgen
data_K2Te3
_symmetry_space_group_name_H-M   'P 1'
_cell_length_a   4.61694594
_cell_length_b   10.41162119
_cell_length_c   16.04268144
_cell_angle_alpha   90.00000000
_cell_angle_beta   90.00000000
_cell_angle_gamma   90.00000000
_symmetry_Int_Tables_number   1
_chemical_formula_structural   K2Te3
_chemical_formula_sum   'K8 Te12'
_cell_volume   771.16996713
_cell_formula_units_Z   4
loop_
 _symmetry_equiv_pos_site_id
 _symmetry_equiv_pos_as_xyz
  1  'x, y, z'
loop_
 _atom_site_type_symbol
 _atom_site_label
 _atom_site_symmetry_multiplicity
 _atom_site_fract_x
 _atom_site_fract_y
 _atom_site_fract_z
 _atom_site_occupancy
  K  K0  1  0.724087  0.971919  0.376556  1
  K  K1  1  0.224087  0.028081  0.123444  1
  K  K2  1  0.275913  0.471919  0.623444  1
  K  K3  1  0.775913  0.528081  0.876556  1
  K  K4  1  0.275913  0.028081  0.623444  1
  K  K5  1  0.775913  0.971919  0.876556  1
  K  K6  1  0.724087  0.528081  0.376556  1
  K  K7  1  0.224087  0.471919  0.123444  1
  Te  Te8  1  0.196030  0.750000  0.482760  1
  Te  Te9  1  0.696030  0.250000  0.017240  1
  Te  Te10  1  0.803970  0.250000  0.517240  1
  Te  Te11  1  0.303970  0.750000  0.982760  1
  Te  Te12  1  0.294824  0.750000  0.261460  1
  Te  Te13  1  0.794824  0.250000  0.238540  1
  Te  Te14  1  0.705176  0.250000  0.738540  1
  Te  Te15  1  0.205176  0.750000  0.761460  1
  Te  Te16  1  0.696584  0.750000  0.123190  1
  Te  Te17  1  0.196584  0.250000  0.376810  1
  Te  Te18  1  0.303416  0.250000  0.876810  1
  Te  Te19  1  0.803416  0.750000  0.623190  1
