# generated using pymatgen
data_GaAg(PSe3)2
_symmetry_space_group_name_H-M   'P 1'
_cell_length_a   6.45750155
_cell_length_b   6.45750155
_cell_length_c   14.95197570
_cell_angle_alpha   90.00000000
_cell_angle_beta   90.00000000
_cell_angle_gamma   120.00000000
_symmetry_Int_Tables_number   1
_chemical_formula_structural   GaAg(PSe3)2
_chemical_formula_sum   'Ga2 Ag2 P4 Se12'
_cell_volume   539.95585246
_cell_formula_units_Z   2
loop_
 _symmetry_equiv_pos_site_id
 _symmetry_equiv_pos_as_xyz
  1  'x, y, z'
loop_
 _atom_site_type_symbol
 _atom_site_label
 _atom_site_symmetry_multiplicity
 _atom_site_fract_x
 _atom_site_fract_y
 _atom_site_fract_z
 _atom_site_occupancy
  Ga  Ga0  1  0.000000  0.000000  0.250000  1
  Ga  Ga1  1  0.000000  0.000000  0.750000  1
  Ag  Ag2  1  0.333333  0.666667  0.750000  1
  Ag  Ag3  1  0.666667  0.333333  0.250000  1
  P  P4  1  0.666667  0.333333  0.674392  1
  P  P5  1  0.666667  0.333333  0.825608  1
  P  P6  1  0.333333  0.666667  0.325608  1
  P  P7  1  0.333333  0.666667  0.174392  1
  Se  Se8  1  0.681051  0.980381  0.134056  1
  Se  Se9  1  0.681051  0.700670  0.365944  1
  Se  Se10  1  0.299330  0.318949  0.134056  1
  Se  Se11  1  0.299330  0.980381  0.365944  1
  Se  Se12  1  0.700670  0.681051  0.865944  1
  Se  Se13  1  0.318949  0.019619  0.865944  1
  Se  Se14  1  0.980381  0.299330  0.865944  1
  Se  Se15  1  0.318949  0.299330  0.634056  1
  Se  Se16  1  0.980381  0.681051  0.634056  1
  Se  Se17  1  0.700670  0.019619  0.634056  1
  Se  Se18  1  0.019619  0.318949  0.365944  1
  Se  Se19  1  0.019619  0.700670  0.134056  1
