# generated using pymatgen
data_Er2Si2O7
_symmetry_space_group_name_H-M   'P 1'
_cell_length_a   4.74786917
_cell_length_b   10.81170994
_cell_length_c   5.58852201
_cell_angle_alpha   90.00000000
_cell_angle_beta   96.21273221
_cell_angle_gamma   90.00000000
_symmetry_Int_Tables_number   1
_chemical_formula_structural   Er2Si2O7
_chemical_formula_sum   'Er4 Si4 O14'
_cell_volume   285.18845301
_cell_formula_units_Z   2
loop_
 _symmetry_equiv_pos_site_id
 _symmetry_equiv_pos_as_xyz
  1  'x, y, z'
loop_
 _atom_site_type_symbol
 _atom_site_label
 _atom_site_symmetry_multiplicity
 _atom_site_fract_x
 _atom_site_fract_y
 _atom_site_fract_z
 _atom_site_occupancy
  Er  Er0  1  0.108724  0.151432  0.408078  1
  Er  Er1  1  0.891276  0.651432  0.091922  1
  Er  Er2  1  0.891276  0.848568  0.591922  1
  Er  Er3  1  0.108724  0.348568  0.908078  1
  Si  Si4  1  0.639860  0.112417  0.854798  1
  Si  Si5  1  0.360140  0.612417  0.645202  1
  Si  Si6  1  0.360140  0.887583  0.145202  1
  Si  Si7  1  0.639860  0.387583  0.354798  1
  O  O8  1  0.379851  0.202961  0.745227  1
  O  O9  1  0.620149  0.702961  0.754773  1
  O  O10  1  0.620149  0.797039  0.254773  1
  O  O11  1  0.379851  0.297039  0.245227  1
  O  O12  1  0.876796  0.183676  0.041191  1
  O  O13  1  0.123204  0.683676  0.458809  1
  O  O14  1  0.123204  0.816324  0.958809  1
  O  O15  1  0.876796  0.316324  0.541191  1
  O  O16  1  0.500000  0.500000  0.500000  1
  O  O17  1  0.500000  0.000000  0.000000  1
  O  O18  1  0.796885  0.449655  0.133381  1
  O  O19  1  0.203115  0.949655  0.366619  1
  O  O20  1  0.203115  0.550345  0.866619  1
  O  O21  1  0.796885  0.050345  0.633381  1
