# generated using pymatgen
data_Rb4SnO4
_symmetry_space_group_name_H-M   'P 1'
_cell_length_a   6.91074184
_cell_length_b   6.91654771
_cell_length_c   10.28380817
_cell_angle_alpha   71.68982341
_cell_angle_beta   79.62314907
_cell_angle_gamma   66.52660831
_symmetry_Int_Tables_number   1
_chemical_formula_structural   Rb4SnO4
_chemical_formula_sum   'Rb8 Sn2 O8'
_cell_volume   427.19025231
_cell_formula_units_Z   2
loop_
 _symmetry_equiv_pos_site_id
 _symmetry_equiv_pos_as_xyz
  1  'x, y, z'
loop_
 _atom_site_type_symbol
 _atom_site_label
 _atom_site_symmetry_multiplicity
 _atom_site_fract_x
 _atom_site_fract_y
 _atom_site_fract_z
 _atom_site_occupancy
  Rb  Rb0  1  0.745559  0.595075  0.163807  1
  Rb  Rb1  1  0.254441  0.404925  0.836193  1
  Rb  Rb2  1  0.758005  0.236404  0.973438  1
  Rb  Rb3  1  0.241995  0.763596  0.026562  1
  Rb  Rb4  1  0.273065  0.511156  0.439718  1
  Rb  Rb5  1  0.726935  0.488844  0.560282  1
  Rb  Rb6  1  0.778973  0.039301  0.382159  1
  Rb  Rb7  1  0.221027  0.960699  0.617841  1
  Sn  Sn8  1  0.726135  0.844649  0.752783  1
  Sn  Sn9  1  0.273865  0.155351  0.247217  1
  O  O10  1  0.870202  0.840382  0.905992  1
  O  O11  1  0.129798  0.159618  0.094008  1
  O  O12  1  0.039441  0.297451  0.373915  1
  O  O13  1  0.960559  0.702549  0.626085  1
  O  O14  1  0.456964  0.336044  0.189508  1
  O  O15  1  0.543036  0.663956  0.810492  1
  O  O16  1  0.450780  0.852174  0.350363  1
  O  O17  1  0.549220  0.147826  0.649637  1
