# generated using pymatgen
data_Mg3As2
_symmetry_space_group_name_H-M   'P 1'
_cell_length_a   4.30047282
_cell_length_b   4.30047282
_cell_length_c   6.76977453
_cell_angle_alpha   90.00000000
_cell_angle_beta   90.00000000
_cell_angle_gamma   120.00000000
_symmetry_Int_Tables_number   1
_chemical_formula_structural   Mg3As2
_chemical_formula_sum   'Mg3 As2'
_cell_volume   108.42695228
_cell_formula_units_Z   1
loop_
 _symmetry_equiv_pos_site_id
 _symmetry_equiv_pos_as_xyz
  1  'x, y, z'
loop_
 _atom_site_type_symbol
 _atom_site_label
 _atom_site_symmetry_multiplicity
 _atom_site_fract_x
 _atom_site_fract_y
 _atom_site_fract_z
 _atom_site_occupancy
  Mg  Mg0  1  0.666667  0.333333  0.358731  1
  Mg  Mg1  1  0.333333  0.666667  0.641269  1
  Mg  Mg2  1  0.000000  0.000000  0.000000  1
  As  As3  1  0.666667  0.333333  0.769579  1
  As  As4  1  0.333333  0.666667  0.230421  1
