# generated using pymatgen
data_KAs
_symmetry_space_group_name_H-M   'P 1'
_cell_length_a   6.56130699
_cell_length_b   6.80348931
_cell_length_c   11.76160068
_cell_angle_alpha   90.00000000
_cell_angle_beta   90.00000000
_cell_angle_gamma   90.00000000
_symmetry_Int_Tables_number   1
_chemical_formula_structural   KAs
_chemical_formula_sum   'K8 As8'
_cell_volume   525.03528993
_cell_formula_units_Z   8
loop_
 _symmetry_equiv_pos_site_id
 _symmetry_equiv_pos_as_xyz
  1  'x, y, z'
loop_
 _atom_site_type_symbol
 _atom_site_label
 _atom_site_symmetry_multiplicity
 _atom_site_fract_x
 _atom_site_fract_y
 _atom_site_fract_z
 _atom_site_occupancy
  K  K0  1  0.833712  0.351951  0.711007  1
  K  K1  1  0.333712  0.148049  0.288993  1
  K  K2  1  0.166288  0.851951  0.788993  1
  K  K3  1  0.666288  0.648049  0.211007  1
  K  K4  1  0.099625  0.606331  0.419096  1
  K  K5  1  0.599625  0.893669  0.580904  1
  K  K6  1  0.900375  0.106331  0.080904  1
  K  K7  1  0.400375  0.393669  0.919096  1
  As  As8  1  0.592859  0.435150  0.466898  1
  As  As9  1  0.092859  0.064850  0.533102  1
  As  As10  1  0.407141  0.935150  0.033102  1
  As  As11  1  0.907141  0.564850  0.966898  1
  As  As12  1  0.332156  0.319479  0.611644  1
  As  As13  1  0.832156  0.180521  0.388356  1
  As  As14  1  0.667844  0.819479  0.888356  1
  As  As15  1  0.167844  0.680521  0.111644  1
