# generated using pymatgen
data_Er3GaS6
_symmetry_space_group_name_H-M   'P 1'
_cell_length_a   8.47799208
_cell_length_b   8.47799208
_cell_length_c   6.42891086
_cell_angle_alpha   90.00000000
_cell_angle_beta   90.00000000
_cell_angle_gamma   102.43141230
_symmetry_Int_Tables_number   1
_chemical_formula_structural   Er3GaS6
_chemical_formula_sum   'Er6 Ga2 S12'
_cell_volume   451.25274838
_cell_formula_units_Z   2
loop_
 _symmetry_equiv_pos_site_id
 _symmetry_equiv_pos_as_xyz
  1  'x, y, z'
loop_
 _atom_site_type_symbol
 _atom_site_label
 _atom_site_symmetry_multiplicity
 _atom_site_fract_x
 _atom_site_fract_y
 _atom_site_fract_z
 _atom_site_occupancy
  Er  Er0  1  0.402608  0.597392  0.663349  1
  Er  Er1  1  0.597392  0.402608  0.163349  1
  Er  Er2  1  0.284254  0.085670  0.753303  1
  Er  Er3  1  0.715746  0.914330  0.253303  1
  Er  Er4  1  0.914329  0.715746  0.753303  1
  Er  Er5  1  0.085670  0.284254  0.253303  1
  Ga  Ga6  1  0.201094  0.798906  0.288896  1
  Ga  Ga7  1  0.798906  0.201094  0.788896  1
  S  S8  1  0.960390  0.039610  0.936432  1
  S  S9  1  0.039610  0.960390  0.436432  1
  S  S10  1  0.217412  0.782588  0.935376  1
  S  S11  1  0.782588  0.217412  0.435376  1
  S  S12  1  0.632210  0.693110  0.957164  1
  S  S13  1  0.367790  0.306890  0.457164  1
  S  S14  1  0.306890  0.367790  0.957164  1
  S  S15  1  0.693110  0.632210  0.457164  1
  S  S16  1  0.101665  0.565773  0.471206  1
  S  S17  1  0.898335  0.434227  0.971206  1
  S  S18  1  0.434227  0.898335  0.471206  1
  S  S19  1  0.565773  0.101665  0.971206  1
