# generated using pymatgen
data_BaAg2GeS4
_symmetry_space_group_name_H-M   'P 1'
_cell_length_a   6.38553882
_cell_length_b   6.38553882
_cell_length_c   6.38553882
_cell_angle_alpha   114.99617107
_cell_angle_beta   114.99617107
_cell_angle_gamma   98.91010413
_symmetry_Int_Tables_number   1
_chemical_formula_structural   BaAg2GeS4
_chemical_formula_sum   'Ba1 Ag2 Ge1 S4'
_cell_volume   195.46736139
_cell_formula_units_Z   1
loop_
 _symmetry_equiv_pos_site_id
 _symmetry_equiv_pos_as_xyz
  1  'x, y, z'
loop_
 _atom_site_type_symbol
 _atom_site_label
 _atom_site_symmetry_multiplicity
 _atom_site_fract_x
 _atom_site_fract_y
 _atom_site_fract_z
 _atom_site_occupancy
  Ba  Ba0  1  0.000000  0.000000  0.000000  1
  Ag  Ag1  1  0.750000  0.250000  0.500000  1
  Ag  Ag2  1  0.250000  0.750000  0.500000  1
  Ge  Ge3  1  0.500000  0.500000  0.000000  1
  S  S4  1  0.155527  0.533406  0.000000  1
  S  S5  1  0.466594  0.466594  0.622121  1
  S  S6  1  0.844473  0.844473  0.377879  1
  S  S7  1  0.533406  0.155527  1.000000  1
