# generated using pymatgen
data_NaNbN2
_symmetry_space_group_name_H-M   'P 1'
_cell_length_a   6.00045906
_cell_length_b   6.00045906
_cell_length_c   6.00045906
_cell_angle_alpha   30.43658245
_cell_angle_beta   30.43658245
_cell_angle_gamma   30.43658245
_symmetry_Int_Tables_number   1
_chemical_formula_structural   NaNbN2
_chemical_formula_sum   'Na1 Nb1 N2'
_cell_volume   49.14358232
_cell_formula_units_Z   1
loop_
 _symmetry_equiv_pos_site_id
 _symmetry_equiv_pos_as_xyz
  1  'x, y, z'
loop_
 _atom_site_type_symbol
 _atom_site_label
 _atom_site_symmetry_multiplicity
 _atom_site_fract_x
 _atom_site_fract_y
 _atom_site_fract_z
 _atom_site_occupancy
  Na  Na0  1  0.500000  0.500000  0.500000  1
  Nb  Nb1  1  0.000000  0.000000  0.000000  1
  N  N2  1  0.731628  0.731628  0.731628  1
  N  N3  1  0.268372  0.268372  0.268372  1
