# generated using pymatgen
data_RbBe2BO3F2
_symmetry_space_group_name_H-M   'P 1'
_cell_length_a   7.29378736
_cell_length_b   7.29378736
_cell_length_c   7.29378736
_cell_angle_alpha   35.70731728
_cell_angle_beta   35.70731728
_cell_angle_gamma   35.70731728
_symmetry_Int_Tables_number   1
_chemical_formula_structural   RbBe2BO3F2
_chemical_formula_sum   'Rb1 Be2 B1 O3 F2'
_cell_volume   118.16252582
_cell_formula_units_Z   1
loop_
 _symmetry_equiv_pos_site_id
 _symmetry_equiv_pos_as_xyz
  1  'x, y, z'
loop_
 _atom_site_type_symbol
 _atom_site_label
 _atom_site_symmetry_multiplicity
 _atom_site_fract_x
 _atom_site_fract_y
 _atom_site_fract_z
 _atom_site_occupancy
  Rb  Rb0  1  0.000000  0.000000  0.000000  1
  Be  Be1  1  0.805556  0.805556  0.805556  1
  Be  Be2  1  0.194444  0.194444  0.194444  1
  B  B3  1  0.500000  0.500000  0.500000  1
  O  O4  1  0.191252  0.808748  0.500000  1
  O  O5  1  0.500000  0.191252  0.808748  1
  O  O6  1  0.808748  0.500000  0.191252  1
  F  F7  1  0.729938  0.729938  0.729938  1
  F  F8  1  0.270062  0.270062  0.270062  1
