# generated using pymatgen
data_LiSO3F
_symmetry_space_group_name_H-M   'P 1'
_cell_length_a   5.77250687
_cell_length_b   5.77250687
_cell_length_c   5.30769569
_cell_angle_alpha   88.77908356
_cell_angle_beta   91.22091644
_cell_angle_gamma   96.48849177
_symmetry_Int_Tables_number   1
_chemical_formula_structural   LiSO3F
_chemical_formula_sum   'Li2 S2 O6 F2'
_cell_volume   175.65758923
_cell_formula_units_Z   2
loop_
 _symmetry_equiv_pos_site_id
 _symmetry_equiv_pos_as_xyz
  1  'x, y, z'
loop_
 _atom_site_type_symbol
 _atom_site_label
 _atom_site_symmetry_multiplicity
 _atom_site_fract_x
 _atom_site_fract_y
 _atom_site_fract_z
 _atom_site_occupancy
  Li  Li0  1  0.192884  0.192884  0.000000  1
  Li  Li1  1  0.807116  0.807116  0.000000  1
  S  S2  1  0.708062  0.291938  0.744428  1
  S  S3  1  0.291938  0.708062  0.255572  1
  O  O4  1  0.534436  0.785680  0.210684  1
  O  O5  1  0.785680  0.534436  0.789316  1
  O  O6  1  0.130624  0.869376  0.158373  1
  O  O7  1  0.869376  0.130624  0.841627  1
  O  O8  1  0.214320  0.465564  0.210684  1
  O  O9  1  0.465564  0.214320  0.789316  1
  F  F10  1  0.728454  0.271546  0.445767  1
  F  F11  1  0.271546  0.728454  0.554233  1
