# generated using pymatgen
data_RbCuO2
_symmetry_space_group_name_H-M   'P 1'
_cell_length_a   6.45671485
_cell_length_b   6.45671485
_cell_length_c   5.50584038
_cell_angle_alpha   90.00000000
_cell_angle_beta   90.00000000
_cell_angle_gamma   135.07252288
_symmetry_Int_Tables_number   1
_chemical_formula_structural   RbCuO2
_chemical_formula_sum   'Rb2 Cu2 O4'
_cell_volume   162.09940560
_cell_formula_units_Z   2
loop_
 _symmetry_equiv_pos_site_id
 _symmetry_equiv_pos_as_xyz
  1  'x, y, z'
loop_
 _atom_site_type_symbol
 _atom_site_label
 _atom_site_symmetry_multiplicity
 _atom_site_fract_x
 _atom_site_fract_y
 _atom_site_fract_z
 _atom_site_occupancy
  Rb  Rb0  1  0.690601  0.309399  0.250000  1
  Rb  Rb1  1  0.309399  0.690601  0.750000  1
  Cu  Cu2  1  0.002163  0.997837  0.750000  1
  Cu  Cu3  1  0.997837  0.002163  0.250000  1
  O  O4  1  0.103141  0.896859  0.495926  1
  O  O5  1  0.896859  0.103141  0.504074  1
  O  O6  1  0.103141  0.896859  0.004074  1
  O  O7  1  0.896859  0.103141  0.995926  1
