# generated using pymatgen
data_NaP
_symmetry_space_group_name_H-M   'P 1'
_cell_length_a   5.66955242
_cell_length_b   6.06442713
_cell_length_c   10.15822402
_cell_angle_alpha   90.00000000
_cell_angle_beta   90.00000000
_cell_angle_gamma   90.00000000
_symmetry_Int_Tables_number   1
_chemical_formula_structural   NaP
_chemical_formula_sum   'Na8 P8'
_cell_volume   349.26602632
_cell_formula_units_Z   8
loop_
 _symmetry_equiv_pos_site_id
 _symmetry_equiv_pos_as_xyz
  1  'x, y, z'
loop_
 _atom_site_type_symbol
 _atom_site_label
 _atom_site_symmetry_multiplicity
 _atom_site_fract_x
 _atom_site_fract_y
 _atom_site_fract_z
 _atom_site_occupancy
  Na  Na0  1  0.845241  0.335984  0.715521  1
  Na  Na1  1  0.345241  0.164016  0.284479  1
  Na  Na2  1  0.154759  0.835984  0.784479  1
  Na  Na3  1  0.654759  0.664016  0.215521  1
  Na  Na4  1  0.115783  0.614714  0.417918  1
  Na  Na5  1  0.615783  0.885286  0.582082  1
  Na  Na6  1  0.884217  0.114714  0.082082  1
  Na  Na7  1  0.384217  0.385286  0.917918  1
  P  P8  1  0.612857  0.442071  0.465445  1
  P  P9  1  0.112857  0.057929  0.534555  1
  P  P10  1  0.387143  0.942071  0.034555  1
  P  P11  1  0.887143  0.557929  0.965445  1
  P  P12  1  0.347405  0.320894  0.615551  1
  P  P13  1  0.847405  0.179106  0.384449  1
  P  P14  1  0.652595  0.820894  0.884449  1
  P  P15  1  0.152595  0.679106  0.115551  1
