# generated using pymatgen
data_Na3SbO4
_symmetry_space_group_name_H-M   'P 1'
_cell_length_a   5.51568625
_cell_length_b   6.67728984
_cell_length_c   5.87887512
_cell_angle_alpha   90.00000000
_cell_angle_beta   109.56722376
_cell_angle_gamma   90.00000000
_symmetry_Int_Tables_number   1
_chemical_formula_structural   Na3SbO4
_chemical_formula_sum   'Na6 Sb2 O8'
_cell_volume   204.01391577
_cell_formula_units_Z   2
loop_
 _symmetry_equiv_pos_site_id
 _symmetry_equiv_pos_as_xyz
  1  'x, y, z'
loop_
 _atom_site_type_symbol
 _atom_site_label
 _atom_site_symmetry_multiplicity
 _atom_site_fract_x
 _atom_site_fract_y
 _atom_site_fract_z
 _atom_site_occupancy
  Na  Na0  1  0.250000  0.614561  0.000000  1
  Na  Na1  1  0.750000  0.605710  0.500000  1
  Na  Na2  1  0.250000  0.874759  0.500000  1
  Na  Na3  1  0.750000  0.125241  0.500000  1
  Na  Na4  1  0.750000  0.385439  0.000000  1
  Na  Na5  1  0.250000  0.394290  0.500000  1
  Sb  Sb6  1  0.250000  0.130616  0.000000  1
  Sb  Sb7  1  0.750000  0.869384  0.000000  1
  O  O8  1  0.042829  0.332082  0.771946  1
  O  O9  1  0.457171  0.332082  0.228054  1
  O  O10  1  0.957171  0.667918  0.228054  1
  O  O11  1  0.542829  0.667918  0.771946  1
  O  O12  1  0.500111  0.096497  0.804348  1
  O  O13  1  0.999889  0.096497  0.195652  1
  O  O14  1  0.000111  0.903503  0.804348  1
  O  O15  1  0.499889  0.903503  0.195652  1
