# generated using pymatgen
data_Ca(GaO2)2
_symmetry_space_group_name_H-M   'P 1'
_cell_length_a   8.07387146
_cell_length_b   8.93786915
_cell_length_c   10.72860825
_cell_angle_alpha   90.00000000
_cell_angle_beta   94.86787134
_cell_angle_gamma   90.00000000
_symmetry_Int_Tables_number   1
_chemical_formula_structural   Ca(GaO2)2
_chemical_formula_sum   'Ca8 Ga16 O32'
_cell_volume   771.41822453
_cell_formula_units_Z   8
loop_
 _symmetry_equiv_pos_site_id
 _symmetry_equiv_pos_as_xyz
  1  'x, y, z'
loop_
 _atom_site_type_symbol
 _atom_site_label
 _atom_site_symmetry_multiplicity
 _atom_site_fract_x
 _atom_site_fract_y
 _atom_site_fract_z
 _atom_site_occupancy
  Ca  Ca0  1  0.000634  0.714738  0.128173  1
  Ca  Ca1  1  0.999366  0.214738  0.371827  1
  Ca  Ca2  1  0.999366  0.285262  0.871827  1
  Ca  Ca3  1  0.000634  0.785262  0.628173  1
  Ca  Ca4  1  0.462592  0.738978  0.144480  1
  Ca  Ca5  1  0.537408  0.238978  0.355520  1
  Ca  Ca6  1  0.537408  0.261022  0.855520  1
  Ca  Ca7  1  0.462592  0.761022  0.644480  1
  Ga  Ga8  1  0.765133  0.058160  0.130152  1
  Ga  Ga9  1  0.234867  0.558160  0.369848  1
  Ga  Ga10  1  0.234867  0.941840  0.869848  1
  Ga  Ga11  1  0.765133  0.441840  0.630152  1
  Ga  Ga12  1  0.175356  0.055924  0.138175  1
  Ga  Ga13  1  0.824644  0.555924  0.361825  1
  Ga  Ga14  1  0.824644  0.944076  0.861825  1
  Ga  Ga15  1  0.175356  0.444076  0.638175  1
  Ga  Ga16  1  0.300611  0.904499  0.389803  1
  Ga  Ga17  1  0.699389  0.404499  0.110197  1
  Ga  Ga18  1  0.699389  0.095501  0.610197  1
  Ga  Ga19  1  0.300611  0.595501  0.889803  1
  Ga  Ga20  1  0.709069  0.891704  0.383163  1
  Ga  Ga21  1  0.290931  0.391704  0.116837  1
  Ga  Ga22  1  0.290931  0.108296  0.616837  1
  Ga  Ga23  1  0.709069  0.608296  0.883163  1
  O  O24  1  0.972264  0.970805  0.171358  1
  O  O25  1  0.027736  0.470805  0.328642  1
  O  O26  1  0.027736  0.029195  0.828642  1
  O  O27  1  0.972264  0.529195  0.671358  1
  O  O28  1  0.232720  0.744021  0.285337  1
  O  O29  1  0.767280  0.244021  0.214663  1
  O  O30  1  0.767280  0.255979  0.714663  1
  O  O31  1  0.232720  0.755979  0.785337  1
  O  O32  1  0.274098  0.086272  0.302679  1
  O  O33  1  0.725902  0.586272  0.197321  1
  O  O34  1  0.725902  0.913728  0.697321  1
  O  O35  1  0.274098  0.413728  0.802679  1
  O  O36  1  0.791060  0.071595  0.456232  1
  O  O37  1  0.208940  0.571595  0.043768  1
  O  O38  1  0.208940  0.928405  0.543768  1
  O  O39  1  0.791060  0.428405  0.956232  1
  O  O40  1  0.512197  0.836798  0.447728  1
  O  O41  1  0.487803  0.336798  0.052272  1
  O  O42  1  0.487803  0.163202  0.552272  1
  O  O43  1  0.512197  0.663202  0.947728  1
  O  O44  1  0.862171  0.744045  0.430751  1
  O  O45  1  0.137829  0.244045  0.069249  1
  O  O46  1  0.137829  0.255955  0.569249  1
  O  O47  1  0.862171  0.755955  0.930751  1
  O  O48  1  0.630613  0.565844  0.717762  1
  O  O49  1  0.369387  0.065844  0.782238  1
  O  O50  1  0.369387  0.434156  0.282238  1
  O  O51  1  0.630613  0.934156  0.217762  1
  O  O52  1  0.277786  0.582575  0.540992  1
  O  O53  1  0.722214  0.082575  0.959008  1
  O  O54  1  0.722214  0.417425  0.459008  1
  O  O55  1  0.277786  0.917425  0.040992  1
