# generated using pymatgen
data_SeO2
_symmetry_space_group_name_H-M   'P 1'
_cell_length_a   8.71289833
_cell_length_b   8.71289833
_cell_length_c   5.20306999
_cell_angle_alpha   90.00000000
_cell_angle_beta   90.00000000
_cell_angle_gamma   90.00000000
_symmetry_Int_Tables_number   1
_chemical_formula_structural   SeO2
_chemical_formula_sum   'Se8 O16'
_cell_volume   394.98896306
_cell_formula_units_Z   8
loop_
 _symmetry_equiv_pos_site_id
 _symmetry_equiv_pos_as_xyz
  1  'x, y, z'
loop_
 _atom_site_type_symbol
 _atom_site_label
 _atom_site_symmetry_multiplicity
 _atom_site_fract_x
 _atom_site_fract_y
 _atom_site_fract_z
 _atom_site_occupancy
  Se  Se0  1  0.367377  0.287162  0.500000  1
  Se  Se1  1  0.632623  0.712838  0.500000  1
  Se  Se2  1  0.712838  0.367377  0.000000  1
  Se  Se3  1  0.287162  0.632623  0.000000  1
  Se  Se4  1  0.787162  0.867377  0.000000  1
  Se  Se5  1  0.867377  0.212838  0.500000  1
  Se  Se6  1  0.132623  0.787162  0.500000  1
  Se  Se7  1  0.212838  0.132623  0.000000  1
  O  O8  1  0.553877  0.320245  0.500000  1
  O  O9  1  0.446123  0.679755  0.500000  1
  O  O10  1  0.679755  0.553877  0.000000  1
  O  O11  1  0.320245  0.446123  0.000000  1
  O  O12  1  0.820245  0.053877  0.000000  1
  O  O13  1  0.053877  0.179755  0.500000  1
  O  O14  1  0.946123  0.820245  0.500000  1
  O  O15  1  0.179755  0.946123  0.000000  1
  O  O16  1  0.361913  0.138087  0.250000  1
  O  O17  1  0.138087  0.638087  0.750000  1
  O  O18  1  0.861913  0.361913  0.750000  1
  O  O19  1  0.638087  0.861913  0.250000  1
  O  O20  1  0.638087  0.861913  0.750000  1
  O  O21  1  0.861913  0.361913  0.250000  1
  O  O22  1  0.138087  0.638087  0.250000  1
  O  O23  1  0.361913  0.138087  0.750000  1
