# generated using pymatgen
data_Rb2S3
_symmetry_space_group_name_H-M   'P 1'
_cell_length_a   6.54443791
_cell_length_b   6.54443791
_cell_length_c   7.95987669
_cell_angle_alpha   90.00000000
_cell_angle_beta   90.00000000
_cell_angle_gamma   109.41744343
_symmetry_Int_Tables_number   1
_chemical_formula_structural   Rb2S3
_chemical_formula_sum   'Rb4 S6'
_cell_volume   321.52791441
_cell_formula_units_Z   2
loop_
 _symmetry_equiv_pos_site_id
 _symmetry_equiv_pos_as_xyz
  1  'x, y, z'
loop_
 _atom_site_type_symbol
 _atom_site_label
 _atom_site_symmetry_multiplicity
 _atom_site_fract_x
 _atom_site_fract_y
 _atom_site_fract_z
 _atom_site_occupancy
  Rb  Rb0  1  0.579928  0.420072  0.190929  1
  Rb  Rb1  1  0.420072  0.579928  0.690929  1
  Rb  Rb2  1  0.106150  0.893850  0.461926  1
  Rb  Rb3  1  0.893850  0.106150  0.961926  1
  S  S4  1  0.066225  0.382059  0.348291  1
  S  S5  1  0.933775  0.617941  0.848291  1
  S  S6  1  0.617941  0.933775  0.348291  1
  S  S7  1  0.382059  0.066225  0.848291  1
  S  S8  1  0.199646  0.800354  0.993163  1
  S  S9  1  0.800354  0.199646  0.493163  1
