# generated using pymatgen
data_YbOF
_symmetry_space_group_name_H-M   'P 1'
_cell_length_a   3.70436490
_cell_length_b   3.70436490
_cell_length_c   5.64232885
_cell_angle_alpha   84.60518997
_cell_angle_beta   95.39481003
_cell_angle_gamma   97.26304377
_symmetry_Int_Tables_number   1
_chemical_formula_structural   YbOF
_chemical_formula_sum   'Yb2 O2 F2'
_cell_volume   76.19949473
_cell_formula_units_Z   2
loop_
 _symmetry_equiv_pos_site_id
 _symmetry_equiv_pos_as_xyz
  1  'x, y, z'
loop_
 _atom_site_type_symbol
 _atom_site_label
 _atom_site_symmetry_multiplicity
 _atom_site_fract_x
 _atom_site_fract_y
 _atom_site_fract_z
 _atom_site_occupancy
  Yb  Yb0  1  0.231814  0.768186  0.758545  1
  Yb  Yb1  1  0.768186  0.231814  0.241455  1
  O  O2  1  0.344975  0.344975  0.500000  1
  O  O3  1  0.655025  0.655025  0.500000  1
  F  F4  1  0.246967  0.246967  0.000000  1
  F  F5  1  0.753033  0.753033  0.000000  1
