# generated using pymatgen
data_Li2CaGeO4
_symmetry_space_group_name_H-M   'P 1'
_cell_length_a   4.99717968
_cell_length_b   4.99717968
_cell_length_c   4.99717968
_cell_angle_alpha   117.84450637
_cell_angle_beta   117.84450637
_cell_angle_gamma   93.77581682
_symmetry_Int_Tables_number   1
_chemical_formula_structural   Li2CaGeO4
_chemical_formula_sum   'Li2 Ca1 Ge1 O4'
_cell_volume   90.90018692
_cell_formula_units_Z   1
loop_
 _symmetry_equiv_pos_site_id
 _symmetry_equiv_pos_as_xyz
  1  'x, y, z'
loop_
 _atom_site_type_symbol
 _atom_site_label
 _atom_site_symmetry_multiplicity
 _atom_site_fract_x
 _atom_site_fract_y
 _atom_site_fract_z
 _atom_site_occupancy
  Li  Li0  1  0.750000  0.250000  0.500000  1
  Li  Li1  1  0.250000  0.750000  0.500000  1
  Ca  Ca2  1  1.000000  0.000000  0.000000  1
  Ge  Ge3  1  0.500000  0.500000  0.000000  1
  O  O4  1  0.848293  0.440857  1.000000  1
  O  O5  1  0.440857  0.848293  0.000000  1
  O  O6  1  0.559143  0.559143  0.407437  1
  O  O7  1  0.151707  0.151707  0.592563  1
