# generated using pymatgen
data_TlF
_symmetry_space_group_name_H-M   'P 1'
_cell_length_a   5.23739053
_cell_length_b   5.81735212
_cell_length_c   6.38638927
_cell_angle_alpha   90.00000000
_cell_angle_beta   90.00000000
_cell_angle_gamma   90.00000000
_symmetry_Int_Tables_number   1
_chemical_formula_structural   TlF
_chemical_formula_sum   'Tl4 F4'
_cell_volume   194.57887913
_cell_formula_units_Z   4
loop_
 _symmetry_equiv_pos_site_id
 _symmetry_equiv_pos_as_xyz
  1  'x, y, z'
loop_
 _atom_site_type_symbol
 _atom_site_label
 _atom_site_symmetry_multiplicity
 _atom_site_fract_x
 _atom_site_fract_y
 _atom_site_fract_z
 _atom_site_occupancy
  Tl  Tl0  1  0.250000  0.502173  0.242233  1
  Tl  Tl1  1  0.750000  0.497827  0.757767  1
  Tl  Tl2  1  0.250000  0.002173  0.757767  1
  Tl  Tl3  1  0.750000  0.997827  0.242233  1
  F  F4  1  0.250000  0.576409  0.857377  1
  F  F5  1  0.750000  0.423591  0.142623  1
  F  F6  1  0.250000  0.076409  0.142623  1
  F  F7  1  0.750000  0.923591  0.857377  1
