# generated using pymatgen
data_Ho2Be2SiO7
_symmetry_space_group_name_H-M   'P 1'
_cell_length_a   7.31347043
_cell_length_b   7.31347043
_cell_length_c   4.77784679
_cell_angle_alpha   90.00000000
_cell_angle_beta   90.00000000
_cell_angle_gamma   90.00000000
_symmetry_Int_Tables_number   1
_chemical_formula_structural   Ho2Be2SiO7
_chemical_formula_sum   'Ho4 Be4 Si2 O14'
_cell_volume   255.55197329
_cell_formula_units_Z   2
loop_
 _symmetry_equiv_pos_site_id
 _symmetry_equiv_pos_as_xyz
  1  'x, y, z'
loop_
 _atom_site_type_symbol
 _atom_site_label
 _atom_site_symmetry_multiplicity
 _atom_site_fract_x
 _atom_site_fract_y
 _atom_site_fract_z
 _atom_site_occupancy
  Ho  Ho0  1  0.841421  0.658579  0.491628  1
  Ho  Ho1  1  0.341421  0.841421  0.508372  1
  Ho  Ho2  1  0.658579  0.158579  0.508372  1
  Ho  Ho3  1  0.158579  0.341421  0.491628  1
  Be  Be4  1  0.136905  0.636905  0.958981  1
  Be  Be5  1  0.636905  0.863095  0.041019  1
  Be  Be6  1  0.863095  0.363095  0.958981  1
  Be  Be7  1  0.363095  0.136905  0.041019  1
  Si  Si8  1  0.500000  0.500000  0.000000  1
  Si  Si9  1  0.000000  0.000000  0.000000  1
  O  O10  1  0.858596  0.358596  0.291807  1
  O  O11  1  0.358596  0.141404  0.708193  1
  O  O12  1  0.141404  0.641404  0.291807  1
  O  O13  1  0.641404  0.858596  0.708193  1
  O  O14  1  0.500000  0.000000  0.183702  1
  O  O15  1  0.000000  0.500000  0.816298  1
  O  O16  1  0.082464  0.837453  0.799042  1
  O  O17  1  0.162547  0.082464  0.200958  1
  O  O18  1  0.837453  0.917536  0.200958  1
  O  O19  1  0.917536  0.162547  0.799042  1
  O  O20  1  0.582464  0.662547  0.200958  1
  O  O21  1  0.417536  0.337453  0.200958  1
  O  O22  1  0.337453  0.582464  0.799042  1
  O  O23  1  0.662547  0.417536  0.799042  1
