# generated using pymatgen
data_MgGeN2
_symmetry_space_group_name_H-M   'P 1'
_cell_length_a   5.22588691
_cell_length_b   5.55121863
_cell_length_c   6.66769818
_cell_angle_alpha   90.00000000
_cell_angle_beta   90.00000000
_cell_angle_gamma   90.00000000
_symmetry_Int_Tables_number   1
_chemical_formula_structural   MgGeN2
_chemical_formula_sum   'Mg4 Ge4 N8'
_cell_volume   193.43019606
_cell_formula_units_Z   4
loop_
 _symmetry_equiv_pos_site_id
 _symmetry_equiv_pos_as_xyz
  1  'x, y, z'
loop_
 _atom_site_type_symbol
 _atom_site_label
 _atom_site_symmetry_multiplicity
 _atom_site_fract_x
 _atom_site_fract_y
 _atom_site_fract_z
 _atom_site_occupancy
  Mg  Mg0  1  0.000163  0.584850  0.876651  1
  Mg  Mg1  1  0.500163  0.915150  0.376651  1
  Mg  Mg2  1  0.500163  0.415150  0.123349  1
  Mg  Mg3  1  0.000163  0.084850  0.623349  1
  Ge  Ge4  1  0.007451  0.073351  0.125736  1
  Ge  Ge5  1  0.507451  0.926649  0.874264  1
  Ge  Ge6  1  0.507451  0.426649  0.625736  1
  Ge  Ge7  1  0.007451  0.573351  0.374264  1
  N  N8  1  0.405372  0.600606  0.856411  1
  N  N9  1  0.905372  0.399394  0.143589  1
  N  N10  1  0.905372  0.899394  0.356411  1
  N  N11  1  0.405372  0.100606  0.643589  1
  N  N12  1  0.367014  0.560096  0.393130  1
  N  N13  1  0.367014  0.060096  0.106870  1
  N  N14  1  0.867014  0.939904  0.893130  1
  N  N15  1  0.867014  0.439904  0.606870  1
