# generated using pymatgen
data_Ba3SiO5
_symmetry_space_group_name_H-M   'P 1'
_cell_length_a   7.73640507
_cell_length_b   7.73640507
_cell_length_c   7.73640507
_cell_angle_alpha   122.76449167
_cell_angle_beta   122.76449167
_cell_angle_gamma   85.27494334
_symmetry_Int_Tables_number   1
_chemical_formula_structural   Ba3SiO5
_chemical_formula_sum   'Ba6 Si2 O10'
_cell_volume   312.57691073
_cell_formula_units_Z   2
loop_
 _symmetry_equiv_pos_site_id
 _symmetry_equiv_pos_as_xyz
  1  'x, y, z'
loop_
 _atom_site_type_symbol
 _atom_site_label
 _atom_site_symmetry_multiplicity
 _atom_site_fract_x
 _atom_site_fract_y
 _atom_site_fract_z
 _atom_site_occupancy
  Ba  Ba0  1  0.316891  0.816891  0.133782  1
  Ba  Ba1  1  0.816891  0.683109  0.500000  1
  Ba  Ba2  1  0.183109  0.316891  0.500000  1
  Ba  Ba3  1  0.683109  0.183109  0.866218  1
  Ba  Ba4  1  0.750000  0.750000  0.000000  1
  Ba  Ba5  1  0.250000  0.250000  0.000000  1
  Si  Si6  1  0.250000  0.750000  0.500000  1
  Si  Si7  1  0.750000  0.250000  0.500000  1
  O  O8  1  0.711029  0.211029  0.246948  1
  O  O9  1  0.035919  0.535919  0.246948  1
  O  O10  1  0.288971  0.788971  0.753052  1
  O  O11  1  0.788971  0.035919  0.500000  1
  O  O12  1  0.535919  0.288971  0.500000  1
  O  O13  1  0.211029  0.964081  0.500000  1
  O  O14  1  0.464081  0.711029  0.500000  1
  O  O15  1  0.964081  0.464081  0.753052  1
  O  O16  1  1.000000  1.000000  0.000000  1
  O  O17  1  0.500000  0.500000  0.000000  1
