# generated using pymatgen
data_Rb2PtS2
_symmetry_space_group_name_H-M   'P 1'
_cell_length_a   6.49017177
_cell_length_b   6.49017177
_cell_length_c   6.49017177
_cell_angle_alpha   146.95766199
_cell_angle_beta   110.71058796
_cell_angle_gamma   78.93540315
_symmetry_Int_Tables_number   1
_chemical_formula_structural   Rb2PtS2
_chemical_formula_sum   'Rb2 Pt1 S2'
_cell_volume   136.47060038
_cell_formula_units_Z   1
loop_
 _symmetry_equiv_pos_site_id
 _symmetry_equiv_pos_as_xyz
  1  'x, y, z'
loop_
 _atom_site_type_symbol
 _atom_site_label
 _atom_site_symmetry_multiplicity
 _atom_site_fract_x
 _atom_site_fract_y
 _atom_site_fract_z
 _atom_site_occupancy
  Rb  Rb0  1  0.307384  0.807384  0.500000  1
  Rb  Rb1  1  0.692616  0.192616  0.500000  1
  Pt  Pt2  1  0.000000  0.000000  0.000000  1
  S  S3  1  0.793137  0.500000  0.293137  1
  S  S4  1  0.206863  0.500000  0.706863  1
