# generated using pymatgen
data_CaMgAsO4F
_symmetry_space_group_name_H-M   'P 1'
_cell_length_a   5.66529277
_cell_length_b   5.66529277
_cell_length_c   7.20614294
_cell_angle_alpha   76.10575457
_cell_angle_beta   103.89424543
_cell_angle_gamma   73.84957461
_symmetry_Int_Tables_number   1
_chemical_formula_structural   CaMgAsO4F
_chemical_formula_sum   'Ca2 Mg2 As2 O8 F2'
_cell_volume   203.63893762
_cell_formula_units_Z   2
loop_
 _symmetry_equiv_pos_site_id
 _symmetry_equiv_pos_as_xyz
  1  'x, y, z'
loop_
 _atom_site_type_symbol
 _atom_site_label
 _atom_site_symmetry_multiplicity
 _atom_site_fract_x
 _atom_site_fract_y
 _atom_site_fract_z
 _atom_site_occupancy
  Ca  Ca0  1  0.668262  0.668262  0.750000  1
  Ca  Ca1  1  0.331738  0.331738  0.250000  1
  Mg  Mg2  1  1.000000  0.000000  0.000000  1
  Mg  Mg3  1  1.000000  0.000000  0.500000  1
  As  As4  1  0.321805  0.321805  0.750000  1
  As  As5  1  0.678195  0.678195  0.250000  1
  O  O6  1  0.619456  0.260872  0.921716  1
  O  O7  1  0.260872  0.619456  0.578284  1
  O  O8  1  0.897959  0.671924  0.119652  1
  O  O9  1  0.671924  0.897959  0.380348  1
  O  O10  1  0.102041  0.328076  0.880348  1
  O  O11  1  0.328076  0.102041  0.619652  1
  O  O12  1  0.380544  0.739128  0.078284  1
  O  O13  1  0.739128  0.380544  0.421716  1
  F  F14  1  0.918289  0.918289  0.750000  1
  F  F15  1  0.081711  0.081711  0.250000  1
