# generated using pymatgen
data_Ca4Al6O13
_symmetry_space_group_name_H-M   'P 1'
_cell_length_a   7.68589309
_cell_length_b   7.68589309
_cell_length_c   7.68589309
_cell_angle_alpha   109.47122063
_cell_angle_beta   109.47122063
_cell_angle_gamma   109.47122063
_symmetry_Int_Tables_number   1
_chemical_formula_structural   Ca4Al6O13
_chemical_formula_sum   'Ca4 Al6 O13'
_cell_volume   349.51122443
_cell_formula_units_Z   1
loop_
 _symmetry_equiv_pos_site_id
 _symmetry_equiv_pos_as_xyz
  1  'x, y, z'
loop_
 _atom_site_type_symbol
 _atom_site_label
 _atom_site_symmetry_multiplicity
 _atom_site_fract_x
 _atom_site_fract_y
 _atom_site_fract_z
 _atom_site_occupancy
  Ca  Ca0  1  1.000000  1.000000  0.692218  1
  Ca  Ca1  1  1.000000  0.692218  0.000000  1
  Ca  Ca2  1  0.692218  1.000000  0.000000  1
  Ca  Ca3  1  0.307782  0.307782  0.307782  1
  Al  Al4  1  0.500000  0.750000  0.250000  1
  Al  Al5  1  0.250000  0.750000  0.500000  1
  Al  Al6  1  0.750000  0.250000  0.500000  1
  Al  Al7  1  0.250000  0.500000  0.750000  1
  Al  Al8  1  0.750000  0.500000  0.250000  1
  Al  Al9  1  0.500000  0.250000  0.750000  1
  O  O10  1  0.000000  0.000000  0.000000  1
  O  O11  1  0.549193  0.549193  0.278963  1
  O  O12  1  0.270230  0.721037  0.270230  1
  O  O13  1  0.721037  0.270230  0.270230  1
  O  O14  1  1.000000  0.729770  0.450807  1
  O  O15  1  0.729770  1.000000  0.450807  1
  O  O16  1  0.450807  1.000000  0.729770  1
  O  O17  1  0.549193  0.278963  0.549193  1
  O  O18  1  0.278963  0.549193  0.549193  1
  O  O19  1  1.000000  0.450807  0.729770  1
  O  O20  1  0.270230  0.270230  0.721037  1
  O  O21  1  0.729770  0.450807  1.000000  1
  O  O22  1  0.450807  0.729770  0.000000  1
