# generated using pymatgen
data_ZnAs2
_symmetry_space_group_name_H-M   'P 1'
_cell_length_a   8.14417808
_cell_length_b   7.80152144
_cell_length_c   9.40739515
_cell_angle_alpha   90.00000000
_cell_angle_beta   102.50070220
_cell_angle_gamma   90.00000000
_symmetry_Int_Tables_number   1
_chemical_formula_structural   ZnAs2
_chemical_formula_sum   'Zn8 As16'
_cell_volume   583.54759995
_cell_formula_units_Z   8
loop_
 _symmetry_equiv_pos_site_id
 _symmetry_equiv_pos_as_xyz
  1  'x, y, z'
loop_
 _atom_site_type_symbol
 _atom_site_label
 _atom_site_symmetry_multiplicity
 _atom_site_fract_x
 _atom_site_fract_y
 _atom_site_fract_z
 _atom_site_occupancy
  Zn  Zn0  1  0.605605  0.251318  0.919187  1
  Zn  Zn1  1  0.894395  0.751318  0.080813  1
  Zn  Zn2  1  0.394395  0.748682  0.080813  1
  Zn  Zn3  1  0.105605  0.248682  0.919187  1
  Zn  Zn4  1  0.777060  0.899317  0.611261  1
  Zn  Zn5  1  0.722940  0.399317  0.388739  1
  Zn  Zn6  1  0.222940  0.100683  0.388739  1
  Zn  Zn7  1  0.277060  0.600683  0.611261  1
  As  As8  1  0.780575  0.575767  0.614890  1
  As  As9  1  0.719425  0.075767  0.385110  1
  As  As10  1  0.219425  0.424233  0.385110  1
  As  As11  1  0.280575  0.924233  0.614890  1
  As  As12  1  0.567147  0.988096  0.761816  1
  As  As13  1  0.932853  0.488096  0.238184  1
  As  As14  1  0.432853  0.011904  0.238184  1
  As  As15  1  0.067147  0.511904  0.761816  1
  As  As16  1  0.563740  0.508779  0.756844  1
  As  As17  1  0.936260  0.008779  0.243156  1
  As  As18  1  0.436260  0.491221  0.243156  1
  As  As19  1  0.063740  0.991221  0.756844  1
  As  As20  1  0.607598  0.745370  0.932620  1
  As  As21  1  0.892402  0.245370  0.067380  1
  As  As22  1  0.392402  0.254630  0.067380  1
  As  As23  1  0.107598  0.754630  0.932620  1
