# generated using pymatgen
data_LiAs
_symmetry_space_group_name_H-M   'P 1'
_cell_length_a   5.82542719
_cell_length_b   5.28096512
_cell_length_c   10.77639717
_cell_angle_alpha   90.00000000
_cell_angle_beta   117.96331186
_cell_angle_gamma   90.00000000
_symmetry_Int_Tables_number   1
_chemical_formula_structural   LiAs
_chemical_formula_sum   'Li8 As8'
_cell_volume   292.81771221
_cell_formula_units_Z   8
loop_
 _symmetry_equiv_pos_site_id
 _symmetry_equiv_pos_as_xyz
  1  'x, y, z'
loop_
 _atom_site_type_symbol
 _atom_site_label
 _atom_site_symmetry_multiplicity
 _atom_site_fract_x
 _atom_site_fract_y
 _atom_site_fract_z
 _atom_site_occupancy
  Li  Li0  1  0.229028  0.167211  0.551800  1
  Li  Li1  1  0.770972  0.667211  0.948200  1
  Li  Li2  1  0.770972  0.832789  0.448200  1
  Li  Li3  1  0.229028  0.332789  0.051800  1
  Li  Li4  1  0.235982  0.915068  0.828661  1
  Li  Li5  1  0.764018  0.415068  0.671339  1
  Li  Li6  1  0.764018  0.084932  0.171339  1
  Li  Li7  1  0.235982  0.584932  0.328661  1
  As  As8  1  0.286096  0.665858  0.598966  1
  As  As9  1  0.713904  0.165858  0.901034  1
  As  As10  1  0.713904  0.334142  0.401034  1
  As  As11  1  0.286096  0.834142  0.098966  1
  As  As12  1  0.301686  0.422309  0.801306  1
  As  As13  1  0.698314  0.922309  0.698694  1
  As  As14  1  0.698314  0.577691  0.198694  1
  As  As15  1  0.301686  0.077691  0.301306  1
