# generated using pymatgen
data_MgAs4
_symmetry_space_group_name_H-M   'P 1'
_cell_length_a   5.47397903
_cell_length_b   5.47397903
_cell_length_c   16.09975977
_cell_angle_alpha   90.00000000
_cell_angle_beta   90.00000000
_cell_angle_gamma   90.00000000
_symmetry_Int_Tables_number   1
_chemical_formula_structural   MgAs4
_chemical_formula_sum   'Mg4 As16'
_cell_volume   482.42038902
_cell_formula_units_Z   4
loop_
 _symmetry_equiv_pos_site_id
 _symmetry_equiv_pos_as_xyz
  1  'x, y, z'
loop_
 _atom_site_type_symbol
 _atom_site_label
 _atom_site_symmetry_multiplicity
 _atom_site_fract_x
 _atom_site_fract_y
 _atom_site_fract_z
 _atom_site_occupancy
  Mg  Mg0  1  0.803141  0.803141  0.500000  1
  Mg  Mg1  1  0.696859  0.303141  0.750000  1
  Mg  Mg2  1  0.303141  0.696859  0.250000  1
  Mg  Mg3  1  0.196859  0.196859  0.000000  1
  As  As4  1  0.400573  0.476069  0.875007  1
  As  As5  1  0.900573  0.023931  0.874993  1
  As  As6  1  0.976069  0.099427  0.625007  1
  As  As7  1  0.023931  0.900573  0.125007  1
  As  As8  1  0.675566  0.067033  0.202756  1
  As  As9  1  0.432967  0.175566  0.452756  1
  As  As10  1  0.567033  0.824434  0.952756  1
  As  As11  1  0.175566  0.432967  0.547244  1
  As  As12  1  0.824434  0.567033  0.047244  1
  As  As13  1  0.324434  0.932967  0.702756  1
  As  As14  1  0.067033  0.675566  0.797244  1
  As  As15  1  0.932967  0.324434  0.297244  1
  As  As16  1  0.599427  0.523931  0.375007  1
  As  As17  1  0.476069  0.400573  0.124993  1
  As  As18  1  0.523931  0.599427  0.624993  1
  As  As19  1  0.099427  0.976069  0.374993  1
