# generated using pymatgen
data_RbNaSnF6
_symmetry_space_group_name_H-M   'P 1'
_cell_length_a   8.33737745
_cell_length_b   11.17223788
_cell_length_c   13.38458990
_cell_angle_alpha   90.00000000
_cell_angle_beta   90.00000000
_cell_angle_gamma   90.00000000
_symmetry_Int_Tables_number   1
_chemical_formula_structural   RbNaSnF6
_chemical_formula_sum   'Rb8 Na8 Sn8 F48'
_cell_volume   1246.73659272
_cell_formula_units_Z   8
loop_
 _symmetry_equiv_pos_site_id
 _symmetry_equiv_pos_as_xyz
  1  'x, y, z'
loop_
 _atom_site_type_symbol
 _atom_site_label
 _atom_site_symmetry_multiplicity
 _atom_site_fract_x
 _atom_site_fract_y
 _atom_site_fract_z
 _atom_site_occupancy
  Rb  Rb0  1  0.500000  0.750000  0.575035  1
  Rb  Rb1  1  0.000000  0.250000  0.924965  1
  Rb  Rb2  1  0.500000  0.250000  0.424965  1
  Rb  Rb3  1  0.000000  0.750000  0.075035  1
  Rb  Rb4  1  0.000000  0.750000  0.631483  1
  Rb  Rb5  1  0.500000  0.250000  0.868517  1
  Rb  Rb6  1  0.000000  0.250000  0.368517  1
  Rb  Rb7  1  0.500000  0.750000  0.131483  1
  Na  Na8  1  0.754975  0.075077  0.642539  1
  Na  Na9  1  0.254975  0.924923  0.857461  1
  Na  Na10  1  0.745025  0.575077  0.857461  1
  Na  Na11  1  0.245025  0.424923  0.642539  1
  Na  Na12  1  0.245025  0.924923  0.357461  1
  Na  Na13  1  0.745025  0.075077  0.142539  1
  Na  Na14  1  0.254975  0.424923  0.142539  1
  Na  Na15  1  0.754975  0.575077  0.357461  1
  Sn  Sn16  1  0.751050  0.425410  0.135136  1
  Sn  Sn17  1  0.251050  0.574590  0.364864  1
  Sn  Sn18  1  0.748950  0.925410  0.364864  1
  Sn  Sn19  1  0.248950  0.074590  0.135136  1
  Sn  Sn20  1  0.248950  0.574590  0.864864  1
  Sn  Sn21  1  0.748950  0.425410  0.635136  1
  Sn  Sn22  1  0.251050  0.074590  0.635136  1
  Sn  Sn23  1  0.751050  0.925410  0.864864  1
  F  F24  1  0.710464  0.876439  0.722325  1
  F  F25  1  0.210464  0.123561  0.777675  1
  F  F26  1  0.789536  0.376439  0.777675  1
  F  F27  1  0.289536  0.623561  0.722325  1
  F  F28  1  0.289536  0.123561  0.277675  1
  F  F29  1  0.789536  0.876439  0.222325  1
  F  F30  1  0.210464  0.623561  0.222325  1
  F  F31  1  0.710464  0.376439  0.277675  1
  F  F32  1  0.811398  0.978434  0.002346  1
  F  F33  1  0.311398  0.021566  0.497654  1
  F  F34  1  0.688602  0.478434  0.497654  1
  F  F35  1  0.188602  0.521566  0.002346  1
  F  F36  1  0.188602  0.021566  0.997654  1
  F  F37  1  0.688602  0.978434  0.502346  1
  F  F38  1  0.311398  0.521566  0.502346  1
  F  F39  1  0.811398  0.478434  0.997654  1
  F  F40  1  0.981101  0.883514  0.839760  1
  F  F41  1  0.521391  0.970461  0.883945  1
  F  F42  1  0.481101  0.116486  0.660240  1
  F  F43  1  0.018899  0.616486  0.839760  1
  F  F44  1  0.018899  0.116486  0.160240  1
  F  F45  1  0.518899  0.883514  0.339760  1
  F  F46  1  0.481101  0.616486  0.339760  1
  F  F47  1  0.981101  0.383514  0.160240  1
  F  F48  1  0.788218  0.762248  0.423723  1
  F  F49  1  0.288218  0.237752  0.076277  1
  F  F50  1  0.711782  0.262248  0.076277  1
  F  F51  1  0.211782  0.737752  0.423723  1
  F  F52  1  0.211782  0.237752  0.576277  1
  F  F53  1  0.711782  0.762248  0.923723  1
  F  F54  1  0.288218  0.737752  0.923723  1
  F  F55  1  0.788218  0.262248  0.576277  1
  F  F56  1  0.785292  0.594925  0.184432  1
  F  F57  1  0.285292  0.405075  0.315568  1
  F  F58  1  0.714708  0.094925  0.315568  1
  F  F59  1  0.214708  0.905075  0.184432  1
  F  F60  1  0.214708  0.405075  0.815568  1
  F  F61  1  0.714708  0.594925  0.684432  1
  F  F62  1  0.285292  0.905075  0.684432  1
  F  F63  1  0.785292  0.094925  0.815568  1
  F  F64  1  0.521391  0.470461  0.116055  1
  F  F65  1  0.021391  0.529539  0.383945  1
  F  F66  1  0.978609  0.970461  0.383945  1
  F  F67  1  0.478609  0.029539  0.116055  1
  F  F68  1  0.478609  0.529539  0.883945  1
  F  F69  1  0.978609  0.470461  0.616055  1
  F  F70  1  0.021391  0.029539  0.616055  1
  F  F71  1  0.518899  0.383514  0.660240  1
