# generated using pymatgen
data_Ba3NaNbO6
_symmetry_space_group_name_H-M   'P 1'
_cell_length_a   7.24252663
_cell_length_b   7.24252663
_cell_length_c   7.24252663
_cell_angle_alpha   91.89354262
_cell_angle_beta   91.89354262
_cell_angle_gamma   91.89354262
_symmetry_Int_Tables_number   1
_chemical_formula_structural   Ba3NaNbO6
_chemical_formula_sum   'Ba6 Na2 Nb2 O12'
_cell_volume   379.26447446
_cell_formula_units_Z   2
loop_
 _symmetry_equiv_pos_site_id
 _symmetry_equiv_pos_as_xyz
  1  'x, y, z'
loop_
 _atom_site_type_symbol
 _atom_site_label
 _atom_site_symmetry_multiplicity
 _atom_site_fract_x
 _atom_site_fract_y
 _atom_site_fract_z
 _atom_site_occupancy
  Ba  Ba0  1  0.102255  0.750000  0.397745  1
  Ba  Ba1  1  0.397745  0.102255  0.750000  1
  Ba  Ba2  1  0.750000  0.397745  0.102255  1
  Ba  Ba3  1  0.897745  0.250000  0.602255  1
  Ba  Ba4  1  0.602255  0.897745  0.250000  1
  Ba  Ba5  1  0.250000  0.602255  0.897745  1
  Na  Na6  1  0.250000  0.250000  0.250000  1
  Na  Na7  1  0.750000  0.750000  0.750000  1
  Nb  Nb8  1  1.000000  0.000000  0.000000  1
  Nb  Nb9  1  0.500000  0.500000  0.500000  1
  O  O10  1  0.422655  0.550678  0.232102  1
  O  O11  1  0.232102  0.422655  0.550678  1
  O  O12  1  0.550678  0.232102  0.422655  1
  O  O13  1  0.267898  0.949322  0.077345  1
  O  O14  1  0.077345  0.267898  0.949322  1
  O  O15  1  0.949322  0.077345  0.267898  1
  O  O16  1  0.577345  0.449322  0.767898  1
  O  O17  1  0.767898  0.577345  0.449322  1
  O  O18  1  0.449322  0.767898  0.577345  1
  O  O19  1  0.732102  0.050678  0.922655  1
  O  O20  1  0.050678  0.922655  0.732102  1
  O  O21  1  0.922655  0.732102  0.050678  1
