# generated using pymatgen
data_Rb3CO3F
_symmetry_space_group_name_H-M   'P 1'
_cell_length_a   7.39180052
_cell_length_b   7.39180052
_cell_length_c   7.39180052
_cell_angle_alpha   65.41878951
_cell_angle_beta   65.41878951
_cell_angle_gamma   65.41878951
_symmetry_Int_Tables_number   1
_chemical_formula_structural   Rb3CO3F
_chemical_formula_sum   'Rb6 C2 O6 F2'
_cell_volume   319.25309311
_cell_formula_units_Z   2
loop_
 _symmetry_equiv_pos_site_id
 _symmetry_equiv_pos_as_xyz
  1  'x, y, z'
loop_
 _atom_site_type_symbol
 _atom_site_label
 _atom_site_symmetry_multiplicity
 _atom_site_fract_x
 _atom_site_fract_y
 _atom_site_fract_z
 _atom_site_occupancy
  Rb  Rb0  1  0.329229  0.750000  0.170771  1
  Rb  Rb1  1  0.750000  0.170771  0.329229  1
  Rb  Rb2  1  0.170771  0.329229  0.750000  1
  Rb  Rb3  1  0.670771  0.250000  0.829229  1
  Rb  Rb4  1  0.250000  0.829229  0.670771  1
  Rb  Rb5  1  0.829229  0.670771  0.250000  1
  C  C6  1  0.250000  0.250000  0.250000  1
  C  C7  1  0.750000  0.750000  0.750000  1
  O  O8  1  0.914020  0.750000  0.585980  1
  O  O9  1  0.750000  0.585980  0.914020  1
  O  O10  1  0.585980  0.914020  0.750000  1
  O  O11  1  0.085980  0.250000  0.414020  1
  O  O12  1  0.414020  0.085980  0.250000  1
  O  O13  1  0.250000  0.414020  0.085980  1
  F  F14  1  0.500000  0.500000  0.500000  1
  F  F15  1  0.000000  0.000000  0.000000  1
