# generated using pymatgen
data_K2CuP
_symmetry_space_group_name_H-M   'P 1'
_cell_length_a   6.19292823
_cell_length_b   6.19292823
_cell_length_c   5.78554009
_cell_angle_alpha   90.00000000
_cell_angle_beta   90.00000000
_cell_angle_gamma   106.25611474
_symmetry_Int_Tables_number   1
_chemical_formula_structural   K2CuP
_chemical_formula_sum   'K4 Cu2 P2'
_cell_volume   213.01798632
_cell_formula_units_Z   2
loop_
 _symmetry_equiv_pos_site_id
 _symmetry_equiv_pos_as_xyz
  1  'x, y, z'
loop_
 _atom_site_type_symbol
 _atom_site_label
 _atom_site_symmetry_multiplicity
 _atom_site_fract_x
 _atom_site_fract_y
 _atom_site_fract_z
 _atom_site_occupancy
  K  K0  1  0.975289  0.313875  0.750000  1
  K  K1  1  0.313875  0.975289  0.750000  1
  K  K2  1  0.024711  0.686125  0.250000  1
  K  K3  1  0.686125  0.024711  0.250000  1
  Cu  Cu4  1  0.500000  0.500000  0.500000  1
  Cu  Cu5  1  0.500000  0.500000  0.000000  1
  P  P6  1  0.732108  0.732108  0.750000  1
  P  P7  1  0.267892  0.267892  0.250000  1
