# generated using pymatgen
data_K2Sn2O3
_symmetry_space_group_name_H-M   'P 1'
_cell_length_a   7.37352680
_cell_length_b   7.37352680
_cell_length_c   7.37352680
_cell_angle_alpha   109.47122063
_cell_angle_beta   109.47122063
_cell_angle_gamma   109.47122063
_symmetry_Int_Tables_number   1
_chemical_formula_structural   K2Sn2O3
_chemical_formula_sum   'K4 Sn4 O6'
_cell_volume   308.60566785
_cell_formula_units_Z   2
loop_
 _symmetry_equiv_pos_site_id
 _symmetry_equiv_pos_as_xyz
  1  'x, y, z'
loop_
 _atom_site_type_symbol
 _atom_site_label
 _atom_site_symmetry_multiplicity
 _atom_site_fract_x
 _atom_site_fract_y
 _atom_site_fract_z
 _atom_site_occupancy
  K  K0  1  0.481900  0.500000  1.000000  1
  K  K1  1  0.018100  0.018100  0.018100  1
  K  K2  1  1.000000  0.481900  0.500000  1
  K  K3  1  0.500000  1.000000  0.481900  1
  Sn  Sn4  1  0.500000  0.000000  0.011623  1
  Sn  Sn5  1  0.000000  0.011623  0.500000  1
  Sn  Sn6  1  0.488377  0.488377  0.488377  1
  Sn  Sn7  1  0.011623  0.500000  0.000000  1
  O  O8  1  0.750000  0.979273  0.229273  1
  O  O9  1  0.250000  0.520727  0.270727  1
  O  O10  1  0.979273  0.229273  0.750000  1
  O  O11  1  0.229273  0.750000  0.979273  1
  O  O12  1  0.270727  0.250000  0.520727  1
  O  O13  1  0.520727  0.270727  0.250000  1
