# generated using pymatgen
data_Rb2Li2SiO4
_symmetry_space_group_name_H-M   'P 1'
_cell_length_a   5.52019132
_cell_length_b   5.70473750
_cell_length_c   8.85005632
_cell_angle_alpha   83.68468939
_cell_angle_beta   75.39356646
_cell_angle_gamma   85.70638686
_symmetry_Int_Tables_number   1
_chemical_formula_structural   Rb2Li2SiO4
_chemical_formula_sum   'Rb4 Li4 Si2 O8'
_cell_volume   267.73336390
_cell_formula_units_Z   2
loop_
 _symmetry_equiv_pos_site_id
 _symmetry_equiv_pos_as_xyz
  1  'x, y, z'
loop_
 _atom_site_type_symbol
 _atom_site_label
 _atom_site_symmetry_multiplicity
 _atom_site_fract_x
 _atom_site_fract_y
 _atom_site_fract_z
 _atom_site_occupancy
  Rb  Rb0  1  0.476749  0.850540  0.731295  1
  Rb  Rb1  1  0.523251  0.149460  0.268705  1
  Rb  Rb2  1  0.792135  0.728439  0.017948  1
  Rb  Rb3  1  0.207865  0.271561  0.982052  1
  Li  Li4  1  0.932093  0.188489  0.438174  1
  Li  Li5  1  0.067907  0.811511  0.561826  1
  Li  Li6  1  0.697033  0.593386  0.418425  1
  Li  Li7  1  0.302967  0.406614  0.581575  1
  Si  Si8  1  0.145630  0.687532  0.281510  1
  Si  Si9  1  0.854370  0.312468  0.718490  1
  O  O10  1  0.998603  0.557789  0.720009  1
  O  O11  1  0.001397  0.442211  0.279991  1
  O  O12  1  0.918435  0.867086  0.380851  1
  O  O13  1  0.081565  0.132914  0.619149  1
  O  O14  1  0.270772  0.797354  0.102443  1
  O  O15  1  0.729228  0.202646  0.897557  1
  O  O16  1  0.356602  0.641155  0.390376  1
  O  O17  1  0.643398  0.358845  0.609624  1
