# generated using pymatgen
data_Cs(SbS2)2
_symmetry_space_group_name_H-M   'P 1'
_cell_length_a   6.73224845
_cell_length_b   7.03461606
_cell_length_c   9.81346689
_cell_angle_alpha   90.15039100
_cell_angle_beta   99.30250079
_cell_angle_gamma   103.70575694
_symmetry_Int_Tables_number   1
_chemical_formula_structural   Cs(SbS2)2
_chemical_formula_sum   'Cs2 Sb4 S8'
_cell_volume   445.17591368
_cell_formula_units_Z   2
loop_
 _symmetry_equiv_pos_site_id
 _symmetry_equiv_pos_as_xyz
  1  'x, y, z'
loop_
 _atom_site_type_symbol
 _atom_site_label
 _atom_site_symmetry_multiplicity
 _atom_site_fract_x
 _atom_site_fract_y
 _atom_site_fract_z
 _atom_site_occupancy
  Cs  Cs0  1  0.844953  0.704629  0.082460  1
  Cs  Cs1  1  0.155047  0.295371  0.917540  1
  Sb  Sb2  1  0.595050  0.118315  0.318620  1
  Sb  Sb3  1  0.404950  0.881685  0.681380  1
  Sb  Sb4  1  0.185098  0.355766  0.444850  1
  Sb  Sb5  1  0.814902  0.644234  0.555150  1
  S  S6  1  0.471425  0.419018  0.275547  1
  S  S7  1  0.528575  0.580982  0.724453  1
  S  S8  1  0.927208  0.213605  0.229950  1
  S  S9  1  0.072792  0.786395  0.770050  1
  S  S10  1  0.429736  0.929830  0.079954  1
  S  S11  1  0.570264  0.070170  0.920046  1
  S  S12  1  0.837597  0.305332  0.583797  1
  S  S13  1  0.162403  0.694668  0.416203  1
