# generated using pymatgen
data_Na4CdP2
_symmetry_space_group_name_H-M   'P 1'
_cell_length_a   9.07984134
_cell_length_b   9.07984134
_cell_length_c   9.07984134
_cell_angle_alpha   32.19682892
_cell_angle_beta   32.19682892
_cell_angle_gamma   32.19682892
_symmetry_Int_Tables_number   1
_chemical_formula_structural   Na4CdP2
_chemical_formula_sum   'Na4 Cd1 P2'
_cell_volume   188.88635137
_cell_formula_units_Z   1
loop_
 _symmetry_equiv_pos_site_id
 _symmetry_equiv_pos_as_xyz
  1  'x, y, z'
loop_
 _atom_site_type_symbol
 _atom_site_label
 _atom_site_symmetry_multiplicity
 _atom_site_fract_x
 _atom_site_fract_y
 _atom_site_fract_z
 _atom_site_occupancy
  Na  Na0  1  0.206910  0.206910  0.206910  1
  Na  Na1  1  0.406894  0.406894  0.406894  1
  Na  Na2  1  0.793090  0.793090  0.793090  1
  Na  Na3  1  0.593106  0.593105  0.593105  1
  Cd  Cd4  1  0.000000  0.000000  0.000000  1
  P  P5  1  0.906098  0.906098  0.906098  1
  P  P6  1  0.093902  0.093902  0.093902  1
