# generated using pymatgen
data_Sr(BO2)2
_symmetry_space_group_name_H-M   'P 1'
_cell_length_a   9.31769080
_cell_length_b   9.31769080
_cell_length_c   9.31769080
_cell_angle_alpha   90.00000000
_cell_angle_beta   90.00000000
_cell_angle_gamma   90.00000000
_symmetry_Int_Tables_number   1
_chemical_formula_structural   Sr(BO2)2
_chemical_formula_sum   'Sr12 B24 O48'
_cell_volume   808.95596912
_cell_formula_units_Z   12
loop_
 _symmetry_equiv_pos_site_id
 _symmetry_equiv_pos_as_xyz
  1  'x, y, z'
loop_
 _atom_site_type_symbol
 _atom_site_label
 _atom_site_symmetry_multiplicity
 _atom_site_fract_x
 _atom_site_fract_y
 _atom_site_fract_z
 _atom_site_occupancy
  Sr  Sr0  1  0.370548  0.129452  0.870548  1
  Sr  Sr1  1  0.129452  0.870548  0.370548  1
  Sr  Sr2  1  0.870548  0.370548  0.129452  1
  Sr  Sr3  1  0.629452  0.629452  0.629452  1
  Sr  Sr4  1  0.629452  0.870548  0.129452  1
  Sr  Sr5  1  0.870548  0.129452  0.629452  1
  Sr  Sr6  1  0.129452  0.629452  0.870548  1
  Sr  Sr7  1  0.370548  0.370548  0.370548  1
  Sr  Sr8  1  0.000000  0.500000  0.500000  1
  Sr  Sr9  1  0.500000  0.500000  0.000000  1
  Sr  Sr10  1  0.500000  0.000000  0.500000  1
  Sr  Sr11  1  0.000000  0.000000  0.000000  1
  B  B12  1  0.812774  0.837972  0.387132  1
  B  B13  1  0.612868  0.187226  0.162028  1
  B  B14  1  0.112868  0.312774  0.837972  1
  B  B15  1  0.387132  0.687226  0.337972  1
  B  B16  1  0.312774  0.837972  0.112868  1
  B  B17  1  0.337972  0.387132  0.687226  1
  B  B18  1  0.837972  0.112868  0.312774  1
  B  B19  1  0.187226  0.162028  0.612868  1
  B  B20  1  0.162028  0.612868  0.187226  1
  B  B21  1  0.687226  0.337972  0.387132  1
  B  B22  1  0.812774  0.662028  0.887132  1
  B  B23  1  0.662028  0.887132  0.812774  1
  B  B24  1  0.112868  0.187226  0.337972  1
  B  B25  1  0.337972  0.112868  0.187226  1
  B  B26  1  0.187226  0.337972  0.112868  1
  B  B27  1  0.312774  0.662028  0.612868  1
  B  B28  1  0.837972  0.387132  0.812774  1
  B  B29  1  0.887132  0.812774  0.662028  1
  B  B30  1  0.162028  0.887132  0.687226  1
  B  B31  1  0.662028  0.612868  0.312774  1
  B  B32  1  0.687226  0.162028  0.887132  1
  B  B33  1  0.612868  0.312774  0.662028  1
  B  B34  1  0.887132  0.687226  0.162028  1
  B  B35  1  0.387132  0.812774  0.837972  1
  O  O36  1  0.593019  0.281411  0.504607  1
  O  O37  1  0.906981  0.718589  0.004607  1
  O  O38  1  0.004607  0.906981  0.718589  1
  O  O39  1  0.718589  0.004607  0.906981  1
  O  O40  1  0.781411  0.995393  0.406981  1
  O  O41  1  0.504607  0.593019  0.281411  1
  O  O42  1  0.281411  0.504607  0.593019  1
  O  O43  1  0.495393  0.093019  0.218589  1
  O  O44  1  0.995393  0.406981  0.781411  1
  O  O45  1  0.218589  0.495393  0.093019  1
  O  O46  1  0.406981  0.781411  0.995393  1
  O  O47  1  0.093019  0.218589  0.495393  1
  O  O48  1  0.323580  0.256944  0.115114  1
  O  O49  1  0.115114  0.323580  0.256944  1
  O  O50  1  0.256944  0.115114  0.323580  1
  O  O51  1  0.243056  0.884886  0.823580  1
  O  O52  1  0.615114  0.176420  0.743056  1
  O  O53  1  0.743056  0.615114  0.176420  1
  O  O54  1  0.384886  0.676420  0.756944  1
  O  O55  1  0.884886  0.823580  0.243056  1
  O  O56  1  0.756944  0.384886  0.676420  1
  O  O57  1  0.823580  0.243056  0.884886  1
  O  O58  1  0.676420  0.756944  0.384886  1
  O  O59  1  0.176420  0.743056  0.615114  1
  O  O60  1  0.676420  0.743056  0.884886  1
  O  O61  1  0.884886  0.676420  0.743056  1
  O  O62  1  0.743056  0.884886  0.676420  1
  O  O63  1  0.756944  0.115114  0.176420  1
  O  O64  1  0.384886  0.823580  0.256944  1
  O  O65  1  0.256944  0.384886  0.823580  1
  O  O66  1  0.615114  0.323580  0.243056  1
  O  O67  1  0.115114  0.176420  0.756944  1
  O  O68  1  0.243056  0.615114  0.323580  1
  O  O69  1  0.176420  0.756944  0.115114  1
  O  O70  1  0.323580  0.243056  0.615114  1
  O  O71  1  0.823580  0.256944  0.384886  1
  O  O72  1  0.093019  0.281411  0.995393  1
  O  O73  1  0.995393  0.093019  0.281411  1
  O  O74  1  0.281411  0.995393  0.093019  1
  O  O75  1  0.406981  0.718589  0.495393  1
  O  O76  1  0.495393  0.406981  0.718589  1
  O  O77  1  0.718589  0.495393  0.406981  1
  O  O78  1  0.504607  0.906981  0.781411  1
  O  O79  1  0.004607  0.593019  0.218589  1
  O  O80  1  0.781411  0.504607  0.906981  1
  O  O81  1  0.593019  0.218589  0.004607  1
  O  O82  1  0.906981  0.781411  0.504607  1
  O  O83  1  0.218589  0.004607  0.593019  1
