# generated using pymatgen
data_RbNa2BO3
_symmetry_space_group_name_H-M   'P 1'
_cell_length_a   5.63031927
_cell_length_b   5.74036613
_cell_length_c   6.19913601
_cell_angle_alpha   90.00000000
_cell_angle_beta   90.00000000
_cell_angle_gamma   90.00000000
_symmetry_Int_Tables_number   1
_chemical_formula_structural   RbNa2BO3
_chemical_formula_sum   'Rb2 Na4 B2 O6'
_cell_volume   200.35665880
_cell_formula_units_Z   2
loop_
 _symmetry_equiv_pos_site_id
 _symmetry_equiv_pos_as_xyz
  1  'x, y, z'
loop_
 _atom_site_type_symbol
 _atom_site_label
 _atom_site_symmetry_multiplicity
 _atom_site_fract_x
 _atom_site_fract_y
 _atom_site_fract_z
 _atom_site_occupancy
  Rb  Rb0  1  0.893683  0.500000  0.500000  1
  Rb  Rb1  1  0.106317  0.000000  0.000000  1
  Na  Na2  1  0.364861  0.500000  0.769000  1
  Na  Na3  1  0.364861  0.500000  0.231000  1
  Na  Na4  1  0.635139  0.000000  0.731000  1
  Na  Na5  1  0.635139  0.000000  0.269000  1
  B  B6  1  0.786597  0.500000  0.000000  1
  B  B7  1  0.213403  0.000000  0.500000  1
  O  O8  1  0.656004  0.290634  0.000000  1
  O  O9  1  0.343996  0.209366  0.500000  1
  O  O10  1  0.033645  0.500000  0.000000  1
  O  O11  1  0.966355  0.000000  0.500000  1
  O  O12  1  0.343996  0.790634  0.500000  1
  O  O13  1  0.656004  0.709366  0.000000  1
