# generated using pymatgen
data_HfSnS3
_symmetry_space_group_name_H-M   'P 1'
_cell_length_a   3.71703667
_cell_length_b   9.50240027
_cell_length_c   14.26097291
_cell_angle_alpha   90.00000000
_cell_angle_beta   90.00000000
_cell_angle_gamma   90.00000000
_symmetry_Int_Tables_number   1
_chemical_formula_structural   HfSnS3
_chemical_formula_sum   'Hf4 Sn4 S12'
_cell_volume   503.70854779
_cell_formula_units_Z   4
loop_
 _symmetry_equiv_pos_site_id
 _symmetry_equiv_pos_as_xyz
  1  'x, y, z'
loop_
 _atom_site_type_symbol
 _atom_site_label
 _atom_site_symmetry_multiplicity
 _atom_site_fract_x
 _atom_site_fract_y
 _atom_site_fract_z
 _atom_site_occupancy
  Hf  Hf0  1  0.750000  0.344583  0.049149  1
  Hf  Hf1  1  0.250000  0.655417  0.950851  1
  Hf  Hf2  1  0.750000  0.844583  0.450851  1
  Hf  Hf3  1  0.250000  0.155417  0.549149  1
  Sn  Sn4  1  0.750000  0.943614  0.833794  1
  Sn  Sn5  1  0.250000  0.056386  0.166206  1
  Sn  Sn6  1  0.750000  0.443614  0.666206  1
  Sn  Sn7  1  0.250000  0.556386  0.333794  1
  S  S8  1  0.250000  0.013945  0.395522  1
  S  S9  1  0.750000  0.986055  0.604478  1
  S  S10  1  0.250000  0.513945  0.104478  1
  S  S11  1  0.750000  0.486055  0.895522  1
  S  S12  1  0.250000  0.179903  0.994470  1
  S  S13  1  0.750000  0.820097  0.005530  1
  S  S14  1  0.250000  0.679903  0.505530  1
  S  S15  1  0.750000  0.320097  0.494470  1
  S  S16  1  0.750000  0.238155  0.211619  1
  S  S17  1  0.250000  0.761845  0.788381  1
  S  S18  1  0.750000  0.738155  0.288381  1
  S  S19  1  0.250000  0.261845  0.711619  1
