# generated using pymatgen
data_Ca2Pt3O8
_symmetry_space_group_name_H-M   'P 1'
_cell_length_a   6.31661317
_cell_length_b   6.31661317
_cell_length_c   6.31661317
_cell_angle_alpha   59.99276372
_cell_angle_beta   59.99276372
_cell_angle_gamma   59.99276372
_symmetry_Int_Tables_number   1
_chemical_formula_structural   Ca2Pt3O8
_chemical_formula_sum   'Ca2 Pt3 O8'
_cell_volume   178.18313025
_cell_formula_units_Z   1
loop_
 _symmetry_equiv_pos_site_id
 _symmetry_equiv_pos_as_xyz
  1  'x, y, z'
loop_
 _atom_site_type_symbol
 _atom_site_label
 _atom_site_symmetry_multiplicity
 _atom_site_fract_x
 _atom_site_fract_y
 _atom_site_fract_z
 _atom_site_occupancy
  Ca  Ca0  1  0.144641  0.144641  0.144641  1
  Ca  Ca1  1  0.855359  0.855359  0.855359  1
  Pt  Pt2  1  0.500000  0.500000  0.000000  1
  Pt  Pt3  1  0.500000  0.000000  0.500000  1
  Pt  Pt4  1  0.000000  0.500000  0.500000  1
  O  O5  1  0.395382  0.395382  0.395382  1
  O  O6  1  0.604618  0.604618  0.604618  1
  O  O7  1  0.441092  0.886833  0.886833  1
  O  O8  1  0.886833  0.886833  0.441092  1
  O  O9  1  0.886833  0.441092  0.886833  1
  O  O10  1  0.113167  0.113167  0.558908  1
  O  O11  1  0.558908  0.113167  0.113167  1
  O  O12  1  0.113167  0.558908  0.113167  1
