# generated using pymatgen
data_LiAlB14
_symmetry_space_group_name_H-M   'P 1'
_cell_length_a   7.20160187
_cell_length_b   7.20160187
_cell_length_c   7.20160187
_cell_angle_alpha   132.03765986
_cell_angle_beta   111.24932102
_cell_angle_gamma   88.16358986
_symmetry_Int_Tables_number   1
_chemical_formula_structural   LiAlB14
_chemical_formula_sum   'Li2 Al2 B28'
_cell_volume   246.27729596
_cell_formula_units_Z   2
loop_
 _symmetry_equiv_pos_site_id
 _symmetry_equiv_pos_as_xyz
  1  'x, y, z'
loop_
 _atom_site_type_symbol
 _atom_site_label
 _atom_site_symmetry_multiplicity
 _atom_site_fract_x
 _atom_site_fract_y
 _atom_site_fract_z
 _atom_site_occupancy
  Li  Li0  1  0.399849  0.750000  0.649849  1
  Li  Li1  1  0.600151  0.250000  0.350151  1
  Al  Al2  1  0.000000  0.500000  1.000000  1
  Al  Al3  1  0.000000  0.000000  0.500000  1
  B  B4  1  0.602233  0.279008  0.005530  1
  B  B5  1  0.029828  0.649479  0.380350  1
  B  B6  1  0.036149  0.328564  0.205297  1
  B  B7  1  0.963851  0.169149  0.292415  1
  B  B8  1  0.376733  0.171436  0.707585  1
  B  B9  1  0.623267  0.330851  0.794703  1
  B  B10  1  0.963851  0.671436  0.794703  1
  B  B11  1  0.036149  0.830851  0.707585  1
  B  B12  1  0.623267  0.828564  0.292415  1
  B  B13  1  0.376733  0.669149  0.205297  1
  B  B14  1  0.226522  0.220992  0.323225  1
  B  B15  1  0.773478  0.096703  0.994470  1
  B  B16  1  0.773478  0.779008  0.676775  1
  B  B17  1  0.397767  0.403297  0.676775  1
  B  B18  1  0.226522  0.903297  0.005530  1
  B  B19  1  0.230871  0.850521  0.380350  1
  B  B20  1  0.397767  0.720992  0.994470  1
  B  B21  1  0.602233  0.596703  0.323225  1
  B  B22  1  0.915302  0.085354  0.829948  1
  B  B23  1  0.084698  0.914646  0.170052  1
  B  B24  1  0.244594  0.414646  0.829948  1
  B  B25  1  0.755406  0.585354  0.170052  1
  B  B26  1  0.198293  0.166463  0.031830  1
  B  B27  1  0.801707  0.833537  0.968170  1
  B  B28  1  0.365367  0.333537  0.031830  1
  B  B29  1  0.634633  0.666463  0.968170  1
  B  B30  1  0.769129  0.149479  0.619650  1
  B  B31  1  0.970172  0.350521  0.619650  1
