# generated using pymatgen
data_Rb3Cu5O4
_symmetry_space_group_name_H-M   'P 1'
_cell_length_a   9.95958332
_cell_length_b   7.47645328
_cell_length_c   14.48867203
_cell_angle_alpha   90.00000000
_cell_angle_beta   106.54919329
_cell_angle_gamma   90.00000000
_symmetry_Int_Tables_number   1
_chemical_formula_structural   Rb3Cu5O4
_chemical_formula_sum   'Rb12 Cu20 O16'
_cell_volume   1034.16947070
_cell_formula_units_Z   4
loop_
 _symmetry_equiv_pos_site_id
 _symmetry_equiv_pos_as_xyz
  1  'x, y, z'
loop_
 _atom_site_type_symbol
 _atom_site_label
 _atom_site_symmetry_multiplicity
 _atom_site_fract_x
 _atom_site_fract_y
 _atom_site_fract_z
 _atom_site_occupancy
  Rb  Rb0  1  0.398426  0.833948  0.907144  1
  Rb  Rb1  1  0.601574  0.333948  0.592856  1
  Rb  Rb2  1  0.601574  0.166052  0.092856  1
  Rb  Rb3  1  0.398426  0.666052  0.407144  1
  Rb  Rb4  1  0.227775  0.212330  0.417604  1
  Rb  Rb5  1  0.772225  0.712330  0.082396  1
  Rb  Rb6  1  0.772225  0.787670  0.582396  1
  Rb  Rb7  1  0.227775  0.287670  0.917604  1
  Rb  Rb8  1  0.175415  0.912433  0.106293  1
  Rb  Rb9  1  0.824585  0.412433  0.393707  1
  Rb  Rb10  1  0.824585  0.087567  0.893707  1
  Rb  Rb11  1  0.175415  0.587567  0.606293  1
  Cu  Cu12  1  0.435387  0.582745  0.122386  1
  Cu  Cu13  1  0.960815  0.202235  0.621247  1
  Cu  Cu14  1  0.039185  0.797765  0.378753  1
  Cu  Cu15  1  0.960815  0.297765  0.121247  1
  Cu  Cu16  1  0.201066  0.058480  0.636061  1
  Cu  Cu17  1  0.798934  0.558480  0.863939  1
  Cu  Cu18  1  0.798934  0.941520  0.363939  1
  Cu  Cu19  1  0.201066  0.441520  0.136061  1
  Cu  Cu20  1  0.437180  0.170097  0.757889  1
  Cu  Cu21  1  0.562820  0.670097  0.742111  1
  Cu  Cu22  1  0.562820  0.829903  0.242111  1
  Cu  Cu23  1  0.437180  0.329903  0.257889  1
  Cu  Cu24  1  0.067946  0.954298  0.766896  1
  Cu  Cu25  1  0.932054  0.454298  0.733104  1
  Cu  Cu26  1  0.932054  0.045702  0.233104  1
  Cu  Cu27  1  0.067946  0.545702  0.266896  1
  Cu  Cu28  1  0.564613  0.417255  0.877614  1
  Cu  Cu29  1  0.435387  0.917255  0.622386  1
  Cu  Cu30  1  0.039185  0.702235  0.878753  1
  Cu  Cu31  1  0.564613  0.082745  0.377614  1
  O  O32  1  0.496106  0.809860  0.111187  1
  O  O33  1  0.503894  0.309860  0.388813  1
  O  O34  1  0.503894  0.190140  0.888813  1
  O  O35  1  0.496106  0.690140  0.611187  1
  O  O36  1  0.027692  0.531953  0.134485  1
  O  O37  1  0.972308  0.031953  0.365515  1
  O  O38  1  0.972308  0.468047  0.865515  1
  O  O39  1  0.027692  0.968047  0.634485  1
  O  O40  1  0.631074  0.650359  0.875821  1
  O  O41  1  0.368926  0.150359  0.624179  1
  O  O42  1  0.368926  0.349641  0.124179  1
  O  O43  1  0.631074  0.849641  0.375821  1
  O  O44  1  0.107072  0.931430  0.898111  1
  O  O45  1  0.892928  0.431430  0.601889  1
  O  O46  1  0.892928  0.068570  0.101889  1
  O  O47  1  0.107072  0.568570  0.398111  1
