# generated using pymatgen
data_Dy2S3
_symmetry_space_group_name_H-M   'P 1'
_cell_length_a   3.88881081
_cell_length_b   7.31103432
_cell_length_c   15.19958529
_cell_angle_alpha   90.00000000
_cell_angle_beta   90.00000000
_cell_angle_gamma   90.00000000
_symmetry_Int_Tables_number   1
_chemical_formula_structural   Dy2S3
_chemical_formula_sum   'Dy8 S12'
_cell_volume   432.14289458
_cell_formula_units_Z   4
loop_
 _symmetry_equiv_pos_site_id
 _symmetry_equiv_pos_as_xyz
  1  'x, y, z'
loop_
 _atom_site_type_symbol
 _atom_site_label
 _atom_site_symmetry_multiplicity
 _atom_site_fract_x
 _atom_site_fract_y
 _atom_site_fract_z
 _atom_site_occupancy
  Dy  Dy0  1  0.250000  0.766387  0.457393  1
  Dy  Dy1  1  0.750000  0.233613  0.542607  1
  Dy  Dy2  1  0.250000  0.266387  0.042607  1
  Dy  Dy3  1  0.750000  0.733613  0.957393  1
  Dy  Dy4  1  0.750000  0.858648  0.204601  1
  Dy  Dy5  1  0.250000  0.141352  0.795399  1
  Dy  Dy6  1  0.750000  0.358648  0.295399  1
  Dy  Dy7  1  0.250000  0.641352  0.704601  1
  S  S8  1  0.250000  0.650071  0.281778  1
  S  S9  1  0.750000  0.349929  0.718222  1
  S  S10  1  0.250000  0.150071  0.218222  1
  S  S11  1  0.750000  0.849929  0.781778  1
  S  S12  1  0.750000  0.623160  0.567724  1
  S  S13  1  0.250000  0.376840  0.432276  1
  S  S14  1  0.750000  0.123160  0.932276  1
  S  S15  1  0.250000  0.876840  0.067724  1
  S  S16  1  0.250000  0.510029  0.892215  1
  S  S17  1  0.750000  0.489971  0.107785  1
  S  S18  1  0.250000  0.010029  0.607785  1
  S  S19  1  0.750000  0.989971  0.392215  1
