# generated using pymatgen
data_Cu2WS4
_symmetry_space_group_name_H-M   'P 1'
_cell_length_a   5.45562321
_cell_length_b   5.45562321
_cell_length_c   5.69899126
_cell_angle_alpha   90.00000000
_cell_angle_beta   90.00000000
_cell_angle_gamma   90.00000000
_symmetry_Int_Tables_number   1
_chemical_formula_structural   Cu2WS4
_chemical_formula_sum   'Cu2 W1 S4'
_cell_volume   169.62377631
_cell_formula_units_Z   1
loop_
 _symmetry_equiv_pos_site_id
 _symmetry_equiv_pos_as_xyz
  1  'x, y, z'
loop_
 _atom_site_type_symbol
 _atom_site_label
 _atom_site_symmetry_multiplicity
 _atom_site_fract_x
 _atom_site_fract_y
 _atom_site_fract_z
 _atom_site_occupancy
  Cu  Cu0  1  0.000000  0.500000  0.000000  1
  Cu  Cu1  1  0.500000  0.000000  0.000000  1
  W  W2  1  0.000000  0.000000  0.000000  1
  S  S3  1  0.237353  0.762647  0.228366  1
  S  S4  1  0.762647  0.762647  0.771634  1
  S  S5  1  0.237353  0.237353  0.771634  1
  S  S6  1  0.762647  0.237353  0.228366  1
