# generated using pymatgen
data_K2Ti6O13
_symmetry_space_group_name_H-M   'P 1'
_cell_length_a   8.13943650
_cell_length_b   8.13943650
_cell_length_c   9.23646630
_cell_angle_alpha   80.20141074
_cell_angle_beta   99.79858926
_cell_angle_gamma   152.85534423
_symmetry_Int_Tables_number   1
_chemical_formula_structural   K2Ti6O13
_chemical_formula_sum   'K2 Ti6 O13'
_cell_volume   274.86954880
_cell_formula_units_Z   1
loop_
 _symmetry_equiv_pos_site_id
 _symmetry_equiv_pos_as_xyz
  1  'x, y, z'
loop_
 _atom_site_type_symbol
 _atom_site_label
 _atom_site_symmetry_multiplicity
 _atom_site_fract_x
 _atom_site_fract_y
 _atom_site_fract_z
 _atom_site_occupancy
  K  K0  1  0.455528  0.544472  0.249342  1
  K  K1  1  0.544472  0.455528  0.750658  1
  Ti  Ti2  1  0.231566  0.768434  0.776407  1
  Ti  Ti3  1  0.768434  0.231566  0.223593  1
  Ti  Ti4  1  0.171533  0.828467  0.437455  1
  Ti  Ti5  1  0.828467  0.171533  0.562545  1
  Ti  Ti6  1  0.114675  0.885325  0.095978  1
  Ti  Ti7  1  0.885325  0.114675  0.904022  1
  O  O8  1  0.166427  0.833573  0.914496  1
  O  O9  1  0.833573  0.166427  0.085504  1
  O  O10  1  0.357886  0.642114  0.887927  1
  O  O11  1  0.642114  0.357886  0.112073  1
  O  O12  1  0.134843  0.865157  0.614842  1
  O  O13  1  0.865157  0.134843  0.385158  1
  O  O14  1  0.296636  0.703364  0.571412  1
  O  O15  1  0.703364  0.296636  0.428588  1
  O  O16  1  0.000000  0.000000  0.000000  1
  O  O17  1  0.760632  0.239368  0.760074  1
  O  O18  1  0.239368  0.760632  0.239926  1
  O  O19  1  0.921401  0.078599  0.709785  1
  O  O20  1  0.078599  0.921401  0.290215  1
