# generated using pymatgen
data_NaBe4SbO7
_symmetry_space_group_name_H-M   'P 1'
_cell_length_a   5.48765253
_cell_length_b   5.48765253
_cell_length_c   8.94442932
_cell_angle_alpha   90.00000000
_cell_angle_beta   90.00000000
_cell_angle_gamma   120.00000000
_symmetry_Int_Tables_number   1
_chemical_formula_structural   NaBe4SbO7
_chemical_formula_sum   'Na2 Be8 Sb2 O14'
_cell_volume   233.26870457
_cell_formula_units_Z   2
loop_
 _symmetry_equiv_pos_site_id
 _symmetry_equiv_pos_as_xyz
  1  'x, y, z'
loop_
 _atom_site_type_symbol
 _atom_site_label
 _atom_site_symmetry_multiplicity
 _atom_site_fract_x
 _atom_site_fract_y
 _atom_site_fract_z
 _atom_site_occupancy
  Na  Na0  1  0.666667  0.333333  0.125212  1
  Na  Na1  1  0.333333  0.666667  0.625212  1
  Be  Be2  1  0.834381  0.165619  0.813404  1
  Be  Be3  1  0.668761  0.834381  0.313404  1
  Be  Be4  1  0.165619  0.331239  0.313404  1
  Be  Be5  1  0.165619  0.834381  0.313404  1
  Be  Be6  1  0.000000  0.000000  0.060803  1
  Be  Be7  1  0.000000  0.000000  0.560803  1
  Be  Be8  1  0.331239  0.165619  0.813404  1
  Be  Be9  1  0.834381  0.668761  0.813404  1
  Sb  Sb10  1  0.666667  0.333333  0.500420  1
  Sb  Sb11  1  0.333333  0.666667  0.000420  1
  O  O12  1  0.839272  0.678544  0.628985  1
  O  O13  1  0.000000  0.000000  0.375354  1
  O  O14  1  0.000000  0.000000  0.875354  1
  O  O15  1  0.160728  0.321456  0.128985  1
  O  O16  1  0.678544  0.839272  0.128985  1
  O  O17  1  0.839272  0.160728  0.628985  1
  O  O18  1  0.494905  0.505095  0.371016  1
  O  O19  1  0.989810  0.494905  0.871016  1
  O  O20  1  0.505095  0.010190  0.871016  1
  O  O21  1  0.494905  0.989810  0.371016  1
  O  O22  1  0.010190  0.505095  0.371016  1
  O  O23  1  0.505095  0.494905  0.871016  1
  O  O24  1  0.160728  0.839272  0.128985  1
  O  O25  1  0.321456  0.160728  0.628985  1
