# generated using pymatgen
data_Sr2LiSc(B2O5)2
_symmetry_space_group_name_H-M   'P 1'
_cell_length_a   12.75864477
_cell_length_b   5.27331841
_cell_length_c   13.93453134
_cell_angle_alpha   90.00000000
_cell_angle_beta   117.57376963
_cell_angle_gamma   90.00000000
_symmetry_Int_Tables_number   1
_chemical_formula_structural   Sr2LiSc(B2O5)2
_chemical_formula_sum   'Sr8 Li4 Sc4 B16 O40'
_cell_volume   831.03304172
_cell_formula_units_Z   4
loop_
 _symmetry_equiv_pos_site_id
 _symmetry_equiv_pos_as_xyz
  1  'x, y, z'
loop_
 _atom_site_type_symbol
 _atom_site_label
 _atom_site_symmetry_multiplicity
 _atom_site_fract_x
 _atom_site_fract_y
 _atom_site_fract_z
 _atom_site_occupancy
  Sr  Sr0  1  0.971837  0.932679  0.123616  1
  Sr  Sr1  1  0.971837  0.567321  0.623616  1
  Sr  Sr2  1  0.028163  0.067321  0.876384  1
  Sr  Sr3  1  0.028163  0.432679  0.376384  1
  Sr  Sr4  1  0.330911  0.116921  0.149166  1
  Sr  Sr5  1  0.669089  0.616921  0.350834  1
  Sr  Sr6  1  0.669089  0.883079  0.850834  1
  Sr  Sr7  1  0.330911  0.383079  0.649166  1
  Li  Li8  1  0.521967  0.102997  0.400479  1
  Li  Li9  1  0.521967  0.397003  0.900479  1
  Li  Li10  1  0.478033  0.897003  0.599521  1
  Li  Li11  1  0.478033  0.602997  0.099521  1
  Sc  Sc12  1  0.752210  0.068915  0.617313  1
  Sc  Sc13  1  0.247790  0.568915  0.882687  1
  Sc  Sc14  1  0.247790  0.931085  0.382687  1
  Sc  Sc15  1  0.752210  0.431085  0.117313  1
  B  B16  1  0.604187  0.360902  0.705690  1
  B  B17  1  0.856915  0.109029  0.449461  1
  B  B18  1  0.856915  0.390971  0.949461  1
  B  B19  1  0.143085  0.890971  0.550539  1
  B  B20  1  0.395813  0.639098  0.294310  1
  B  B21  1  0.604187  0.139098  0.205690  1
  B  B22  1  0.143085  0.609029  0.050539  1
  B  B23  1  0.395813  0.860902  0.794310  1
  B  B24  1  0.627912  0.920090  0.050669  1
  B  B25  1  0.372088  0.420090  0.449331  1
  B  B26  1  0.627912  0.579910  0.550669  1
  B  B27  1  0.372088  0.079910  0.949331  1
  B  B28  1  0.144001  0.440580  0.228369  1
  B  B29  1  0.855999  0.940580  0.271631  1
  B  B30  1  0.855999  0.559420  0.771631  1
  B  B31  1  0.144001  0.059420  0.728369  1
  O  O32  1  0.426789  0.591438  0.215538  1
  O  O33  1  0.600945  0.573260  0.638875  1
  O  O34  1  0.600945  0.926740  0.138875  1
  O  O35  1  0.399055  0.426740  0.361125  1
  O  O36  1  0.140715  0.211634  0.273543  1
  O  O37  1  0.859285  0.711634  0.226457  1
  O  O38  1  0.859285  0.788366  0.726457  1
  O  O39  1  0.140715  0.288366  0.773543  1
  O  O40  1  0.426789  0.908562  0.715538  1
  O  O41  1  0.399055  0.073260  0.861125  1
  O  O42  1  0.573211  0.408562  0.784462  1
  O  O43  1  0.573211  0.091438  0.284462  1
  O  O44  1  0.873299  0.161426  0.228996  1
  O  O45  1  0.126701  0.661426  0.271004  1
  O  O46  1  0.126701  0.838574  0.771004  1
  O  O47  1  0.873299  0.338574  0.728996  1
  O  O48  1  0.376722  0.185268  0.494218  1
  O  O49  1  0.623278  0.685268  0.005782  1
  O  O50  1  0.623278  0.814732  0.505782  1
  O  O51  1  0.376722  0.314732  0.994218  1
  O  O52  1  0.142734  0.002565  0.461221  1
  O  O53  1  0.857266  0.502565  0.038779  1
  O  O54  1  0.857266  0.997435  0.538779  1
  O  O55  1  0.142734  0.497435  0.961221  1
  O  O56  1  0.362974  0.626696  0.814669  1
  O  O57  1  0.637026  0.126696  0.685331  1
  O  O58  1  0.637026  0.373304  0.185331  1
  O  O59  1  0.362974  0.873304  0.314669  1
  O  O60  1  0.128124  0.639939  0.560504  1
  O  O61  1  0.871876  0.139939  0.939496  1
  O  O62  1  0.871876  0.360061  0.439496  1
  O  O63  1  0.128124  0.860061  0.060504  1
  O  O64  1  0.340631  0.630952  0.487517  1
  O  O65  1  0.659369  0.130952  0.012483  1
  O  O66  1  0.157857  0.429599  0.133772  1
  O  O67  1  0.340631  0.869048  0.987517  1
  O  O68  1  0.157857  0.070401  0.633772  1
  O  O69  1  0.842143  0.570401  0.866228  1
  O  O70  1  0.842143  0.929599  0.366228  1
  O  O71  1  0.659369  0.369048  0.512483  1
