# generated using pymatgen
data_K3NdSi2O7
_symmetry_space_group_name_H-M   'P 1'
_cell_length_a   10.16324225
_cell_length_b   10.16324225
_cell_length_c   14.73957753
_cell_angle_alpha   90.00000000
_cell_angle_beta   90.00000000
_cell_angle_gamma   120.00000000
_symmetry_Int_Tables_number   1
_chemical_formula_structural   K3NdSi2O7
_chemical_formula_sum   'K18 Nd6 Si12 O42'
_cell_volume   1318.50026767
_cell_formula_units_Z   6
loop_
 _symmetry_equiv_pos_site_id
 _symmetry_equiv_pos_as_xyz
  1  'x, y, z'
loop_
 _atom_site_type_symbol
 _atom_site_label
 _atom_site_symmetry_multiplicity
 _atom_site_fract_x
 _atom_site_fract_y
 _atom_site_fract_z
 _atom_site_occupancy
  K  K0  1  0.330626  0.000000  0.410559  1
  K  K1  1  0.000000  0.330626  0.410559  1
  K  K2  1  0.669374  0.669374  0.410559  1
  K  K3  1  0.330626  0.330626  0.910559  1
  K  K4  1  0.669374  0.669374  0.089441  1
  K  K5  1  0.669374  0.000000  0.910559  1
  K  K6  1  0.000000  0.669374  0.910559  1
  K  K7  1  0.000000  0.669374  0.589441  1
  K  K8  1  0.669374  0.000000  0.589441  1
  K  K9  1  0.330626  0.000000  0.089441  1
  K  K10  1  0.000000  0.330626  0.089441  1
  K  K11  1  0.330626  0.330626  0.589441  1
  K  K12  1  0.000000  0.000000  0.500000  1
  K  K13  1  0.000000  0.000000  0.000000  1
  K  K14  1  0.666667  0.333333  0.750000  1
  K  K15  1  0.333333  0.666667  0.250000  1
  K  K16  1  0.333333  0.666667  0.750000  1
  K  K17  1  0.666667  0.333333  0.250000  1
  Nd  Nd18  1  0.666667  0.333333  0.500000  1
  Nd  Nd19  1  0.333333  0.666667  0.000000  1
  Nd  Nd20  1  0.333333  0.666667  0.500000  1
  Nd  Nd21  1  0.666667  0.333333  0.000000  1
  Nd  Nd22  1  0.000000  0.000000  0.750000  1
  Nd  Nd23  1  0.000000  0.000000  0.250000  1
  Si  Si24  1  0.660003  0.000000  0.356286  1
  Si  Si25  1  0.000000  0.660003  0.356286  1
  Si  Si26  1  0.339997  0.339997  0.356286  1
  Si  Si27  1  0.660003  0.660003  0.856286  1
  Si  Si28  1  0.339997  0.339997  0.143714  1
  Si  Si29  1  0.339997  0.000000  0.856286  1
  Si  Si30  1  0.000000  0.339997  0.856286  1
  Si  Si31  1  0.000000  0.339997  0.643714  1
  Si  Si32  1  0.339997  0.000000  0.643714  1
  Si  Si33  1  0.660003  0.000000  0.143714  1
  Si  Si34  1  0.000000  0.660003  0.143714  1
  Si  Si35  1  0.660003  0.660003  0.643714  1
  O  O36  1  0.321577  0.474319  0.094293  1
  O  O37  1  0.525681  0.847259  0.094293  1
  O  O38  1  0.152741  0.678423  0.094293  1
  O  O39  1  0.847259  0.321577  0.594293  1
  O  O40  1  0.678423  0.152741  0.405707  1
  O  O41  1  0.678423  0.525681  0.594293  1
  O  O42  1  0.474319  0.152741  0.594293  1
  O  O43  1  0.525681  0.678423  0.905707  1
  O  O44  1  0.152741  0.474319  0.905707  1
  O  O45  1  0.847259  0.525681  0.405707  1
  O  O46  1  0.474319  0.321577  0.405707  1
  O  O47  1  0.321577  0.847259  0.905707  1
  O  O48  1  0.678423  0.525681  0.905707  1
  O  O49  1  0.474319  0.152741  0.905707  1
  O  O50  1  0.847259  0.321577  0.905707  1
  O  O51  1  0.152741  0.678423  0.405707  1
  O  O52  1  0.321577  0.847259  0.594293  1
  O  O53  1  0.321577  0.474319  0.405707  1
  O  O54  1  0.525681  0.847259  0.405707  1
  O  O55  1  0.474319  0.321577  0.094293  1
  O  O56  1  0.847259  0.525681  0.094293  1
  O  O57  1  0.152741  0.474319  0.594293  1
  O  O58  1  0.525681  0.678423  0.594293  1
  O  O59  1  0.678423  0.152741  0.094293  1
  O  O60  1  0.401078  0.401078  0.250000  1
  O  O61  1  0.000000  0.401078  0.750000  1
  O  O62  1  0.401078  0.000000  0.750000  1
  O  O63  1  0.598922  0.000000  0.250000  1
  O  O64  1  0.000000  0.598922  0.250000  1
  O  O65  1  0.598922  0.598922  0.750000  1
  O  O66  1  0.178779  0.000000  0.855078  1
  O  O67  1  0.000000  0.178779  0.855078  1
  O  O68  1  0.821221  0.821221  0.855078  1
  O  O69  1  0.178779  0.178779  0.355078  1
  O  O70  1  0.821221  0.821221  0.644922  1
  O  O71  1  0.821221  0.000000  0.355078  1
  O  O72  1  0.178779  0.178779  0.144922  1
  O  O73  1  0.000000  0.178779  0.644922  1
  O  O74  1  0.178779  0.000000  0.644922  1
  O  O75  1  0.821221  0.000000  0.144922  1
  O  O76  1  0.000000  0.821221  0.144922  1
  O  O77  1  0.000000  0.821221  0.355078  1
