# generated using pymatgen
data_BaAl4S7
_symmetry_space_group_name_H-M   'P 1'
_cell_length_a   5.95849762
_cell_length_b   6.30231258
_cell_length_c   15.04361859
_cell_angle_alpha   90.00000000
_cell_angle_beta   90.00000000
_cell_angle_gamma   90.00000000
_symmetry_Int_Tables_number   1
_chemical_formula_structural   BaAl4S7
_chemical_formula_sum   'Ba2 Al8 S14'
_cell_volume   564.92269664
_cell_formula_units_Z   2
loop_
 _symmetry_equiv_pos_site_id
 _symmetry_equiv_pos_as_xyz
  1  'x, y, z'
loop_
 _atom_site_type_symbol
 _atom_site_label
 _atom_site_symmetry_multiplicity
 _atom_site_fract_x
 _atom_site_fract_y
 _atom_site_fract_z
 _atom_site_occupancy
  Ba  Ba0  1  0.479874  0.353055  0.500000  1
  Ba  Ba1  1  0.979874  0.646945  0.000000  1
  Al  Al2  1  0.089301  0.830033  0.380466  1
  Al  Al3  1  0.071556  0.316239  0.747512  1
  Al  Al4  1  0.571556  0.683761  0.752488  1
  Al  Al5  1  0.589301  0.169967  0.119534  1
  Al  Al6  1  0.589301  0.169967  0.880466  1
  Al  Al7  1  0.089301  0.830033  0.619534  1
  Al  Al8  1  0.071556  0.316239  0.252488  1
  Al  Al9  1  0.571556  0.683761  0.247512  1
  S  S10  1  0.975629  0.645655  0.500000  1
  S  S11  1  0.475629  0.354345  0.000000  1
  S  S12  1  0.966822  0.196771  0.119685  1
  S  S13  1  0.466822  0.803229  0.380315  1
  S  S14  1  0.466822  0.803229  0.619685  1
  S  S15  1  0.966822  0.196771  0.880315  1
  S  S16  1  0.986561  0.173018  0.383693  1
  S  S17  1  0.486561  0.826982  0.116307  1
  S  S18  1  0.486561  0.826982  0.883693  1
  S  S19  1  0.986561  0.173018  0.616307  1
  S  S20  1  0.961409  0.667789  0.251569  1
  S  S21  1  0.461409  0.332211  0.248431  1
  S  S22  1  0.461409  0.332211  0.751569  1
  S  S23  1  0.961409  0.667789  0.748431  1
