# generated using pymatgen
data_CsNa2BO3
_symmetry_space_group_name_H-M   'P 1'
_cell_length_a   5.67828846
_cell_length_b   5.86054888
_cell_length_c   6.32642295
_cell_angle_alpha   90.00000000
_cell_angle_beta   90.00000000
_cell_angle_gamma   90.00000000
_symmetry_Int_Tables_number   1
_chemical_formula_structural   CsNa2BO3
_chemical_formula_sum   'Cs2 Na4 B2 O6'
_cell_volume   210.52998852
_cell_formula_units_Z   2
loop_
 _symmetry_equiv_pos_site_id
 _symmetry_equiv_pos_as_xyz
  1  'x, y, z'
loop_
 _atom_site_type_symbol
 _atom_site_label
 _atom_site_symmetry_multiplicity
 _atom_site_fract_x
 _atom_site_fract_y
 _atom_site_fract_z
 _atom_site_occupancy
  Cs  Cs0  1  0.873349  0.500000  0.500000  1
  Cs  Cs1  1  0.126651  0.000000  0.000000  1
  Na  Na2  1  0.360000  0.500000  0.768607  1
  Na  Na3  1  0.360000  0.500000  0.231393  1
  Na  Na4  1  0.640000  0.000000  0.731393  1
  Na  Na5  1  0.640000  0.000000  0.268607  1
  B  B6  1  0.781184  0.500000  0.000000  1
  B  B7  1  0.218816  0.000000  0.500000  1
  O  O8  1  0.651247  0.294555  0.000000  1
  O  O9  1  0.348753  0.205445  0.500000  1
  O  O10  1  0.026373  0.500000  0.000000  1
  O  O11  1  0.973627  0.000000  0.500000  1
  O  O12  1  0.348753  0.794555  0.500000  1
  O  O13  1  0.651247  0.705445  0.000000  1
