# generated using pymatgen
data_Cs2NaAsO4
_symmetry_space_group_name_H-M   'P 1'
_cell_length_a   6.17929473
_cell_length_b   6.27763876
_cell_length_c   8.41885779
_cell_angle_alpha   90.00000000
_cell_angle_beta   92.50017082
_cell_angle_gamma   90.00000000
_symmetry_Int_Tables_number   1
_chemical_formula_structural   Cs2NaAsO4
_chemical_formula_sum   'Cs4 Na2 As2 O8'
_cell_volume   326.26823952
_cell_formula_units_Z   2
loop_
 _symmetry_equiv_pos_site_id
 _symmetry_equiv_pos_as_xyz
  1  'x, y, z'
loop_
 _atom_site_type_symbol
 _atom_site_label
 _atom_site_symmetry_multiplicity
 _atom_site_fract_x
 _atom_site_fract_y
 _atom_site_fract_z
 _atom_site_occupancy
  Cs  Cs0  1  0.160919  0.250000  0.185619  1
  Cs  Cs1  1  0.839081  0.750000  0.814381  1
  Cs  Cs2  1  0.704480  0.250000  0.490640  1
  Cs  Cs3  1  0.295520  0.750000  0.509360  1
  Na  Na4  1  0.361493  0.750000  0.023913  1
  Na  Na5  1  0.638507  0.250000  0.976087  1
  As  As6  1  0.212456  0.250000  0.760009  1
  As  As7  1  0.787544  0.750000  0.239991  1
  O  O8  1  0.648403  0.971648  0.166118  1
  O  O9  1  0.351597  0.471648  0.833882  1
  O  O10  1  0.351597  0.028352  0.833882  1
  O  O11  1  0.648403  0.528352  0.166118  1
  O  O12  1  0.049868  0.750000  0.174468  1
  O  O13  1  0.792916  0.750000  0.445499  1
  O  O14  1  0.950132  0.250000  0.825532  1
  O  O15  1  0.207084  0.250000  0.554501  1
