# generated using pymatgen
data_RbAgO
_symmetry_space_group_name_H-M   'P 1'
_cell_length_a   7.81989080
_cell_length_b   7.81989080
_cell_length_c   7.81989080
_cell_angle_alpha   98.19099229
_cell_angle_beta   98.19099229
_cell_angle_gamma   135.64757154
_symmetry_Int_Tables_number   1
_chemical_formula_structural   RbAgO
_chemical_formula_sum   'Rb4 Ag4 O4'
_cell_volume   309.56117027
_cell_formula_units_Z   4
loop_
 _symmetry_equiv_pos_site_id
 _symmetry_equiv_pos_as_xyz
  1  'x, y, z'
loop_
 _atom_site_type_symbol
 _atom_site_label
 _atom_site_symmetry_multiplicity
 _atom_site_fract_x
 _atom_site_fract_y
 _atom_site_fract_z
 _atom_site_occupancy
  Rb  Rb0  1  1.000000  0.685054  0.685054  1
  Rb  Rb1  1  0.685054  1.000000  0.685054  1
  Rb  Rb2  1  0.314946  1.000000  0.314946  1
  Rb  Rb3  1  1.000000  0.314946  0.314946  1
  Ag  Ag4  1  0.355734  0.644266  0.000000  1
  Ag  Ag5  1  0.644266  0.644266  0.288532  1
  Ag  Ag6  1  0.355734  0.355734  0.711468  1
  Ag  Ag7  1  0.644266  0.355734  0.000000  1
  O  O8  1  0.500000  0.211814  0.711814  1
  O  O9  1  0.211814  0.500000  0.711814  1
  O  O10  1  0.788186  0.500000  0.288186  1
  O  O11  1  0.500000  0.788186  0.288186  1
