# generated using pymatgen
data_CdGeO3
_symmetry_space_group_name_H-M   'P 1'
_cell_length_a   5.90404306
_cell_length_b   5.90404306
_cell_length_c   5.90404306
_cell_angle_alpha   52.19537115
_cell_angle_beta   52.19537115
_cell_angle_gamma   52.19537115
_symmetry_Int_Tables_number   1
_chemical_formula_structural   CdGeO3
_chemical_formula_sum   'Cd2 Ge2 O6'
_cell_volume   118.83628960
_cell_formula_units_Z   2
loop_
 _symmetry_equiv_pos_site_id
 _symmetry_equiv_pos_as_xyz
  1  'x, y, z'
loop_
 _atom_site_type_symbol
 _atom_site_label
 _atom_site_symmetry_multiplicity
 _atom_site_fract_x
 _atom_site_fract_y
 _atom_site_fract_z
 _atom_site_occupancy
  Cd  Cd0  1  0.367428  0.367428  0.367428  1
  Cd  Cd1  1  0.632572  0.632572  0.632572  1
  Ge  Ge2  1  0.159532  0.159532  0.159532  1
  Ge  Ge3  1  0.840468  0.840468  0.840468  1
  O  O4  1  0.187755  0.560312  0.965047  1
  O  O5  1  0.560312  0.965047  0.187755  1
  O  O6  1  0.965047  0.187755  0.560312  1
  O  O7  1  0.812245  0.439688  0.034953  1
  O  O8  1  0.034953  0.812245  0.439688  1
  O  O9  1  0.439688  0.034953  0.812245  1
