# generated using pymatgen
data_BaZrF6
_symmetry_space_group_name_H-M   'P 1'
_cell_length_a   6.95830279
_cell_length_b   6.95830279
_cell_length_c   5.61354289
_cell_angle_alpha   90.00000000
_cell_angle_beta   90.00000000
_cell_angle_gamma   111.99703428
_symmetry_Int_Tables_number   1
_chemical_formula_structural   BaZrF6
_chemical_formula_sum   'Ba2 Zr2 F12'
_cell_volume   252.01049846
_cell_formula_units_Z   2
loop_
 _symmetry_equiv_pos_site_id
 _symmetry_equiv_pos_as_xyz
  1  'x, y, z'
loop_
 _atom_site_type_symbol
 _atom_site_label
 _atom_site_symmetry_multiplicity
 _atom_site_fract_x
 _atom_site_fract_y
 _atom_site_fract_z
 _atom_site_occupancy
  Ba  Ba0  1  0.250000  0.250000  0.444402  1
  Ba  Ba1  1  0.750000  0.750000  0.555598  1
  Zr  Zr2  1  0.750000  0.250000  1.000000  1
  Zr  Zr3  1  0.250000  0.750000  0.000000  1
  F  F4  1  0.181327  0.931940  0.749534  1
  F  F5  1  0.318673  0.568060  0.749534  1
  F  F6  1  0.431940  0.681327  0.250466  1
  F  F7  1  0.068060  0.818673  0.250466  1
  F  F8  1  0.570103  0.929897  0.850070  1
  F  F9  1  0.929897  0.570103  0.850070  1
  F  F10  1  0.429897  0.070103  0.149930  1
  F  F11  1  0.070103  0.429897  0.149930  1
  F  F12  1  0.931940  0.181327  0.749534  1
  F  F13  1  0.568060  0.318673  0.749534  1
  F  F14  1  0.681327  0.431940  0.250466  1
  F  F15  1  0.818673  0.068060  0.250466  1
