# generated using pymatgen
data_Er2S2O
_symmetry_space_group_name_H-M   'P 1'
_cell_length_a   6.82648843
_cell_length_b   6.84030890
_cell_length_c   8.22398031
_cell_angle_alpha   90.00000000
_cell_angle_beta   99.44033794
_cell_angle_gamma   90.00000000
_symmetry_Int_Tables_number   1
_chemical_formula_structural   Er2S2O
_chemical_formula_sum   'Er8 S8 O4'
_cell_volume   378.82031658
_cell_formula_units_Z   4
loop_
 _symmetry_equiv_pos_site_id
 _symmetry_equiv_pos_as_xyz
  1  'x, y, z'
loop_
 _atom_site_type_symbol
 _atom_site_label
 _atom_site_symmetry_multiplicity
 _atom_site_fract_x
 _atom_site_fract_y
 _atom_site_fract_z
 _atom_site_occupancy
  Er  Er0  1  0.249539  0.053500  0.138631  1
  Er  Er1  1  0.250461  0.553500  0.861369  1
  Er  Er2  1  0.750461  0.946500  0.861369  1
  Er  Er3  1  0.749539  0.446500  0.138631  1
  Er  Er4  1  0.322948  0.144806  0.575373  1
  Er  Er5  1  0.177052  0.644806  0.424627  1
  Er  Er6  1  0.677052  0.855194  0.424627  1
  Er  Er7  1  0.822948  0.355194  0.575373  1
  S  S8  1  0.530455  0.777211  0.075002  1
  S  S9  1  0.969545  0.277211  0.924998  1
  S  S10  1  0.469545  0.222789  0.924998  1
  S  S11  1  0.030455  0.722789  0.075002  1
  S  S12  1  0.078948  0.867589  0.680934  1
  S  S13  1  0.421052  0.367589  0.319066  1
  S  S14  1  0.921052  0.132411  0.319066  1
  S  S15  1  0.578948  0.632411  0.680934  1
  O  O16  1  0.850284  0.587220  0.383116  1
  O  O17  1  0.649716  0.087220  0.616884  1
  O  O18  1  0.149716  0.412780  0.616884  1
  O  O19  1  0.350284  0.912780  0.383116  1
