# generated using pymatgen
data_AsF5
_symmetry_space_group_name_H-M   'P 1'
_cell_length_a   5.94581755
_cell_length_b   5.94581755
_cell_length_c   6.61295760
_cell_angle_alpha   90.00000000
_cell_angle_beta   90.00000000
_cell_angle_gamma   120.00000000
_symmetry_Int_Tables_number   1
_chemical_formula_structural   AsF5
_chemical_formula_sum   'As2 F10'
_cell_volume   202.46479939
_cell_formula_units_Z   2
loop_
 _symmetry_equiv_pos_site_id
 _symmetry_equiv_pos_as_xyz
  1  'x, y, z'
loop_
 _atom_site_type_symbol
 _atom_site_label
 _atom_site_symmetry_multiplicity
 _atom_site_fract_x
 _atom_site_fract_y
 _atom_site_fract_z
 _atom_site_occupancy
  As  As0  1  0.666667  0.333333  0.750000  1
  As  As1  1  0.333333  0.666667  0.250000  1
  F  F2  1  0.333333  0.666667  0.514612  1
  F  F3  1  0.666667  0.333333  0.014612  1
  F  F4  1  0.166718  0.333437  0.250000  1
  F  F5  1  0.833282  0.166718  0.750000  1
  F  F6  1  0.333437  0.166718  0.750000  1
  F  F7  1  0.666563  0.833282  0.250000  1
  F  F8  1  0.166718  0.833282  0.250000  1
  F  F9  1  0.833282  0.666563  0.750000  1
  F  F10  1  0.333333  0.666667  0.985388  1
  F  F11  1  0.666667  0.333333  0.485388  1
