# generated using pymatgen
data_YAsO4
_symmetry_space_group_name_H-M   'P 1'
_cell_length_a   5.98800129
_cell_length_b   5.98800129
_cell_length_c   5.98800129
_cell_angle_alpha   106.44665780
_cell_angle_beta   106.44665780
_cell_angle_gamma   115.70609097
_symmetry_Int_Tables_number   1
_chemical_formula_structural   YAsO4
_chemical_formula_sum   'Y2 As2 O8'
_cell_volume   163.79770199
_cell_formula_units_Z   2
loop_
 _symmetry_equiv_pos_site_id
 _symmetry_equiv_pos_as_xyz
  1  'x, y, z'
loop_
 _atom_site_type_symbol
 _atom_site_label
 _atom_site_symmetry_multiplicity
 _atom_site_fract_x
 _atom_site_fract_y
 _atom_site_fract_z
 _atom_site_occupancy
  Y  Y0  1  0.750000  0.250000  0.500000  1
  Y  Y1  1  0.500000  0.500000  0.000000  1
  As  As2  1  0.250000  0.750000  0.500000  1
  As  As3  1  0.000000  0.000000  0.000000  1
  O  O4  1  0.358080  0.177035  0.181045  1
  O  O5  1  0.427035  0.745989  0.318955  1
  O  O6  1  0.427035  0.108080  0.681045  1
  O  O7  1  0.995989  0.177035  0.818955  1
  O  O8  1  0.822965  0.004011  0.181045  1
  O  O9  1  0.891920  0.572965  0.318955  1
  O  O10  1  0.254011  0.572965  0.681045  1
  O  O11  1  0.822965  0.641920  0.818955  1
