# generated using pymatgen
data_CaPtF6
_symmetry_space_group_name_H-M   'P 1'
_cell_length_a   5.86912715
_cell_length_b   5.86912715
_cell_length_c   5.86912715
_cell_angle_alpha   55.12016699
_cell_angle_beta   55.12016699
_cell_angle_gamma   55.12016699
_symmetry_Int_Tables_number   1
_chemical_formula_structural   CaPtF6
_chemical_formula_sum   'Ca1 Pt1 F6'
_cell_volume   126.73386953
_cell_formula_units_Z   1
loop_
 _symmetry_equiv_pos_site_id
 _symmetry_equiv_pos_as_xyz
  1  'x, y, z'
loop_
 _atom_site_type_symbol
 _atom_site_label
 _atom_site_symmetry_multiplicity
 _atom_site_fract_x
 _atom_site_fract_y
 _atom_site_fract_z
 _atom_site_occupancy
  Ca  Ca0  1  0.500000  0.500000  0.500000  1
  Pt  Pt1  1  0.000000  1.000000  0.000000  1
  F  F2  1  0.906352  0.224458  0.636758  1
  F  F3  1  0.224458  0.636758  0.906352  1
  F  F4  1  0.363242  0.093648  0.775542  1
  F  F5  1  0.775542  0.363242  0.093648  1
  F  F6  1  0.093648  0.775542  0.363242  1
  F  F7  1  0.636758  0.906352  0.224458  1
