# generated using pymatgen
data_S
_symmetry_space_group_name_H-M   'P 1'
_cell_length_a   16.64397353
_cell_length_b   6.67754049
_cell_length_c   22.92695559
_cell_angle_alpha   90.00000000
_cell_angle_beta   133.32936921
_cell_angle_gamma   90.00000000
_symmetry_Int_Tables_number   1
_chemical_formula_structural   S
_chemical_formula_sum   S56
_cell_volume   1853.55655621
_cell_formula_units_Z   56
loop_
 _symmetry_equiv_pos_site_id
 _symmetry_equiv_pos_as_xyz
  1  'x, y, z'
loop_
 _atom_site_type_symbol
 _atom_site_label
 _atom_site_symmetry_multiplicity
 _atom_site_fract_x
 _atom_site_fract_y
 _atom_site_fract_z
 _atom_site_occupancy
  S  S0  1  0.697093  0.084379  0.213486  1
  S  S1  1  0.302907  0.584379  0.286514  1
  S  S2  1  0.302907  0.915621  0.786514  1
  S  S3  1  0.697093  0.415621  0.713486  1
  S  S4  1  0.955757  0.813808  0.573145  1
  S  S5  1  0.044243  0.313808  0.926855  1
  S  S6  1  0.044243  0.186192  0.426855  1
  S  S7  1  0.955757  0.686192  0.073145  1
  S  S8  1  0.761166  0.125190  0.582616  1
  S  S9  1  0.238834  0.625190  0.917384  1
  S  S10  1  0.238834  0.874810  0.417384  1
  S  S11  1  0.761166  0.374810  0.082616  1
  S  S12  1  0.941607  0.131415  0.558168  1
  S  S13  1  0.058393  0.631415  0.941832  1
  S  S14  1  0.058393  0.868585  0.441832  1
  S  S15  1  0.941607  0.368585  0.058168  1
  S  S16  1  0.900304  0.245171  0.680540  1
  S  S17  1  0.099696  0.745171  0.819460  1
  S  S18  1  0.099696  0.754829  0.319460  1
  S  S19  1  0.900304  0.254829  0.180540  1
  S  S20  1  0.017982  0.251179  0.663987  1
  S  S21  1  0.982018  0.751179  0.836013  1
  S  S22  1  0.982018  0.748821  0.336013  1
  S  S23  1  0.017982  0.248821  0.163987  1
  S  S24  1  0.540658  0.173347  0.113828  1
  S  S25  1  0.459342  0.673347  0.386172  1
  S  S26  1  0.459342  0.826653  0.886172  1
  S  S27  1  0.540658  0.326653  0.613828  1
  S  S28  1  0.719331  0.149051  0.311199  1
  S  S29  1  0.280669  0.649051  0.188801  1
  S  S30  1  0.280669  0.850949  0.688801  1
  S  S31  1  0.719331  0.350949  0.811199  1
  S  S32  1  0.556532  0.491686  0.117322  1
  S  S33  1  0.443468  0.991686  0.382678  1
  S  S34  1  0.443468  0.508314  0.882678  1
  S  S35  1  0.556532  0.008314  0.617322  1
  S  S36  1  0.741770  0.466647  0.321707  1
  S  S37  1  0.258230  0.966647  0.178293  1
  S  S38  1  0.258230  0.533353  0.678293  1
  S  S39  1  0.741770  0.033353  0.821707  1
  S  S40  1  0.483599  0.603633  0.150947  1
  S  S41  1  0.516401  0.103633  0.349053  1
  S  S42  1  0.516401  0.396367  0.849053  1
  S  S43  1  0.483599  0.896367  0.650947  1
  S  S44  1  0.604932  0.587816  0.284711  1
  S  S45  1  0.395068  0.087816  0.215289  1
  S  S46  1  0.395068  0.412184  0.715289  1
  S  S47  1  0.604932  0.912184  0.784711  1
  S  S48  1  0.799504  0.731051  0.519375  1
  S  S49  1  0.200496  0.231051  0.980625  1
  S  S50  1  0.200496  0.268949  0.480625  1
  S  S51  1  0.799504  0.768949  0.019375  1
  S  S52  1  0.780653  0.807253  0.596012  1
  S  S53  1  0.219347  0.307253  0.903988  1
  S  S54  1  0.219347  0.192747  0.403988  1
  S  S55  1  0.780653  0.692747  0.096012  1
