# generated using pymatgen
data_Zn(PO3)2
_symmetry_space_group_name_H-M   'P 1'
_cell_length_a   6.74841037
_cell_length_b   6.74841037
_cell_length_c   5.02498719
_cell_angle_alpha   75.99213634
_cell_angle_beta   104.00786366
_cell_angle_gamma   95.15735560
_symmetry_Int_Tables_number   1
_chemical_formula_structural   Zn(PO3)2
_chemical_formula_sum   'Zn2 P4 O12'
_cell_volume   215.31597258
_cell_formula_units_Z   2
loop_
 _symmetry_equiv_pos_site_id
 _symmetry_equiv_pos_as_xyz
  1  'x, y, z'
loop_
 _atom_site_type_symbol
 _atom_site_label
 _atom_site_symmetry_multiplicity
 _atom_site_fract_x
 _atom_site_fract_y
 _atom_site_fract_z
 _atom_site_occupancy
  Zn  Zn0  1  0.124198  0.124198  0.750000  1
  Zn  Zn1  1  0.875802  0.875802  0.250000  1
  P  P2  1  0.625060  0.197218  0.744278  1
  P  P3  1  0.197218  0.625060  0.755722  1
  P  P4  1  0.374940  0.802782  0.255722  1
  P  P5  1  0.802782  0.374940  0.244278  1
  O  O6  1  0.410625  0.112935  0.691033  1
  O  O7  1  0.112935  0.410625  0.808967  1
  O  O8  1  0.589375  0.887065  0.308967  1
  O  O9  1  0.887065  0.589375  0.191033  1
  O  O10  1  0.801112  0.052240  0.847592  1
  O  O11  1  0.052240  0.801112  0.652408  1
  O  O12  1  0.355840  0.655425  0.039916  1
  O  O13  1  0.655425  0.355840  0.460084  1
  O  O14  1  0.644160  0.344575  0.960084  1
  O  O15  1  0.344575  0.644160  0.539916  1
  O  O16  1  0.947760  0.198888  0.347592  1
  O  O17  1  0.198888  0.947760  0.152408  1
