# generated using pymatgen
data_ZrGeO4
_symmetry_space_group_name_H-M   'P 1'
_cell_length_a   6.39761995
_cell_length_b   6.39761995
_cell_length_c   6.39761995
_cell_angle_alpha   134.71195999
_cell_angle_beta   134.71195999
_cell_angle_gamma   65.97807954
_symmetry_Int_Tables_number   1
_chemical_formula_structural   ZrGeO4
_chemical_formula_sum   'Zr2 Ge2 O8'
_cell_volume   130.22437163
_cell_formula_units_Z   2
loop_
 _symmetry_equiv_pos_site_id
 _symmetry_equiv_pos_as_xyz
  1  'x, y, z'
loop_
 _atom_site_type_symbol
 _atom_site_label
 _atom_site_symmetry_multiplicity
 _atom_site_fract_x
 _atom_site_fract_y
 _atom_site_fract_z
 _atom_site_occupancy
  Zr  Zr0  1  0.750000  0.250000  0.500000  1
  Zr  Zr1  1  0.000000  0.000000  0.000000  1
  Ge  Ge2  1  0.250000  0.750000  0.500000  1
  Ge  Ge3  1  0.500000  0.500000  0.000000  1
  O  O4  1  0.341081  0.935126  0.939408  1
  O  O5  1  0.685126  0.245719  0.094046  1
  O  O6  1  0.151673  0.591081  0.905954  1
  O  O7  1  0.995719  0.401673  0.060592  1
  O  O8  1  0.754281  0.848327  0.439408  1
  O  O9  1  0.598327  0.658919  0.594046  1
  O  O10  1  0.064874  0.004281  0.405954  1
  O  O11  1  0.408919  0.314874  0.560592  1
