# generated using pymatgen
data_Na6ZnS4
_symmetry_space_group_name_H-M   'P 1'
_cell_length_a   8.98132724
_cell_length_b   8.98132724
_cell_length_c   6.94182904
_cell_angle_alpha   90.00000000
_cell_angle_beta   90.00000000
_cell_angle_gamma   120.00000000
_symmetry_Int_Tables_number   1
_chemical_formula_structural   Na6ZnS4
_chemical_formula_sum   'Na12 Zn2 S8'
_cell_volume   484.93729598
_cell_formula_units_Z   2
loop_
 _symmetry_equiv_pos_site_id
 _symmetry_equiv_pos_as_xyz
  1  'x, y, z'
loop_
 _atom_site_type_symbol
 _atom_site_label
 _atom_site_symmetry_multiplicity
 _atom_site_fract_x
 _atom_site_fract_y
 _atom_site_fract_z
 _atom_site_occupancy
  Na  Na0  1  0.147933  0.852067  0.538046  1
  Na  Na1  1  0.295866  0.147933  0.038046  1
  Na  Na2  1  0.852067  0.704134  0.038046  1
  Na  Na3  1  0.147933  0.295866  0.538046  1
  Na  Na4  1  0.704134  0.852067  0.538046  1
  Na  Na5  1  0.852067  0.147933  0.038046  1
  Na  Na6  1  0.531278  0.468722  0.365882  1
  Na  Na7  1  0.062557  0.531278  0.865882  1
  Na  Na8  1  0.468722  0.937443  0.865882  1
  Na  Na9  1  0.531278  0.062557  0.365882  1
  Na  Na10  1  0.937443  0.468722  0.365882  1
  Na  Na11  1  0.468722  0.531278  0.865882  1
  Zn  Zn12  1  0.666667  0.333333  0.748641  1
  Zn  Zn13  1  0.333333  0.666667  0.248641  1
  S  S14  1  0.812247  0.187753  0.641895  1
  S  S15  1  0.624495  0.812247  0.141895  1
  S  S16  1  0.333333  0.666667  0.593388  1
  S  S17  1  0.666667  0.333333  0.093388  1
  S  S18  1  0.187753  0.812247  0.141895  1
  S  S19  1  0.375505  0.187753  0.641895  1
  S  S20  1  0.812247  0.624495  0.641895  1
  S  S21  1  0.187753  0.375505  0.141895  1
