# generated using pymatgen
data_LiMgAsO4
_symmetry_space_group_name_H-M   'P 1'
_cell_length_a   4.94657342
_cell_length_b   6.05076770
_cell_length_c   10.57927834
_cell_angle_alpha   90.00000000
_cell_angle_beta   90.00000000
_cell_angle_gamma   90.00000000
_symmetry_Int_Tables_number   1
_chemical_formula_structural   LiMgAsO4
_chemical_formula_sum   'Li4 Mg4 As4 O16'
_cell_volume   316.64379573
_cell_formula_units_Z   4
loop_
 _symmetry_equiv_pos_site_id
 _symmetry_equiv_pos_as_xyz
  1  'x, y, z'
loop_
 _atom_site_type_symbol
 _atom_site_label
 _atom_site_symmetry_multiplicity
 _atom_site_fract_x
 _atom_site_fract_y
 _atom_site_fract_z
 _atom_site_occupancy
  Li  Li0  1  0.000000  0.000000  0.000000  1
  Li  Li1  1  0.500000  0.000000  0.500000  1
  Li  Li2  1  0.000000  0.500000  0.000000  1
  Li  Li3  1  0.500000  0.500000  0.500000  1
  Mg  Mg4  1  0.006124  0.750000  0.274777  1
  Mg  Mg5  1  0.993876  0.250000  0.725223  1
  Mg  Mg6  1  0.493876  0.750000  0.774777  1
  Mg  Mg7  1  0.506124  0.250000  0.225223  1
  As  As8  1  0.065110  0.250000  0.405710  1
  As  As9  1  0.434890  0.250000  0.905710  1
  As  As10  1  0.934890  0.750000  0.594290  1
  As  As11  1  0.565110  0.750000  0.094290  1
  O  O12  1  0.778290  0.530967  0.671087  1
  O  O13  1  0.221710  0.469033  0.328913  1
  O  O14  1  0.721710  0.530967  0.171087  1
  O  O15  1  0.778290  0.969033  0.671087  1
  O  O16  1  0.278290  0.030967  0.828913  1
  O  O17  1  0.780106  0.250000  0.901882  1
  O  O18  1  0.278290  0.469033  0.828913  1
  O  O19  1  0.221710  0.030967  0.328913  1
  O  O20  1  0.219894  0.750000  0.098118  1
  O  O21  1  0.719894  0.250000  0.401882  1
  O  O22  1  0.796474  0.750000  0.444968  1
  O  O23  1  0.280106  0.750000  0.598118  1
  O  O24  1  0.703526  0.750000  0.944968  1
  O  O25  1  0.296474  0.250000  0.055032  1
  O  O26  1  0.203526  0.250000  0.555032  1
  O  O27  1  0.721710  0.969033  0.171087  1
