# generated using pymatgen
data_RbTe
_symmetry_space_group_name_H-M   'P 1'
_cell_length_a   4.94691573
_cell_length_b   5.98191047
_cell_length_c   11.27698941
_cell_angle_alpha   90.00000000
_cell_angle_beta   90.00000000
_cell_angle_gamma   90.00000000
_symmetry_Int_Tables_number   1
_chemical_formula_structural   RbTe
_chemical_formula_sum   'Rb4 Te4'
_cell_volume   333.70874955
_cell_formula_units_Z   4
loop_
 _symmetry_equiv_pos_site_id
 _symmetry_equiv_pos_as_xyz
  1  'x, y, z'
loop_
 _atom_site_type_symbol
 _atom_site_label
 _atom_site_symmetry_multiplicity
 _atom_site_fract_x
 _atom_site_fract_y
 _atom_site_fract_z
 _atom_site_occupancy
  Rb  Rb0  1  0.500000  0.678780  0.866252  1
  Rb  Rb1  1  0.500000  0.321220  0.133748  1
  Rb  Rb2  1  0.500000  0.178780  0.633748  1
  Rb  Rb3  1  0.500000  0.821220  0.366252  1
  Te  Te4  1  0.000000  0.141239  0.897642  1
  Te  Te5  1  0.000000  0.858761  0.102358  1
  Te  Te6  1  0.000000  0.641239  0.602358  1
  Te  Te7  1  0.000000  0.358761  0.397642  1
