# generated using pymatgen
data_CdSO4
_symmetry_space_group_name_H-M   'P 1'
_cell_length_a   4.99780579
_cell_length_b   4.99780579
_cell_length_c   7.31344648
_cell_angle_alpha   90.00000000
_cell_angle_beta   90.00000000
_cell_angle_gamma   114.64348385
_symmetry_Int_Tables_number   1
_chemical_formula_structural   CdSO4
_chemical_formula_sum   'Cd2 S2 O8'
_cell_volume   166.03760456
_cell_formula_units_Z   2
loop_
 _symmetry_equiv_pos_site_id
 _symmetry_equiv_pos_as_xyz
  1  'x, y, z'
loop_
 _atom_site_type_symbol
 _atom_site_label
 _atom_site_symmetry_multiplicity
 _atom_site_fract_x
 _atom_site_fract_y
 _atom_site_fract_z
 _atom_site_occupancy
  Cd  Cd0  1  0.000000  0.000000  0.500000  1
  Cd  Cd1  1  0.000000  0.000000  0.000000  1
  S  S2  1  0.355153  0.644847  0.750000  1
  S  S3  1  0.644847  0.355153  0.250000  1
  O  O4  1  0.311841  0.234246  0.250000  1
  O  O5  1  0.688159  0.765754  0.750000  1
  O  O6  1  0.234246  0.311841  0.750000  1
  O  O7  1  0.765754  0.688159  0.250000  1
  O  O8  1  0.738801  0.261199  0.080324  1
  O  O9  1  0.261199  0.738801  0.580324  1
  O  O10  1  0.261199  0.738801  0.919676  1
  O  O11  1  0.738801  0.261199  0.419676  1
