# generated using pymatgen
data_TaInO4
_symmetry_space_group_name_H-M   'P 1'
_cell_length_a   4.88890214
_cell_length_b   5.88188733
_cell_length_c   5.22774686
_cell_angle_alpha   90.00000000
_cell_angle_beta   91.32183623
_cell_angle_gamma   90.00000000
_symmetry_Int_Tables_number   1
_chemical_formula_structural   TaInO4
_chemical_formula_sum   'Ta2 In2 O8'
_cell_volume   150.28893590
_cell_formula_units_Z   2
loop_
 _symmetry_equiv_pos_site_id
 _symmetry_equiv_pos_as_xyz
  1  'x, y, z'
loop_
 _atom_site_type_symbol
 _atom_site_label
 _atom_site_symmetry_multiplicity
 _atom_site_fract_x
 _atom_site_fract_y
 _atom_site_fract_z
 _atom_site_occupancy
  Ta  Ta0  1  0.000000  0.829039  0.250000  1
  Ta  Ta1  1  0.000000  0.170961  0.750000  1
  In  In2  1  0.500000  0.324411  0.250000  1
  In  In3  1  0.500000  0.675589  0.750000  1
  O  O4  1  0.740682  0.622347  0.100208  1
  O  O5  1  0.259318  0.622347  0.399792  1
  O  O6  1  0.259318  0.377653  0.899792  1
  O  O7  1  0.740682  0.377653  0.600208  1
  O  O8  1  0.786880  0.103602  0.063912  1
  O  O9  1  0.213120  0.103602  0.436088  1
  O  O10  1  0.213120  0.896398  0.936088  1
  O  O11  1  0.786880  0.896398  0.563912  1
