# generated using pymatgen
data_Ho2O3
_symmetry_space_group_name_H-M   'P 1'
_cell_length_a   9.18903598
_cell_length_b   9.18903598
_cell_length_c   9.18903598
_cell_angle_alpha   109.47122063
_cell_angle_beta   109.47122063
_cell_angle_gamma   109.47122063
_symmetry_Int_Tables_number   1
_chemical_formula_structural   Ho2O3
_chemical_formula_sum   'Ho16 O24'
_cell_volume   597.29374340
_cell_formula_units_Z   8
loop_
 _symmetry_equiv_pos_site_id
 _symmetry_equiv_pos_as_xyz
  1  'x, y, z'
loop_
 _atom_site_type_symbol
 _atom_site_label
 _atom_site_symmetry_multiplicity
 _atom_site_fract_x
 _atom_site_fract_y
 _atom_site_fract_z
 _atom_site_occupancy
  Ho  Ho0  1  0.750000  0.782673  0.032673  1
  Ho  Ho1  1  0.467327  0.250000  0.717327  1
  Ho  Ho2  1  0.717327  0.467327  0.250000  1
  Ho  Ho3  1  0.032673  0.750000  0.782673  1
  Ho  Ho4  1  0.782673  0.032673  0.750000  1
  Ho  Ho5  1  0.250000  0.717327  0.467327  1
  Ho  Ho6  1  0.750000  0.282673  0.532673  1
  Ho  Ho7  1  0.967327  0.250000  0.217327  1
  Ho  Ho8  1  0.217327  0.967327  0.250000  1
  Ho  Ho9  1  0.532673  0.750000  0.282673  1
  Ho  Ho10  1  0.282673  0.532673  0.750000  1
  Ho  Ho11  1  0.250000  0.217327  0.967327  1
  Ho  Ho12  1  1.000000  0.500000  0.000000  1
  Ho  Ho13  1  0.500000  1.000000  0.000000  1
  Ho  Ho14  1  1.000000  1.000000  0.500000  1
  Ho  Ho15  1  0.500000  0.500000  0.500000  1
  O  O16  1  0.729280  0.260515  0.771989  1
  O  O17  1  0.988526  0.957291  0.728011  1
  O  O18  1  0.511474  0.239485  0.968765  1
  O  O19  1  0.542709  0.531235  0.770720  1
  O  O20  1  0.531235  0.770720  0.542709  1
  O  O21  1  0.771989  0.729280  0.260515  1
  O  O22  1  0.957291  0.728011  0.988526  1
  O  O23  1  0.968765  0.511474  0.239485  1
  O  O24  1  0.260515  0.771989  0.729280  1
  O  O25  1  0.728011  0.988526  0.957291  1
  O  O26  1  0.239485  0.968765  0.511474  1
  O  O27  1  0.770720  0.542709  0.531235  1
  O  O28  1  0.042709  0.271989  0.011474  1
  O  O29  1  0.760515  0.031235  0.488526  1
  O  O30  1  0.739485  0.228011  0.270720  1
  O  O31  1  0.468765  0.229280  0.457291  1
  O  O32  1  0.457291  0.468765  0.229280  1
  O  O33  1  0.228011  0.270720  0.739485  1
  O  O34  1  0.488526  0.760515  0.031235  1
  O  O35  1  0.271989  0.011474  0.042709  1
  O  O36  1  0.270720  0.739485  0.228011  1
  O  O37  1  0.031235  0.488526  0.760515  1
  O  O38  1  0.011474  0.042709  0.271989  1
  O  O39  1  0.229280  0.457291  0.468765  1
