# generated using pymatgen
data_Ba2GeAs2
_symmetry_space_group_name_H-M   'P 1'
_cell_length_a   7.77369517
_cell_length_b   9.82996181
_cell_length_c   8.86961420
_cell_angle_alpha   90.00000000
_cell_angle_beta   106.03916951
_cell_angle_gamma   90.00000000
_symmetry_Int_Tables_number   1
_chemical_formula_structural   Ba2GeAs2
_chemical_formula_sum   'Ba8 Ge4 As8'
_cell_volume   651.38905882
_cell_formula_units_Z   4
loop_
 _symmetry_equiv_pos_site_id
 _symmetry_equiv_pos_as_xyz
  1  'x, y, z'
loop_
 _atom_site_type_symbol
 _atom_site_label
 _atom_site_symmetry_multiplicity
 _atom_site_fract_x
 _atom_site_fract_y
 _atom_site_fract_z
 _atom_site_occupancy
  Ba  Ba0  1  0.396610  0.663908  0.520339  1
  Ba  Ba1  1  0.103390  0.163908  0.479661  1
  Ba  Ba2  1  0.603390  0.336092  0.479661  1
  Ba  Ba3  1  0.896610  0.836092  0.520339  1
  Ba  Ba4  1  0.755986  0.861239  0.002796  1
  Ba  Ba5  1  0.744014  0.361239  0.997204  1
  Ba  Ba6  1  0.244014  0.138761  0.997204  1
  Ba  Ba7  1  0.255986  0.638761  0.002796  1
  Ge  Ge8  1  0.022451  0.464627  0.640173  1
  Ge  Ge9  1  0.522451  0.035373  0.640173  1
  Ge  Ge10  1  0.977549  0.535373  0.359827  1
  Ge  Ge11  1  0.477549  0.964627  0.359827  1
  As  As12  1  0.666713  0.599735  0.244039  1
  As  As13  1  0.164013  0.399772  0.235718  1
  As  As14  1  0.835987  0.600228  0.764282  1
  As  As15  1  0.664013  0.100228  0.235718  1
  As  As16  1  0.833287  0.099735  0.755961  1
  As  As17  1  0.333287  0.400265  0.755961  1
  As  As18  1  0.166713  0.900265  0.244039  1
  As  As19  1  0.335987  0.899772  0.764282  1
