# generated using pymatgen
data_SrZn2(PO4)2
_symmetry_space_group_name_H-M   'P 1'
_cell_length_a   8.44752414
_cell_length_b   9.64712661
_cell_length_c   9.14225623
_cell_angle_alpha   90.00000000
_cell_angle_beta   92.10376877
_cell_angle_gamma   90.00000000
_symmetry_Int_Tables_number   1
_chemical_formula_structural   SrZn2(PO4)2
_chemical_formula_sum   'Sr4 Zn8 P8 O32'
_cell_volume   744.53991901
_cell_formula_units_Z   4
loop_
 _symmetry_equiv_pos_site_id
 _symmetry_equiv_pos_as_xyz
  1  'x, y, z'
loop_
 _atom_site_type_symbol
 _atom_site_label
 _atom_site_symmetry_multiplicity
 _atom_site_fract_x
 _atom_site_fract_y
 _atom_site_fract_z
 _atom_site_occupancy
  Sr  Sr0  1  0.246650  0.581579  0.110070  1
  Sr  Sr1  1  0.753350  0.081579  0.389930  1
  Sr  Sr2  1  0.753350  0.418421  0.889930  1
  Sr  Sr3  1  0.246650  0.918421  0.610070  1
  Zn  Zn4  1  0.919330  0.818924  0.949661  1
  Zn  Zn5  1  0.080670  0.318924  0.550339  1
  Zn  Zn6  1  0.080670  0.181076  0.050339  1
  Zn  Zn7  1  0.919330  0.681076  0.449661  1
  Zn  Zn8  1  0.575185  0.072785  0.789458  1
  Zn  Zn9  1  0.424815  0.572785  0.710542  1
  Zn  Zn10  1  0.424815  0.927215  0.210542  1
  Zn  Zn11  1  0.575185  0.427215  0.289458  1
  P  P12  1  0.057637  0.584810  0.750025  1
  P  P13  1  0.942363  0.084810  0.749975  1
  P  P14  1  0.942363  0.415190  0.249975  1
  P  P15  1  0.057637  0.915190  0.250025  1
  P  P16  1  0.544338  0.793995  0.930873  1
  P  P17  1  0.455662  0.293995  0.569127  1
  P  P18  1  0.455662  0.206005  0.069127  1
  P  P19  1  0.544338  0.706005  0.430873  1
  O  O20  1  0.948666  0.872850  0.376877  1
  O  O21  1  0.051334  0.372850  0.123123  1
  O  O22  1  0.051334  0.127150  0.623123  1
  O  O23  1  0.948666  0.627150  0.876877  1
  O  O24  1  0.701087  0.643583  0.492409  1
  O  O25  1  0.298913  0.143583  0.007591  1
  O  O26  1  0.298913  0.356417  0.507591  1
  O  O27  1  0.701087  0.856417  0.992409  1
  O  O28  1  0.566304  0.642322  0.876795  1
  O  O29  1  0.433696  0.142322  0.623205  1
  O  O30  1  0.433696  0.357678  0.123205  1
  O  O31  1  0.566304  0.857678  0.376795  1
  O  O32  1  0.064086  0.804655  0.127322  1
  O  O33  1  0.935914  0.304655  0.372678  1
  O  O34  1  0.935914  0.195345  0.872678  1
  O  O35  1  0.064086  0.695345  0.627322  1
  O  O36  1  0.015783  0.947900  0.810487  1
  O  O37  1  0.984217  0.447900  0.689513  1
  O  O38  1  0.984217  0.052100  0.189513  1
  O  O39  1  0.015783  0.552100  0.310487  1
  O  O40  1  0.477027  0.611687  0.303817  1
  O  O41  1  0.522973  0.111687  0.196183  1
  O  O42  1  0.522973  0.388313  0.696183  1
  O  O43  1  0.477027  0.888313  0.803817  1
  O  O44  1  0.419135  0.791921  0.052158  1
  O  O45  1  0.580865  0.291921  0.447842  1
  O  O46  1  0.580865  0.208079  0.947842  1
  O  O47  1  0.419135  0.708079  0.552158  1
  O  O48  1  0.226786  0.934674  0.320662  1
  O  O49  1  0.773214  0.434674  0.179338  1
  O  O50  1  0.773214  0.065326  0.679338  1
  O  O51  1  0.226786  0.565326  0.820662  1
