# generated using pymatgen
data_Rb2MnSe2
_symmetry_space_group_name_H-M   'P 1'
_cell_length_a   8.55043187
_cell_length_b   8.55043187
_cell_length_c   8.55043187
_cell_angle_alpha   133.84243629
_cell_angle_beta   128.89741326
_cell_angle_gamma   71.30045434
_symmetry_Int_Tables_number   1
_chemical_formula_structural   Rb2MnSe2
_chemical_formula_sum   'Rb4 Mn2 Se4'
_cell_volume   343.53926021
_cell_formula_units_Z   2
loop_
 _symmetry_equiv_pos_site_id
 _symmetry_equiv_pos_as_xyz
  1  'x, y, z'
loop_
 _atom_site_type_symbol
 _atom_site_label
 _atom_site_symmetry_multiplicity
 _atom_site_fract_x
 _atom_site_fract_y
 _atom_site_fract_z
 _atom_site_occupancy
  Rb  Rb0  1  0.813675  0.646275  0.167400  1
  Rb  Rb1  1  0.186325  0.353725  0.832600  1
  Rb  Rb2  1  0.521125  0.853725  0.667400  1
  Rb  Rb3  1  0.478875  0.146275  0.332600  1
  Mn  Mn4  1  0.000000  0.750000  0.750000  1
  Mn  Mn5  1  0.000000  0.250000  0.250000  1
  Se  Se6  1  0.286392  0.600885  0.685507  1
  Se  Se7  1  0.084622  0.899115  0.185507  1
  Se  Se8  1  0.915378  0.100885  0.814493  1
  Se  Se9  1  0.713608  0.399115  0.314493  1
