# generated using pymatgen
data_Ca2ZnN2
_symmetry_space_group_name_H-M   'P 1'
_cell_length_a   6.80762316
_cell_length_b   6.80762316
_cell_length_c   6.80762316
_cell_angle_alpha   149.33509289
_cell_angle_beta   149.33509289
_cell_angle_gamma   43.91829867
_symmetry_Int_Tables_number   1
_chemical_formula_structural   Ca2ZnN2
_chemical_formula_sum   'Ca2 Zn1 N2'
_cell_volume   81.83212461
_cell_formula_units_Z   1
loop_
 _symmetry_equiv_pos_site_id
 _symmetry_equiv_pos_as_xyz
  1  'x, y, z'
loop_
 _atom_site_type_symbol
 _atom_site_label
 _atom_site_symmetry_multiplicity
 _atom_site_fract_x
 _atom_site_fract_y
 _atom_site_fract_z
 _atom_site_occupancy
  Ca  Ca0  1  0.663449  0.663449  0.000000  1
  Ca  Ca1  1  0.336551  0.336551  0.000000  1
  Zn  Zn2  1  0.000000  0.000000  0.000000  1
  N  N3  1  0.853699  0.853699  0.000000  1
  N  N4  1  0.146301  0.146301  0.000000  1
