# generated using pymatgen
data_Sr4Al6SO12
_symmetry_space_group_name_H-M   'P 1'
_cell_length_a   8.09501256
_cell_length_b   8.09501256
_cell_length_c   8.09501256
_cell_angle_alpha   109.47122063
_cell_angle_beta   109.47122063
_cell_angle_gamma   109.47122063
_symmetry_Int_Tables_number   1
_chemical_formula_structural   Sr4Al6SO12
_chemical_formula_sum   'Sr4 Al6 S1 O12'
_cell_volume   408.34824116
_cell_formula_units_Z   1
loop_
 _symmetry_equiv_pos_site_id
 _symmetry_equiv_pos_as_xyz
  1  'x, y, z'
loop_
 _atom_site_type_symbol
 _atom_site_label
 _atom_site_symmetry_multiplicity
 _atom_site_fract_x
 _atom_site_fract_y
 _atom_site_fract_z
 _atom_site_occupancy
  Sr  Sr0  1  1.000000  0.634168  0.000000  1
  Sr  Sr1  1  0.634168  0.000000  0.000000  1
  Sr  Sr2  1  0.000000  1.000000  0.634168  1
  Sr  Sr3  1  0.365832  0.365832  0.365832  1
  Al  Al4  1  0.500000  0.250000  0.750000  1
  Al  Al5  1  0.500000  0.750000  0.250000  1
  Al  Al6  1  0.250000  0.750000  0.500000  1
  Al  Al7  1  0.750000  0.250000  0.500000  1
  Al  Al8  1  0.250000  0.500000  0.750000  1
  Al  Al9  1  0.750000  0.500000  0.250000  1
  S  S10  1  0.000000  0.000000  0.000000  1
  O  O11  1  0.293501  0.697603  0.293501  1
  O  O12  1  0.293501  0.293501  0.697603  1
  O  O13  1  0.595898  0.302397  0.595898  1
  O  O14  1  0.302397  0.595898  0.595898  1
  O  O15  1  1.000000  0.404102  0.706499  1
  O  O16  1  0.404102  1.000000  0.706499  1
  O  O17  1  0.595898  0.595898  0.302397  1
  O  O18  1  0.404102  0.706499  0.000000  1
  O  O19  1  0.706499  0.404102  0.000000  1
  O  O20  1  0.000000  0.706499  0.404102  1
  O  O21  1  0.697603  0.293501  0.293501  1
  O  O22  1  0.706499  0.000000  0.404102  1
