# generated using pymatgen
data_K2PtSe2
_symmetry_space_group_name_H-M   'P 1'
_cell_length_a   6.48231138
_cell_length_b   6.48231138
_cell_length_c   6.48231138
_cell_angle_alpha   145.79813092
_cell_angle_beta   109.90186633
_cell_angle_gamma   80.35910760
_symmetry_Int_Tables_number   1
_chemical_formula_structural   K2PtSe2
_chemical_formula_sum   'K2 Pt1 Se2'
_cell_volume   140.57557462
_cell_formula_units_Z   1
loop_
 _symmetry_equiv_pos_site_id
 _symmetry_equiv_pos_as_xyz
  1  'x, y, z'
loop_
 _atom_site_type_symbol
 _atom_site_label
 _atom_site_symmetry_multiplicity
 _atom_site_fract_x
 _atom_site_fract_y
 _atom_site_fract_z
 _atom_site_occupancy
  K  K0  1  0.700592  0.200592  0.500000  1
  K  K1  1  0.299408  0.799408  0.500000  1
  Pt  Pt2  1  0.000000  0.000000  0.000000  1
  Se  Se3  1  0.780315  0.500000  0.280315  1
  Se  Se4  1  0.219685  0.500000  0.719685  1
