# generated using pymatgen
data_Mg(AuF4)2
_symmetry_space_group_name_H-M   'P 1'
_cell_length_a   5.60729590
_cell_length_b   5.82521923
_cell_length_c   11.03359794
_cell_angle_alpha   90.00000000
_cell_angle_beta   109.56059482
_cell_angle_gamma   90.00000000
_symmetry_Int_Tables_number   1
_chemical_formula_structural   Mg(AuF4)2
_chemical_formula_sum   'Mg2 Au4 F16'
_cell_volume   339.59910305
_cell_formula_units_Z   2
loop_
 _symmetry_equiv_pos_site_id
 _symmetry_equiv_pos_as_xyz
  1  'x, y, z'
loop_
 _atom_site_type_symbol
 _atom_site_label
 _atom_site_symmetry_multiplicity
 _atom_site_fract_x
 _atom_site_fract_y
 _atom_site_fract_z
 _atom_site_occupancy
  Mg  Mg0  1  0.500000  0.500000  0.000000  1
  Mg  Mg1  1  0.500000  0.000000  0.500000  1
  Au  Au2  1  0.870902  0.723792  0.328361  1
  Au  Au3  1  0.129098  0.223792  0.171639  1
  Au  Au4  1  0.129098  0.276208  0.671639  1
  Au  Au5  1  0.870902  0.776208  0.828361  1
  F  F6  1  0.574457  0.625058  0.182148  1
  F  F7  1  0.425543  0.125058  0.317852  1
  F  F8  1  0.425543  0.374942  0.817852  1
  F  F9  1  0.574457  0.874942  0.682148  1
  F  F10  1  0.174676  0.682067  0.971632  1
  F  F11  1  0.825324  0.182067  0.528368  1
  F  F12  1  0.663046  0.769899  0.943875  1
  F  F13  1  0.336954  0.269899  0.556125  1
  F  F14  1  0.336954  0.230101  0.056125  1
  F  F15  1  0.663046  0.730101  0.443875  1
  F  F16  1  0.073473  0.786053  0.716530  1
  F  F17  1  0.926527  0.286053  0.783470  1
  F  F18  1  0.926527  0.213947  0.283470  1
  F  F19  1  0.073473  0.713947  0.216530  1
  F  F20  1  0.174676  0.817933  0.471632  1
  F  F21  1  0.825324  0.317933  0.028368  1
