# generated using pymatgen
data_Li6MoN4
_symmetry_space_group_name_H-M   'P 1'
_cell_length_a   6.69689714
_cell_length_b   6.69689714
_cell_length_c   4.93570809
_cell_angle_alpha   90.00000000
_cell_angle_beta   90.00000000
_cell_angle_gamma   90.00000000
_symmetry_Int_Tables_number   1
_chemical_formula_structural   Li6MoN4
_chemical_formula_sum   'Li12 Mo2 N8'
_cell_volume   221.35876521
_cell_formula_units_Z   2
loop_
 _symmetry_equiv_pos_site_id
 _symmetry_equiv_pos_as_xyz
  1  'x, y, z'
loop_
 _atom_site_type_symbol
 _atom_site_label
 _atom_site_symmetry_multiplicity
 _atom_site_fract_x
 _atom_site_fract_y
 _atom_site_fract_z
 _atom_site_occupancy
  Li  Li0  1  0.286240  0.286240  0.000000  1
  Li  Li1  1  0.786240  0.213760  0.500000  1
  Li  Li2  1  0.213760  0.786240  0.500000  1
  Li  Li3  1  0.713760  0.713760  0.000000  1
  Li  Li4  1  0.213760  0.213760  0.500000  1
  Li  Li5  1  0.713760  0.286240  0.000000  1
  Li  Li6  1  0.286240  0.713760  0.000000  1
  Li  Li7  1  0.786240  0.786240  0.500000  1
  Li  Li8  1  0.500000  0.000000  0.419068  1
  Li  Li9  1  0.500000  0.000000  0.919068  1
  Li  Li10  1  0.000000  0.500000  0.580932  1
  Li  Li11  1  0.000000  0.500000  0.080932  1
  Mo  Mo12  1  0.000000  0.000000  0.000000  1
  Mo  Mo13  1  0.500000  0.500000  0.500000  1
  N  N14  1  0.500000  0.258396  0.698475  1
  N  N15  1  0.500000  0.741604  0.698475  1
  N  N16  1  0.241604  0.000000  0.198475  1
  N  N17  1  0.758396  0.000000  0.198475  1
  N  N18  1  0.258396  0.500000  0.301525  1
  N  N19  1  0.000000  0.241604  0.801525  1
  N  N20  1  0.000000  0.758396  0.801525  1
  N  N21  1  0.741604  0.500000  0.301525  1
