# generated using pymatgen
data_Sr2SmNbO6
_symmetry_space_group_name_H-M   'P 1'
_cell_length_a   5.89447559
_cell_length_b   6.03564965
_cell_length_c   10.24870994
_cell_angle_alpha   90.00000000
_cell_angle_beta   124.84130553
_cell_angle_gamma   90.00000000
_symmetry_Int_Tables_number   1
_chemical_formula_structural   Sr2SmNbO6
_chemical_formula_sum   'Sr4 Sm2 Nb2 O12'
_cell_volume   299.25588914
_cell_formula_units_Z   2
loop_
 _symmetry_equiv_pos_site_id
 _symmetry_equiv_pos_as_xyz
  1  'x, y, z'
loop_
 _atom_site_type_symbol
 _atom_site_label
 _atom_site_symmetry_multiplicity
 _atom_site_fract_x
 _atom_site_fract_y
 _atom_site_fract_z
 _atom_site_occupancy
  Sr  Sr0  1  0.740325  0.956409  0.251343  1
  Sr  Sr1  1  0.259675  0.456409  0.248657  1
  Sr  Sr2  1  0.259675  0.043591  0.748657  1
  Sr  Sr3  1  0.740325  0.543591  0.751343  1
  Sm  Sm4  1  0.000000  0.500000  0.500000  1
  Sm  Sm5  1  0.000000  0.000000  0.000000  1
  Nb  Nb6  1  0.500000  0.500000  0.000000  1
  Nb  Nb7  1  0.500000  0.000000  0.500000  1
  O  O8  1  0.365909  0.224150  0.052643  1
  O  O9  1  0.634091  0.724150  0.447357  1
  O  O10  1  0.634091  0.775850  0.947357  1
  O  O11  1  0.365909  0.275850  0.552643  1
  O  O12  1  0.823443  0.966991  0.731614  1
  O  O13  1  0.176557  0.466991  0.768386  1
  O  O14  1  0.176557  0.033009  0.268386  1
  O  O15  1  0.823443  0.533009  0.231614  1
  O  O16  1  0.730804  0.309858  0.954379  1
  O  O17  1  0.269196  0.809858  0.545621  1
  O  O18  1  0.269196  0.690142  0.045621  1
  O  O19  1  0.730804  0.190142  0.454379  1
