# generated using pymatgen
data_NaHgPO4
_symmetry_space_group_name_H-M   'P 1'
_cell_length_a   5.64559507
_cell_length_b   5.64559507
_cell_length_c   6.54723007
_cell_angle_alpha   90.00000000
_cell_angle_beta   90.00000000
_cell_angle_gamma   116.03455665
_symmetry_Int_Tables_number   1
_chemical_formula_structural   NaHgPO4
_chemical_formula_sum   'Na2 Hg2 P2 O8'
_cell_volume   187.50350381
_cell_formula_units_Z   2
loop_
 _symmetry_equiv_pos_site_id
 _symmetry_equiv_pos_as_xyz
  1  'x, y, z'
loop_
 _atom_site_type_symbol
 _atom_site_label
 _atom_site_symmetry_multiplicity
 _atom_site_fract_x
 _atom_site_fract_y
 _atom_site_fract_z
 _atom_site_occupancy
  Na  Na0  1  0.500000  0.500000  1.000000  1
  Na  Na1  1  0.500000  0.500000  0.500000  1
  Hg  Hg2  1  0.188127  0.811873  0.750000  1
  Hg  Hg3  1  0.811873  0.188127  0.250000  1
  P  P4  1  0.860768  0.139232  0.750000  1
  P  P5  1  0.139232  0.860768  0.250000  1
  O  O6  1  0.834728  0.739890  0.250000  1
  O  O7  1  0.165272  0.260110  0.750000  1
  O  O8  1  0.739890  0.834728  0.750000  1
  O  O9  1  0.260110  0.165272  0.250000  1
  O  O10  1  0.245453  0.754547  0.065457  1
  O  O11  1  0.754547  0.245453  0.565457  1
  O  O12  1  0.245453  0.754547  0.434543  1
  O  O13  1  0.754547  0.245453  0.934543  1
