# generated using pymatgen
data_K3CO3F
_symmetry_space_group_name_H-M   'P 1'
_cell_length_a   7.02067872
_cell_length_b   7.02067872
_cell_length_c   7.02067872
_cell_angle_alpha   65.34563209
_cell_angle_beta   65.34563209
_cell_angle_gamma   65.34563209
_symmetry_Int_Tables_number   1
_chemical_formula_structural   K3CO3F
_chemical_formula_sum   'K6 C2 O6 F2'
_cell_volume   273.16977739
_cell_formula_units_Z   2
loop_
 _symmetry_equiv_pos_site_id
 _symmetry_equiv_pos_as_xyz
  1  'x, y, z'
loop_
 _atom_site_type_symbol
 _atom_site_label
 _atom_site_symmetry_multiplicity
 _atom_site_fract_x
 _atom_site_fract_y
 _atom_site_fract_z
 _atom_site_occupancy
  K  K0  1  0.324948  0.750000  0.175052  1
  K  K1  1  0.750000  0.175052  0.324948  1
  K  K2  1  0.175052  0.324948  0.750000  1
  K  K3  1  0.675052  0.250000  0.824948  1
  K  K4  1  0.250000  0.824948  0.675052  1
  K  K5  1  0.824948  0.675052  0.250000  1
  C  C6  1  0.250000  0.250000  0.250000  1
  C  C7  1  0.750000  0.750000  0.750000  1
  O  O8  1  0.922704  0.750000  0.577296  1
  O  O9  1  0.750000  0.577296  0.922704  1
  O  O10  1  0.577296  0.922704  0.750000  1
  O  O11  1  0.077296  0.250000  0.422704  1
  O  O12  1  0.422704  0.077296  0.250000  1
  O  O13  1  0.250000  0.422704  0.077296  1
  F  F14  1  0.500000  0.500000  0.500000  1
  F  F15  1  0.000000  0.000000  0.000000  1
