# generated using pymatgen
data_Ho2S3
_symmetry_space_group_name_H-M   'P 1'
_cell_length_a   10.15995695
_cell_length_b   4.01428142
_cell_length_c   17.60158648
_cell_angle_alpha   90.00000000
_cell_angle_beta   98.61127621
_cell_angle_gamma   90.00000000
_symmetry_Int_Tables_number   1
_chemical_formula_structural   Ho2S3
_chemical_formula_sum   'Ho12 S18'
_cell_volume   709.78670602
_cell_formula_units_Z   6
loop_
 _symmetry_equiv_pos_site_id
 _symmetry_equiv_pos_as_xyz
  1  'x, y, z'
loop_
 _atom_site_type_symbol
 _atom_site_label
 _atom_site_symmetry_multiplicity
 _atom_site_fract_x
 _atom_site_fract_y
 _atom_site_fract_z
 _atom_site_occupancy
  Ho  Ho0  1  0.549089  0.750000  0.114649  1
  Ho  Ho1  1  0.450911  0.250000  0.885351  1
  Ho  Ho2  1  0.486756  0.750000  0.399321  1
  Ho  Ho3  1  0.513244  0.250000  0.600679  1
  Ho  Ho4  1  0.187857  0.750000  0.720679  1
  Ho  Ho5  1  0.812143  0.250000  0.279321  1
  Ho  Ho6  1  0.829631  0.750000  0.781618  1
  Ho  Ho7  1  0.170369  0.250000  0.218382  1
  Ho  Ho8  1  0.123958  0.750000  0.429872  1
  Ho  Ho9  1  0.876042  0.250000  0.570128  1
  Ho  Ho10  1  0.188923  0.750000  0.020490  1
  Ho  Ho11  1  0.811077  0.250000  0.979510  1
  S  S12  1  0.367398  0.750000  0.531416  1
  S  S13  1  0.632602  0.250000  0.468584  1
  S  S14  1  0.318742  0.750000  0.181398  1
  S  S15  1  0.681258  0.250000  0.818602  1
  S  S16  1  0.951247  0.750000  0.924286  1
  S  S17  1  0.048753  0.250000  0.075714  1
  S  S18  1  0.710182  0.750000  0.631096  1
  S  S19  1  0.289818  0.250000  0.368904  1
  S  S20  1  0.007370  0.750000  0.268229  1
  S  S21  1  0.992630  0.250000  0.731771  1
  S  S22  1  0.637594  0.750000  0.281853  1
  S  S23  1  0.362406  0.250000  0.718147  1
  S  S24  1  0.947926  0.250000  0.424802  1
  S  S25  1  0.052074  0.750000  0.575198  1
  S  S26  1  0.731238  0.250000  0.126955  1
  S  S27  1  0.268762  0.750000  0.873045  1
  S  S28  1  0.384711  0.250000  0.032722  1
  S  S29  1  0.615289  0.750000  0.967278  1
