# generated using pymatgen
data_Cs2Li2TiO4
_symmetry_space_group_name_H-M   'P 1'
_cell_length_a   5.84815436
_cell_length_b   5.96663604
_cell_length_c   9.60528823
_cell_angle_alpha   83.85424136
_cell_angle_beta   74.52297630
_cell_angle_gamma   86.18980228
_symmetry_Int_Tables_number   1
_chemical_formula_structural   Cs2Li2TiO4
_chemical_formula_sum   'Cs4 Li4 Ti2 O8'
_cell_volume   320.90366679
_cell_formula_units_Z   2
loop_
 _symmetry_equiv_pos_site_id
 _symmetry_equiv_pos_as_xyz
  1  'x, y, z'
loop_
 _atom_site_type_symbol
 _atom_site_label
 _atom_site_symmetry_multiplicity
 _atom_site_fract_x
 _atom_site_fract_y
 _atom_site_fract_z
 _atom_site_occupancy
  Cs  Cs0  1  0.471503  0.855854  0.713071  1
  Cs  Cs1  1  0.528497  0.144146  0.286929  1
  Cs  Cs2  1  0.782620  0.729097  0.010880  1
  Cs  Cs3  1  0.217380  0.270903  0.989120  1
  Li  Li4  1  0.928078  0.182731  0.442081  1
  Li  Li5  1  0.071922  0.817269  0.557919  1
  Li  Li6  1  0.692588  0.585460  0.423938  1
  Li  Li7  1  0.307412  0.414540  0.576062  1
  Ti  Ti8  1  0.137457  0.681593  0.291392  1
  Ti  Ti9  1  0.862543  0.318407  0.708608  1
  O  O10  1  0.022196  0.573014  0.709915  1
  O  O11  1  0.977804  0.426986  0.290085  1
  O  O12  1  0.899956  0.863101  0.402609  1
  O  O13  1  0.100044  0.136899  0.597391  1
  O  O14  1  0.259094  0.797046  0.106402  1
  O  O15  1  0.740906  0.202954  0.893598  1
  O  O16  1  0.364940  0.638362  0.397652  1
  O  O17  1  0.635060  0.361638  0.602348  1
