# generated using pymatgen
data_Na2P2PdO7
_symmetry_space_group_name_H-M   'P 1'
_cell_length_a   8.01374779
_cell_length_b   8.01374779
_cell_length_c   8.05775234
_cell_angle_alpha   67.63405489
_cell_angle_beta   112.36594511
_cell_angle_gamma   136.10275644
_symmetry_Int_Tables_number   1
_chemical_formula_structural   Na2P2PdO7
_chemical_formula_sum   'Na4 P4 Pd2 O14'
_cell_volume   327.21196729
_cell_formula_units_Z   2
loop_
 _symmetry_equiv_pos_site_id
 _symmetry_equiv_pos_as_xyz
  1  'x, y, z'
loop_
 _atom_site_type_symbol
 _atom_site_label
 _atom_site_symmetry_multiplicity
 _atom_site_fract_x
 _atom_site_fract_y
 _atom_site_fract_z
 _atom_site_occupancy
  Na  Na0  1  0.089328  0.635793  0.302697  1
  Na  Na1  1  0.635793  0.089328  0.197303  1
  Na  Na2  1  0.910672  0.364207  0.697303  1
  Na  Na3  1  0.364207  0.910672  0.802697  1
  P  P4  1  0.447616  0.235987  0.341478  1
  P  P5  1  0.235987  0.447616  0.158522  1
  P  P6  1  0.552384  0.764013  0.658522  1
  P  P7  1  0.764013  0.552384  0.841478  1
  Pd  Pd8  1  0.000000  0.000000  0.500000  1
  Pd  Pd9  1  0.000000  0.000000  0.000000  1
  O  O10  1  0.887032  0.673457  0.011601  1
  O  O11  1  0.673457  0.887032  0.488399  1
  O  O12  1  0.112968  0.326543  0.988399  1
  O  O13  1  0.326543  0.112968  0.511601  1
  O  O14  1  0.064814  0.291140  0.303132  1
  O  O15  1  0.291140  0.064814  0.196868  1
  O  O16  1  0.935186  0.708860  0.696868  1
  O  O17  1  0.708860  0.935186  0.803132  1
  O  O18  1  0.467667  0.467667  0.250000  1
  O  O19  1  0.532333  0.532333  0.750000  1
  O  O20  1  0.299033  0.672262  0.606414  1
  O  O21  1  0.672262  0.299033  0.893586  1
  O  O22  1  0.700967  0.327738  0.393586  1
  O  O23  1  0.327738  0.700967  0.106414  1
