# generated using pymatgen
data_Dy2S2O
_symmetry_space_group_name_H-M   'P 1'
_cell_length_a   6.88150870
_cell_length_b   6.91332938
_cell_length_c   8.29044381
_cell_angle_alpha   90.00000000
_cell_angle_beta   99.31578938
_cell_angle_gamma   90.00000000
_symmetry_Int_Tables_number   1
_chemical_formula_structural   Dy2S2O
_chemical_formula_sum   'Dy8 S8 O4'
_cell_volume   389.20887799
_cell_formula_units_Z   4
loop_
 _symmetry_equiv_pos_site_id
 _symmetry_equiv_pos_as_xyz
  1  'x, y, z'
loop_
 _atom_site_type_symbol
 _atom_site_label
 _atom_site_symmetry_multiplicity
 _atom_site_fract_x
 _atom_site_fract_y
 _atom_site_fract_z
 _atom_site_occupancy
  Dy  Dy0  1  0.250056  0.053798  0.138221  1
  Dy  Dy1  1  0.249944  0.553798  0.861779  1
  Dy  Dy2  1  0.749944  0.946202  0.861779  1
  Dy  Dy3  1  0.750056  0.446202  0.138221  1
  Dy  Dy4  1  0.321318  0.143365  0.576251  1
  Dy  Dy5  1  0.178682  0.643365  0.423749  1
  Dy  Dy6  1  0.678682  0.856635  0.423749  1
  Dy  Dy7  1  0.821318  0.356635  0.576251  1
  S  S8  1  0.030099  0.723105  0.075682  1
  S  S9  1  0.576236  0.634369  0.680176  1
  S  S10  1  0.423764  0.365631  0.319824  1
  S  S11  1  0.076236  0.865631  0.680176  1
  S  S12  1  0.469901  0.223105  0.924318  1
  S  S13  1  0.969901  0.276895  0.924318  1
  S  S14  1  0.530099  0.776895  0.075682  1
  S  S15  1  0.923764  0.134369  0.319824  1
  O  O16  1  0.649532  0.087196  0.617055  1
  O  O17  1  0.149532  0.412804  0.617055  1
  O  O18  1  0.350468  0.912804  0.382945  1
  O  O19  1  0.850468  0.587196  0.382945  1
