# generated using pymatgen
data_Na2AgAs
_symmetry_space_group_name_H-M   'P 1'
_cell_length_a   5.79457051
_cell_length_b   5.79457051
_cell_length_c   5.70619762
_cell_angle_alpha   90.00000000
_cell_angle_beta   90.00000000
_cell_angle_gamma   100.43486342
_symmetry_Int_Tables_number   1
_chemical_formula_structural   Na2AgAs
_chemical_formula_sum   'Na4 Ag2 As2'
_cell_volume   188.42852603
_cell_formula_units_Z   2
loop_
 _symmetry_equiv_pos_site_id
 _symmetry_equiv_pos_as_xyz
  1  'x, y, z'
loop_
 _atom_site_type_symbol
 _atom_site_label
 _atom_site_symmetry_multiplicity
 _atom_site_fract_x
 _atom_site_fract_y
 _atom_site_fract_z
 _atom_site_occupancy
  Na  Na0  1  0.030805  0.674998  0.250000  1
  Na  Na1  1  0.969195  0.325002  0.750000  1
  Na  Na2  1  0.674998  0.030805  0.250000  1
  Na  Na3  1  0.325002  0.969195  0.750000  1
  Ag  Ag4  1  0.500000  0.500000  0.500000  1
  Ag  Ag5  1  0.500000  0.500000  1.000000  1
  As  As6  1  0.787979  0.787979  0.750000  1
  As  As7  1  0.212021  0.212021  0.250000  1
