# generated using pymatgen
data_Na3AlAs2
_symmetry_space_group_name_H-M   'P 1'
_cell_length_a   8.29844644
_cell_length_b   8.29844644
_cell_length_c   8.29844644
_cell_angle_alpha   135.85701768
_cell_angle_beta   130.06321565
_cell_angle_gamma   68.82385022
_symmetry_Int_Tables_number   1
_chemical_formula_structural   Na3AlAs2
_chemical_formula_sum   'Na6 Al2 As4'
_cell_volume   299.12348486
_cell_formula_units_Z   2
loop_
 _symmetry_equiv_pos_site_id
 _symmetry_equiv_pos_as_xyz
  1  'x, y, z'
loop_
 _atom_site_type_symbol
 _atom_site_label
 _atom_site_symmetry_multiplicity
 _atom_site_fract_x
 _atom_site_fract_y
 _atom_site_fract_z
 _atom_site_occupancy
  Na  Na0  1  0.625104  0.810525  0.814580  1
  Na  Na1  1  0.374896  0.189475  0.185420  1
  Na  Na2  1  0.004055  0.689475  0.314580  1
  Na  Na3  1  0.995945  0.310525  0.685420  1
  Na  Na4  1  0.500000  0.750000  0.250000  1
  Na  Na5  1  0.500000  0.250000  0.750000  1
  Al  Al6  1  0.000000  0.250000  0.250000  1
  Al  Al7  1  0.000000  0.750000  0.750000  1
  As  As8  1  0.695081  0.396585  0.298496  1
  As  As9  1  0.304919  0.603415  0.701504  1
  As  As10  1  0.901911  0.103415  0.798496  1
  As  As11  1  0.098089  0.896585  0.201504  1
