# generated using pymatgen
data_NaLiTe
_symmetry_space_group_name_H-M   'P 1'
_cell_length_a   4.60744048
_cell_length_b   7.73508677
_cell_length_c   8.36928705
_cell_angle_alpha   90.00000000
_cell_angle_beta   90.00000000
_cell_angle_gamma   90.00000000
_symmetry_Int_Tables_number   1
_chemical_formula_structural   NaLiTe
_chemical_formula_sum   'Na4 Li4 Te4'
_cell_volume   298.27261862
_cell_formula_units_Z   4
loop_
 _symmetry_equiv_pos_site_id
 _symmetry_equiv_pos_as_xyz
  1  'x, y, z'
loop_
 _atom_site_type_symbol
 _atom_site_label
 _atom_site_symmetry_multiplicity
 _atom_site_fract_x
 _atom_site_fract_y
 _atom_site_fract_z
 _atom_site_occupancy
  Na  Na0  1  0.750000  0.484647  0.315260  1
  Na  Na1  1  0.250000  0.015353  0.815260  1
  Na  Na2  1  0.750000  0.984647  0.184740  1
  Na  Na3  1  0.250000  0.515353  0.684740  1
  Li  Li4  1  0.250000  0.642292  0.071083  1
  Li  Li5  1  0.250000  0.142292  0.428917  1
  Li  Li6  1  0.750000  0.357708  0.928917  1
  Li  Li7  1  0.750000  0.857708  0.571083  1
  Te  Te8  1  0.250000  0.775099  0.391746  1
  Te  Te9  1  0.250000  0.275099  0.108254  1
  Te  Te10  1  0.750000  0.724901  0.891746  1
  Te  Te11  1  0.750000  0.224901  0.608254  1
