# generated using pymatgen
data_K2GeAs2
_symmetry_space_group_name_H-M   'P 1'
_cell_length_a   8.33595557
_cell_length_b   8.33595557
_cell_length_c   8.33595557
_cell_angle_alpha   132.81865055
_cell_angle_beta   129.60510601
_cell_angle_gamma   71.50796872
_symmetry_Int_Tables_number   1
_chemical_formula_structural   K2GeAs2
_chemical_formula_sum   'K4 Ge2 As4'
_cell_volume   320.37078327
_cell_formula_units_Z   2
loop_
 _symmetry_equiv_pos_site_id
 _symmetry_equiv_pos_as_xyz
  1  'x, y, z'
loop_
 _atom_site_type_symbol
 _atom_site_label
 _atom_site_symmetry_multiplicity
 _atom_site_fract_x
 _atom_site_fract_y
 _atom_site_fract_z
 _atom_site_occupancy
  K  K0  1  0.307795  0.642109  0.665686  1
  K  K1  1  0.692205  0.357891  0.334314  1
  K  K2  1  0.023577  0.857891  0.165686  1
  K  K3  1  0.976423  0.142109  0.834314  1
  Ge  Ge4  1  0.500000  0.250000  0.750000  1
  Ge  Ge5  1  0.500000  0.750000  0.250000  1
  As  As6  1  0.566849  0.896158  0.670690  1
  As  As7  1  0.433151  0.103842  0.329310  1
  As  As8  1  0.774532  0.603842  0.170690  1
  As  As9  1  0.225468  0.396158  0.829310  1
