# generated using pymatgen
data_ZnPtF6
_symmetry_space_group_name_H-M   'P 1'
_cell_length_a   5.50901953
_cell_length_b   5.50901953
_cell_length_c   5.50901953
_cell_angle_alpha   55.48777773
_cell_angle_beta   55.48777773
_cell_angle_gamma   55.48777773
_symmetry_Int_Tables_number   1
_chemical_formula_structural   ZnPtF6
_chemical_formula_sum   'Zn1 Pt1 F6'
_cell_volume   105.83808710
_cell_formula_units_Z   1
loop_
 _symmetry_equiv_pos_site_id
 _symmetry_equiv_pos_as_xyz
  1  'x, y, z'
loop_
 _atom_site_type_symbol
 _atom_site_label
 _atom_site_symmetry_multiplicity
 _atom_site_fract_x
 _atom_site_fract_y
 _atom_site_fract_z
 _atom_site_occupancy
  Zn  Zn0  1  0.500000  0.500000  0.500000  1
  Pt  Pt1  1  0.000000  0.000000  0.000000  1
  F  F2  1  0.897358  0.241704  0.614357  1
  F  F3  1  0.241704  0.614357  0.897358  1
  F  F4  1  0.385643  0.102642  0.758296  1
  F  F5  1  0.758296  0.385643  0.102642  1
  F  F6  1  0.102642  0.758296  0.385643  1
  F  F7  1  0.614357  0.897358  0.241704  1
