# generated using pymatgen
data_BaCuP2O7
_symmetry_space_group_name_H-M   'P 1'
_cell_length_a   5.27706485
_cell_length_b   7.66752967
_cell_length_c   7.68067001
_cell_angle_alpha   103.60480847
_cell_angle_beta   91.67171161
_cell_angle_gamma   95.40162891
_symmetry_Int_Tables_number   1
_chemical_formula_structural   BaCuP2O7
_chemical_formula_sum   'Ba2 Cu2 P4 O14'
_cell_volume   300.29117468
_cell_formula_units_Z   2
loop_
 _symmetry_equiv_pos_site_id
 _symmetry_equiv_pos_as_xyz
  1  'x, y, z'
loop_
 _atom_site_type_symbol
 _atom_site_label
 _atom_site_symmetry_multiplicity
 _atom_site_fract_x
 _atom_site_fract_y
 _atom_site_fract_z
 _atom_site_occupancy
  Ba  Ba0  1  0.193221  0.776876  0.928914  1
  Ba  Ba1  1  0.806779  0.223124  0.071086  1
  Cu  Cu2  1  0.819691  0.356019  0.596966  1
  Cu  Cu3  1  0.180309  0.643981  0.403034  1
  P  P4  1  0.713164  0.808141  0.600358  1
  P  P5  1  0.286836  0.191859  0.399642  1
  P  P6  1  0.688995  0.733809  0.219531  1
  P  P7  1  0.311005  0.266191  0.780469  1
  O  O8  1  0.907298  0.664156  0.584250  1
  O  O9  1  0.092702  0.335844  0.415750  1
  O  O10  1  0.786996  0.967633  0.754824  1
  O  O11  1  0.213004  0.032367  0.245176  1
  O  O12  1  0.436727  0.722461  0.604454  1
  O  O13  1  0.563273  0.277539  0.395546  1
  O  O14  1  0.728427  0.875726  0.414344  1
  O  O15  1  0.271573  0.124274  0.585656  1
  O  O16  1  0.574013  0.375642  0.788350  1
  O  O17  1  0.425987  0.624358  0.211650  1
  O  O18  1  0.298726  0.157789  0.922823  1
  O  O19  1  0.701274  0.842211  0.077177  1
  O  O20  1  0.090297  0.388721  0.795058  1
  O  O21  1  0.909703  0.611279  0.204942  1
