# generated using pymatgen
data_Dy2S2O
_symmetry_space_group_name_H-M   'P 1'
_cell_length_a   3.81261848
_cell_length_b   6.74807381
_cell_length_c   15.63546611
_cell_angle_alpha   90.00000000
_cell_angle_beta   90.00000000
_cell_angle_gamma   90.00000000
_symmetry_Int_Tables_number   1
_chemical_formula_structural   Dy2S2O
_chemical_formula_sum   'Dy8 S8 O4'
_cell_volume   402.26662831
_cell_formula_units_Z   4
loop_
 _symmetry_equiv_pos_site_id
 _symmetry_equiv_pos_as_xyz
  1  'x, y, z'
loop_
 _atom_site_type_symbol
 _atom_site_label
 _atom_site_symmetry_multiplicity
 _atom_site_fract_x
 _atom_site_fract_y
 _atom_site_fract_z
 _atom_site_occupancy
  Dy  Dy0  1  0.250000  0.243951  0.835432  1
  Dy  Dy1  1  0.750000  0.756049  0.164568  1
  Dy  Dy2  1  0.750000  0.743951  0.664568  1
  Dy  Dy3  1  0.250000  0.256049  0.335432  1
  Dy  Dy4  1  0.250000  0.793713  0.959440  1
  Dy  Dy5  1  0.750000  0.206287  0.040560  1
  Dy  Dy6  1  0.750000  0.293713  0.540560  1
  Dy  Dy7  1  0.250000  0.706287  0.459440  1
  S  S8  1  0.250000  0.045771  0.181310  1
  S  S9  1  0.250000  0.986685  0.599849  1
  S  S10  1  0.750000  0.486685  0.900151  1
  S  S11  1  0.250000  0.513315  0.099849  1
  S  S12  1  0.750000  0.954229  0.818690  1
  S  S13  1  0.750000  0.545771  0.318690  1
  S  S14  1  0.250000  0.454229  0.681310  1
  S  S15  1  0.750000  0.013315  0.400151  1
  O  O16  1  0.750000  0.868473  0.030815  1
  O  O17  1  0.750000  0.631527  0.530815  1
  O  O18  1  0.250000  0.368473  0.469185  1
  O  O19  1  0.250000  0.131527  0.969185  1
