# generated using pymatgen
data_Ba3MoN4
_symmetry_space_group_name_H-M   'P 1'
_cell_length_a   10.51961981
_cell_length_b   10.96535458
_cell_length_c   12.38986803
_cell_angle_alpha   90.00000000
_cell_angle_beta   90.00000000
_cell_angle_gamma   90.00000000
_symmetry_Int_Tables_number   1
_chemical_formula_structural   Ba3MoN4
_chemical_formula_sum   'Ba24 Mo8 N32'
_cell_volume   1429.18814313
_cell_formula_units_Z   8
loop_
 _symmetry_equiv_pos_site_id
 _symmetry_equiv_pos_as_xyz
  1  'x, y, z'
loop_
 _atom_site_type_symbol
 _atom_site_label
 _atom_site_symmetry_multiplicity
 _atom_site_fract_x
 _atom_site_fract_y
 _atom_site_fract_z
 _atom_site_occupancy
  Ba  Ba0  1  0.532496  0.374406  0.393460  1
  Ba  Ba1  1  0.206329  0.721359  0.378839  1
  Ba  Ba2  1  0.793671  0.778641  0.878839  1
  Ba  Ba3  1  0.293671  0.221359  0.621161  1
  Ba  Ba4  1  0.293671  0.721359  0.878839  1
  Ba  Ba5  1  0.793671  0.278641  0.621161  1
  Ba  Ba6  1  0.206329  0.221359  0.121161  1
  Ba  Ba7  1  0.706329  0.778641  0.378839  1
  Ba  Ba8  1  0.706329  0.278641  0.121161  1
  Ba  Ba9  1  0.032496  0.625594  0.106540  1
  Ba  Ba10  1  0.967504  0.874406  0.606540  1
  Ba  Ba11  1  0.467504  0.125594  0.893460  1
  Ba  Ba12  1  0.467504  0.625594  0.606540  1
  Ba  Ba13  1  0.967504  0.374406  0.893460  1
  Ba  Ba14  1  0.032496  0.125594  0.393460  1
  Ba  Ba15  1  0.532496  0.874406  0.106540  1
  Ba  Ba16  1  0.879319  0.469737  0.360838  1
  Ba  Ba17  1  0.379319  0.530263  0.139162  1
  Ba  Ba18  1  0.620681  0.969737  0.639162  1
  Ba  Ba19  1  0.120681  0.030263  0.860838  1
  Ba  Ba20  1  0.120681  0.530263  0.639162  1
  Ba  Ba21  1  0.620681  0.469737  0.860838  1
  Ba  Ba22  1  0.379319  0.030263  0.360838  1
  Ba  Ba23  1  0.879319  0.969737  0.139162  1
  Mo  Mo24  1  0.701396  0.094935  0.385356  1
  Mo  Mo25  1  0.201396  0.905065  0.114644  1
  Mo  Mo26  1  0.798604  0.594935  0.614644  1
  Mo  Mo27  1  0.298604  0.405065  0.885356  1
  Mo  Mo28  1  0.298604  0.905065  0.614644  1
  Mo  Mo29  1  0.798604  0.094935  0.885356  1
  Mo  Mo30  1  0.201396  0.405065  0.385356  1
  Mo  Mo31  1  0.701396  0.594935  0.114644  1
  N  N32  1  0.792660  0.225527  0.321488  1
  N  N33  1  0.292660  0.774473  0.178512  1
  N  N34  1  0.707340  0.725527  0.678512  1
  N  N35  1  0.207340  0.274473  0.821488  1
  N  N36  1  0.207340  0.774473  0.678512  1
  N  N37  1  0.707340  0.225527  0.821488  1
  N  N38  1  0.292660  0.274473  0.321488  1
  N  N39  1  0.792660  0.725527  0.178512  1
  N  N40  1  0.813431  0.493178  0.036948  1
  N  N41  1  0.313431  0.506822  0.463052  1
  N  N42  1  0.686569  0.993178  0.963052  1
  N  N43  1  0.186569  0.006822  0.536948  1
  N  N44  1  0.186569  0.506822  0.963052  1
  N  N45  1  0.686569  0.493178  0.536948  1
  N  N46  1  0.313431  0.006822  0.036948  1
  N  N47  1  0.623097  0.994129  0.282715  1
  N  N48  1  0.575654  0.152140  0.482037  1
  N  N49  1  0.075654  0.847860  0.017963  1
  N  N50  1  0.924346  0.652140  0.517963  1
  N  N51  1  0.424346  0.347860  0.982037  1
  N  N52  1  0.424346  0.847860  0.517963  1
  N  N53  1  0.924346  0.152140  0.982037  1
  N  N54  1  0.075654  0.347860  0.482037  1
  N  N55  1  0.575654  0.652140  0.017963  1
  N  N56  1  0.623097  0.494129  0.217285  1
  N  N57  1  0.123097  0.505871  0.282715  1
  N  N58  1  0.876903  0.994129  0.782715  1
  N  N59  1  0.376903  0.005871  0.717285  1
  N  N60  1  0.376903  0.505871  0.782715  1
  N  N61  1  0.876903  0.494129  0.717285  1
  N  N62  1  0.123097  0.005871  0.217285  1
  N  N63  1  0.813431  0.993178  0.463052  1
