# generated using pymatgen
data_LiInP2O7
_symmetry_space_group_name_H-M   'P 1'
_cell_length_a   4.99270164
_cell_length_b   8.61293764
_cell_length_c   7.14919305
_cell_angle_alpha   90.00000000
_cell_angle_beta   109.14855713
_cell_angle_gamma   90.00000000
_symmetry_Int_Tables_number   1
_chemical_formula_structural   LiInP2O7
_chemical_formula_sum   'Li2 In2 P4 O14'
_cell_volume   290.41874488
_cell_formula_units_Z   2
loop_
 _symmetry_equiv_pos_site_id
 _symmetry_equiv_pos_as_xyz
  1  'x, y, z'
loop_
 _atom_site_type_symbol
 _atom_site_label
 _atom_site_symmetry_multiplicity
 _atom_site_fract_x
 _atom_site_fract_y
 _atom_site_fract_z
 _atom_site_occupancy
  Li  Li0  1  0.809110  0.391209  0.331746  1
  Li  Li1  1  0.190890  0.891209  0.668254  1
  In  In2  1  0.214317  0.248376  0.731865  1
  In  In3  1  0.785683  0.748376  0.268135  1
  P  P4  1  0.600297  0.067038  0.468904  1
  P  P5  1  0.399703  0.567038  0.531096  1
  P  P6  1  0.789251  0.460815  0.920746  1
  P  P7  1  0.210749  0.960815  0.079254  1
  O  O8  1  0.793257  0.210755  0.504053  1
  O  O9  1  0.206743  0.710755  0.495947  1
  O  O10  1  0.232187  0.414176  0.503795  1
  O  O11  1  0.767813  0.914176  0.496205  1
  O  O12  1  0.411144  0.083395  0.237535  1
  O  O13  1  0.588856  0.583395  0.762465  1
  O  O14  1  0.946001  0.931818  0.134397  1
  O  O15  1  0.053999  0.431818  0.865603  1
  O  O16  1  0.857734  0.543552  0.121009  1
  O  O17  1  0.142266  0.043552  0.878991  1
  O  O18  1  0.377292  0.812005  0.076454  1
  O  O19  1  0.622708  0.312005  0.923546  1
  O  O20  1  0.601637  0.566561  0.409335  1
  O  O21  1  0.398363  0.066561  0.590665  1
