# generated using pymatgen
data_Ba3Zr2S7
_symmetry_space_group_name_H-M   'P 1'
_cell_length_a   7.17091044
_cell_length_b   7.17091044
_cell_length_c   25.54761852
_cell_angle_alpha   90.00000000
_cell_angle_beta   90.00000000
_cell_angle_gamma   90.00000000
_symmetry_Int_Tables_number   1
_chemical_formula_structural   Ba3Zr2S7
_chemical_formula_sum   'Ba12 Zr8 S28'
_cell_volume   1313.70852920
_cell_formula_units_Z   4
loop_
 _symmetry_equiv_pos_site_id
 _symmetry_equiv_pos_as_xyz
  1  'x, y, z'
loop_
 _atom_site_type_symbol
 _atom_site_label
 _atom_site_symmetry_multiplicity
 _atom_site_fract_x
 _atom_site_fract_y
 _atom_site_fract_z
 _atom_site_occupancy
  Ba  Ba0  1  0.254791  0.745209  0.500000  1
  Ba  Ba1  1  0.754791  0.754791  0.000000  1
  Ba  Ba2  1  0.245209  0.245209  0.000000  1
  Ba  Ba3  1  0.745209  0.254791  0.500000  1
  Ba  Ba4  1  0.765318  0.234682  0.681115  1
  Ba  Ba5  1  0.234682  0.765318  0.681115  1
  Ba  Ba6  1  0.234682  0.765318  0.318885  1
  Ba  Ba7  1  0.734682  0.734682  0.181115  1
  Ba  Ba8  1  0.265318  0.265318  0.181115  1
  Ba  Ba9  1  0.734682  0.734682  0.818885  1
  Ba  Ba10  1  0.265318  0.265318  0.818885  1
  Ba  Ba11  1  0.765318  0.234682  0.318885  1
  Zr  Zr12  1  0.749068  0.749068  0.599897  1
  Zr  Zr13  1  0.250932  0.250932  0.599897  1
  Zr  Zr14  1  0.749068  0.749068  0.400103  1
  Zr  Zr15  1  0.249068  0.750932  0.099897  1
  Zr  Zr16  1  0.750932  0.249068  0.099897  1
  Zr  Zr17  1  0.750932  0.249068  0.900103  1
  Zr  Zr18  1  0.249068  0.750932  0.900103  1
  Zr  Zr19  1  0.250932  0.250932  0.400103  1
  S  S20  1  0.000000  0.500000  0.404267  1
  S  S21  1  0.000000  0.500000  0.904267  1
  S  S22  1  0.500000  0.000000  0.095733  1
  S  S23  1  0.500000  0.000000  0.595733  1
  S  S24  1  0.000000  0.500000  0.595733  1
  S  S25  1  0.000000  0.500000  0.095733  1
  S  S26  1  0.500000  0.000000  0.904267  1
  S  S27  1  0.500000  0.000000  0.404267  1
  S  S28  1  0.500000  0.500000  0.612714  1
  S  S29  1  0.000000  0.000000  0.112714  1
  S  S30  1  0.000000  0.000000  0.887286  1
  S  S31  1  0.500000  0.500000  0.387286  1
  S  S32  1  0.786002  0.786002  0.697915  1
  S  S33  1  0.213998  0.213998  0.697915  1
  S  S34  1  0.786002  0.786002  0.302085  1
  S  S35  1  0.286002  0.713998  0.197915  1
  S  S36  1  0.713998  0.286002  0.197915  1
  S  S37  1  0.713998  0.286002  0.802085  1
  S  S38  1  0.286002  0.713998  0.802085  1
  S  S39  1  0.213998  0.213998  0.302085  1
  S  S40  1  0.000000  0.000000  0.418175  1
  S  S41  1  0.500000  0.500000  0.918175  1
  S  S42  1  0.500000  0.500000  0.081825  1
  S  S43  1  0.000000  0.000000  0.581825  1
  S  S44  1  0.293983  0.293983  0.500000  1
  S  S45  1  0.206017  0.793983  0.000000  1
  S  S46  1  0.793983  0.206017  0.000000  1
  S  S47  1  0.706017  0.706017  0.500000  1
