# generated using pymatgen
data_Na2ZnS2
_symmetry_space_group_name_H-M   'P 1'
_cell_length_a   7.11687098
_cell_length_b   7.11687098
_cell_length_c   7.11687098
_cell_angle_alpha   130.34214288
_cell_angle_beta   125.99368168
_cell_angle_gamma   76.40562998
_symmetry_Int_Tables_number   1
_chemical_formula_structural   Na2ZnS2
_chemical_formula_sum   'Na4 Zn2 S4'
_cell_volume   216.02514085
_cell_formula_units_Z   2
loop_
 _symmetry_equiv_pos_site_id
 _symmetry_equiv_pos_as_xyz
  1  'x, y, z'
loop_
 _atom_site_type_symbol
 _atom_site_label
 _atom_site_symmetry_multiplicity
 _atom_site_fract_x
 _atom_site_fract_y
 _atom_site_fract_z
 _atom_site_occupancy
  Na  Na0  1  0.491411  0.142383  0.349028  1
  Na  Na1  1  0.508589  0.857617  0.650972  1
  Na  Na2  1  0.206645  0.357617  0.849028  1
  Na  Na3  1  0.793355  0.642383  0.150972  1
  Zn  Zn4  1  0.000000  0.250000  0.250000  1
  Zn  Zn5  1  0.000000  0.750000  0.750000  1
  S  S6  1  0.324403  0.610906  0.713496  1
  S  S7  1  0.675597  0.389094  0.286504  1
  S  S8  1  0.102590  0.889094  0.213496  1
  S  S9  1  0.897410  0.110906  0.786504  1
