# generated using pymatgen
data_BaTe3
_symmetry_space_group_name_H-M   'P 1'
_cell_length_a   8.08797918
_cell_length_b   8.08797918
_cell_length_c   4.41417635
_cell_angle_alpha   90.00000000
_cell_angle_beta   90.00000000
_cell_angle_gamma   90.00000000
_symmetry_Int_Tables_number   1
_chemical_formula_structural   BaTe3
_chemical_formula_sum   'Ba2 Te6'
_cell_volume   288.75514346
_cell_formula_units_Z   2
loop_
 _symmetry_equiv_pos_site_id
 _symmetry_equiv_pos_as_xyz
  1  'x, y, z'
loop_
 _atom_site_type_symbol
 _atom_site_label
 _atom_site_symmetry_multiplicity
 _atom_site_fract_x
 _atom_site_fract_y
 _atom_site_fract_z
 _atom_site_occupancy
  Ba  Ba0  1  0.500000  0.500000  0.000000  1
  Ba  Ba1  1  0.000000  0.000000  0.000000  1
  Te  Te2  1  0.802550  0.697450  0.503109  1
  Te  Te3  1  0.302550  0.802550  0.496891  1
  Te  Te4  1  0.000000  0.500000  0.107531  1
  Te  Te5  1  0.500000  0.000000  0.892469  1
  Te  Te6  1  0.197450  0.302550  0.503109  1
  Te  Te7  1  0.697450  0.197450  0.496891  1
