# generated using pymatgen
data_Li2BeSiO4
_symmetry_space_group_name_H-M   'P 1'
_cell_length_a   4.74381557
_cell_length_b   4.98085596
_cell_length_c   7.75648268
_cell_angle_alpha   90.00000000
_cell_angle_beta   127.69850822
_cell_angle_gamma   90.00000000
_symmetry_Int_Tables_number   1
_chemical_formula_structural   Li2BeSiO4
_chemical_formula_sum   'Li4 Be2 Si2 O8'
_cell_volume   145.01219990
_cell_formula_units_Z   2
loop_
 _symmetry_equiv_pos_site_id
 _symmetry_equiv_pos_as_xyz
  1  'x, y, z'
loop_
 _atom_site_type_symbol
 _atom_site_label
 _atom_site_symmetry_multiplicity
 _atom_site_fract_x
 _atom_site_fract_y
 _atom_site_fract_z
 _atom_site_occupancy
  Li  Li0  1  0.500974  0.174703  0.499500  1
  Li  Li1  1  0.500974  0.825297  0.999500  1
  Li  Li2  1  0.249011  0.335499  0.747380  1
  Li  Li3  1  0.249011  0.664501  0.247380  1
  Be  Be4  1  0.739652  0.319941  0.248329  1
  Be  Be5  1  0.739652  0.680059  0.748329  1
  Si  Si6  1  0.988345  0.179928  0.997148  1
  Si  Si7  1  0.988345  0.820072  0.497148  1
  O  O8  1  0.673907  0.200399  0.028183  1
  O  O9  1  0.362179  0.699876  0.716867  1
  O  O10  1  0.047769  0.861667  0.966320  1
  O  O11  1  0.673907  0.799601  0.528183  1
  O  O12  1  0.047769  0.138333  0.466320  1
  O  O13  1  0.863164  0.358978  0.781273  1
  O  O14  1  0.863164  0.641022  0.281273  1
  O  O15  1  0.362179  0.300124  0.216867  1
