# generated using pymatgen
data_K2SiP2
_symmetry_space_group_name_H-M   'P 1'
_cell_length_a   7.99660501
_cell_length_b   7.99660501
_cell_length_c   7.99660501
_cell_angle_alpha   134.79419151
_cell_angle_beta   128.63839329
_cell_angle_gamma   70.79400745
_symmetry_Int_Tables_number   1
_chemical_formula_structural   K2SiP2
_chemical_formula_sum   'K4 Si2 P4'
_cell_volume   277.70437552
_cell_formula_units_Z   2
loop_
 _symmetry_equiv_pos_site_id
 _symmetry_equiv_pos_as_xyz
  1  'x, y, z'
loop_
 _atom_site_type_symbol
 _atom_site_label
 _atom_site_symmetry_multiplicity
 _atom_site_fract_x
 _atom_site_fract_y
 _atom_site_fract_z
 _atom_site_occupancy
  K  K0  1  0.484079  0.145920  0.338160  1
  K  K1  1  0.515921  0.854080  0.661840  1
  K  K2  1  0.192240  0.354080  0.838160  1
  K  K3  1  0.807760  0.645920  0.161840  1
  Si  Si4  1  0.000000  0.750000  0.750000  1
  Si  Si5  1  0.000000  0.250000  0.250000  1
  P  P6  1  0.259923  0.596395  0.663528  1
  P  P7  1  0.067133  0.903605  0.163528  1
  P  P8  1  0.932867  0.096395  0.836472  1
  P  P9  1  0.740077  0.403605  0.336472  1
