# generated using pymatgen
data_ScAg(PS3)2
_symmetry_space_group_name_H-M   'P 1'
_cell_length_a   6.22209126
_cell_length_b   6.22209126
_cell_length_c   14.57894319
_cell_angle_alpha   90.00000000
_cell_angle_beta   90.00000000
_cell_angle_gamma   120.00000000
_symmetry_Int_Tables_number   1
_chemical_formula_structural   ScAg(PS3)2
_chemical_formula_sum   'Sc2 Ag2 P4 S12'
_cell_volume   488.79800906
_cell_formula_units_Z   2
loop_
 _symmetry_equiv_pos_site_id
 _symmetry_equiv_pos_as_xyz
  1  'x, y, z'
loop_
 _atom_site_type_symbol
 _atom_site_label
 _atom_site_symmetry_multiplicity
 _atom_site_fract_x
 _atom_site_fract_y
 _atom_site_fract_z
 _atom_site_occupancy
  Sc  Sc0  1  0.000000  0.000000  0.750000  1
  Sc  Sc1  1  0.000000  0.000000  0.250000  1
  Ag  Ag2  1  0.333333  0.666667  0.750000  1
  Ag  Ag3  1  0.666667  0.333333  0.250000  1
  P  P4  1  0.666667  0.333333  0.673691  1
  P  P5  1  0.666667  0.333333  0.826309  1
  P  P6  1  0.333333  0.666667  0.326309  1
  P  P7  1  0.333333  0.666667  0.173691  1
  S  S8  1  0.965816  0.303836  0.865276  1
  S  S9  1  0.338020  0.303836  0.634724  1
  S  S10  1  0.965816  0.661980  0.634724  1
  S  S11  1  0.696164  0.034184  0.634724  1
  S  S12  1  0.303836  0.338020  0.134724  1
  S  S13  1  0.661980  0.965816  0.134724  1
  S  S14  1  0.034184  0.696164  0.134724  1
  S  S15  1  0.661980  0.696164  0.365276  1
  S  S16  1  0.034184  0.338020  0.365276  1
  S  S17  1  0.303836  0.965816  0.365276  1
  S  S18  1  0.696164  0.661980  0.865276  1
  S  S19  1  0.338020  0.034184  0.865276  1
