# generated using pymatgen
data_K2Te2Pt
_symmetry_space_group_name_H-M   'P 1'
_cell_length_a   6.88943981
_cell_length_b   6.88943981
_cell_length_c   6.88943981
_cell_angle_alpha   145.97414410
_cell_angle_beta   109.30093322
_cell_angle_gamma   80.83286684
_symmetry_Int_Tables_number   1
_chemical_formula_structural   K2Te2Pt
_chemical_formula_sum   'K2 Te2 Pt1'
_cell_volume   168.57912720
_cell_formula_units_Z   1
loop_
 _symmetry_equiv_pos_site_id
 _symmetry_equiv_pos_as_xyz
  1  'x, y, z'
loop_
 _atom_site_type_symbol
 _atom_site_label
 _atom_site_symmetry_multiplicity
 _atom_site_fract_x
 _atom_site_fract_y
 _atom_site_fract_z
 _atom_site_occupancy
  K  K0  1  0.706921  0.206921  0.500000  1
  K  K1  1  0.293079  0.793079  0.500000  1
  Te  Te2  1  0.779653  0.500000  0.279653  1
  Te  Te3  1  0.220347  0.500000  0.720347  1
  Pt  Pt4  1  0.000000  0.000000  0.000000  1
