# generated using pymatgen
data_K2As2Pd
_symmetry_space_group_name_H-M   'P 1'
_cell_length_a   8.01711078
_cell_length_b   8.01711078
_cell_length_c   6.09401341
_cell_angle_alpha   90.00000000
_cell_angle_beta   90.00000000
_cell_angle_gamma   131.56186433
_symmetry_Int_Tables_number   1
_chemical_formula_structural   K2As2Pd
_chemical_formula_sum   'K4 As4 Pd2'
_cell_volume   293.07582571
_cell_formula_units_Z   2
loop_
 _symmetry_equiv_pos_site_id
 _symmetry_equiv_pos_as_xyz
  1  'x, y, z'
loop_
 _atom_site_type_symbol
 _atom_site_label
 _atom_site_symmetry_multiplicity
 _atom_site_fract_x
 _atom_site_fract_y
 _atom_site_fract_z
 _atom_site_occupancy
  K  K0  1  0.578489  0.421511  0.750000  1
  K  K1  1  0.421511  0.578489  0.250000  1
  K  K2  1  0.205891  0.794109  0.750000  1
  K  K3  1  0.794109  0.205891  0.250000  1
  As  As4  1  0.925720  0.703484  0.250000  1
  As  As5  1  0.074280  0.296516  0.750000  1
  As  As6  1  0.703484  0.925720  0.750000  1
  As  As7  1  0.296516  0.074280  0.250000  1
  Pd  Pd8  1  0.000000  0.000000  0.000000  1
  Pd  Pd9  1  0.000000  0.000000  0.500000  1
