# generated using pymatgen
data_K4HgP2
_symmetry_space_group_name_H-M   'P 1'
_cell_length_a   9.69039822
_cell_length_b   9.69039822
_cell_length_c   9.69039822
_cell_angle_alpha   34.23804650
_cell_angle_beta   34.23804650
_cell_angle_gamma   34.23804650
_symmetry_Int_Tables_number   1
_chemical_formula_structural   K4HgP2
_chemical_formula_sum   'K4 Hg1 P2'
_cell_volume   256.86684689
_cell_formula_units_Z   1
loop_
 _symmetry_equiv_pos_site_id
 _symmetry_equiv_pos_as_xyz
  1  'x, y, z'
loop_
 _atom_site_type_symbol
 _atom_site_label
 _atom_site_symmetry_multiplicity
 _atom_site_fract_x
 _atom_site_fract_y
 _atom_site_fract_z
 _atom_site_occupancy
  K  K0  1  0.792539  0.792539  0.792539  1
  K  K1  1  0.207461  0.207461  0.207461  1
  K  K2  1  0.608694  0.608694  0.608694  1
  K  K3  1  0.391306  0.391306  0.391306  1
  Hg  Hg4  1  0.000000  0.000000  0.000000  1
  P  P5  1  0.911376  0.911376  0.911376  1
  P  P6  1  0.088624  0.088624  0.088624  1
