# generated using pymatgen
data_Rb2HgF4
_symmetry_space_group_name_H-M   'P 1'
_cell_length_a   7.71568446
_cell_length_b   7.71568446
_cell_length_c   7.71568446
_cell_angle_alpha   144.64372919
_cell_angle_beta   144.64372919
_cell_angle_gamma   50.86576798
_symmetry_Int_Tables_number   1
_chemical_formula_structural   Rb2HgF4
_chemical_formula_sum   'Rb2 Hg1 F4'
_cell_volume   153.00873874
_cell_formula_units_Z   1
loop_
 _symmetry_equiv_pos_site_id
 _symmetry_equiv_pos_as_xyz
  1  'x, y, z'
loop_
 _atom_site_type_symbol
 _atom_site_label
 _atom_site_symmetry_multiplicity
 _atom_site_fract_x
 _atom_site_fract_y
 _atom_site_fract_z
 _atom_site_occupancy
  Rb  Rb0  1  0.358717  0.358717  0.000000  1
  Rb  Rb1  1  0.641283  0.641283  0.000000  1
  Hg  Hg2  1  0.000000  0.000000  0.000000  1
  F  F3  1  0.163238  0.163238  0.000000  1
  F  F4  1  0.836762  0.836762  0.000000  1
  F  F5  1  0.000000  0.500000  0.500000  1
  F  F6  1  0.500000  1.000000  0.500000  1
