# generated using pymatgen
data_Tl3SbS4
_symmetry_space_group_name_H-M   'P 1'
_cell_length_a   6.44544828
_cell_length_b   6.72758795
_cell_length_c   12.16312576
_cell_angle_alpha   95.12517227
_cell_angle_beta   98.51234379
_cell_angle_gamma   105.58815714
_symmetry_Int_Tables_number   1
_chemical_formula_structural   Tl3SbS4
_chemical_formula_sum   'Tl6 Sb2 S8'
_cell_volume   497.78955797
_cell_formula_units_Z   2
loop_
 _symmetry_equiv_pos_site_id
 _symmetry_equiv_pos_as_xyz
  1  'x, y, z'
loop_
 _atom_site_type_symbol
 _atom_site_label
 _atom_site_symmetry_multiplicity
 _atom_site_fract_x
 _atom_site_fract_y
 _atom_site_fract_z
 _atom_site_occupancy
  Tl  Tl0  1  0.271502  0.252539  0.021558  1
  Tl  Tl1  1  0.962803  0.431379  0.709577  1
  Tl  Tl2  1  0.728498  0.747461  0.978442  1
  Tl  Tl3  1  0.700014  0.756188  0.523360  1
  Tl  Tl4  1  0.037197  0.568621  0.290423  1
  Tl  Tl5  1  0.299986  0.243812  0.476640  1
  Sb  Sb6  1  0.582735  0.011442  0.250595  1
  Sb  Sb7  1  0.417265  0.988558  0.749405  1
  S  S8  1  0.784558  0.974387  0.768824  1
  S  S9  1  0.259959  0.810606  0.890305  1
  S  S10  1  0.580401  0.658830  0.233030  1
  S  S11  1  0.215442  0.025613  0.231176  1
  S  S12  1  0.740041  0.189394  0.109695  1
  S  S13  1  0.228692  0.818060  0.567132  1
  S  S14  1  0.419599  0.341170  0.766970  1
  S  S15  1  0.771308  0.181940  0.432868  1
