# generated using pymatgen
data_Ba2YC2(O2F)3
_symmetry_space_group_name_H-M   'P 1'
_cell_length_a   7.08692235
_cell_length_b   9.60169047
_cell_length_c   11.91070339
_cell_angle_alpha   90.00000000
_cell_angle_beta   90.00000000
_cell_angle_gamma   90.00000000
_symmetry_Int_Tables_number   1
_chemical_formula_structural   Ba2YC2(O2F)3
_chemical_formula_sum   'Ba8 Y4 C8 O24 F12'
_cell_volume   810.48090153
_cell_formula_units_Z   4
loop_
 _symmetry_equiv_pos_site_id
 _symmetry_equiv_pos_as_xyz
  1  'x, y, z'
loop_
 _atom_site_type_symbol
 _atom_site_label
 _atom_site_symmetry_multiplicity
 _atom_site_fract_x
 _atom_site_fract_y
 _atom_site_fract_z
 _atom_site_occupancy
  Ba  Ba0  1  0.262550  0.879801  0.071217  1
  Ba  Ba1  1  0.262550  0.120199  0.428783  1
  Ba  Ba2  1  0.237450  0.379801  0.928783  1
  Ba  Ba3  1  0.237450  0.620199  0.571217  1
  Ba  Ba4  1  0.737450  0.120199  0.928783  1
  Ba  Ba5  1  0.737450  0.879801  0.571217  1
  Ba  Ba6  1  0.762550  0.620199  0.071217  1
  Ba  Ba7  1  0.762550  0.379801  0.428783  1
  Y  Y8  1  0.228178  0.500000  0.250000  1
  Y  Y9  1  0.271822  0.000000  0.750000  1
  Y  Y10  1  0.771822  0.500000  0.750000  1
  Y  Y11  1  0.728178  0.000000  0.250000  1
  C  C12  1  0.520532  0.305907  0.179824  1
  C  C13  1  0.520532  0.694093  0.320176  1
  C  C14  1  0.979468  0.805907  0.820176  1
  C  C15  1  0.979468  0.194093  0.679824  1
  C  C16  1  0.479468  0.694093  0.820176  1
  C  C17  1  0.479468  0.305907  0.679824  1
  C  C18  1  0.020532  0.194093  0.179824  1
  C  C19  1  0.020532  0.805907  0.320176  1
  O  O20  1  0.620057  0.202538  0.146316  1
  O  O21  1  0.620057  0.797462  0.353684  1
  O  O22  1  0.879943  0.702538  0.853684  1
  O  O23  1  0.879943  0.297462  0.646316  1
  O  O24  1  0.379943  0.797462  0.853684  1
  O  O25  1  0.379943  0.202538  0.646316  1
  O  O26  1  0.120057  0.297462  0.146316  1
  O  O27  1  0.120057  0.702538  0.353684  1
  O  O28  1  0.478303  0.408662  0.112673  1
  O  O29  1  0.478303  0.591338  0.387327  1
  O  O30  1  0.021697  0.908662  0.887327  1
  O  O31  1  0.021697  0.091338  0.612673  1
  O  O32  1  0.521697  0.591338  0.887327  1
  O  O33  1  0.521697  0.408662  0.612673  1
  O  O34  1  0.978303  0.091338  0.112673  1
  O  O35  1  0.978303  0.908662  0.387327  1
  O  O36  1  0.957377  0.814934  0.217014  1
  O  O37  1  0.957377  0.185066  0.282986  1
  O  O38  1  0.542623  0.314934  0.782986  1
  O  O39  1  0.542623  0.685066  0.717014  1
  O  O40  1  0.042623  0.185066  0.782986  1
  O  O41  1  0.042623  0.814934  0.717014  1
  O  O42  1  0.457377  0.685066  0.217014  1
  O  O43  1  0.457377  0.314934  0.282986  1
  F  F44  1  0.901811  0.500000  0.250000  1
  F  F45  1  0.598189  0.000000  0.750000  1
  F  F46  1  0.098189  0.500000  0.750000  1
  F  F47  1  0.401811  0.000000  0.250000  1
  F  F48  1  0.650310  0.906061  0.077933  1
  F  F49  1  0.650310  0.093939  0.422067  1
  F  F50  1  0.849690  0.406061  0.922067  1
  F  F51  1  0.849690  0.593939  0.577933  1
  F  F52  1  0.349690  0.093939  0.922067  1
  F  F53  1  0.349690  0.906061  0.577933  1
  F  F54  1  0.150310  0.593939  0.077933  1
  F  F55  1  0.150310  0.406061  0.422067  1
