# generated using pymatgen
data_PdPtF6
_symmetry_space_group_name_H-M   'P 1'
_cell_length_a   5.67341274
_cell_length_b   5.67341274
_cell_length_c   5.67341274
_cell_angle_alpha   54.43095010
_cell_angle_beta   54.43095010
_cell_angle_gamma   54.43095010
_symmetry_Int_Tables_number   1
_chemical_formula_structural   PdPtF6
_chemical_formula_sum   'Pd1 Pt1 F6'
_cell_volume   112.35776645
_cell_formula_units_Z   1
loop_
 _symmetry_equiv_pos_site_id
 _symmetry_equiv_pos_as_xyz
  1  'x, y, z'
loop_
 _atom_site_type_symbol
 _atom_site_label
 _atom_site_symmetry_multiplicity
 _atom_site_fract_x
 _atom_site_fract_y
 _atom_site_fract_z
 _atom_site_occupancy
  Pd  Pd0  1  0.000000  0.000000  0.000000  1
  Pt  Pt1  1  0.500000  0.500000  0.500000  1
  F  F2  1  0.580711  0.268005  0.890387  1
  F  F3  1  0.268005  0.890387  0.580711  1
  F  F4  1  0.109613  0.419289  0.731995  1
  F  F5  1  0.731995  0.109613  0.419289  1
  F  F6  1  0.419289  0.731995  0.109613  1
  F  F7  1  0.890387  0.580711  0.268005  1
