# generated using pymatgen
data_LiTlO2
_symmetry_space_group_name_H-M   'P 1'
_cell_length_a   5.69121006
_cell_length_b   5.69121006
_cell_length_c   5.69121006
_cell_angle_alpha   131.93143796
_cell_angle_beta   131.93143796
_cell_angle_gamma   70.33733476
_symmetry_Int_Tables_number   1
_chemical_formula_structural   LiTlO2
_chemical_formula_sum   'Li2 Tl2 O4'
_cell_volume   99.98463291
_cell_formula_units_Z   2
loop_
 _symmetry_equiv_pos_site_id
 _symmetry_equiv_pos_as_xyz
  1  'x, y, z'
loop_
 _atom_site_type_symbol
 _atom_site_label
 _atom_site_symmetry_multiplicity
 _atom_site_fract_x
 _atom_site_fract_y
 _atom_site_fract_z
 _atom_site_occupancy
  Li  Li0  1  0.000000  0.000000  0.000000  1
  Li  Li1  1  0.750000  0.250000  0.500000  1
  Tl  Tl2  1  0.500000  0.500000  0.000000  1
  Tl  Tl3  1  0.250000  0.750000  0.500000  1
  O  O4  1  0.743437  0.743437  0.000000  1
  O  O5  1  0.256563  0.256563  0.000000  1
  O  O6  1  0.493437  0.993437  0.500000  1
  O  O7  1  0.006563  0.506563  0.500000  1
