# generated using pymatgen
data_Ca2PN3
_symmetry_space_group_name_H-M   'P 1'
_cell_length_a   5.81369655
_cell_length_b   5.81369655
_cell_length_c   11.31695277
_cell_angle_alpha   90.00000000
_cell_angle_beta   90.00000000
_cell_angle_gamma   126.60123096
_symmetry_Int_Tables_number   1
_chemical_formula_structural   Ca2PN3
_chemical_formula_sum   'Ca8 P4 N12'
_cell_volume   307.07475272
_cell_formula_units_Z   4
loop_
 _symmetry_equiv_pos_site_id
 _symmetry_equiv_pos_as_xyz
  1  'x, y, z'
loop_
 _atom_site_type_symbol
 _atom_site_label
 _atom_site_symmetry_multiplicity
 _atom_site_fract_x
 _atom_site_fract_y
 _atom_site_fract_z
 _atom_site_occupancy
  Ca  Ca0  1  0.362355  0.637645  0.074052  1
  Ca  Ca1  1  0.862355  0.137645  0.425948  1
  Ca  Ca2  1  0.137645  0.862355  0.574052  1
  Ca  Ca3  1  0.637645  0.362355  0.925948  1
  Ca  Ca4  1  0.447647  0.552353  0.641992  1
  Ca  Ca5  1  0.552353  0.447647  0.358008  1
  Ca  Ca6  1  0.052353  0.947647  0.141992  1
  Ca  Ca7  1  0.947647  0.052353  0.858008  1
  P  P8  1  0.755643  0.244357  0.665317  1
  P  P9  1  0.744357  0.255643  0.165317  1
  P  P10  1  0.244357  0.755643  0.334683  1
  P  P11  1  0.255643  0.744357  0.834683  1
  N  N12  1  0.961164  0.538836  0.750000  1
  N  N13  1  0.538836  0.961164  0.250000  1
  N  N14  1  0.038836  0.461164  0.250000  1
  N  N15  1  0.461164  0.038836  0.750000  1
  N  N16  1  0.411072  0.588928  0.859552  1
  N  N17  1  0.588928  0.411072  0.140448  1
  N  N18  1  0.088928  0.911072  0.359552  1
  N  N19  1  0.660159  0.339841  0.550683  1
  N  N20  1  0.160159  0.839841  0.949317  1
  N  N21  1  0.839841  0.160159  0.050683  1
  N  N22  1  0.339841  0.660159  0.449317  1
  N  N23  1  0.911072  0.088928  0.640448  1
