# generated using pymatgen
data_Mg(PtO2)3
_symmetry_space_group_name_H-M   'P 1'
_cell_length_a   6.16322763
_cell_length_b   6.16322763
_cell_length_c   3.23815317
_cell_angle_alpha   90.00000000
_cell_angle_beta   90.00000000
_cell_angle_gamma   108.79937888
_symmetry_Int_Tables_number   1
_chemical_formula_structural   Mg(PtO2)3
_chemical_formula_sum   'Mg1 Pt3 O6'
_cell_volume   116.44061910
_cell_formula_units_Z   1
loop_
 _symmetry_equiv_pos_site_id
 _symmetry_equiv_pos_as_xyz
  1  'x, y, z'
loop_
 _atom_site_type_symbol
 _atom_site_label
 _atom_site_symmetry_multiplicity
 _atom_site_fract_x
 _atom_site_fract_y
 _atom_site_fract_z
 _atom_site_occupancy
  Mg  Mg0  1  0.500000  0.500000  1.000000  1
  Pt  Pt1  1  0.000000  0.500000  0.500000  1
  Pt  Pt2  1  0.000000  0.000000  0.000000  1
  Pt  Pt3  1  0.500000  1.000000  0.500000  1
  O  O4  1  0.660068  0.913823  1.000000  1
  O  O5  1  0.339932  0.086177  0.000000  1
  O  O6  1  0.913823  0.660068  0.000000  1
  O  O7  1  0.086177  0.339932  0.000000  1
  O  O8  1  0.647045  0.352955  0.500000  1
  O  O9  1  0.352955  0.647045  0.500000  1
