# generated using pymatgen
data_AlCuSe2
_symmetry_space_group_name_H-M   'P 1'
_cell_length_a   6.85276318
_cell_length_b   6.85276318
_cell_length_c   6.85276318
_cell_angle_alpha   131.37564401
_cell_angle_beta   131.37564401
_cell_angle_gamma   71.21693501
_symmetry_Int_Tables_number   1
_chemical_formula_structural   AlCuSe2
_chemical_formula_sum   'Al2 Cu2 Se4'
_cell_volume   177.39211843
_cell_formula_units_Z   2
loop_
 _symmetry_equiv_pos_site_id
 _symmetry_equiv_pos_as_xyz
  1  'x, y, z'
loop_
 _atom_site_type_symbol
 _atom_site_label
 _atom_site_symmetry_multiplicity
 _atom_site_fract_x
 _atom_site_fract_y
 _atom_site_fract_z
 _atom_site_occupancy
  Al  Al0  1  0.500000  0.500000  0.000000  1
  Al  Al1  1  0.250000  0.750000  0.500000  1
  Cu  Cu2  1  1.000000  0.000000  0.000000  1
  Cu  Cu3  1  0.750000  0.250000  0.500000  1
  Se  Se4  1  0.126837  0.125000  0.501837  1
  Se  Se5  1  0.875000  0.376837  0.001837  1
  Se  Se6  1  0.375000  0.873163  0.998163  1
  Se  Se7  1  0.623163  0.625000  0.498163  1
