# generated using pymatgen
data_CrSbS3
_symmetry_space_group_name_H-M   'P 1'
_cell_length_a   3.66086020
_cell_length_b   8.87906743
_cell_length_c   12.84671293
_cell_angle_alpha   90.00000000
_cell_angle_beta   90.00000000
_cell_angle_gamma   90.00000000
_symmetry_Int_Tables_number   1
_chemical_formula_structural   CrSbS3
_chemical_formula_sum   'Cr4 Sb4 S12'
_cell_volume   417.58271940
_cell_formula_units_Z   4
loop_
 _symmetry_equiv_pos_site_id
 _symmetry_equiv_pos_as_xyz
  1  'x, y, z'
loop_
 _atom_site_type_symbol
 _atom_site_label
 _atom_site_symmetry_multiplicity
 _atom_site_fract_x
 _atom_site_fract_y
 _atom_site_fract_z
 _atom_site_occupancy
  Cr  Cr0  1  0.750000  0.843365  0.043660  1
  Cr  Cr1  1  0.250000  0.156635  0.956340  1
  Cr  Cr2  1  0.750000  0.343365  0.456340  1
  Cr  Cr3  1  0.250000  0.656635  0.543660  1
  Sb  Sb4  1  0.750000  0.474402  0.840278  1
  Sb  Sb5  1  0.250000  0.525598  0.159722  1
  Sb  Sb6  1  0.750000  0.974402  0.659722  1
  Sb  Sb7  1  0.250000  0.025598  0.340278  1
  S  S8  1  0.750000  0.711805  0.209075  1
  S  S9  1  0.250000  0.673424  0.986899  1
  S  S10  1  0.750000  0.826576  0.486899  1
  S  S11  1  0.250000  0.173424  0.513101  1
  S  S12  1  0.250000  0.996594  0.104420  1
  S  S13  1  0.750000  0.003406  0.895580  1
  S  S14  1  0.250000  0.496594  0.395580  1
  S  S15  1  0.250000  0.288195  0.790925  1
  S  S16  1  0.750000  0.211805  0.290925  1
  S  S17  1  0.250000  0.788195  0.709075  1
  S  S18  1  0.750000  0.503406  0.604420  1
  S  S19  1  0.750000  0.326576  0.013101  1
