# generated using pymatgen
data_S
_symmetry_space_group_name_H-M   'P 1'
_cell_length_a   9.24805411
_cell_length_b   13.64206067
_cell_length_c   10.89684752
_cell_angle_alpha   90.00000000
_cell_angle_beta   122.99880280
_cell_angle_gamma   90.00000000
_symmetry_Int_Tables_number   1
_chemical_formula_structural   S
_chemical_formula_sum   S32
_cell_volume   1152.99787664
_cell_formula_units_Z   32
loop_
 _symmetry_equiv_pos_site_id
 _symmetry_equiv_pos_as_xyz
  1  'x, y, z'
loop_
 _atom_site_type_symbol
 _atom_site_label
 _atom_site_symmetry_multiplicity
 _atom_site_fract_x
 _atom_site_fract_y
 _atom_site_fract_z
 _atom_site_occupancy
  S  S0  1  0.367214  0.349590  0.682235  1
  S  S1  1  0.632786  0.349590  0.817765  1
  S  S2  1  0.632786  0.650410  0.317765  1
  S  S3  1  0.367214  0.650410  0.182235  1
  S  S4  1  0.215795  0.577263  0.659499  1
  S  S5  1  0.784205  0.577263  0.840501  1
  S  S6  1  0.784205  0.422737  0.340501  1
  S  S7  1  0.215795  0.422737  0.159499  1
  S  S8  1  0.266869  0.444169  0.765111  1
  S  S9  1  0.733131  0.444169  0.734889  1
  S  S10  1  0.733131  0.555831  0.234889  1
  S  S11  1  0.266869  0.555831  0.265111  1
  S  S12  1  0.417554  0.672253  0.786077  1
  S  S13  1  0.582446  0.672253  0.713923  1
  S  S14  1  0.582446  0.327747  0.213923  1
  S  S15  1  0.417554  0.327747  0.286077  1
  S  S16  1  0.917615  0.798165  0.137615  1
  S  S17  1  0.082385  0.798165  0.362385  1
  S  S18  1  0.082385  0.201835  0.862385  1
  S  S19  1  0.917615  0.201835  0.637615  1
  S  S20  1  0.765891  0.025918  0.019716  1
  S  S21  1  0.234109  0.025918  0.480284  1
  S  S22  1  0.234109  0.974082  0.980284  1
  S  S23  1  0.765891  0.974082  0.519716  1
  S  S24  1  0.715643  0.892668  0.078579  1
  S  S25  1  0.284357  0.892668  0.421421  1
  S  S26  1  0.284357  0.107332  0.921421  1
  S  S27  1  0.715643  0.107332  0.578579  1
  S  S28  1  0.867299  0.120406  0.195530  1
  S  S29  1  0.132701  0.120406  0.304470  1
  S  S30  1  0.132701  0.879594  0.804470  1
  S  S31  1  0.867299  0.879594  0.695530  1
