# generated using pymatgen
data_ErF3
_symmetry_space_group_name_H-M   'P 1'
_cell_length_a   4.73956879
_cell_length_b   6.13361782
_cell_length_c   6.85195230
_cell_angle_alpha   90.00000000
_cell_angle_beta   90.00000000
_cell_angle_gamma   90.00000000
_symmetry_Int_Tables_number   1
_chemical_formula_structural   ErF3
_chemical_formula_sum   'Er4 F12'
_cell_volume   199.19107432
_cell_formula_units_Z   4
loop_
 _symmetry_equiv_pos_site_id
 _symmetry_equiv_pos_as_xyz
  1  'x, y, z'
loop_
 _atom_site_type_symbol
 _atom_site_label
 _atom_site_symmetry_multiplicity
 _atom_site_fract_x
 _atom_site_fract_y
 _atom_site_fract_z
 _atom_site_occupancy
  Er  Er0  1  0.960947  0.635296  0.750000  1
  Er  Er1  1  0.460947  0.864704  0.250000  1
  Er  Er2  1  0.539053  0.135296  0.750000  1
  Er  Er3  1  0.039053  0.364704  0.250000  1
  F  F4  1  0.348795  0.161325  0.436298  1
  F  F5  1  0.848795  0.338675  0.563702  1
  F  F6  1  0.151205  0.661325  0.063702  1
  F  F7  1  0.651205  0.838675  0.936298  1
  F  F8  1  0.630893  0.535456  0.250000  1
  F  F9  1  0.130893  0.964544  0.750000  1
  F  F10  1  0.869107  0.035456  0.250000  1
  F  F11  1  0.369107  0.464544  0.750000  1
  F  F12  1  0.348795  0.161325  0.063702  1
  F  F13  1  0.848795  0.338675  0.936298  1
  F  F14  1  0.151205  0.661325  0.436298  1
  F  F15  1  0.651205  0.838675  0.563702  1
