# generated using pymatgen
data_LiP
_symmetry_space_group_name_H-M   'P 1'
_cell_length_a   5.59387161
_cell_length_b   4.97038519
_cell_length_c   10.25075070
_cell_angle_alpha   90.00000000
_cell_angle_beta   118.15551780
_cell_angle_gamma   90.00000000
_symmetry_Int_Tables_number   1
_chemical_formula_structural   LiP
_chemical_formula_sum   'Li8 P8'
_cell_volume   251.28369181
_cell_formula_units_Z   8
loop_
 _symmetry_equiv_pos_site_id
 _symmetry_equiv_pos_as_xyz
  1  'x, y, z'
loop_
 _atom_site_type_symbol
 _atom_site_label
 _atom_site_symmetry_multiplicity
 _atom_site_fract_x
 _atom_site_fract_y
 _atom_site_fract_z
 _atom_site_occupancy
  Li  Li0  1  0.717008  0.611753  0.329300  1
  Li  Li1  1  0.282992  0.111753  0.170700  1
  Li  Li2  1  0.282992  0.388247  0.670700  1
  Li  Li3  1  0.717008  0.888247  0.829300  1
  Li  Li4  1  0.725768  0.341684  0.029786  1
  Li  Li5  1  0.274232  0.841684  0.470214  1
  Li  Li6  1  0.274232  0.658316  0.970214  1
  Li  Li7  1  0.725768  0.158316  0.529786  1
  P  P8  1  0.816645  0.105096  0.292916  1
  P  P9  1  0.183355  0.605096  0.207084  1
  P  P10  1  0.183355  0.894904  0.707084  1
  P  P11  1  0.816645  0.394904  0.792916  1
  P  P12  1  0.803182  0.843973  0.111742  1
  P  P13  1  0.196818  0.343973  0.388258  1
  P  P14  1  0.196818  0.156027  0.888258  1
  P  P15  1  0.803182  0.656027  0.611742  1
