# generated using pymatgen
data_Na3AlSe3
_symmetry_space_group_name_H-M   'P 1'
_cell_length_a   7.56685862
_cell_length_b   7.29839074
_cell_length_c   15.27223693
_cell_angle_alpha   90.00000000
_cell_angle_beta   119.54042397
_cell_angle_gamma   90.00000000
_symmetry_Int_Tables_number   1
_chemical_formula_structural   Na3AlSe3
_chemical_formula_sum   'Na12 Al4 Se12'
_cell_volume   733.78471187
_cell_formula_units_Z   4
loop_
 _symmetry_equiv_pos_site_id
 _symmetry_equiv_pos_as_xyz
  1  'x, y, z'
loop_
 _atom_site_type_symbol
 _atom_site_label
 _atom_site_symmetry_multiplicity
 _atom_site_fract_x
 _atom_site_fract_y
 _atom_site_fract_z
 _atom_site_occupancy
  Na  Na0  1  0.061323  0.526734  0.786424  1
  Na  Na1  1  0.938677  0.026734  0.713576  1
  Na  Na2  1  0.938677  0.473266  0.213576  1
  Na  Na3  1  0.061323  0.973266  0.286424  1
  Na  Na4  1  0.270510  0.496975  0.610070  1
  Na  Na5  1  0.729490  0.996975  0.889930  1
  Na  Na6  1  0.729490  0.503025  0.389930  1
  Na  Na7  1  0.270510  0.003025  0.110070  1
  Na  Na8  1  0.691548  0.496699  0.897955  1
  Na  Na9  1  0.308452  0.996699  0.602045  1
  Na  Na10  1  0.308452  0.503301  0.102045  1
  Na  Na11  1  0.691548  0.003301  0.397955  1
  Al  Al12  1  0.338274  0.140118  0.919899  1
  Al  Al13  1  0.661726  0.640118  0.580101  1
  Al  Al14  1  0.661726  0.859882  0.080101  1
  Al  Al15  1  0.338274  0.359882  0.419899  1
  Se  Se16  1  0.654152  0.303529  0.573174  1
  Se  Se17  1  0.345848  0.803529  0.926826  1
  Se  Se18  1  0.345848  0.696471  0.426826  1
  Se  Se19  1  0.654152  0.196471  0.073174  1
  Se  Se20  1  0.653896  0.740889  0.726008  1
  Se  Se21  1  0.346104  0.240889  0.773992  1
  Se  Se22  1  0.346104  0.259111  0.273992  1
  Se  Se23  1  0.653896  0.759111  0.226008  1
  Se  Se24  1  0.052904  0.255378  0.927442  1
  Se  Se25  1  0.947096  0.755378  0.572558  1
  Se  Se26  1  0.947096  0.744622  0.072558  1
  Se  Se27  1  0.052904  0.244622  0.427442  1
