# generated using pymatgen
data_PrBN2
_symmetry_space_group_name_H-M   'P 1'
_cell_length_a   7.44658660
_cell_length_b   7.44658660
_cell_length_c   7.44658660
_cell_angle_alpha   110.47094813
_cell_angle_beta   110.47094813
_cell_angle_gamma   110.47094813
_symmetry_Int_Tables_number   1
_chemical_formula_structural   PrBN2
_chemical_formula_sum   'Pr6 B6 N12'
_cell_volume   305.53930377
_cell_formula_units_Z   6
loop_
 _symmetry_equiv_pos_site_id
 _symmetry_equiv_pos_as_xyz
  1  'x, y, z'
loop_
 _atom_site_type_symbol
 _atom_site_label
 _atom_site_symmetry_multiplicity
 _atom_site_fract_x
 _atom_site_fract_y
 _atom_site_fract_z
 _atom_site_occupancy
  Pr  Pr0  1  0.204383  0.295617  0.750000  1
  Pr  Pr1  1  0.750000  0.204383  0.295617  1
  Pr  Pr2  1  0.295617  0.750000  0.204383  1
  Pr  Pr3  1  0.795617  0.704383  0.250000  1
  Pr  Pr4  1  0.250000  0.795617  0.704383  1
  Pr  Pr5  1  0.704383  0.250000  0.795617  1
  B  B6  1  0.130965  0.369035  0.250000  1
  B  B7  1  0.869035  0.630965  0.750000  1
  B  B8  1  0.750000  0.869035  0.630965  1
  B  B9  1  0.630965  0.750000  0.869035  1
  B  B10  1  0.250000  0.130965  0.369035  1
  B  B11  1  0.369035  0.250000  0.130965  1
  N  N12  1  0.490468  0.250000  0.009532  1
  N  N13  1  0.250000  0.009532  0.490468  1
  N  N14  1  0.990468  0.509532  0.750000  1
  N  N15  1  0.009532  0.490468  0.250000  1
  N  N16  1  0.509532  0.750000  0.990468  1
  N  N17  1  0.750000  0.990468  0.509532  1
  N  N18  1  0.128346  0.250000  0.371654  1
  N  N19  1  0.250000  0.371654  0.128346  1
  N  N20  1  0.371654  0.128346  0.250000  1
  N  N21  1  0.871654  0.750000  0.628346  1
  N  N22  1  0.750000  0.628346  0.871654  1
  N  N23  1  0.628346  0.871654  0.750000  1
