# generated using pymatgen
data_LiBeSb
_symmetry_space_group_name_H-M   'P 1'
_cell_length_a   4.17242539
_cell_length_b   4.17242539
_cell_length_c   6.78078741
_cell_angle_alpha   90.00000000
_cell_angle_beta   90.00000000
_cell_angle_gamma   120.00000000
_symmetry_Int_Tables_number   1
_chemical_formula_structural   LiBeSb
_chemical_formula_sum   'Li2 Be2 Sb2'
_cell_volume   102.23225026
_cell_formula_units_Z   2
loop_
 _symmetry_equiv_pos_site_id
 _symmetry_equiv_pos_as_xyz
  1  'x, y, z'
loop_
 _atom_site_type_symbol
 _atom_site_label
 _atom_site_symmetry_multiplicity
 _atom_site_fract_x
 _atom_site_fract_y
 _atom_site_fract_z
 _atom_site_occupancy
  Li  Li0  1  0.000000  0.000000  0.152598  1
  Li  Li1  1  0.000000  0.000000  0.652598  1
  Be  Be2  1  0.333333  0.666667  0.007226  1
  Be  Be3  1  0.666667  0.333333  0.507226  1
  Sb  Sb4  1  0.333333  0.666667  0.390175  1
  Sb  Sb5  1  0.666667  0.333333  0.890175  1
