# generated using pymatgen
data_KSbSe2
_symmetry_space_group_name_H-M   'P 1'
_cell_length_a   6.65986335
_cell_length_b   6.59547152
_cell_length_c   13.53459786
_cell_angle_alpha   90.00000000
_cell_angle_beta   112.36423113
_cell_angle_gamma   90.00000000
_symmetry_Int_Tables_number   1
_chemical_formula_structural   KSbSe2
_chemical_formula_sum   'K4 Sb4 Se8'
_cell_volume   549.78984519
_cell_formula_units_Z   4
loop_
 _symmetry_equiv_pos_site_id
 _symmetry_equiv_pos_as_xyz
  1  'x, y, z'
loop_
 _atom_site_type_symbol
 _atom_site_label
 _atom_site_symmetry_multiplicity
 _atom_site_fract_x
 _atom_site_fract_y
 _atom_site_fract_z
 _atom_site_occupancy
  K  K0  1  0.135910  0.737918  0.120273  1
  K  K1  1  0.864090  0.262082  0.879727  1
  K  K2  1  0.864090  0.737918  0.379727  1
  K  K3  1  0.135910  0.262082  0.620273  1
  Sb  Sb4  1  0.418570  0.798044  0.878874  1
  Sb  Sb5  1  0.581430  0.201956  0.121126  1
  Sb  Sb6  1  0.581430  0.798044  0.621126  1
  Sb  Sb7  1  0.418570  0.201956  0.378874  1
  Se  Se8  1  0.628798  0.189592  0.614215  1
  Se  Se9  1  0.371202  0.810408  0.385785  1
  Se  Se10  1  0.371202  0.189592  0.885785  1
  Se  Se11  1  0.628798  0.810408  0.114215  1
  Se  Se12  1  0.787431  0.229175  0.355054  1
  Se  Se13  1  0.212569  0.770825  0.644946  1
  Se  Se14  1  0.212569  0.229175  0.144946  1
  Se  Se15  1  0.787431  0.770825  0.855054  1
