# generated using pymatgen
data_K2AsAuS4
_symmetry_space_group_name_H-M   'P 1'
_cell_length_a   6.80854147
_cell_length_b   7.03688663
_cell_length_c   9.71565862
_cell_angle_alpha   90.00000000
_cell_angle_beta   93.30188104
_cell_angle_gamma   90.00000000
_symmetry_Int_Tables_number   1
_chemical_formula_structural   K2AsAuS4
_chemical_formula_sum   'K4 As2 Au2 S8'
_cell_volume   464.71354174
_cell_formula_units_Z   2
loop_
 _symmetry_equiv_pos_site_id
 _symmetry_equiv_pos_as_xyz
  1  'x, y, z'
loop_
 _atom_site_type_symbol
 _atom_site_label
 _atom_site_symmetry_multiplicity
 _atom_site_fract_x
 _atom_site_fract_y
 _atom_site_fract_z
 _atom_site_occupancy
  K  K0  1  0.798818  0.250000  0.463737  1
  K  K1  1  0.521116  0.750000  0.158871  1
  K  K2  1  0.201182  0.750000  0.536263  1
  K  K3  1  0.478884  0.250000  0.841129  1
  As  As4  1  0.726528  0.750000  0.719787  1
  As  As5  1  0.273472  0.250000  0.280213  1
  Au  Au6  1  0.000000  0.000000  0.000000  1
  Au  Au7  1  0.000000  0.500000  0.000000  1
  S  S8  1  0.305117  0.250000  0.502592  1
  S  S9  1  0.694883  0.750000  0.497408  1
  S  S10  1  0.544278  0.250000  0.174739  1
  S  S11  1  0.455722  0.750000  0.825261  1
  S  S12  1  0.096421  0.512225  0.232569  1
  S  S13  1  0.096421  0.987775  0.232569  1
  S  S14  1  0.903579  0.487775  0.767431  1
  S  S15  1  0.903579  0.012225  0.767431  1
