# generated using pymatgen
data_CsAuO
_symmetry_space_group_name_H-M   'P 1'
_cell_length_a   8.00720300
_cell_length_b   8.00720300
_cell_length_c   8.00720300
_cell_angle_alpha   98.95384344
_cell_angle_beta   98.95384344
_cell_angle_gamma   133.52906880
_symmetry_Int_Tables_number   1
_chemical_formula_structural   CsAuO
_chemical_formula_sum   'Cs4 Au4 O4'
_cell_volume   342.02643454
_cell_formula_units_Z   4
loop_
 _symmetry_equiv_pos_site_id
 _symmetry_equiv_pos_as_xyz
  1  'x, y, z'
loop_
 _atom_site_type_symbol
 _atom_site_label
 _atom_site_symmetry_multiplicity
 _atom_site_fract_x
 _atom_site_fract_y
 _atom_site_fract_z
 _atom_site_occupancy
  Cs  Cs0  1  0.500000  0.198735  0.698735  1
  Cs  Cs1  1  0.801265  0.500000  0.301265  1
  Cs  Cs2  1  0.198735  0.500000  0.698735  1
  Cs  Cs3  1  0.500000  0.801265  0.301265  1
  Au  Au4  1  0.144669  0.855331  0.000000  1
  Au  Au5  1  0.144669  0.144669  0.289339  1
  Au  Au6  1  0.855331  0.855331  0.710661  1
  Au  Au7  1  0.855331  0.144669  0.000000  1
  O  O8  1  0.000000  0.719836  0.719836  1
  O  O9  1  0.280164  0.000000  0.280164  1
  O  O10  1  0.719836  0.000000  0.719836  1
  O  O11  1  0.000000  0.280164  0.280164  1
