# generated using pymatgen
data_Au2S
_symmetry_space_group_name_H-M   'P 1'
_cell_length_a   5.34712193
_cell_length_b   5.34712193
_cell_length_c   5.34712193
_cell_angle_alpha   90.00000000
_cell_angle_beta   90.00000000
_cell_angle_gamma   90.00000000
_symmetry_Int_Tables_number   1
_chemical_formula_structural   Au2S
_chemical_formula_sum   'Au4 S2'
_cell_volume   152.88337525
_cell_formula_units_Z   2
loop_
 _symmetry_equiv_pos_site_id
 _symmetry_equiv_pos_as_xyz
  1  'x, y, z'
loop_
 _atom_site_type_symbol
 _atom_site_label
 _atom_site_symmetry_multiplicity
 _atom_site_fract_x
 _atom_site_fract_y
 _atom_site_fract_z
 _atom_site_occupancy
  Au  Au0  1  0.250000  0.250000  0.750000  1
  Au  Au1  1  0.750000  0.250000  0.250000  1
  Au  Au2  1  0.250000  0.750000  0.250000  1
  Au  Au3  1  0.750000  0.750000  0.750000  1
  S  S4  1  0.000000  0.000000  0.000000  1
  S  S5  1  0.500000  0.500000  0.500000  1
