# generated using pymatgen
data_Rb2Sn2Se5
_symmetry_space_group_name_H-M   'P 1'
_cell_length_a   7.35942582
_cell_length_b   7.35942582
_cell_length_c   12.27022024
_cell_angle_alpha   75.51484509
_cell_angle_beta   104.48515491
_cell_angle_gamma   106.58869754
_symmetry_Int_Tables_number   1
_chemical_formula_structural   Rb2Sn2Se5
_chemical_formula_sum   'Rb4 Sn4 Se10'
_cell_volume   605.11764551
_cell_formula_units_Z   2
loop_
 _symmetry_equiv_pos_site_id
 _symmetry_equiv_pos_as_xyz
  1  'x, y, z'
loop_
 _atom_site_type_symbol
 _atom_site_label
 _atom_site_symmetry_multiplicity
 _atom_site_fract_x
 _atom_site_fract_y
 _atom_site_fract_z
 _atom_site_occupancy
  Rb  Rb0  1  0.058435  0.591859  0.320450  1
  Rb  Rb1  1  0.591859  0.058435  0.179550  1
  Rb  Rb2  1  0.941565  0.408141  0.679550  1
  Rb  Rb3  1  0.408141  0.941565  0.820450  1
  Sn  Sn4  1  0.551510  0.745353  0.556182  1
  Sn  Sn5  1  0.745353  0.551510  0.943818  1
  Sn  Sn6  1  0.448490  0.254647  0.443818  1
  Sn  Sn7  1  0.254647  0.448490  0.056182  1
  Se  Se8  1  0.801653  0.801653  0.750000  1
  Se  Se9  1  0.198347  0.198347  0.250000  1
  Se  Se10  1  0.624360  0.642630  0.385047  1
  Se  Se11  1  0.642629  0.624360  0.114953  1
  Se  Se12  1  0.375640  0.357371  0.614953  1
  Se  Se13  1  0.357371  0.375640  0.885047  1
  Se  Se14  1  0.248526  0.871402  0.530985  1
  Se  Se15  1  0.871402  0.248526  0.969015  1
  Se  Se16  1  0.128598  0.751474  0.030985  1
  Se  Se17  1  0.751474  0.128598  0.469015  1
