# generated using pymatgen
data_Ag8GeS6
_symmetry_space_group_name_H-M   'P 1'
_cell_length_a   7.62616066
_cell_length_b   10.74315461
_cell_length_c   15.31324474
_cell_angle_alpha   90.00000000
_cell_angle_beta   90.00000000
_cell_angle_gamma   90.00000000
_symmetry_Int_Tables_number   1
_chemical_formula_structural   Ag8GeS6
_chemical_formula_sum   'Ag32 Ge4 S24'
_cell_volume   1254.59918129
_cell_formula_units_Z   4
loop_
 _symmetry_equiv_pos_site_id
 _symmetry_equiv_pos_as_xyz
  1  'x, y, z'
loop_
 _atom_site_type_symbol
 _atom_site_label
 _atom_site_symmetry_multiplicity
 _atom_site_fract_x
 _atom_site_fract_y
 _atom_site_fract_z
 _atom_site_occupancy
  Ag  Ag0  1  0.494945  0.095017  0.771593  1
  Ag  Ag1  1  0.373654  0.405638  0.739368  1
  Ag  Ag2  1  0.626346  0.905638  0.260632  1
  Ag  Ag3  1  0.126346  0.405638  0.239368  1
  Ag  Ag4  1  0.016540  0.111819  0.483510  1
  Ag  Ag5  1  0.983460  0.611819  0.516490  1
  Ag  Ag6  1  0.483460  0.111819  0.983510  1
  Ag  Ag7  1  0.516540  0.611819  0.016490  1
  Ag  Ag8  1  0.379130  0.191169  0.228967  1
  Ag  Ag9  1  0.620870  0.691169  0.771033  1
  Ag  Ag10  1  0.120870  0.191169  0.728967  1
  Ag  Ag11  1  0.879130  0.691169  0.271033  1
  Ag  Ag12  1  0.110870  0.190429  0.087637  1
  Ag  Ag13  1  0.889130  0.690429  0.912363  1
  Ag  Ag14  1  0.389130  0.190429  0.587637  1
  Ag  Ag15  1  0.610870  0.690429  0.412363  1
  Ag  Ag16  1  0.505055  0.595017  0.228407  1
  Ag  Ag17  1  0.873654  0.905638  0.760632  1
  Ag  Ag18  1  0.994945  0.595017  0.728407  1
  Ag  Ag19  1  0.005055  0.095017  0.271593  1
  Ag  Ag20  1  0.066539  0.522052  0.066411  1
  Ag  Ag21  1  0.933461  0.022052  0.933589  1
  Ag  Ag22  1  0.433461  0.522052  0.566411  1
  Ag  Ag23  1  0.566539  0.022052  0.433589  1
  Ag  Ag24  1  0.233839  0.335581  0.436881  1
  Ag  Ag25  1  0.766161  0.835581  0.563119  1
  Ag  Ag26  1  0.266161  0.335581  0.936881  1
  Ag  Ag27  1  0.733839  0.835581  0.063119  1
  Ag  Ag28  1  0.270548  0.869876  0.370507  1
  Ag  Ag29  1  0.729452  0.369876  0.629493  1
  Ag  Ag30  1  0.229452  0.869876  0.870507  1
  Ag  Ag31  1  0.770548  0.369876  0.129493  1
  Ge  Ge32  1  0.233802  0.850394  0.123830  1
  Ge  Ge33  1  0.766198  0.350394  0.876170  1
  Ge  Ge34  1  0.266198  0.850394  0.623830  1
  Ge  Ge35  1  0.733802  0.350394  0.376170  1
  S  S36  1  0.265449  0.105633  0.376252  1
  S  S37  1  0.734551  0.605633  0.623748  1
  S  S38  1  0.234551  0.105633  0.876252  1
  S  S39  1  0.765449  0.605633  0.123748  1
  S  S40  1  0.312687  0.367857  0.112236  1
  S  S41  1  0.687313  0.867857  0.887764  1
  S  S42  1  0.187313  0.367857  0.612236  1
  S  S43  1  0.812687  0.867857  0.387764  1
  S  S44  1  0.225622  0.727762  0.241888  1
  S  S45  1  0.774378  0.227762  0.758112  1
  S  S46  1  0.274378  0.727762  0.741888  1
  S  S47  1  0.725622  0.227762  0.258112  1
  S  S48  1  0.473621  0.973780  0.126849  1
  S  S49  1  0.526379  0.473780  0.873151  1
  S  S50  1  0.026379  0.973780  0.626849  1
  S  S51  1  0.973621  0.473780  0.373151  1
  S  S52  1  0.269252  0.727800  0.505203  1
  S  S53  1  0.730748  0.227800  0.494797  1
  S  S54  1  0.230748  0.727800  0.005203  1
  S  S55  1  0.769252  0.227800  0.994797  1
  S  S56  1  0.496893  0.475094  0.379234  1
  S  S57  1  0.503107  0.975094  0.620766  1
  S  S58  1  0.003107  0.475094  0.879234  1
  S  S59  1  0.996893  0.975094  0.120766  1
