# generated using pymatgen
data_KHo(CO3)2
_symmetry_space_group_name_H-M   'P 1'
_cell_length_a   6.40036062
_cell_length_b   6.40036062
_cell_length_c   7.04820293
_cell_angle_alpha   76.63360763
_cell_angle_beta   103.36639237
_cell_angle_gamma   82.96771508
_symmetry_Int_Tables_number   1
_chemical_formula_structural   KHo(CO3)2
_chemical_formula_sum   'K2 Ho2 C4 O12'
_cell_volume   268.53769438
_cell_formula_units_Z   2
loop_
 _symmetry_equiv_pos_site_id
 _symmetry_equiv_pos_as_xyz
  1  'x, y, z'
loop_
 _atom_site_type_symbol
 _atom_site_label
 _atom_site_symmetry_multiplicity
 _atom_site_fract_x
 _atom_site_fract_y
 _atom_site_fract_z
 _atom_site_occupancy
  K  K0  1  0.881636  0.881636  0.250000  1
  K  K1  1  0.118364  0.118364  0.750000  1
  Ho  Ho2  1  0.407899  0.407899  0.250000  1
  Ho  Ho3  1  0.592101  0.592101  0.750000  1
  C  C4  1  0.602530  0.143830  0.748127  1
  C  C5  1  0.143830  0.602530  0.751873  1
  C  C6  1  0.397470  0.856170  0.251873  1
  C  C7  1  0.856170  0.397470  0.248127  1
  O  O8  1  0.057086  0.407976  0.265074  1
  O  O9  1  0.407976  0.057086  0.234926  1
  O  O10  1  0.942914  0.592024  0.734926  1
  O  O11  1  0.592024  0.942914  0.765074  1
  O  O12  1  0.791417  0.258551  0.376970  1
  O  O13  1  0.258551  0.791417  0.123030  1
  O  O14  1  0.208583  0.741449  0.623030  1
  O  O15  1  0.741449  0.208583  0.876970  1
  O  O16  1  0.699609  0.535225  0.100122  1
  O  O17  1  0.535225  0.699609  0.399878  1
  O  O18  1  0.300391  0.464775  0.899878  1
  O  O19  1  0.464775  0.300391  0.600122  1
