# generated using pymatgen
data_Sr2Cu(BO3)2
_symmetry_space_group_name_H-M   'P 1'
_cell_length_a   5.87410009
_cell_length_b   8.83873668
_cell_length_c   6.12421899
_cell_angle_alpha   90.00000000
_cell_angle_beta   117.43018800
_cell_angle_gamma   90.00000000
_symmetry_Int_Tables_number   1
_chemical_formula_structural   Sr2Cu(BO3)2
_chemical_formula_sum   'Sr4 Cu2 B4 O12'
_cell_volume   282.21898816
_cell_formula_units_Z   2
loop_
 _symmetry_equiv_pos_site_id
 _symmetry_equiv_pos_as_xyz
  1  'x, y, z'
loop_
 _atom_site_type_symbol
 _atom_site_label
 _atom_site_symmetry_multiplicity
 _atom_site_fract_x
 _atom_site_fract_y
 _atom_site_fract_z
 _atom_site_occupancy
  Sr  Sr0  1  0.333708  0.605521  0.162264  1
  Sr  Sr1  1  0.666292  0.105521  0.337736  1
  Sr  Sr2  1  0.666292  0.394479  0.837736  1
  Sr  Sr3  1  0.333708  0.894479  0.662264  1
  Cu  Cu4  1  0.000000  0.500000  0.500000  1
  Cu  Cu5  1  0.000000  0.000000  0.000000  1
  B  B6  1  0.196340  0.249450  0.840510  1
  B  B7  1  0.803660  0.750550  0.159490  1
  B  B8  1  0.196340  0.250550  0.340510  1
  B  B9  1  0.803660  0.749450  0.659490  1
  O  O10  1  0.034317  0.690813  0.683474  1
  O  O11  1  0.965683  0.190813  0.816526  1
  O  O12  1  0.593927  0.662256  0.614209  1
  O  O13  1  0.593927  0.837744  0.114209  1
  O  O14  1  0.406073  0.162256  0.885791  1
  O  O15  1  0.406073  0.337744  0.385791  1
  O  O16  1  0.788935  0.592095  0.180060  1
  O  O17  1  0.211065  0.092095  0.319940  1
  O  O18  1  0.211065  0.407905  0.819940  1
  O  O19  1  0.788935  0.907905  0.680060  1
  O  O20  1  0.034317  0.809187  0.183474  1
  O  O21  1  0.965683  0.309187  0.316526  1
