# generated using pymatgen
data_Al6Cd4SO12
_symmetry_space_group_name_H-M   'P 1'
_cell_length_a   7.74743744
_cell_length_b   7.74743744
_cell_length_c   7.74743744
_cell_angle_alpha   109.47122063
_cell_angle_beta   109.47122063
_cell_angle_gamma   109.47122063
_symmetry_Int_Tables_number   1
_chemical_formula_structural   Al6Cd4SO12
_chemical_formula_sum   'Al6 Cd4 S1 O12'
_cell_volume   357.97470794
_cell_formula_units_Z   1
loop_
 _symmetry_equiv_pos_site_id
 _symmetry_equiv_pos_as_xyz
  1  'x, y, z'
loop_
 _atom_site_type_symbol
 _atom_site_label
 _atom_site_symmetry_multiplicity
 _atom_site_fract_x
 _atom_site_fract_y
 _atom_site_fract_z
 _atom_site_occupancy
  Al  Al0  1  0.500000  0.250000  0.750000  1
  Al  Al1  1  0.500000  0.750000  0.250000  1
  Al  Al2  1  0.250000  0.750000  0.500000  1
  Al  Al3  1  0.750000  0.250000  0.500000  1
  Al  Al4  1  0.250000  0.500000  0.750000  1
  Al  Al5  1  0.750000  0.500000  0.250000  1
  Cd  Cd6  1  1.000000  0.668353  1.000000  1
  Cd  Cd7  1  0.668353  1.000000  0.000000  1
  Cd  Cd8  1  1.000000  1.000000  0.668353  1
  Cd  Cd9  1  0.331647  0.331647  0.331647  1
  S  S10  1  0.000000  0.000000  0.000000  1
  O  O11  1  0.273097  0.719562  0.273097  1
  O  O12  1  0.273097  0.273097  0.719562  1
  O  O13  1  0.553535  0.280438  0.553535  1
  O  O14  1  0.280438  0.553535  0.553535  1
  O  O15  1  1.000000  0.446465  0.726903  1
  O  O16  1  0.446465  1.000000  0.726903  1
  O  O17  1  0.553535  0.553535  0.280438  1
  O  O18  1  0.446465  0.726903  0.000000  1
  O  O19  1  0.726903  0.446465  0.000000  1
  O  O20  1  1.000000  0.726903  0.446465  1
  O  O21  1  0.719562  0.273097  0.273097  1
  O  O22  1  0.726903  1.000000  0.446465  1
