# generated using pymatgen
data_Ba3TiS5
_symmetry_space_group_name_H-M   'P 1'
_cell_length_a   9.23675166
_cell_length_b   9.23675166
_cell_length_c   9.23675166
_cell_angle_alpha   124.79126828
_cell_angle_beta   124.79126828
_cell_angle_gamma   81.88404936
_symmetry_Int_Tables_number   1
_chemical_formula_structural   Ba3TiS5
_chemical_formula_sum   'Ba6 Ti2 S10'
_cell_volume   511.23788124
_cell_formula_units_Z   2
loop_
 _symmetry_equiv_pos_site_id
 _symmetry_equiv_pos_as_xyz
  1  'x, y, z'
loop_
 _atom_site_type_symbol
 _atom_site_label
 _atom_site_symmetry_multiplicity
 _atom_site_fract_x
 _atom_site_fract_y
 _atom_site_fract_z
 _atom_site_occupancy
  Ba  Ba0  1  0.163390  0.663390  0.826781  1
  Ba  Ba1  1  0.663390  0.836610  0.500000  1
  Ba  Ba2  1  0.336610  0.163390  0.500000  1
  Ba  Ba3  1  0.836610  0.336610  0.173219  1
  Ba  Ba4  1  0.750000  0.750000  0.000000  1
  Ba  Ba5  1  0.250000  0.250000  0.000000  1
  Ti  Ti6  1  0.250000  0.750000  0.500000  1
  Ti  Ti7  1  0.750000  0.250000  0.500000  1
  S  S8  1  0.504482  0.004482  0.204374  1
  S  S9  1  0.199892  0.699892  0.204374  1
  S  S10  1  0.495518  0.995518  0.795626  1
  S  S11  1  0.995518  0.199892  0.500000  1
  S  S12  1  0.699892  0.495518  0.500000  1
  S  S13  1  0.004482  0.800108  0.500000  1
  S  S14  1  0.300108  0.504482  0.500000  1
  S  S15  1  0.800108  0.300108  0.795626  1
  S  S16  1  0.000000  0.000000  0.000000  1
  S  S17  1  0.500000  0.500000  0.000000  1
