# generated using pymatgen
data_Er2S3
_symmetry_space_group_name_H-M   'P 1'
_cell_length_a   10.94221470
_cell_length_b   3.90827548
_cell_length_c   11.20508464
_cell_angle_alpha   90.00000000
_cell_angle_beta   108.78652981
_cell_angle_gamma   90.00000000
_symmetry_Int_Tables_number   1
_chemical_formula_structural   Er2S3
_chemical_formula_sum   'Er8 S12'
_cell_volume   453.65884865
_cell_formula_units_Z   4
loop_
 _symmetry_equiv_pos_site_id
 _symmetry_equiv_pos_as_xyz
  1  'x, y, z'
loop_
 _atom_site_type_symbol
 _atom_site_label
 _atom_site_symmetry_multiplicity
 _atom_site_fract_x
 _atom_site_fract_y
 _atom_site_fract_z
 _atom_site_occupancy
  Er  Er0  1  0.660590  0.250000  0.083630  1
  Er  Er1  1  0.339410  0.750000  0.916370  1
  Er  Er2  1  0.543721  0.250000  0.690132  1
  Er  Er3  1  0.456279  0.750000  0.309868  1
  Er  Er4  1  0.182672  0.250000  0.503077  1
  Er  Er5  1  0.817328  0.750000  0.496923  1
  Er  Er6  1  0.932324  0.250000  0.831569  1
  Er  Er7  1  0.067676  0.750000  0.168431  1
  S  S8  1  0.610293  0.250000  0.462868  1
  S  S9  1  0.389707  0.750000  0.537132  1
  S  S10  1  0.309244  0.250000  0.750511  1
  S  S11  1  0.690756  0.750000  0.249489  1
  S  S12  1  0.977221  0.250000  0.612958  1
  S  S13  1  0.022779  0.750000  0.387042  1
  S  S14  1  0.418155  0.250000  0.098405  1
  S  S15  1  0.581845  0.750000  0.901595  1
  S  S16  1  0.753909  0.750000  0.723048  1
  S  S17  1  0.246091  0.250000  0.276952  1
  S  S18  1  0.101865  0.750000  0.936403  1
  S  S19  1  0.898135  0.250000  0.063597  1
