# generated using pymatgen
data_Na4SnO4
_symmetry_space_group_name_H-M   'P 1'
_cell_length_a   5.95337791
_cell_length_b   5.96644453
_cell_length_c   8.96496266
_cell_angle_alpha   82.35887541
_cell_angle_beta   71.11966926
_cell_angle_gamma   68.56214405
_symmetry_Int_Tables_number   1
_chemical_formula_structural   Na4SnO4
_chemical_formula_sum   'Na8 Sn2 O8'
_cell_volume   280.42166270
_cell_formula_units_Z   2
loop_
 _symmetry_equiv_pos_site_id
 _symmetry_equiv_pos_as_xyz
  1  'x, y, z'
loop_
 _atom_site_type_symbol
 _atom_site_label
 _atom_site_symmetry_multiplicity
 _atom_site_fract_x
 _atom_site_fract_y
 _atom_site_fract_z
 _atom_site_occupancy
  Na  Na0  1  0.255361  0.243162  0.007582  1
  Na  Na1  1  0.744639  0.756838  0.992418  1
  Na  Na2  1  0.018412  0.263895  0.435811  1
  Na  Na3  1  0.981588  0.736105  0.564189  1
  Na  Na4  1  0.436062  0.249073  0.595368  1
  Na  Na5  1  0.563938  0.750927  0.404632  1
  Na  Na6  1  0.112766  0.719894  0.194625  1
  Na  Na7  1  0.887234  0.280106  0.805375  1
  Sn  Sn8  1  0.340979  0.721919  0.765116  1
  Sn  Sn9  1  0.659021  0.278081  0.234884  1
  O  O10  1  0.126716  0.517001  0.804904  1
  O  O11  1  0.873284  0.482999  0.195096  1
  O  O12  1  0.799277  0.014567  0.378743  1
  O  O13  1  0.200723  0.985433  0.621257  1
  O  O14  1  0.320861  0.477358  0.370995  1
  O  O15  1  0.679139  0.522642  0.629005  1
  O  O16  1  0.351035  0.840496  0.956879  1
  O  O17  1  0.648965  0.159504  0.043121  1
