# generated using pymatgen
data_CdSe2O5
_symmetry_space_group_name_H-M   'P 1'
_cell_length_a   7.08509426
_cell_length_b   7.08509426
_cell_length_c   6.23840082
_cell_angle_alpha   74.17569952
_cell_angle_beta   105.82430048
_cell_angle_gamma   71.52596892
_symmetry_Int_Tables_number   1
_chemical_formula_structural   CdSe2O5
_chemical_formula_sum   'Cd2 Se4 O10'
_cell_volume   262.70781792
_cell_formula_units_Z   2
loop_
 _symmetry_equiv_pos_site_id
 _symmetry_equiv_pos_as_xyz
  1  'x, y, z'
loop_
 _atom_site_type_symbol
 _atom_site_label
 _atom_site_symmetry_multiplicity
 _atom_site_fract_x
 _atom_site_fract_y
 _atom_site_fract_z
 _atom_site_occupancy
  Cd  Cd0  1  0.587231  0.587231  0.250000  1
  Cd  Cd1  1  0.412769  0.412769  0.750000  1
  Se  Se2  1  0.986730  0.293731  0.867617  1
  Se  Se3  1  0.293731  0.986730  0.632383  1
  Se  Se4  1  0.013270  0.706269  0.132383  1
  Se  Se5  1  0.706269  0.013270  0.367617  1
  O  O6  1  0.081867  0.081867  0.750000  1
  O  O7  1  0.918133  0.918133  0.250000  1
  O  O8  1  0.721196  0.409848  0.670241  1
  O  O9  1  0.409848  0.721196  0.829759  1
  O  O10  1  0.278804  0.590152  0.329759  1
  O  O11  1  0.590152  0.278804  0.170241  1
  O  O12  1  0.521356  0.921521  0.268169  1
  O  O13  1  0.921521  0.521356  0.231831  1
  O  O14  1  0.478644  0.078479  0.731831  1
  O  O15  1  0.078479  0.478644  0.768169  1
