# generated using pymatgen
data_Al2Te5
_symmetry_space_group_name_H-M   'P 1'
_cell_length_a   7.79765603
_cell_length_b   7.79765603
_cell_length_c   10.55346597
_cell_angle_alpha   52.56034899
_cell_angle_beta   127.43965101
_cell_angle_gamma   148.80321785
_symmetry_Int_Tables_number   1
_chemical_formula_structural   Al2Te5
_chemical_formula_sum   'Al2 Te5'
_cell_volume   257.80864052
_cell_formula_units_Z   1
loop_
 _symmetry_equiv_pos_site_id
 _symmetry_equiv_pos_as_xyz
  1  'x, y, z'
loop_
 _atom_site_type_symbol
 _atom_site_label
 _atom_site_symmetry_multiplicity
 _atom_site_fract_x
 _atom_site_fract_y
 _atom_site_fract_z
 _atom_site_occupancy
  Al  Al0  1  0.633880  0.366120  0.400871  1
  Al  Al1  1  0.366120  0.633880  0.599129  1
  Te  Te2  1  0.426380  0.573620  0.125710  1
  Te  Te3  1  0.573620  0.426380  0.874290  1
  Te  Te4  1  0.000000  0.000000  0.000000  1
  Te  Te5  1  0.812338  0.187662  0.399545  1
  Te  Te6  1  0.187662  0.812338  0.600455  1
