# generated using pymatgen
data_Ba4Nd4Zn3PtO15
_symmetry_space_group_name_H-M   'P 1'
_cell_length_a   11.88159943
_cell_length_b   11.88159943
_cell_length_c   6.87062407
_cell_angle_alpha   90.00000000
_cell_angle_beta   90.00000000
_cell_angle_gamma   120.00000000
_symmetry_Int_Tables_number   1
_chemical_formula_structural   Ba4Nd4Zn3PtO15
_chemical_formula_sum   'Ba8 Nd8 Zn6 Pt2 O30'
_cell_volume   839.99486550
_cell_formula_units_Z   2
loop_
 _symmetry_equiv_pos_site_id
 _symmetry_equiv_pos_as_xyz
  1  'x, y, z'
loop_
 _atom_site_type_symbol
 _atom_site_label
 _atom_site_symmetry_multiplicity
 _atom_site_fract_x
 _atom_site_fract_y
 _atom_site_fract_z
 _atom_site_occupancy
  Ba  Ba0  1  0.346157  0.173079  0.158533  1
  Ba  Ba1  1  0.173079  0.346157  0.658533  1
  Ba  Ba2  1  0.173079  0.826921  0.658533  1
  Ba  Ba3  1  0.826921  0.173079  0.158533  1
  Ba  Ba4  1  0.653843  0.826921  0.658533  1
  Ba  Ba5  1  0.826921  0.653843  0.158533  1
  Ba  Ba6  1  0.333333  0.666667  0.338940  1
  Ba  Ba7  1  0.666667  0.333333  0.838940  1
  Nd  Nd8  1  0.000000  0.000000  0.341419  1
  Nd  Nd9  1  0.523021  0.476979  0.500292  1
  Nd  Nd10  1  0.476979  0.953958  0.000292  1
  Nd  Nd11  1  0.523021  0.046042  0.500292  1
  Nd  Nd12  1  0.953958  0.476979  0.500292  1
  Nd  Nd13  1  0.000000  0.000000  0.841419  1
  Nd  Nd14  1  0.046042  0.523021  0.000292  1
  Nd  Nd15  1  0.476979  0.523021  0.000292  1
  Zn  Zn16  1  0.657295  0.828647  0.175587  1
  Zn  Zn17  1  0.828647  0.657295  0.675587  1
  Zn  Zn18  1  0.828647  0.171353  0.675587  1
  Zn  Zn19  1  0.171353  0.828647  0.175587  1
  Zn  Zn20  1  0.171353  0.342705  0.175587  1
  Zn  Zn21  1  0.342705  0.171353  0.675587  1
  Pt  Pt22  1  0.333333  0.666667  0.815738  1
  Pt  Pt23  1  0.666667  0.333333  0.315738  1
  O  O24  1  0.832984  0.916492  0.070773  1
  O  O25  1  0.916492  0.832984  0.570773  1
  O  O26  1  0.916492  0.083508  0.570773  1
  O  O27  1  0.083508  0.916492  0.070773  1
  O  O28  1  0.083508  0.167016  0.070773  1
  O  O29  1  0.167016  0.083508  0.570773  1
  O  O30  1  0.605049  0.661828  0.299960  1
  O  O31  1  0.338172  0.943221  0.299960  1
  O  O32  1  0.056779  0.394951  0.299960  1
  O  O33  1  0.943221  0.605049  0.799960  1
  O  O34  1  0.394951  0.338172  0.799960  1
  O  O35  1  0.661828  0.056779  0.799960  1
  O  O36  1  0.605049  0.943221  0.299960  1
  O  O37  1  0.661828  0.605049  0.799960  1
  O  O38  1  0.943221  0.338172  0.799960  1
  O  O39  1  0.056779  0.661828  0.299960  1
  O  O40  1  0.338172  0.394951  0.299960  1
  O  O41  1  0.394951  0.056779  0.799960  1
  O  O42  1  0.497782  0.748891  0.988352  1
  O  O43  1  0.748891  0.497782  0.488352  1
  O  O44  1  0.748891  0.251109  0.488352  1
  O  O45  1  0.251109  0.748891  0.988352  1
  O  O46  1  0.251109  0.502218  0.988352  1
  O  O47  1  0.502218  0.251109  0.488352  1
  O  O48  1  0.833239  0.416619  0.155519  1
  O  O49  1  0.416619  0.833239  0.655519  1
  O  O50  1  0.416619  0.583381  0.655519  1
  O  O51  1  0.583381  0.416619  0.155519  1
  O  O52  1  0.583381  0.166761  0.155519  1
  O  O53  1  0.166761  0.583381  0.655519  1
