# generated using pymatgen
data_Tl4SnS3
_symmetry_space_group_name_H-M   'P 1'
_cell_length_a   8.14443970
_cell_length_b   8.14443970
_cell_length_c   14.51139494
_cell_angle_alpha   90.00000000
_cell_angle_beta   90.00000000
_cell_angle_gamma   90.00000000
_symmetry_Int_Tables_number   1
_chemical_formula_structural   Tl4SnS3
_chemical_formula_sum   'Tl16 Sn4 S12'
_cell_volume   962.56836939
_cell_formula_units_Z   4
loop_
 _symmetry_equiv_pos_site_id
 _symmetry_equiv_pos_as_xyz
  1  'x, y, z'
loop_
 _atom_site_type_symbol
 _atom_site_label
 _atom_site_symmetry_multiplicity
 _atom_site_fract_x
 _atom_site_fract_y
 _atom_site_fract_z
 _atom_site_occupancy
  Tl  Tl0  1  0.140335  0.159526  0.609238  1
  Tl  Tl1  1  0.859665  0.840474  0.609238  1
  Tl  Tl2  1  0.159526  0.140335  0.890762  1
  Tl  Tl3  1  0.659526  0.359665  0.609238  1
  Tl  Tl4  1  0.340474  0.640335  0.609238  1
  Tl  Tl5  1  0.359665  0.659526  0.890762  1
  Tl  Tl6  1  0.640335  0.340474  0.890762  1
  Tl  Tl7  1  0.840474  0.859665  0.890762  1
  Tl  Tl8  1  0.359665  0.340474  0.390762  1
  Tl  Tl9  1  0.640335  0.659526  0.390762  1
  Tl  Tl10  1  0.340474  0.359665  0.109238  1
  Tl  Tl11  1  0.840474  0.140335  0.390762  1
  Tl  Tl12  1  0.159526  0.859665  0.390762  1
  Tl  Tl13  1  0.140335  0.840474  0.109238  1
  Tl  Tl14  1  0.859665  0.159526  0.109238  1
  Tl  Tl15  1  0.659526  0.640335  0.109238  1
  Sn  Sn16  1  0.500000  0.000000  0.740046  1
  Sn  Sn17  1  0.000000  0.500000  0.759954  1
  Sn  Sn18  1  0.000000  0.500000  0.259954  1
  Sn  Sn19  1  0.500000  0.000000  0.240046  1
  S  S20  1  0.170276  0.829724  0.750000  1
  S  S21  1  0.670276  0.670276  0.750000  1
  S  S22  1  0.329724  0.329724  0.750000  1
  S  S23  1  0.829724  0.170276  0.750000  1
  S  S24  1  0.329724  0.670276  0.250000  1
  S  S25  1  0.829724  0.829724  0.250000  1
  S  S26  1  0.170276  0.170276  0.250000  1
  S  S27  1  0.500000  0.000000  0.414703  1
  S  S28  1  0.670276  0.329724  0.250000  1
  S  S29  1  0.000000  0.500000  0.585297  1
  S  S30  1  0.000000  0.500000  0.085297  1
  S  S31  1  0.500000  0.000000  0.914703  1
