# generated using pymatgen
data_K3SbS4
_symmetry_space_group_name_H-M   'P 1'
_cell_length_a   7.94179110
_cell_length_b   7.94179110
_cell_length_c   7.82567041
_cell_angle_alpha   90.00000000
_cell_angle_beta   90.00000000
_cell_angle_gamma   93.33154198
_symmetry_Int_Tables_number   1
_chemical_formula_structural   K3SbS4
_chemical_formula_sum   'K6 Sb2 S8'
_cell_volume   492.74687956
_cell_formula_units_Z   2
loop_
 _symmetry_equiv_pos_site_id
 _symmetry_equiv_pos_as_xyz
  1  'x, y, z'
loop_
 _atom_site_type_symbol
 _atom_site_label
 _atom_site_symmetry_multiplicity
 _atom_site_fract_x
 _atom_site_fract_y
 _atom_site_fract_z
 _atom_site_occupancy
  K  K0  1  0.695493  0.304507  0.980402  1
  K  K1  1  0.304507  0.695493  0.480402  1
  K  K2  1  0.256459  0.182443  0.486310  1
  K  K3  1  0.743541  0.817557  0.986310  1
  K  K4  1  0.817557  0.743541  0.486310  1
  K  K5  1  0.182443  0.256459  0.986310  1
  Sb  Sb6  1  0.758092  0.241908  0.481864  1
  Sb  Sb7  1  0.241908  0.758092  0.981864  1
  S  S8  1  0.425251  0.574749  0.844244  1
  S  S9  1  0.574749  0.425251  0.344244  1
  S  S10  1  0.092426  0.907574  0.773456  1
  S  S11  1  0.907574  0.092426  0.273456  1
  S  S12  1  0.402686  0.952133  0.154807  1
  S  S13  1  0.597314  0.047867  0.654807  1
  S  S14  1  0.047867  0.597314  0.154807  1
  S  S15  1  0.952133  0.402686  0.654807  1
