# generated using pymatgen
data_In2(SO4)3
_symmetry_space_group_name_H-M   'P 1'
_cell_length_a   8.67276761
_cell_length_b   8.96319768
_cell_length_c   14.88710864
_cell_angle_alpha   90.00000000
_cell_angle_beta   124.79636582
_cell_angle_gamma   90.00000000
_symmetry_Int_Tables_number   1
_chemical_formula_structural   In2(SO4)3
_chemical_formula_sum   'In8 S12 O48'
_cell_volume   950.32524160
_cell_formula_units_Z   4
loop_
 _symmetry_equiv_pos_site_id
 _symmetry_equiv_pos_as_xyz
  1  'x, y, z'
loop_
 _atom_site_type_symbol
 _atom_site_label
 _atom_site_symmetry_multiplicity
 _atom_site_fract_x
 _atom_site_fract_y
 _atom_site_fract_z
 _atom_site_occupancy
  In  In0  1  0.634184  0.463085  0.885602  1
  In  In1  1  0.365816  0.963085  0.614398  1
  In  In2  1  0.365816  0.536915  0.114398  1
  In  In3  1  0.634184  0.036915  0.385602  1
  In  In4  1  0.864854  0.032638  0.113872  1
  In  In5  1  0.135146  0.532638  0.386128  1
  In  In6  1  0.135146  0.967362  0.886128  1
  In  In7  1  0.864854  0.467362  0.613872  1
  S  S8  1  0.543142  0.752656  0.003069  1
  S  S9  1  0.456858  0.252656  0.496931  1
  S  S10  1  0.456858  0.247344  0.996931  1
  S  S11  1  0.543142  0.747344  0.503069  1
  S  S12  1  0.961738  0.883617  0.353625  1
  S  S13  1  0.038262  0.383617  0.146375  1
  S  S14  1  0.038262  0.116383  0.646375  1
  S  S15  1  0.961738  0.616383  0.853625  1
  S  S16  1  0.741807  0.119125  0.845564  1
  S  S17  1  0.258193  0.619125  0.654436  1
  S  S18  1  0.258193  0.880875  0.154436  1
  S  S19  1  0.741807  0.380875  0.345564  1
  O  O20  1  0.157216  0.926970  0.441309  1
  O  O21  1  0.842784  0.426970  0.058691  1
  O  O22  1  0.842784  0.073030  0.558691  1
  O  O23  1  0.157216  0.573030  0.941309  1
  O  O24  1  0.730816  0.818422  0.046573  1
  O  O25  1  0.269184  0.318422  0.453427  1
  O  O26  1  0.269184  0.181578  0.953427  1
  O  O27  1  0.730816  0.681578  0.546573  1
  O  O28  1  0.872860  0.082313  0.814858  1
  O  O29  1  0.127140  0.582313  0.685142  1
  O  O30  1  0.127140  0.917687  0.185142  1
  O  O31  1  0.872860  0.417687  0.314858  1
  O  O32  1  0.883693  0.991699  0.262356  1
  O  O33  1  0.116307  0.491699  0.237644  1
  O  O34  1  0.116307  0.008301  0.737644  1
  O  O35  1  0.883693  0.508301  0.762356  1
  O  O36  1  0.573099  0.021435  0.784976  1
  O  O37  1  0.538400  0.698943  0.095977  1
  O  O38  1  0.461600  0.301057  0.904023  1
  O  O39  1  0.538400  0.801057  0.595977  1
  O  O40  1  0.961903  0.768589  0.813937  1
  O  O41  1  0.038097  0.268589  0.686063  1
  O  O42  1  0.038097  0.231411  0.186063  1
  O  O43  1  0.961903  0.731411  0.313937  1
  O  O44  1  0.397080  0.632826  0.438286  1
  O  O45  1  0.602920  0.132826  0.061714  1
  O  O46  1  0.602920  0.367174  0.561714  1
  O  O47  1  0.397080  0.867174  0.938286  1
  O  O48  1  0.840664  0.614899  0.895158  1
  O  O49  1  0.159336  0.114899  0.604842  1
  O  O50  1  0.159336  0.385101  0.104842  1
  O  O51  1  0.840664  0.885101  0.395158  1
  O  O52  1  0.688628  0.221581  0.315818  1
  O  O53  1  0.311372  0.721581  0.184182  1
  O  O54  1  0.311372  0.778419  0.684182  1
  O  O55  1  0.688628  0.278419  0.815818  1
  O  O56  1  0.508733  0.871601  0.428077  1
  O  O57  1  0.491267  0.371601  0.071923  1
  O  O58  1  0.491267  0.128399  0.571923  1
  O  O59  1  0.508733  0.628399  0.928077  1
  O  O60  1  0.836002  0.402248  0.464466  1
  O  O61  1  0.163998  0.902248  0.035534  1
  O  O62  1  0.163998  0.597752  0.535534  1
  O  O63  1  0.836002  0.097752  0.964466  1
  O  O64  1  0.573099  0.478565  0.284976  1
  O  O65  1  0.426901  0.978565  0.215024  1
  O  O66  1  0.426901  0.521435  0.715024  1
  O  O67  1  0.461600  0.198943  0.404023  1
