# generated using pymatgen
data_CdCuF4
_symmetry_space_group_name_H-M   'P 1'
_cell_length_a   6.47977734
_cell_length_b   6.47977734
_cell_length_c   6.47977734
_cell_angle_alpha   130.33116031
_cell_angle_beta   130.33116031
_cell_angle_gamma   72.87790286
_symmetry_Int_Tables_number   1
_chemical_formula_structural   CdCuF4
_chemical_formula_sum   'Cd2 Cu2 F8'
_cell_volume   154.43796865
_cell_formula_units_Z   2
loop_
 _symmetry_equiv_pos_site_id
 _symmetry_equiv_pos_as_xyz
  1  'x, y, z'
loop_
 _atom_site_type_symbol
 _atom_site_label
 _atom_site_symmetry_multiplicity
 _atom_site_fract_x
 _atom_site_fract_y
 _atom_site_fract_z
 _atom_site_occupancy
  Cd  Cd0  1  0.750000  0.750000  0.000000  1
  Cd  Cd1  1  0.250000  0.250000  0.000000  1
  Cu  Cu2  1  0.000000  0.500000  0.500000  1
  Cu  Cu3  1  0.500000  0.000000  0.500000  1
  F  F4  1  0.447458  0.947458  0.139377  1
  F  F5  1  0.191919  0.691919  0.139377  1
  F  F6  1  0.552542  0.052542  0.860623  1
  F  F7  1  0.052542  0.191919  0.500000  1
  F  F8  1  0.808081  0.308081  0.860623  1
  F  F9  1  0.308081  0.447458  0.500000  1
  F  F10  1  0.947458  0.808081  0.500000  1
  F  F11  1  0.691919  0.552542  0.500000  1
