# generated using pymatgen
data_BaTb2PdO5
_symmetry_space_group_name_H-M   'P 1'
_cell_length_a   6.61164647
_cell_length_b   6.61164647
_cell_length_c   5.93166566
_cell_angle_alpha   90.00000000
_cell_angle_beta   90.00000000
_cell_angle_gamma   90.00000000
_symmetry_Int_Tables_number   1
_chemical_formula_structural   BaTb2PdO5
_chemical_formula_sum   'Ba2 Tb4 Pd2 O10'
_cell_volume   259.29605588
_cell_formula_units_Z   2
loop_
 _symmetry_equiv_pos_site_id
 _symmetry_equiv_pos_as_xyz
  1  'x, y, z'
loop_
 _atom_site_type_symbol
 _atom_site_label
 _atom_site_symmetry_multiplicity
 _atom_site_fract_x
 _atom_site_fract_y
 _atom_site_fract_z
 _atom_site_occupancy
  Ba  Ba0  1  0.500000  0.500000  0.000000  1
  Ba  Ba1  1  0.000000  0.000000  0.000000  1
  Tb  Tb2  1  0.674038  0.174038  0.500000  1
  Tb  Tb3  1  0.174038  0.325962  0.500000  1
  Tb  Tb4  1  0.825962  0.674038  0.500000  1
  Tb  Tb5  1  0.325962  0.825962  0.500000  1
  Pd  Pd6  1  0.000000  0.500000  0.000000  1
  Pd  Pd7  1  0.500000  0.000000  0.000000  1
  O  O8  1  0.500000  0.500000  0.500000  1
  O  O9  1  0.000000  0.000000  0.500000  1
  O  O10  1  0.140520  0.640520  0.259184  1
  O  O11  1  0.859480  0.359480  0.259184  1
  O  O12  1  0.359480  0.140520  0.259184  1
  O  O13  1  0.640520  0.859480  0.259184  1
  O  O14  1  0.140520  0.640520  0.740816  1
  O  O15  1  0.640520  0.859480  0.740816  1
  O  O16  1  0.859480  0.359480  0.740816  1
  O  O17  1  0.359480  0.140520  0.740816  1
