# generated using pymatgen
data_As2Se3
_symmetry_space_group_name_H-M   'P 1'
_cell_length_a   4.50495841
_cell_length_b   10.96764885
_cell_length_c   12.91540272
_cell_angle_alpha   90.00000000
_cell_angle_beta   110.01464391
_cell_angle_gamma   90.00000000
_symmetry_Int_Tables_number   1
_chemical_formula_structural   As2Se3
_chemical_formula_sum   'As8 Se12'
_cell_volume   599.59454934
_cell_formula_units_Z   4
loop_
 _symmetry_equiv_pos_site_id
 _symmetry_equiv_pos_as_xyz
  1  'x, y, z'
loop_
 _atom_site_type_symbol
 _atom_site_label
 _atom_site_symmetry_multiplicity
 _atom_site_fract_x
 _atom_site_fract_y
 _atom_site_fract_z
 _atom_site_occupancy
  As  As0  1  0.622277  0.804878  0.736907  1
  As  As1  1  0.377723  0.304878  0.763093  1
  As  As2  1  0.377723  0.195122  0.263093  1
  As  As3  1  0.622277  0.695122  0.236907  1
  As  As4  1  0.897863  0.682062  0.516645  1
  As  As5  1  0.102137  0.182062  0.983355  1
  As  As6  1  0.102137  0.317938  0.483355  1
  As  As7  1  0.897863  0.817938  0.016645  1
  Se  Se8  1  0.126758  0.873746  0.597601  1
  Se  Se9  1  0.873242  0.373746  0.902399  1
  Se  Se10  1  0.873242  0.126254  0.402399  1
  Se  Se11  1  0.126758  0.626254  0.097601  1
  Se  Se12  1  0.686852  0.609617  0.658534  1
  Se  Se13  1  0.313148  0.109617  0.841466  1
  Se  Se14  1  0.313148  0.390383  0.341466  1
  Se  Se15  1  0.686852  0.890383  0.158534  1
  Se  Se16  1  0.448726  0.711860  0.880457  1
  Se  Se17  1  0.551274  0.211860  0.619543  1
  Se  Se18  1  0.551274  0.288140  0.119543  1
  Se  Se19  1  0.448726  0.788140  0.380457  1
