# generated using pymatgen
data_KRb2ScF6
_symmetry_space_group_name_H-M   'P 1'
_cell_length_a   6.49460149
_cell_length_b   6.49460149
_cell_length_c   6.49460149
_cell_angle_alpha   120.78894858
_cell_angle_beta   120.78894858
_cell_angle_gamma   88.63884785
_symmetry_Int_Tables_number   1
_chemical_formula_structural   KRb2ScF6
_chemical_formula_sum   'K1 Rb2 Sc1 F6'
_cell_volume   191.33724497
_cell_formula_units_Z   1
loop_
 _symmetry_equiv_pos_site_id
 _symmetry_equiv_pos_as_xyz
  1  'x, y, z'
loop_
 _atom_site_type_symbol
 _atom_site_label
 _atom_site_symmetry_multiplicity
 _atom_site_fract_x
 _atom_site_fract_y
 _atom_site_fract_z
 _atom_site_occupancy
  K  K0  1  0.500000  0.500000  0.000000  1
  Rb  Rb1  1  0.750000  0.250000  0.500000  1
  Rb  Rb2  1  0.250000  0.750000  0.500000  1
  Sc  Sc3  1  0.000000  0.000000  0.000000  1
  F  F4  1  0.724719  0.840304  0.565024  1
  F  F5  1  0.840304  0.275281  0.115585  1
  F  F6  1  0.159696  0.724719  0.884415  1
  F  F7  1  0.275281  0.159696  0.434976  1
  F  F8  1  0.220229  0.220229  0.000000  1
  F  F9  1  0.779771  0.779771  0.000000  1
