# generated using pymatgen
data_Na2LiGaAs2
_symmetry_space_group_name_H-M   'P 1'
_cell_length_a   9.33521195
_cell_length_b   9.33521195
_cell_length_c   5.92218855
_cell_angle_alpha   90.00000000
_cell_angle_beta   90.00000000
_cell_angle_gamma   98.66958629
_symmetry_Int_Tables_number   1
_chemical_formula_structural   Na2LiGaAs2
_chemical_formula_sum   'Na8 Li4 Ga4 As8'
_cell_volume   510.19922859
_cell_formula_units_Z   4
loop_
 _symmetry_equiv_pos_site_id
 _symmetry_equiv_pos_as_xyz
  1  'x, y, z'
loop_
 _atom_site_type_symbol
 _atom_site_label
 _atom_site_symmetry_multiplicity
 _atom_site_fract_x
 _atom_site_fract_y
 _atom_site_fract_z
 _atom_site_occupancy
  Na  Na0  1  0.427813  0.072187  0.250000  1
  Na  Na1  1  0.072187  0.427813  0.750000  1
  Na  Na2  1  0.572187  0.927813  0.750000  1
  Na  Na3  1  0.324092  0.675908  0.279397  1
  Na  Na4  1  0.824092  0.175908  0.220603  1
  Na  Na5  1  0.675908  0.324092  0.720603  1
  Na  Na6  1  0.175908  0.824092  0.779397  1
  Na  Na7  1  0.927813  0.572187  0.250000  1
  Li  Li8  1  0.380595  0.380595  0.500000  1
  Li  Li9  1  0.119405  0.119405  1.000000  1
  Li  Li10  1  0.619405  0.619405  0.500000  1
  Li  Li11  1  0.880595  0.880595  1.000000  1
  Ga  Ga12  1  0.868622  0.868622  0.500000  1
  Ga  Ga13  1  0.131378  0.131378  0.500000  1
  Ga  Ga14  1  0.631378  0.631378  1.000000  1
  Ga  Ga15  1  0.368622  0.368622  1.000000  1
  As  As16  1  0.106885  0.893115  0.281352  1
  As  As17  1  0.606885  0.393115  0.218648  1
  As  As18  1  0.893115  0.106885  0.718648  1
  As  As19  1  0.393115  0.606885  0.781352  1
  As  As20  1  0.142810  0.357190  0.250000  1
  As  As21  1  0.357190  0.142810  0.750000  1
  As  As22  1  0.857190  0.642810  0.750000  1
  As  As23  1  0.642810  0.857190  0.250000  1
