# generated using pymatgen
data_ZrS3
_symmetry_space_group_name_H-M   'P 1'
_cell_length_a   5.20195062
_cell_length_b   3.65864699
_cell_length_c   9.75054494
_cell_angle_alpha   90.00000000
_cell_angle_beta   96.72950876
_cell_angle_gamma   90.00000000
_symmetry_Int_Tables_number   1
_chemical_formula_structural   ZrS3
_chemical_formula_sum   'Zr2 S6'
_cell_volume   184.29483519
_cell_formula_units_Z   2
loop_
 _symmetry_equiv_pos_site_id
 _symmetry_equiv_pos_as_xyz
  1  'x, y, z'
loop_
 _atom_site_type_symbol
 _atom_site_label
 _atom_site_symmetry_multiplicity
 _atom_site_fract_x
 _atom_site_fract_y
 _atom_site_fract_z
 _atom_site_occupancy
  Zr  Zr0  1  0.718427  0.250000  0.356691  1
  Zr  Zr1  1  0.281573  0.750000  0.643309  1
  S  S2  1  0.117284  0.250000  0.806229  1
  S  S3  1  0.882716  0.750000  0.193771  1
  S  S4  1  0.761088  0.750000  0.550639  1
  S  S5  1  0.238912  0.250000  0.449361  1
  S  S6  1  0.483746  0.750000  0.192766  1
  S  S7  1  0.516254  0.250000  0.807234  1
