# generated using pymatgen
data_KNO3
_symmetry_space_group_name_H-M   'P 1'
_cell_length_a   5.67559383
_cell_length_b   6.95963477
_cell_length_c   7.79946773
_cell_angle_alpha   90.00000000
_cell_angle_beta   90.00000000
_cell_angle_gamma   90.00000000
_symmetry_Int_Tables_number   1
_chemical_formula_structural   KNO3
_chemical_formula_sum   'K4 N4 O12'
_cell_volume   308.07944455
_cell_formula_units_Z   4
loop_
 _symmetry_equiv_pos_site_id
 _symmetry_equiv_pos_as_xyz
  1  'x, y, z'
loop_
 _atom_site_type_symbol
 _atom_site_label
 _atom_site_symmetry_multiplicity
 _atom_site_fract_x
 _atom_site_fract_y
 _atom_site_fract_z
 _atom_site_occupancy
  K  K0  1  0.250000  0.809003  0.983520  1
  K  K1  1  0.750000  0.190997  0.016480  1
  K  K2  1  0.750000  0.309003  0.516480  1
  K  K3  1  0.250000  0.690997  0.483520  1
  N  N4  1  0.250000  0.359331  0.845962  1
  N  N5  1  0.750000  0.640669  0.154038  1
  N  N6  1  0.750000  0.859331  0.654038  1
  N  N7  1  0.250000  0.140669  0.345962  1
  O  O8  1  0.556332  0.935180  0.700250  1
  O  O9  1  0.056332  0.064820  0.299750  1
  O  O10  1  0.443668  0.435180  0.799750  1
  O  O11  1  0.943668  0.564820  0.200250  1
  O  O12  1  0.250000  0.288021  0.441068  1
  O  O13  1  0.750000  0.711979  0.558932  1
  O  O14  1  0.750000  0.788021  0.058932  1
  O  O15  1  0.250000  0.211979  0.941068  1
  O  O16  1  0.443668  0.064820  0.299750  1
  O  O17  1  0.943668  0.935180  0.700250  1
  O  O18  1  0.556332  0.564820  0.200250  1
  O  O19  1  0.056332  0.435180  0.799750  1
