# generated using pymatgen
data_Na6P4W
_symmetry_space_group_name_H-M   'P 1'
_cell_length_a   9.17094964
_cell_length_b   9.17094964
_cell_length_c   7.19247386
_cell_angle_alpha   90.00000000
_cell_angle_beta   90.00000000
_cell_angle_gamma   120.00000000
_symmetry_Int_Tables_number   1
_chemical_formula_structural   Na6P4W
_chemical_formula_sum   'Na12 P8 W2'
_cell_volume   523.88690248
_cell_formula_units_Z   2
loop_
 _symmetry_equiv_pos_site_id
 _symmetry_equiv_pos_as_xyz
  1  'x, y, z'
loop_
 _atom_site_type_symbol
 _atom_site_label
 _atom_site_symmetry_multiplicity
 _atom_site_fract_x
 _atom_site_fract_y
 _atom_site_fract_z
 _atom_site_occupancy
  Na  Na0  1  0.147848  0.295697  0.285180  1
  Na  Na1  1  0.852152  0.147848  0.785180  1
  Na  Na2  1  0.532785  0.467215  0.108043  1
  Na  Na3  1  0.065570  0.532785  0.608043  1
  Na  Na4  1  0.467215  0.934430  0.608043  1
  Na  Na5  1  0.532785  0.065570  0.108043  1
  Na  Na6  1  0.934430  0.467215  0.108043  1
  Na  Na7  1  0.467215  0.532785  0.608043  1
  Na  Na8  1  0.147848  0.852152  0.285180  1
  Na  Na9  1  0.704303  0.852152  0.285180  1
  Na  Na10  1  0.852152  0.704303  0.785180  1
  Na  Na11  1  0.295697  0.147848  0.785180  1
  P  P12  1  0.805678  0.611356  0.393736  1
  P  P13  1  0.388644  0.194322  0.393736  1
  P  P14  1  0.333333  0.666667  0.318199  1
  P  P15  1  0.666667  0.333333  0.818199  1
  P  P16  1  0.805678  0.194322  0.393736  1
  P  P17  1  0.194322  0.805678  0.893736  1
  P  P18  1  0.194322  0.388644  0.893736  1
  P  P19  1  0.611356  0.805678  0.893736  1
  W  W20  1  0.666667  0.333333  0.495823  1
  W  W21  1  0.333333  0.666667  0.995823  1
