# generated using pymatgen
data_KZrCuS3
_symmetry_space_group_name_H-M   'P 1'
_cell_length_a   7.40059249
_cell_length_b   7.40059249
_cell_length_c   9.83612851
_cell_angle_alpha   90.00000000
_cell_angle_beta   90.00000000
_cell_angle_gamma   150.53575130
_symmetry_Int_Tables_number   1
_chemical_formula_structural   KZrCuS3
_chemical_formula_sum   'K2 Zr2 Cu2 S6'
_cell_volume   264.98218524
_cell_formula_units_Z   2
loop_
 _symmetry_equiv_pos_site_id
 _symmetry_equiv_pos_as_xyz
  1  'x, y, z'
loop_
 _atom_site_type_symbol
 _atom_site_label
 _atom_site_symmetry_multiplicity
 _atom_site_fract_x
 _atom_site_fract_y
 _atom_site_fract_z
 _atom_site_occupancy
  K  K0  1  0.745333  0.254667  0.250000  1
  K  K1  1  0.254667  0.745333  0.750000  1
  Zr  Zr2  1  0.000000  0.000000  0.000000  1
  Zr  Zr3  1  0.000000  0.000000  0.500000  1
  Cu  Cu4  1  0.467432  0.532568  0.250000  1
  Cu  Cu5  1  0.532568  0.467432  0.750000  1
  S  S6  1  0.064562  0.935438  0.250000  1
  S  S7  1  0.935438  0.064562  0.750000  1
  S  S8  1  0.620067  0.379933  0.554771  1
  S  S9  1  0.620067  0.379933  0.945229  1
  S  S10  1  0.379933  0.620067  0.054771  1
  S  S11  1  0.379933  0.620067  0.445229  1
