# generated using pymatgen
data_Sr(BO2)2
_symmetry_space_group_name_H-M   'P 1'
_cell_length_a   4.38473141
_cell_length_b   6.75555013
_cell_length_c   12.08202894
_cell_angle_alpha   90.00000000
_cell_angle_beta   90.00000000
_cell_angle_gamma   90.00000000
_symmetry_Int_Tables_number   1
_chemical_formula_structural   Sr(BO2)2
_chemical_formula_sum   'Sr4 B8 O16'
_cell_volume   357.88507578
_cell_formula_units_Z   4
loop_
 _symmetry_equiv_pos_site_id
 _symmetry_equiv_pos_as_xyz
  1  'x, y, z'
loop_
 _atom_site_type_symbol
 _atom_site_label
 _atom_site_symmetry_multiplicity
 _atom_site_fract_x
 _atom_site_fract_y
 _atom_site_fract_z
 _atom_site_occupancy
  Sr  Sr0  1  0.235490  0.250000  0.000000  1
  Sr  Sr1  1  0.264510  0.750000  0.500000  1
  Sr  Sr2  1  0.764510  0.750000  0.000000  1
  Sr  Sr3  1  0.735490  0.250000  0.500000  1
  B  B4  1  0.672079  0.375686  0.805984  1
  B  B5  1  0.672079  0.124314  0.194016  1
  B  B6  1  0.827921  0.875686  0.694016  1
  B  B7  1  0.827921  0.624314  0.305984  1
  B  B8  1  0.172079  0.124314  0.305984  1
  B  B9  1  0.172079  0.375686  0.694016  1
  B  B10  1  0.327921  0.624314  0.194016  1
  B  B11  1  0.327921  0.875686  0.805984  1
  O  O12  1  0.235908  0.591460  0.090280  1
  O  O13  1  0.735908  0.908540  0.590280  1
  O  O14  1  0.764092  0.091460  0.090280  1
  O  O15  1  0.735908  0.591460  0.409720  1
  O  O16  1  0.853875  0.353939  0.711562  1
  O  O17  1  0.853875  0.146061  0.288438  1
  O  O18  1  0.646125  0.853939  0.788438  1
  O  O19  1  0.646125  0.646061  0.211562  1
  O  O20  1  0.146125  0.646061  0.288438  1
  O  O21  1  0.146125  0.853939  0.711562  1
  O  O22  1  0.353875  0.146061  0.211562  1
  O  O23  1  0.353875  0.353939  0.788438  1
  O  O24  1  0.264092  0.091460  0.409720  1
  O  O25  1  0.264092  0.408540  0.590280  1
  O  O26  1  0.764092  0.408540  0.909720  1
  O  O27  1  0.235908  0.908540  0.909720  1
