# generated using pymatgen
data_Rb2SnSe3
_symmetry_space_group_name_H-M   'P 1'
_cell_length_a   7.32105637
_cell_length_b   8.09231448
_cell_length_c   9.18673180
_cell_angle_alpha   74.84593200
_cell_angle_beta   71.70350589
_cell_angle_gamma   66.19095919
_symmetry_Int_Tables_number   1
_chemical_formula_structural   Rb2SnSe3
_chemical_formula_sum   'Rb4 Sn2 Se6'
_cell_volume   467.05153434
_cell_formula_units_Z   2
loop_
 _symmetry_equiv_pos_site_id
 _symmetry_equiv_pos_as_xyz
  1  'x, y, z'
loop_
 _atom_site_type_symbol
 _atom_site_label
 _atom_site_symmetry_multiplicity
 _atom_site_fract_x
 _atom_site_fract_y
 _atom_site_fract_z
 _atom_site_occupancy
  Rb  Rb0  1  0.653335  0.462057  0.685788  1
  Rb  Rb1  1  0.346665  0.537943  0.314212  1
  Rb  Rb2  1  0.902977  0.798126  0.881830  1
  Rb  Rb3  1  0.097023  0.201874  0.118170  1
  Sn  Sn4  1  0.638744  0.938547  0.312742  1
  Sn  Sn5  1  0.361256  0.061453  0.687258  1
  Se  Se6  1  0.266076  0.961313  0.476068  1
  Se  Se7  1  0.733924  0.038687  0.523932  1
  Se  Se8  1  0.373326  0.816789  0.920327  1
  Se  Se9  1  0.626674  0.183211  0.079673  1
  Se  Se10  1  0.162659  0.389731  0.719035  1
  Se  Se11  1  0.837341  0.610269  0.280965  1
