# generated using pymatgen
data_Rb3Sb2Au3
_symmetry_space_group_name_H-M   'P 1'
_cell_length_a   8.28966356
_cell_length_b   8.28966356
_cell_length_c   8.28966356
_cell_angle_alpha   47.35309147
_cell_angle_beta   47.35309147
_cell_angle_gamma   47.35309147
_symmetry_Int_Tables_number   1
_chemical_formula_structural   Rb3Sb2Au3
_chemical_formula_sum   'Rb3 Sb2 Au3'
_cell_volume   281.94279562
_cell_formula_units_Z   1
loop_
 _symmetry_equiv_pos_site_id
 _symmetry_equiv_pos_as_xyz
  1  'x, y, z'
loop_
 _atom_site_type_symbol
 _atom_site_label
 _atom_site_symmetry_multiplicity
 _atom_site_fract_x
 _atom_site_fract_y
 _atom_site_fract_z
 _atom_site_occupancy
  Rb  Rb0  1  0.500000  0.500000  0.500000  1
  Rb  Rb1  1  0.081781  0.081781  0.081781  1
  Rb  Rb2  1  0.918219  0.918219  0.918219  1
  Sb  Sb3  1  0.752265  0.752265  0.752265  1
  Sb  Sb4  1  0.247735  0.247735  0.247735  1
  Au  Au5  1  0.000000  0.500000  0.500000  1
  Au  Au6  1  0.500000  0.500000  1.000000  1
  Au  Au7  1  0.500000  0.000000  0.500000  1
