# generated using pymatgen
data_KAlAs2O7
_symmetry_space_group_name_H-M   'P 1'
_cell_length_a   6.30575944
_cell_length_b   6.39044153
_cell_length_c   8.32499702
_cell_angle_alpha   96.79877936
_cell_angle_beta   104.57823046
_cell_angle_gamma   102.49408929
_symmetry_Int_Tables_number   1
_chemical_formula_structural   KAlAs2O7
_chemical_formula_sum   'K2 Al2 As4 O14'
_cell_volume   311.63183763
_cell_formula_units_Z   2
loop_
 _symmetry_equiv_pos_site_id
 _symmetry_equiv_pos_as_xyz
  1  'x, y, z'
loop_
 _atom_site_type_symbol
 _atom_site_label
 _atom_site_symmetry_multiplicity
 _atom_site_fract_x
 _atom_site_fract_y
 _atom_site_fract_z
 _atom_site_occupancy
  K  K0  1  0.000000  0.000000  0.500000  1
  K  K1  1  0.000000  0.000000  0.000000  1
  Al  Al2  1  0.625301  0.311199  0.772160  1
  Al  Al3  1  0.374699  0.688801  0.227840  1
  As  As4  1  0.175473  0.470397  0.811861  1
  As  As5  1  0.824527  0.529603  0.188139  1
  As  As6  1  0.512414  0.756294  0.664067  1
  As  As7  1  0.487586  0.243706  0.335933  1
  O  O8  1  0.906306  0.312561  0.722589  1
  O  O9  1  0.093694  0.687439  0.277411  1
  O  O10  1  0.337618  0.288585  0.815995  1
  O  O11  1  0.662382  0.711415  0.184005  1
  O  O12  1  0.217515  0.649428  0.990197  1
  O  O13  1  0.782485  0.350572  0.009803  1
  O  O14  1  0.222247  0.637089  0.655227  1
  O  O15  1  0.777753  0.362911  0.344773  1
  O  O16  1  0.413838  0.989742  0.220646  1
  O  O17  1  0.586162  0.010258  0.779354  1
  O  O18  1  0.458758  0.247874  0.533330  1
  O  O19  1  0.541242  0.752126  0.466670  1
  O  O20  1  0.319911  0.381222  0.219832  1
  O  O21  1  0.680089  0.618778  0.780168  1
