# generated using pymatgen
data_K2PAu
_symmetry_space_group_name_H-M   'P 1'
_cell_length_a   6.18373109
_cell_length_b   6.18373109
_cell_length_c   6.35637943
_cell_angle_alpha   90.00000000
_cell_angle_beta   90.00000000
_cell_angle_gamma   106.34486229
_symmetry_Int_Tables_number   1
_chemical_formula_structural   K2PAu
_chemical_formula_sum   'K4 P2 Au2'
_cell_volume   233.23545087
_cell_formula_units_Z   2
loop_
 _symmetry_equiv_pos_site_id
 _symmetry_equiv_pos_as_xyz
  1  'x, y, z'
loop_
 _atom_site_type_symbol
 _atom_site_label
 _atom_site_symmetry_multiplicity
 _atom_site_fract_x
 _atom_site_fract_y
 _atom_site_fract_z
 _atom_site_occupancy
  K  K0  1  0.318876  0.971639  0.750000  1
  K  K1  1  0.681124  0.028361  0.250000  1
  K  K2  1  0.028361  0.681124  0.250000  1
  K  K3  1  0.971639  0.318876  0.750000  1
  P  P4  1  0.252983  0.252983  0.250000  1
  P  P5  1  0.747017  0.747017  0.750000  1
  Au  Au6  1  0.500000  0.500000  0.500000  1
  Au  Au7  1  0.500000  0.500000  0.000000  1
