# generated using pymatgen
data_SbIrS
_symmetry_space_group_name_H-M   'P 1'
_cell_length_a   6.09847712
_cell_length_b   6.11158383
_cell_length_c   6.11168938
_cell_angle_alpha   90.00000000
_cell_angle_beta   90.00000000
_cell_angle_gamma   90.00000000
_symmetry_Int_Tables_number   1
_chemical_formula_structural   SbIrS
_chemical_formula_sum   'Sb4 Ir4 S4'
_cell_volume   227.79093936
_cell_formula_units_Z   4
loop_
 _symmetry_equiv_pos_site_id
 _symmetry_equiv_pos_as_xyz
  1  'x, y, z'
loop_
 _atom_site_type_symbol
 _atom_site_label
 _atom_site_symmetry_multiplicity
 _atom_site_fract_x
 _atom_site_fract_y
 _atom_site_fract_z
 _atom_site_occupancy
  Sb  Sb0  1  0.366037  0.620341  0.382267  1
  Sb  Sb1  1  0.633963  0.379659  0.882267  1
  Sb  Sb2  1  0.366037  0.879659  0.882267  1
  Sb  Sb3  1  0.633963  0.120341  0.382267  1
  Ir  Ir4  1  0.233013  0.488986  0.999149  1
  Ir  Ir5  1  0.766987  0.511014  0.499149  1
  Ir  Ir6  1  0.233013  0.011014  0.499149  1
  Ir  Ir7  1  0.766987  0.988986  0.999149  1
  S  S8  1  0.873758  0.881851  0.620784  1
  S  S9  1  0.126242  0.118149  0.120784  1
  S  S10  1  0.873758  0.618149  0.120784  1
  S  S11  1  0.126242  0.381851  0.620784  1
