# generated using pymatgen
data_K(SbSe2)2
_symmetry_space_group_name_H-M   'P 1'
_cell_length_a   6.93511275
_cell_length_b   7.04106371
_cell_length_c   9.46914968
_cell_angle_alpha   79.53627564
_cell_angle_beta   83.00626555
_cell_angle_gamma   75.85371973
_symmetry_Int_Tables_number   1
_chemical_formula_structural   K(SbSe2)2
_chemical_formula_sum   'K2 Sb4 Se8'
_cell_volume   439.45198916
_cell_formula_units_Z   2
loop_
 _symmetry_equiv_pos_site_id
 _symmetry_equiv_pos_as_xyz
  1  'x, y, z'
loop_
 _atom_site_type_symbol
 _atom_site_label
 _atom_site_symmetry_multiplicity
 _atom_site_fract_x
 _atom_site_fract_y
 _atom_site_fract_z
 _atom_site_occupancy
  K  K0  1  0.798166  0.811559  0.432188  1
  K  K1  1  0.201834  0.188441  0.567812  1
  Sb  Sb2  1  0.583039  0.394324  0.836866  1
  Sb  Sb3  1  0.416961  0.605676  0.163134  1
  Sb  Sb4  1  0.852516  0.811238  0.955823  1
  Sb  Sb5  1  0.147484  0.188762  0.044177  1
  Se  Se6  1  0.213604  0.853446  0.878557  1
  Se  Se7  1  0.786396  0.146554  0.121443  1
  Se  Se8  1  0.084850  0.481317  0.225972  1
  Se  Se9  1  0.915150  0.518683  0.774028  1
  Se  Se10  1  0.595252  0.410357  0.406212  1
  Se  Se11  1  0.404748  0.589643  0.593788  1
  Se  Se12  1  0.695534  0.064337  0.726678  1
  Se  Se13  1  0.304466  0.935663  0.273322  1
