# generated using pymatgen
data_KAg2SbS4
_symmetry_space_group_name_H-M   'P 1'
_cell_length_a   6.66930407
_cell_length_b   6.66930407
_cell_length_c   6.66930407
_cell_angle_alpha   118.66598558
_cell_angle_beta   118.66598558
_cell_angle_gamma   92.32654049
_symmetry_Int_Tables_number   1
_chemical_formula_structural   KAg2SbS4
_chemical_formula_sum   'K1 Ag2 Sb1 S4'
_cell_volume   213.80074387
_cell_formula_units_Z   1
loop_
 _symmetry_equiv_pos_site_id
 _symmetry_equiv_pos_as_xyz
  1  'x, y, z'
loop_
 _atom_site_type_symbol
 _atom_site_label
 _atom_site_symmetry_multiplicity
 _atom_site_fract_x
 _atom_site_fract_y
 _atom_site_fract_z
 _atom_site_occupancy
  K  K0  1  0.000000  0.000000  0.000000  1
  Ag  Ag1  1  0.750000  0.250000  0.500000  1
  Ag  Ag2  1  0.250000  0.750000  0.500000  1
  Sb  Sb3  1  0.500000  0.500000  0.000000  1
  S  S4  1  0.851633  0.851633  0.401955  1
  S  S5  1  0.148367  0.550322  0.000000  1
  S  S6  1  0.550322  0.148367  0.000000  1
  S  S7  1  0.449678  0.449678  0.598045  1
