# generated using pymatgen
data_RbSm(CO3)2
_symmetry_space_group_name_H-M   'P 1'
_cell_length_a   6.57443378
_cell_length_b   6.57443378
_cell_length_c   7.32466763
_cell_angle_alpha   75.68453702
_cell_angle_beta   104.31546298
_cell_angle_gamma   85.15094146
_symmetry_Int_Tables_number   1
_chemical_formula_structural   RbSm(CO3)2
_chemical_formula_sum   'Rb2 Sm2 C4 O12'
_cell_volume   293.63997612
_cell_formula_units_Z   2
loop_
 _symmetry_equiv_pos_site_id
 _symmetry_equiv_pos_as_xyz
  1  'x, y, z'
loop_
 _atom_site_type_symbol
 _atom_site_label
 _atom_site_symmetry_multiplicity
 _atom_site_fract_x
 _atom_site_fract_y
 _atom_site_fract_z
 _atom_site_occupancy
  Rb  Rb0  1  0.885830  0.885830  0.250000  1
  Rb  Rb1  1  0.114170  0.114170  0.750000  1
  Sm  Sm2  1  0.404111  0.404111  0.250000  1
  Sm  Sm3  1  0.595889  0.595889  0.750000  1
  C  C4  1  0.603842  0.148840  0.748042  1
  C  C5  1  0.148840  0.603842  0.751958  1
  C  C6  1  0.396158  0.851160  0.251958  1
  C  C7  1  0.851160  0.396158  0.248042  1
  O  O8  1  0.048643  0.398628  0.262524  1
  O  O9  1  0.398628  0.048643  0.237476  1
  O  O10  1  0.951357  0.601372  0.737476  1
  O  O11  1  0.601372  0.951357  0.762524  1
  O  O12  1  0.784496  0.265380  0.376315  1
  O  O13  1  0.265380  0.784496  0.123685  1
  O  O14  1  0.215504  0.734620  0.623685  1
  O  O15  1  0.734620  0.215504  0.876315  1
  O  O16  1  0.702608  0.531302  0.102980  1
  O  O17  1  0.531302  0.702608  0.397020  1
  O  O18  1  0.297392  0.468698  0.897020  1
  O  O19  1  0.468698  0.297392  0.602980  1
