# generated using pymatgen
data_RbPO3
_symmetry_space_group_name_H-M   'P 1'
_cell_length_a   4.57624682
_cell_length_b   6.20803719
_cell_length_c   13.15709864
_cell_angle_alpha   90.00000000
_cell_angle_beta   90.00000000
_cell_angle_gamma   90.00000000
_symmetry_Int_Tables_number   1
_chemical_formula_structural   RbPO3
_chemical_formula_sum   'Rb4 P4 O12'
_cell_volume   373.78673129
_cell_formula_units_Z   4
loop_
 _symmetry_equiv_pos_site_id
 _symmetry_equiv_pos_as_xyz
  1  'x, y, z'
loop_
 _atom_site_type_symbol
 _atom_site_label
 _atom_site_symmetry_multiplicity
 _atom_site_fract_x
 _atom_site_fract_y
 _atom_site_fract_z
 _atom_site_occupancy
  Rb  Rb0  1  0.228203  0.750000  0.592346  1
  Rb  Rb1  1  0.728203  0.750000  0.907654  1
  Rb  Rb2  1  0.771797  0.250000  0.407654  1
  Rb  Rb3  1  0.271797  0.250000  0.092346  1
  P  P4  1  0.681277  0.250000  0.675857  1
  P  P5  1  0.181277  0.250000  0.824143  1
  P  P6  1  0.318723  0.750000  0.324143  1
  P  P7  1  0.818723  0.750000  0.175857  1
  O  O8  1  0.340710  0.250000  0.713486  1
  O  O9  1  0.840710  0.250000  0.786514  1
  O  O10  1  0.659290  0.750000  0.286514  1
  O  O11  1  0.159290  0.750000  0.213486  1
  O  O12  1  0.264978  0.541466  0.378809  1
  O  O13  1  0.764978  0.958534  0.121191  1
  O  O14  1  0.735022  0.041466  0.621191  1
  O  O15  1  0.235022  0.458534  0.878809  1
  O  O16  1  0.764978  0.541466  0.121191  1
  O  O17  1  0.264978  0.958534  0.378809  1
  O  O18  1  0.235022  0.041466  0.878809  1
  O  O19  1  0.735022  0.458534  0.621191  1
