# generated using pymatgen
data_NaZrCuS3
_symmetry_space_group_name_H-M   'P 1'
_cell_length_a   6.81193178
_cell_length_b   6.81193178
_cell_length_c   9.80787966
_cell_angle_alpha   90.00000000
_cell_angle_beta   90.00000000
_cell_angle_gamma   148.38130892
_symmetry_Int_Tables_number   1
_chemical_formula_structural   NaZrCuS3
_chemical_formula_sum   'Na2 Zr2 Cu2 S6'
_cell_volume   238.59729760
_cell_formula_units_Z   2
loop_
 _symmetry_equiv_pos_site_id
 _symmetry_equiv_pos_as_xyz
  1  'x, y, z'
loop_
 _atom_site_type_symbol
 _atom_site_label
 _atom_site_symmetry_multiplicity
 _atom_site_fract_x
 _atom_site_fract_y
 _atom_site_fract_z
 _atom_site_occupancy
  Na  Na0  1  0.249156  0.750844  0.750000  1
  Na  Na1  1  0.750844  0.249156  0.250000  1
  Zr  Zr2  1  0.000000  0.000000  0.500000  1
  Zr  Zr3  1  0.000000  0.000000  0.000000  1
  Cu  Cu4  1  0.529663  0.470337  0.750000  1
  Cu  Cu5  1  0.470337  0.529663  0.250000  1
  S  S6  1  0.078026  0.921974  0.250000  1
  S  S7  1  0.630593  0.369407  0.939910  1
  S  S8  1  0.921974  0.078026  0.750000  1
  S  S9  1  0.630593  0.369407  0.560090  1
  S  S10  1  0.369407  0.630593  0.060090  1
  S  S11  1  0.369407  0.630593  0.439910  1
