# generated using pymatgen
data_Sr4Al6TeO12
_symmetry_space_group_name_H-M   'P 1'
_cell_length_a   8.20096442
_cell_length_b   8.20096442
_cell_length_c   8.20096442
_cell_angle_alpha   109.47122063
_cell_angle_beta   109.47122063
_cell_angle_gamma   109.47122063
_symmetry_Int_Tables_number   1
_chemical_formula_structural   Sr4Al6TeO12
_chemical_formula_sum   'Sr4 Al6 Te1 O12'
_cell_volume   424.59306081
_cell_formula_units_Z   1
loop_
 _symmetry_equiv_pos_site_id
 _symmetry_equiv_pos_as_xyz
  1  'x, y, z'
loop_
 _atom_site_type_symbol
 _atom_site_label
 _atom_site_symmetry_multiplicity
 _atom_site_fract_x
 _atom_site_fract_y
 _atom_site_fract_z
 _atom_site_occupancy
  Sr  Sr0  1  1.000000  1.000000  0.592018  1
  Sr  Sr1  1  0.592018  1.000000  0.000000  1
  Sr  Sr2  1  0.407982  0.407982  0.407982  1
  Sr  Sr3  1  1.000000  0.592018  1.000000  1
  Al  Al4  1  0.500000  0.250000  0.750000  1
  Al  Al5  1  0.500000  0.750000  0.250000  1
  Al  Al6  1  0.250000  0.750000  0.500000  1
  Al  Al7  1  0.750000  0.250000  0.500000  1
  Al  Al8  1  0.250000  0.500000  0.750000  1
  Al  Al9  1  0.750000  0.500000  0.250000  1
  Te  Te10  1  0.000000  0.000000  0.000000  1
  O  O11  1  0.305515  0.689315  0.305515  1
  O  O12  1  0.305515  0.305515  0.689315  1
  O  O13  1  0.616200  0.310685  0.616200  1
  O  O14  1  0.310685  0.616200  0.616200  1
  O  O15  1  1.000000  0.383800  0.694485  1
  O  O16  1  0.383800  1.000000  0.694485  1
  O  O17  1  0.616200  0.616200  0.310685  1
  O  O18  1  0.383800  0.694485  1.000000  1
  O  O19  1  0.694485  0.383800  0.000000  1
  O  O20  1  1.000000  0.694485  0.383800  1
  O  O21  1  0.689315  0.305515  0.305515  1
  O  O22  1  0.694485  1.000000  0.383800  1
