# generated using pymatgen
data_Ba3(AsO4)2
_symmetry_space_group_name_H-M   'P 1'
_cell_length_a   7.96406241
_cell_length_b   7.96406241
_cell_length_c   7.96406241
_cell_angle_alpha   43.33882988
_cell_angle_beta   43.33882988
_cell_angle_gamma   43.33882988
_symmetry_Int_Tables_number   1
_chemical_formula_structural   Ba3(AsO4)2
_chemical_formula_sum   'Ba3 As2 O8'
_cell_volume   215.80843612
_cell_formula_units_Z   1
loop_
 _symmetry_equiv_pos_site_id
 _symmetry_equiv_pos_as_xyz
  1  'x, y, z'
loop_
 _atom_site_type_symbol
 _atom_site_label
 _atom_site_symmetry_multiplicity
 _atom_site_fract_x
 _atom_site_fract_y
 _atom_site_fract_z
 _atom_site_occupancy
  Ba  Ba0  1  0.206969  0.206969  0.206969  1
  Ba  Ba1  1  0.793031  0.793031  0.793031  1
  Ba  Ba2  1  0.000000  0.000000  0.000000  1
  As  As3  1  0.407218  0.407218  0.407218  1
  As  As4  1  0.592783  0.592782  0.592782  1
  O  O5  1  0.327822  0.327822  0.327822  1
  O  O6  1  0.672178  0.672178  0.672178  1
  O  O7  1  0.273806  0.754425  0.273806  1
  O  O8  1  0.754425  0.273806  0.273806  1
  O  O9  1  0.273806  0.273806  0.754425  1
  O  O10  1  0.245575  0.726194  0.726194  1
  O  O11  1  0.726194  0.245575  0.726194  1
  O  O12  1  0.726194  0.726194  0.245575  1
