# generated using pymatgen
data_Ag2HgS2
_symmetry_space_group_name_H-M   'P 1'
_cell_length_a   4.19811187
_cell_length_b   7.98014748
_cell_length_c   6.82305316
_cell_angle_alpha   90.00000000
_cell_angle_beta   110.23906783
_cell_angle_gamma   90.00000000
_symmetry_Int_Tables_number   1
_chemical_formula_structural   Ag2HgS2
_chemical_formula_sum   'Ag4 Hg2 S4'
_cell_volume   214.46955943
_cell_formula_units_Z   2
loop_
 _symmetry_equiv_pos_site_id
 _symmetry_equiv_pos_as_xyz
  1  'x, y, z'
loop_
 _atom_site_type_symbol
 _atom_site_label
 _atom_site_symmetry_multiplicity
 _atom_site_fract_x
 _atom_site_fract_y
 _atom_site_fract_z
 _atom_site_occupancy
  Ag  Ag0  1  0.380431  0.150099  0.597654  1
  Ag  Ag1  1  0.619569  0.650099  0.902346  1
  Ag  Ag2  1  0.380431  0.349901  0.097654  1
  Ag  Ag3  1  0.619569  0.849901  0.402346  1
  Hg  Hg4  1  0.000000  0.500000  0.500000  1
  Hg  Hg5  1  0.000000  0.000000  0.000000  1
  S  S6  1  0.189923  0.875223  0.734707  1
  S  S7  1  0.810077  0.375223  0.765293  1
  S  S8  1  0.810077  0.124777  0.265293  1
  S  S9  1  0.189923  0.624777  0.234707  1
