# generated using pymatgen
data_Ba2Si5N8
_symmetry_space_group_name_H-M   'P 1'
_cell_length_a   5.82923746
_cell_length_b   7.02382987
_cell_length_c   9.46415844
_cell_angle_alpha   90.00000000
_cell_angle_beta   90.00000000
_cell_angle_gamma   90.00000000
_symmetry_Int_Tables_number   1
_chemical_formula_structural   Ba2Si5N8
_chemical_formula_sum   'Ba4 Si10 N16'
_cell_volume   387.49645431
_cell_formula_units_Z   2
loop_
 _symmetry_equiv_pos_site_id
 _symmetry_equiv_pos_as_xyz
  1  'x, y, z'
loop_
 _atom_site_type_symbol
 _atom_site_label
 _atom_site_symmetry_multiplicity
 _atom_site_fract_x
 _atom_site_fract_y
 _atom_site_fract_z
 _atom_site_occupancy
  Ba  Ba0  1  0.500000  0.121036  0.131369  1
  Ba  Ba1  1  0.000000  0.878964  0.631369  1
  Ba  Ba2  1  0.500000  0.144440  0.500450  1
  Ba  Ba3  1  0.000000  0.855560  0.000450  1
  Si  Si4  1  0.500000  0.600309  0.603609  1
  Si  Si5  1  0.000000  0.399691  0.103609  1
  Si  Si6  1  0.500000  0.580752  0.039327  1
  Si  Si7  1  0.000000  0.419248  0.539327  1
  Si  Si8  1  0.500000  0.947500  0.822455  1
  Si  Si9  1  0.000000  0.052500  0.322455  1
  Si  Si10  1  0.750637  0.335715  0.820916  1
  Si  Si11  1  0.749363  0.664285  0.320916  1
  Si  Si12  1  0.249363  0.335715  0.820916  1
  Si  Si13  1  0.250637  0.664285  0.320916  1
  N  N14  1  0.500000  0.582070  0.229453  1
  N  N15  1  0.000000  0.417930  0.729453  1
  N  N16  1  0.500000  0.824338  0.664975  1
  N  N17  1  0.000000  0.175662  0.164975  1
  N  N18  1  0.500000  0.423749  0.735505  1
  N  N19  1  0.000000  0.576251  0.235505  1
  N  N20  1  0.746729  0.553983  0.493266  1
  N  N21  1  0.753271  0.446017  0.993266  1
  N  N22  1  0.253271  0.553983  0.493266  1
  N  N23  1  0.246729  0.446017  0.993266  1
  N  N24  1  0.738260  0.094446  0.830399  1
  N  N25  1  0.761740  0.905554  0.330399  1
  N  N26  1  0.261740  0.094446  0.830399  1
  N  N27  1  0.238260  0.905554  0.330399  1
  N  N28  1  0.000000  0.198407  0.470737  1
  N  N29  1  0.500000  0.801593  0.970737  1
