# generated using pymatgen
data_TcS2
_symmetry_space_group_name_H-M   'P 1'
_cell_length_a   6.40802478
_cell_length_b   6.51724399
_cell_length_c   7.53992583
_cell_angle_alpha   66.78918350
_cell_angle_beta   77.82403044
_cell_angle_gamma   61.17458548
_symmetry_Int_Tables_number   1
_chemical_formula_structural   TcS2
_chemical_formula_sum   'Tc4 S8'
_cell_volume   253.45649737
_cell_formula_units_Z   4
loop_
 _symmetry_equiv_pos_site_id
 _symmetry_equiv_pos_as_xyz
  1  'x, y, z'
loop_
 _atom_site_type_symbol
 _atom_site_label
 _atom_site_symmetry_multiplicity
 _atom_site_fract_x
 _atom_site_fract_y
 _atom_site_fract_z
 _atom_site_occupancy
  Tc  Tc0  1  0.511445  0.285454  0.502111  1
  Tc  Tc1  1  0.488555  0.714546  0.497889  1
  Tc  Tc2  1  0.938102  0.309413  0.507774  1
  Tc  Tc3  1  0.061898  0.690587  0.492226  1
  S  S4  1  0.322581  0.169967  0.329654  1
  S  S5  1  0.677419  0.830033  0.670346  1
  S  S6  1  0.859219  0.151586  0.306797  1
  S  S7  1  0.140781  0.848414  0.693203  1
  S  S8  1  0.362658  0.669355  0.250738  1
  S  S9  1  0.637342  0.330645  0.749262  1
  S  S10  1  0.824949  0.700922  0.274944  1
  S  S11  1  0.175051  0.299078  0.725056  1
