# generated using pymatgen
data_SrAl2P2(O4F)2
_symmetry_space_group_name_H-M   'P 1'
_cell_length_a   4.72854999
_cell_length_b   12.14089716
_cell_length_c   12.34320041
_cell_angle_alpha   90.00000000
_cell_angle_beta   90.00000000
_cell_angle_gamma   90.00000000
_symmetry_Int_Tables_number   1
_chemical_formula_structural   SrAl2P2(O4F)2
_chemical_formula_sum   'Sr4 Al8 P8 O32 F8'
_cell_volume   708.60880687
_cell_formula_units_Z   4
loop_
 _symmetry_equiv_pos_site_id
 _symmetry_equiv_pos_as_xyz
  1  'x, y, z'
loop_
 _atom_site_type_symbol
 _atom_site_label
 _atom_site_symmetry_multiplicity
 _atom_site_fract_x
 _atom_site_fract_y
 _atom_site_fract_z
 _atom_site_occupancy
  Sr  Sr0  1  0.247866  0.994529  0.736094  1
  Sr  Sr1  1  0.747866  0.505471  0.263906  1
  Sr  Sr2  1  0.752134  0.494529  0.763906  1
  Sr  Sr3  1  0.252134  0.005471  0.236094  1
  Al  Al4  1  0.996745  0.356607  0.002714  1
  Al  Al5  1  0.252632  0.250627  0.393091  1
  Al  Al6  1  0.752632  0.249373  0.606909  1
  Al  Al7  1  0.747368  0.750627  0.106909  1
  Al  Al8  1  0.247368  0.749373  0.893091  1
  Al  Al9  1  0.496745  0.143393  0.997286  1
  Al  Al10  1  0.003255  0.856607  0.497285  1
  Al  Al11  1  0.503255  0.643393  0.502714  1
  P  P12  1  0.523201  0.034679  0.498735  1
  P  P13  1  0.253600  0.258714  0.783355  1
  P  P14  1  0.753600  0.241286  0.216645  1
  P  P15  1  0.246400  0.741286  0.283355  1
  P  P16  1  0.746400  0.758714  0.716645  1
  P  P17  1  0.976799  0.965321  0.998735  1
  P  P18  1  0.476799  0.534679  0.001265  1
  P  P19  1  0.023201  0.465321  0.501265  1
  O  O20  1  0.849729  0.339704  0.144775  1
  O  O21  1  0.592498  0.605722  0.095859  1
  O  O22  1  0.907502  0.394278  0.595859  1
  O  O23  1  0.407502  0.105722  0.404141  1
  O  O24  1  0.969316  0.705520  0.792560  1
  O  O25  1  0.469316  0.794480  0.207440  1
  O  O26  1  0.030684  0.205520  0.707440  1
  O  O27  1  0.530684  0.294480  0.292560  1
  O  O28  1  0.867842  0.856567  0.649441  1
  O  O29  1  0.367842  0.643433  0.350559  1
  O  O30  1  0.132158  0.356567  0.850559  1
  O  O31  1  0.632158  0.143433  0.149442  1
  O  O32  1  0.150271  0.839704  0.355225  1
  O  O33  1  0.650271  0.660296  0.644775  1
  O  O34  1  0.092498  0.894278  0.904141  1
  O  O35  1  0.097125  0.395864  0.398420  1
  O  O36  1  0.402875  0.604136  0.898420  1
  O  O37  1  0.902875  0.895864  0.101580  1
  O  O38  1  0.597125  0.104136  0.601580  1
  O  O39  1  0.276785  0.528198  0.547233  1
  O  O40  1  0.209162  0.045524  0.040386  1
  O  O41  1  0.709162  0.454476  0.959614  1
  O  O42  1  0.790838  0.545524  0.459614  1
  O  O43  1  0.290838  0.954476  0.540386  1
  O  O44  1  0.009658  0.195232  0.281577  1
  O  O45  1  0.509658  0.304768  0.718423  1
  O  O46  1  0.990342  0.695232  0.218423  1
  O  O47  1  0.490342  0.804768  0.781577  1
  O  O48  1  0.223215  0.471802  0.047233  1
  O  O49  1  0.723215  0.028198  0.952767  1
  O  O50  1  0.776785  0.971802  0.452767  1
  O  O51  1  0.349729  0.160296  0.855225  1
  F  F52  1  0.486909  0.292154  0.505398  1
  F  F53  1  0.986909  0.207846  0.494602  1
  F  F54  1  0.513091  0.792154  0.994602  1
  F  F55  1  0.013091  0.707846  0.005398  1
  F  F56  1  0.279235  0.260366  0.038827  1
  F  F57  1  0.779235  0.239634  0.961173  1
  F  F58  1  0.720765  0.760366  0.461173  1
  F  F59  1  0.220765  0.739634  0.538827  1
