# generated using pymatgen
data_Ba(AuO2)2
_symmetry_space_group_name_H-M   'P 1'
_cell_length_a   6.98138826
_cell_length_b   6.98138826
_cell_length_c   6.98138826
_cell_angle_alpha   123.74557212
_cell_angle_beta   123.74557212
_cell_angle_gamma   83.62634673
_symmetry_Int_Tables_number   1
_chemical_formula_structural   Ba(AuO2)2
_chemical_formula_sum   'Ba2 Au4 O8'
_cell_volume   225.45800731
_cell_formula_units_Z   2
loop_
 _symmetry_equiv_pos_site_id
 _symmetry_equiv_pos_as_xyz
  1  'x, y, z'
loop_
 _atom_site_type_symbol
 _atom_site_label
 _atom_site_symmetry_multiplicity
 _atom_site_fract_x
 _atom_site_fract_y
 _atom_site_fract_z
 _atom_site_occupancy
  Ba  Ba0  1  0.250000  0.750000  0.500000  1
  Ba  Ba1  1  0.500000  0.500000  0.000000  1
  Au  Au2  1  0.875000  0.125000  0.250000  1
  Au  Au3  1  0.375000  0.125000  0.250000  1
  Au  Au4  1  0.875000  0.625000  0.750000  1
  Au  Au5  1  0.875000  0.125000  0.750000  1
  O  O6  1  0.062164  0.446878  0.916973  1
  O  O7  1  0.196878  0.779904  0.884713  1
  O  O8  1  0.895191  0.312164  0.115287  1
  O  O9  1  0.529904  0.145191  0.083027  1
  O  O10  1  0.687836  0.803122  0.583027  1
  O  O11  1  0.553122  0.470096  0.615287  1
  O  O12  1  0.220096  0.104809  0.416973  1
  O  O13  1  0.854809  0.937836  0.384713  1
