# generated using pymatgen
data_Al2Ge2O7
_symmetry_space_group_name_H-M   'P 1'
_cell_length_a   5.34336948
_cell_length_b   5.34336948
_cell_length_c   9.81317419
_cell_angle_alpha   76.10324822
_cell_angle_beta   103.89675178
_cell_angle_gamma   85.86516728
_symmetry_Int_Tables_number   1
_chemical_formula_structural   Al2Ge2O7
_chemical_formula_sum   'Al4 Ge4 O14'
_cell_volume   261.50382786
_cell_formula_units_Z   2
loop_
 _symmetry_equiv_pos_site_id
 _symmetry_equiv_pos_as_xyz
  1  'x, y, z'
loop_
 _atom_site_type_symbol
 _atom_site_label
 _atom_site_symmetry_multiplicity
 _atom_site_fract_x
 _atom_site_fract_y
 _atom_site_fract_z
 _atom_site_occupancy
  Al  Al0  1  0.408457  0.746101  0.522126  1
  Al  Al1  1  0.746101  0.408457  0.977874  1
  Al  Al2  1  0.591543  0.253899  0.477874  1
  Al  Al3  1  0.253899  0.591543  0.022126  1
  Ge  Ge4  1  0.486929  0.010110  0.794318  1
  Ge  Ge5  1  0.010110  0.486929  0.705682  1
  Ge  Ge6  1  0.513071  0.989890  0.205682  1
  Ge  Ge7  1  0.989890  0.513071  0.294318  1
  O  O8  1  0.559244  0.985548  0.628028  1
  O  O9  1  0.985548  0.559244  0.871972  1
  O  O10  1  0.440756  0.014452  0.371972  1
  O  O11  1  0.014452  0.440756  0.128028  1
  O  O12  1  0.484084  0.685860  0.898873  1
  O  O13  1  0.685860  0.484084  0.601127  1
  O  O14  1  0.515916  0.314140  0.101127  1
  O  O15  1  0.314140  0.515916  0.398873  1
  O  O16  1  0.836946  0.836946  0.250000  1
  O  O17  1  0.163054  0.163054  0.750000  1
  O  O18  1  0.850270  0.284486  0.396485  1
  O  O19  1  0.284486  0.850270  0.103515  1
  O  O20  1  0.149730  0.715514  0.603515  1
  O  O21  1  0.715514  0.149730  0.896485  1
