# generated using pymatgen
data_Cs6GaSb3
_symmetry_space_group_name_H-M   'P 1'
_cell_length_a   11.22801767
_cell_length_b   6.58832382
_cell_length_c   13.00268474
_cell_angle_alpha   90.00000000
_cell_angle_beta   101.34309071
_cell_angle_gamma   90.00000000
_symmetry_Int_Tables_number   1
_chemical_formula_structural   Cs6GaSb3
_chemical_formula_sum   'Cs12 Ga2 Sb6'
_cell_volume   943.07024994
_cell_formula_units_Z   2
loop_
 _symmetry_equiv_pos_site_id
 _symmetry_equiv_pos_as_xyz
  1  'x, y, z'
loop_
 _atom_site_type_symbol
 _atom_site_label
 _atom_site_symmetry_multiplicity
 _atom_site_fract_x
 _atom_site_fract_y
 _atom_site_fract_z
 _atom_site_occupancy
  Cs  Cs0  1  0.459028  0.750000  0.921582  1
  Cs  Cs1  1  0.540972  0.250000  0.078418  1
  Cs  Cs2  1  0.743146  0.750000  0.773538  1
  Cs  Cs3  1  0.256854  0.250000  0.226462  1
  Cs  Cs4  1  0.560726  0.250000  0.455373  1
  Cs  Cs5  1  0.439274  0.750000  0.544627  1
  Cs  Cs6  1  0.862769  0.250000  0.977552  1
  Cs  Cs7  1  0.137231  0.750000  0.022448  1
  Cs  Cs8  1  0.872520  0.250000  0.320968  1
  Cs  Cs9  1  0.127480  0.750000  0.679032  1
  Cs  Cs10  1  0.915891  0.250000  0.631437  1
  Cs  Cs11  1  0.084109  0.750000  0.368563  1
  Ga  Ga12  1  0.677517  0.750000  0.279400  1
  Ga  Ga13  1  0.322483  0.250000  0.720600  1
  Sb  Sb14  1  0.215371  0.250000  0.517172  1
  Sb  Sb15  1  0.784629  0.750000  0.482828  1
  Sb  Sb16  1  0.563741  0.250000  0.769191  1
  Sb  Sb17  1  0.436259  0.750000  0.230809  1
  Sb  Sb18  1  0.810721  0.750000  0.125303  1
  Sb  Sb19  1  0.189279  0.250000  0.874697  1
