# generated using pymatgen
data_K2SnSe3
_symmetry_space_group_name_H-M   'P 1'
_cell_length_a   7.00642235
_cell_length_b   7.78509617
_cell_length_c   8.88099969
_cell_angle_alpha   76.47111325
_cell_angle_beta   74.98277024
_cell_angle_gamma   67.44074253
_symmetry_Int_Tables_number   1
_chemical_formula_structural   K2SnSe3
_chemical_formula_sum   'K4 Sn2 Se6'
_cell_volume   427.13278716
_cell_formula_units_Z   2
loop_
 _symmetry_equiv_pos_site_id
 _symmetry_equiv_pos_as_xyz
  1  'x, y, z'
loop_
 _atom_site_type_symbol
 _atom_site_label
 _atom_site_symmetry_multiplicity
 _atom_site_fract_x
 _atom_site_fract_y
 _atom_site_fract_z
 _atom_site_occupancy
  K  K0  1  0.386067  0.793380  0.898122  1
  K  K1  1  0.613933  0.206620  0.101878  1
  K  K2  1  0.144869  0.469528  0.684389  1
  K  K3  1  0.855131  0.530472  0.315611  1
  Sn  Sn4  1  0.850111  0.062915  0.687206  1
  Sn  Sn5  1  0.149889  0.937085  0.312794  1
  Se  Se6  1  0.652209  0.402165  0.714715  1
  Se  Se7  1  0.766618  0.956169  0.456227  1
  Se  Se8  1  0.861261  0.810124  0.922474  1
  Se  Se9  1  0.347791  0.597835  0.285285  1
  Se  Se10  1  0.138739  0.189876  0.077526  1
  Se  Se11  1  0.233382  0.043831  0.543773  1
