# generated using pymatgen
data_SnS2
_symmetry_space_group_name_H-M   'P 1'
_cell_length_a   3.70084181
_cell_length_b   3.70084181
_cell_length_c   13.32817447
_cell_angle_alpha   90.00000000
_cell_angle_beta   90.00000000
_cell_angle_gamma   120.00000000
_symmetry_Int_Tables_number   1
_chemical_formula_structural   SnS2
_chemical_formula_sum   'Sn2 S4'
_cell_volume   158.08925200
_cell_formula_units_Z   2
loop_
 _symmetry_equiv_pos_site_id
 _symmetry_equiv_pos_as_xyz
  1  'x, y, z'
loop_
 _atom_site_type_symbol
 _atom_site_label
 _atom_site_symmetry_multiplicity
 _atom_site_fract_x
 _atom_site_fract_y
 _atom_site_fract_z
 _atom_site_occupancy
  Sn  Sn0  1  0.333333  0.666667  0.625021  1
  Sn  Sn1  1  0.666667  0.333333  0.125021  1
  S  S2  1  0.666667  0.333333  0.735859  1
  S  S3  1  0.333333  0.666667  0.235859  1
  S  S4  1  0.000000  0.000000  0.014121  1
  S  S5  1  0.000000  0.000000  0.514121  1
