# generated using pymatgen
data_Ca3Tl2O6
_symmetry_space_group_name_H-M   'P 1'
_cell_length_a   3.37542525
_cell_length_b   11.38833145
_cell_length_c   16.75111122
_cell_angle_alpha   90.00000000
_cell_angle_beta   90.00000000
_cell_angle_gamma   90.00000000
_symmetry_Int_Tables_number   1
_chemical_formula_structural   Ca3Tl2O6
_chemical_formula_sum   'Ca12 Tl8 O24'
_cell_volume   643.92044647
_cell_formula_units_Z   4
loop_
 _symmetry_equiv_pos_site_id
 _symmetry_equiv_pos_as_xyz
  1  'x, y, z'
loop_
 _atom_site_type_symbol
 _atom_site_label
 _atom_site_symmetry_multiplicity
 _atom_site_fract_x
 _atom_site_fract_y
 _atom_site_fract_z
 _atom_site_occupancy
  Ca  Ca0  1  0.500000  0.104170  0.854661  1
  Ca  Ca1  1  0.500000  0.895830  0.145339  1
  Ca  Ca2  1  0.500000  0.604170  0.645339  1
  Ca  Ca3  1  0.500000  0.395830  0.354661  1
  Ca  Ca4  1  0.500000  0.366645  0.960124  1
  Ca  Ca5  1  0.500000  0.633355  0.039876  1
  Ca  Ca6  1  0.500000  0.866645  0.539876  1
  Ca  Ca7  1  0.500000  0.133355  0.460124  1
  Ca  Ca8  1  0.500000  0.328596  0.725271  1
  Ca  Ca9  1  0.500000  0.671404  0.274729  1
  Ca  Ca10  1  0.500000  0.828596  0.774729  1
  Ca  Ca11  1  0.500000  0.171404  0.225271  1
  Tl  Tl12  1  0.000000  0.415207  0.148935  1
  Tl  Tl13  1  0.000000  0.584793  0.851065  1
  Tl  Tl14  1  0.000000  0.915207  0.351065  1
  Tl  Tl15  1  0.000000  0.084793  0.648935  1
  Tl  Tl16  1  0.000000  0.365273  0.545531  1
  Tl  Tl17  1  0.000000  0.634727  0.454469  1
  Tl  Tl18  1  0.000000  0.865273  0.954469  1
  Tl  Tl19  1  0.000000  0.134727  0.045531  1
  O  O20  1  0.000000  0.191976  0.761809  1
  O  O21  1  0.000000  0.808024  0.238191  1
  O  O22  1  0.000000  0.691976  0.738191  1
  O  O23  1  0.000000  0.308024  0.261809  1
  O  O24  1  0.500000  0.456575  0.833596  1
  O  O25  1  0.500000  0.543425  0.166404  1
  O  O26  1  0.500000  0.956575  0.666404  1
  O  O27  1  0.500000  0.043425  0.333596  1
  O  O28  1  0.500000  0.216083  0.595726  1
  O  O29  1  0.500000  0.783917  0.404274  1
  O  O30  1  0.500000  0.716083  0.904274  1
  O  O31  1  0.500000  0.283917  0.095726  1
  O  O32  1  0.500000  0.500000  0.500000  1
  O  O33  1  0.500000  0.000000  0.000000  1
  O  O34  1  0.000000  0.219421  0.932094  1
  O  O35  1  0.000000  0.780579  0.067906  1
  O  O36  1  0.000000  0.719421  0.567906  1
  O  O37  1  0.000000  0.280579  0.432094  1
  O  O38  1  0.000000  0.000000  0.500000  1
  O  O39  1  0.000000  0.500000  0.000000  1
  O  O40  1  0.000000  0.052786  0.160171  1
  O  O41  1  0.000000  0.947214  0.839829  1
  O  O42  1  0.000000  0.552786  0.339829  1
  O  O43  1  0.000000  0.447214  0.660171  1
