# generated using pymatgen
data_Ba2HfS4
_symmetry_space_group_name_H-M   'P 1'
_cell_length_a   8.67590237
_cell_length_b   8.67590237
_cell_length_c   8.67590237
_cell_angle_alpha   146.73464792
_cell_angle_beta   146.73464792
_cell_angle_gamma   47.75684058
_symmetry_Int_Tables_number   1
_chemical_formula_structural   Ba2HfS4
_chemical_formula_sum   'Ba2 Hf1 S4'
_cell_volume   195.69885981
_cell_formula_units_Z   1
loop_
 _symmetry_equiv_pos_site_id
 _symmetry_equiv_pos_as_xyz
  1  'x, y, z'
loop_
 _atom_site_type_symbol
 _atom_site_label
 _atom_site_symmetry_multiplicity
 _atom_site_fract_x
 _atom_site_fract_y
 _atom_site_fract_z
 _atom_site_occupancy
  Ba  Ba0  1  0.357813  0.357813  0.000000  1
  Ba  Ba1  1  0.642187  0.642187  0.000000  1
  Hf  Hf2  1  0.000000  0.000000  0.000000  1
  S  S3  1  0.500000  1.000000  0.500000  1
  S  S4  1  1.000000  0.500000  0.500000  1
  S  S5  1  0.838182  0.838182  0.000000  1
  S  S6  1  0.161818  0.161818  0.000000  1
