# generated using pymatgen
data_Mg(AlSe2)2
_symmetry_space_group_name_H-M   'P 1'
_cell_length_a   13.90932316
_cell_length_b   13.90932316
_cell_length_c   13.90932316
_cell_angle_alpha   16.21068789
_cell_angle_beta   16.21068789
_cell_angle_gamma   16.21068789
_symmetry_Int_Tables_number   1
_chemical_formula_structural   Mg(AlSe2)2
_chemical_formula_sum   'Mg1 Al2 Se4'
_cell_volume   182.84115820
_cell_formula_units_Z   1
loop_
 _symmetry_equiv_pos_site_id
 _symmetry_equiv_pos_as_xyz
  1  'x, y, z'
loop_
 _atom_site_type_symbol
 _atom_site_label
 _atom_site_symmetry_multiplicity
 _atom_site_fract_x
 _atom_site_fract_y
 _atom_site_fract_z
 _atom_site_occupancy
  Mg  Mg0  1  0.500000  0.500000  0.500000  1
  Al  Al1  1  0.257709  0.257709  0.257709  1
  Al  Al2  1  0.742291  0.742291  0.742291  1
  Se  Se3  1  0.798410  0.798410  0.798410  1
  Se  Se4  1  0.201590  0.201590  0.201590  1
  Se  Se5  1  0.382881  0.382881  0.382881  1
  Se  Se6  1  0.617119  0.617119  0.617119  1
