# generated using pymatgen
data_SiP2
_symmetry_space_group_name_H-M   'P 1'
_cell_length_a   3.44890372
_cell_length_b   10.29138542
_cell_length_c   15.96494234
_cell_angle_alpha   90.00000000
_cell_angle_beta   90.00000000
_cell_angle_gamma   90.00000000
_symmetry_Int_Tables_number   1
_chemical_formula_structural   SiP2
_chemical_formula_sum   'Si8 P16'
_cell_volume   566.65962285
_cell_formula_units_Z   8
loop_
 _symmetry_equiv_pos_site_id
 _symmetry_equiv_pos_as_xyz
  1  'x, y, z'
loop_
 _atom_site_type_symbol
 _atom_site_label
 _atom_site_symmetry_multiplicity
 _atom_site_fract_x
 _atom_site_fract_y
 _atom_site_fract_z
 _atom_site_occupancy
  Si  Si0  1  0.000000  0.588868  0.832716  1
  Si  Si1  1  0.000000  0.411132  0.167284  1
  Si  Si2  1  0.000000  0.088868  0.667284  1
  Si  Si3  1  0.000000  0.911132  0.332716  1
  Si  Si4  1  0.500000  0.805248  0.732443  1
  Si  Si5  1  0.500000  0.194752  0.267557  1
  Si  Si6  1  0.500000  0.305248  0.767557  1
  Si  Si7  1  0.500000  0.694752  0.232443  1
  P  P8  1  0.000000  0.671293  0.700888  1
  P  P9  1  0.000000  0.328707  0.299112  1
  P  P10  1  0.000000  0.171293  0.799112  1
  P  P11  1  0.000000  0.828707  0.200888  1
  P  P12  1  0.000000  0.757583  0.925626  1
  P  P13  1  0.000000  0.242417  0.074374  1
  P  P14  1  0.000000  0.257583  0.574374  1
  P  P15  1  0.000000  0.742417  0.425626  1
  P  P16  1  0.500000  0.873761  0.871942  1
  P  P17  1  0.500000  0.126239  0.128058  1
  P  P18  1  0.500000  0.373761  0.628058  1
  P  P19  1  0.500000  0.626239  0.371942  1
  P  P20  1  0.500000  0.959919  0.630421  1
  P  P21  1  0.500000  0.040081  0.369579  1
  P  P22  1  0.500000  0.459919  0.869579  1
  P  P23  1  0.500000  0.540081  0.130421  1
