# generated using pymatgen
data_CdHgO2
_symmetry_space_group_name_H-M   'P 1'
_cell_length_a   3.56753760
_cell_length_b   3.56753760
_cell_length_c   6.48421927
_cell_angle_alpha   78.13579089
_cell_angle_beta   101.86420911
_cell_angle_gamma   120.14413373
_symmetry_Int_Tables_number   1
_chemical_formula_structural   CdHgO2
_chemical_formula_sum   'Cd1 Hg1 O2'
_cell_volume   69.32905636
_cell_formula_units_Z   1
loop_
 _symmetry_equiv_pos_site_id
 _symmetry_equiv_pos_as_xyz
  1  'x, y, z'
loop_
 _atom_site_type_symbol
 _atom_site_label
 _atom_site_symmetry_multiplicity
 _atom_site_fract_x
 _atom_site_fract_y
 _atom_site_fract_z
 _atom_site_occupancy
  Cd  Cd0  1  0.000000  0.000000  0.000000  1
  Hg  Hg1  1  0.500000  0.500000  0.500000  1
  O  O2  1  0.378706  0.621294  0.182386  1
  O  O3  1  0.621294  0.378706  0.817614  1
