# generated using pymatgen
data_CsNd(PO3)4
_symmetry_space_group_name_H-M   'P 1'
_cell_length_a   7.23109625
_cell_length_b   9.31676970
_cell_length_c   8.91329424
_cell_angle_alpha   90.00000000
_cell_angle_beta   99.60261307
_cell_angle_gamma   90.00000000
_symmetry_Int_Tables_number   1
_chemical_formula_structural   CsNd(PO3)4
_chemical_formula_sum   'Cs2 Nd2 P8 O24'
_cell_volume   592.07887329
_cell_formula_units_Z   2
loop_
 _symmetry_equiv_pos_site_id
 _symmetry_equiv_pos_as_xyz
  1  'x, y, z'
loop_
 _atom_site_type_symbol
 _atom_site_label
 _atom_site_symmetry_multiplicity
 _atom_site_fract_x
 _atom_site_fract_y
 _atom_site_fract_z
 _atom_site_occupancy
  Cs  Cs0  1  0.169280  0.827210  0.173409  1
  Cs  Cs1  1  0.830720  0.327210  0.826591  1
  Nd  Nd2  1  0.299859  0.992474  0.697697  1
  Nd  Nd3  1  0.700141  0.492474  0.302303  1
  P  P4  1  0.808393  0.918930  0.774019  1
  P  P5  1  0.191607  0.418930  0.225981  1
  P  P6  1  0.583373  0.717736  0.928616  1
  P  P7  1  0.416627  0.217736  0.071384  1
  P  P8  1  0.439403  0.601929  0.623849  1
  P  P9  1  0.560597  0.101929  0.376151  1
  P  P10  1  0.144606  0.364967  0.542131  1
  P  P11  1  0.855394  0.864967  0.457869  1
  O  O12  1  0.656251  0.029397  0.768416  1
  O  O13  1  0.343749  0.529397  0.231584  1
  O  O14  1  0.010328  0.963074  0.817126  1
  O  O15  1  0.989672  0.463074  0.182874  1
  O  O16  1  0.776006  0.791373  0.890080  1
  O  O17  1  0.223994  0.291373  0.109920  1
  O  O18  1  0.424487  0.823626  0.907452  1
  O  O19  1  0.575513  0.323626  0.092548  1
  O  O20  1  0.360845  0.144760  0.922540  1
  O  O21  1  0.639155  0.644760  0.077460  1
  O  O22  1  0.547335  0.593474  0.799843  1
  O  O23  1  0.452665  0.093474  0.200157  1
  O  O24  1  0.775912  0.833048  0.613587  1
  O  O25  1  0.224088  0.333048  0.386413  1
  O  O26  1  0.042988  0.936805  0.492724  1
  O  O27  1  0.957012  0.436805  0.507276  1
  O  O28  1  0.161766  0.229271  0.632919  1
  O  O29  1  0.838234  0.729271  0.367081  1
  O  O30  1  0.712128  0.977853  0.363314  1
  O  O31  1  0.287872  0.477853  0.636686  1
  O  O32  1  0.651874  0.245622  0.406081  1
  O  O33  1  0.348126  0.745622  0.593919  1
  O  O34  1  0.425022  0.047852  0.472724  1
  O  O35  1  0.574978  0.547852  0.527276  1
