# generated using pymatgen
data_Y2Ge2O7
_symmetry_space_group_name_H-M   'P 1'
_cell_length_a   6.88764174
_cell_length_b   6.88764174
_cell_length_c   12.54373785
_cell_angle_alpha   90.00000000
_cell_angle_beta   90.00000000
_cell_angle_gamma   90.00000000
_symmetry_Int_Tables_number   1
_chemical_formula_structural   Y2Ge2O7
_chemical_formula_sum   'Y8 Ge8 O28'
_cell_volume   595.07001572
_cell_formula_units_Z   4
loop_
 _symmetry_equiv_pos_site_id
 _symmetry_equiv_pos_as_xyz
  1  'x, y, z'
loop_
 _atom_site_type_symbol
 _atom_site_label
 _atom_site_symmetry_multiplicity
 _atom_site_fract_x
 _atom_site_fract_y
 _atom_site_fract_z
 _atom_site_occupancy
  Y  Y0  1  0.124113  0.647707  0.865376  1
  Y  Y1  1  0.875887  0.352293  0.365376  1
  Y  Y2  1  0.647707  0.124113  0.134624  1
  Y  Y3  1  0.147707  0.375887  0.115376  1
  Y  Y4  1  0.852293  0.624113  0.615376  1
  Y  Y5  1  0.375887  0.147707  0.884624  1
  Y  Y6  1  0.624113  0.852293  0.384624  1
  Y  Y7  1  0.352293  0.875887  0.634624  1
  Ge  Ge8  1  0.152533  0.901309  0.119639  1
  Ge  Ge9  1  0.847467  0.098691  0.619639  1
  Ge  Ge10  1  0.901309  0.152533  0.880361  1
  Ge  Ge11  1  0.401309  0.347467  0.369639  1
  Ge  Ge12  1  0.598691  0.652533  0.869639  1
  Ge  Ge13  1  0.347467  0.401309  0.630361  1
  Ge  Ge14  1  0.652533  0.598691  0.130361  1
  Ge  Ge15  1  0.098691  0.847467  0.380361  1
  O  O16  1  0.142737  0.684932  0.045295  1
  O  O17  1  0.857263  0.315068  0.545295  1
  O  O18  1  0.684932  0.142737  0.954705  1
  O  O19  1  0.184932  0.357263  0.295295  1
  O  O20  1  0.815068  0.642737  0.795295  1
  O  O21  1  0.357263  0.184932  0.704705  1
  O  O22  1  0.642737  0.815068  0.204705  1
  O  O23  1  0.315068  0.857263  0.454705  1
  O  O24  1  0.338239  0.063993  0.071230  1
  O  O25  1  0.661761  0.936007  0.571230  1
  O  O26  1  0.063993  0.338239  0.928770  1
  O  O27  1  0.563993  0.161761  0.321230  1
  O  O28  1  0.436007  0.838239  0.821230  1
  O  O29  1  0.161761  0.563993  0.678770  1
  O  O30  1  0.838239  0.436007  0.178770  1
  O  O31  1  0.936007  0.661761  0.428770  1
  O  O32  1  0.196371  0.803629  0.250000  1
  O  O33  1  0.696371  0.696371  0.000000  1
  O  O34  1  0.303629  0.303629  0.500000  1
  O  O35  1  0.803629  0.196371  0.750000  1
  O  O36  1  0.921464  0.030690  0.376231  1
  O  O37  1  0.469310  0.421464  0.126231  1
  O  O38  1  0.530690  0.578536  0.626231  1
  O  O39  1  0.421464  0.469310  0.873769  1
  O  O40  1  0.578536  0.530690  0.373769  1
  O  O41  1  0.078536  0.969310  0.876231  1
  O  O42  1  0.030690  0.921464  0.623769  1
  O  O43  1  0.969310  0.078536  0.123769  1
