# generated using pymatgen
data_LaMnO3
_symmetry_space_group_name_H-M   'P 1'
_cell_length_a   5.61188240
_cell_length_b   5.85109508
_cell_length_c   7.78606696
_cell_angle_alpha   90.00000000
_cell_angle_beta   90.00000000
_cell_angle_gamma   90.00000000
_symmetry_Int_Tables_number   1
_chemical_formula_structural   LaMnO3
_chemical_formula_sum   'La4 Mn4 O12'
_cell_volume   255.66062799
_cell_formula_units_Z   4
loop_
 _symmetry_equiv_pos_site_id
 _symmetry_equiv_pos_as_xyz
  1  'x, y, z'
loop_
 _atom_site_type_symbol
 _atom_site_label
 _atom_site_symmetry_multiplicity
 _atom_site_fract_x
 _atom_site_fract_y
 _atom_site_fract_z
 _atom_site_occupancy
  La  La0  1  0.489159  0.553949  0.750000  1
  La  La1  1  0.010841  0.053949  0.750000  1
  La  La2  1  0.989159  0.946051  0.250000  1
  La  La3  1  0.510841  0.446051  0.250000  1
  Mn  Mn4  1  0.000000  0.500000  0.000000  1
  Mn  Mn5  1  0.000000  0.500000  0.500000  1
  Mn  Mn6  1  0.500000  0.000000  0.500000  1
  Mn  Mn7  1  0.500000  0.000000  0.000000  1
  O  O8  1  0.223316  0.803712  0.956054  1
  O  O9  1  0.276684  0.303712  0.543946  1
  O  O10  1  0.586627  0.980967  0.750000  1
  O  O11  1  0.913373  0.480967  0.750000  1
  O  O12  1  0.086627  0.519033  0.250000  1
  O  O13  1  0.776684  0.196288  0.456054  1
  O  O14  1  0.723316  0.696288  0.456054  1
  O  O15  1  0.776684  0.196288  0.043946  1
  O  O16  1  0.413373  0.019033  0.250000  1
  O  O17  1  0.276684  0.303712  0.956054  1
  O  O18  1  0.223316  0.803712  0.543946  1
  O  O19  1  0.723316  0.696288  0.043946  1
