# generated using pymatgen
data_ZnBi
_symmetry_space_group_name_H-M   'P 1'
_cell_length_a   6.58626256
_cell_length_b   8.13597997
_cell_length_c   8.46817815
_cell_angle_alpha   90.00000000
_cell_angle_beta   90.00000000
_cell_angle_gamma   90.00000000
_symmetry_Int_Tables_number   1
_chemical_formula_structural   ZnBi
_chemical_formula_sum   'Zn8 Bi8'
_cell_volume   453.77325614
_cell_formula_units_Z   8
loop_
 _symmetry_equiv_pos_site_id
 _symmetry_equiv_pos_as_xyz
  1  'x, y, z'
loop_
 _atom_site_type_symbol
 _atom_site_label
 _atom_site_symmetry_multiplicity
 _atom_site_fract_x
 _atom_site_fract_y
 _atom_site_fract_z
 _atom_site_occupancy
  Zn  Zn0  1  0.959278  0.104811  0.875151  1
  Zn  Zn1  1  0.459278  0.395189  0.124849  1
  Zn  Zn2  1  0.040722  0.604811  0.624849  1
  Zn  Zn3  1  0.540722  0.895189  0.375151  1
  Zn  Zn4  1  0.040722  0.895189  0.124849  1
  Zn  Zn5  1  0.540722  0.604811  0.875151  1
  Zn  Zn6  1  0.959278  0.395189  0.375151  1
  Zn  Zn7  1  0.459278  0.104811  0.624849  1
  Bi  Bi8  1  0.645635  0.086516  0.112711  1
  Bi  Bi9  1  0.145635  0.413484  0.887289  1
  Bi  Bi10  1  0.354365  0.586516  0.387289  1
  Bi  Bi11  1  0.854365  0.913484  0.612711  1
  Bi  Bi12  1  0.354365  0.913484  0.887289  1
  Bi  Bi13  1  0.854365  0.586516  0.112711  1
  Bi  Bi14  1  0.645635  0.413484  0.612711  1
  Bi  Bi15  1  0.145635  0.086516  0.387289  1
