# generated using pymatgen
data_SmCrGe3
_symmetry_space_group_name_H-M   'P 1'
_cell_length_a   6.13334054
_cell_length_b   6.13334054
_cell_length_c   5.71397152
_cell_angle_alpha   90.00000000
_cell_angle_beta   90.00000000
_cell_angle_gamma   120.00000000
_symmetry_Int_Tables_number   1
_chemical_formula_structural   SmCrGe3
_chemical_formula_sum   'Sm2 Cr2 Ge6'
_cell_volume   186.14992279
_cell_formula_units_Z   2
loop_
 _symmetry_equiv_pos_site_id
 _symmetry_equiv_pos_as_xyz
  1  'x, y, z'
loop_
 _atom_site_type_symbol
 _atom_site_label
 _atom_site_symmetry_multiplicity
 _atom_site_fract_x
 _atom_site_fract_y
 _atom_site_fract_z
 _atom_site_occupancy
  Sm  Sm0  1  0.666667  0.333333  0.250000  1
  Sm  Sm1  1  0.333333  0.666667  0.750000  1
  Cr  Cr2  1  0.000000  0.000000  0.500000  1
  Cr  Cr3  1  0.000000  0.000000  0.000000  1
  Ge  Ge4  1  0.192391  0.384783  0.250000  1
  Ge  Ge5  1  0.807609  0.192391  0.750000  1
  Ge  Ge6  1  0.384783  0.192391  0.750000  1
  Ge  Ge7  1  0.615217  0.807609  0.250000  1
  Ge  Ge8  1  0.192391  0.807609  0.250000  1
  Ge  Ge9  1  0.807609  0.615217  0.750000  1
