# generated using pymatgen
data_Nb5Ge3
_symmetry_space_group_name_H-M   'P 1'
_cell_length_a   7.70846865
_cell_length_b   7.70846865
_cell_length_c   5.36358600
_cell_angle_alpha   90.00000000
_cell_angle_beta   90.00000000
_cell_angle_gamma   120.00000000
_symmetry_Int_Tables_number   1
_chemical_formula_structural   Nb5Ge3
_chemical_formula_sum   'Nb10 Ge6'
_cell_volume   276.00827401
_cell_formula_units_Z   2
loop_
 _symmetry_equiv_pos_site_id
 _symmetry_equiv_pos_as_xyz
  1  'x, y, z'
loop_
 _atom_site_type_symbol
 _atom_site_label
 _atom_site_symmetry_multiplicity
 _atom_site_fract_x
 _atom_site_fract_y
 _atom_site_fract_z
 _atom_site_occupancy
  Nb  Nb0  1  0.000000  0.751104  0.750000  1
  Nb  Nb1  1  0.000000  0.248896  0.250000  1
  Nb  Nb2  1  0.751104  0.751104  0.250000  1
  Nb  Nb3  1  0.751104  0.000000  0.750000  1
  Nb  Nb4  1  0.248896  0.248896  0.750000  1
  Nb  Nb5  1  0.248896  0.000000  0.250000  1
  Nb  Nb6  1  0.333333  0.666667  0.000000  1
  Nb  Nb7  1  0.666667  0.333333  0.500000  1
  Nb  Nb8  1  0.666667  0.333333  0.000000  1
  Nb  Nb9  1  0.333333  0.666667  0.500000  1
  Ge  Ge10  1  0.391632  0.000000  0.750000  1
  Ge  Ge11  1  0.391632  0.391632  0.250000  1
  Ge  Ge12  1  0.000000  0.608368  0.250000  1
  Ge  Ge13  1  0.000000  0.391632  0.750000  1
  Ge  Ge14  1  0.608368  0.608368  0.750000  1
  Ge  Ge15  1  0.608368  0.000000  0.250000  1
