# generated using pymatgen
data_Hf2Co4P3
_symmetry_space_group_name_H-M   'P 1'
_cell_length_a   12.05125690
_cell_length_b   12.05125690
_cell_length_c   3.64053544
_cell_angle_alpha   90.00000000
_cell_angle_beta   90.00000000
_cell_angle_gamma   120.00000000
_symmetry_Int_Tables_number   1
_chemical_formula_structural   Hf2Co4P3
_chemical_formula_sum   'Hf8 Co16 P12'
_cell_volume   457.88939340
_cell_formula_units_Z   4
loop_
 _symmetry_equiv_pos_site_id
 _symmetry_equiv_pos_as_xyz
  1  'x, y, z'
loop_
 _atom_site_type_symbol
 _atom_site_label
 _atom_site_symmetry_multiplicity
 _atom_site_fract_x
 _atom_site_fract_y
 _atom_site_fract_z
 _atom_site_occupancy
  Hf  Hf0  1  0.824445  0.824445  0.500000  1
  Hf  Hf1  1  0.444224  0.444224  0.000000  1
  Hf  Hf2  1  0.000000  0.175555  0.500000  1
  Hf  Hf3  1  0.555776  0.000000  0.000000  1
  Hf  Hf4  1  0.333333  0.666667  0.000000  1
  Hf  Hf5  1  0.666667  0.333333  0.000000  1
  Hf  Hf6  1  0.000000  0.555776  0.000000  1
  Hf  Hf7  1  0.175555  0.000000  0.500000  1
  Co  Co8  1  0.627043  0.820722  0.000000  1
  Co  Co9  1  0.372957  0.193679  0.000000  1
  Co  Co10  1  0.000000  0.721189  0.500000  1
  Co  Co11  1  0.278811  0.278811  0.500000  1
  Co  Co12  1  0.873245  0.355373  0.500000  1
  Co  Co13  1  0.721189  0.000000  0.500000  1
  Co  Co14  1  0.820722  0.627043  0.000000  1
  Co  Co15  1  0.179278  0.806321  0.000000  1
  Co  Co16  1  0.355373  0.873245  0.500000  1
  Co  Co17  1  0.126755  0.482128  0.500000  1
  Co  Co18  1  0.644627  0.517872  0.500000  1
  Co  Co19  1  0.000000  0.000000  0.000000  1
  Co  Co20  1  0.517872  0.644627  0.500000  1
  Co  Co21  1  0.482128  0.126755  0.500000  1
  Co  Co22  1  0.193679  0.372957  0.000000  1
  Co  Co23  1  0.806321  0.179278  0.000000  1
  P  P24  1  0.000000  0.344843  0.000000  1
  P  P25  1  0.826416  0.516737  0.500000  1
  P  P26  1  0.690320  0.173584  0.500000  1
  P  P27  1  0.175613  0.175613  0.000000  1
  P  P28  1  0.655157  0.655157  0.000000  1
  P  P29  1  0.824387  0.000000  0.000000  1
  P  P30  1  0.516737  0.826416  0.500000  1
  P  P31  1  0.173584  0.690320  0.500000  1
  P  P32  1  0.344843  0.000000  0.000000  1
  P  P33  1  0.483263  0.309680  0.500000  1
  P  P34  1  0.000000  0.824387  0.000000  1
  P  P35  1  0.309680  0.483263  0.500000  1
