# generated using pymatgen
data_Na4Mg3P4O15
_symmetry_space_group_name_H-M   'P 1'
_cell_length_a   6.59298909
_cell_length_b   10.63309796
_cell_length_c   18.20090018
_cell_angle_alpha   90.00000000
_cell_angle_beta   90.00000000
_cell_angle_gamma   90.00000000
_symmetry_Int_Tables_number   1
_chemical_formula_structural   Na4Mg3P4O15
_chemical_formula_sum   'Na16 Mg12 P16 O60'
_cell_volume   1275.95406507
_cell_formula_units_Z   4
loop_
 _symmetry_equiv_pos_site_id
 _symmetry_equiv_pos_as_xyz
  1  'x, y, z'
loop_
 _atom_site_type_symbol
 _atom_site_label
 _atom_site_symmetry_multiplicity
 _atom_site_fract_x
 _atom_site_fract_y
 _atom_site_fract_z
 _atom_site_occupancy
  Na  Na0  1  0.070050  0.235579  0.106816  1
  Na  Na1  1  0.570050  0.764421  0.893184  1
  Na  Na2  1  0.570050  0.735579  0.393184  1
  Na  Na3  1  0.070050  0.264421  0.606816  1
  Na  Na4  1  0.490434  0.751692  0.206222  1
  Na  Na5  1  0.990434  0.248308  0.793778  1
  Na  Na6  1  0.990434  0.251692  0.293778  1
  Na  Na7  1  0.490434  0.748308  0.706222  1
  Na  Na8  1  0.457921  0.524851  0.007740  1
  Na  Na9  1  0.957921  0.475149  0.992260  1
  Na  Na10  1  0.957921  0.024851  0.492260  1
  Na  Na11  1  0.457921  0.975149  0.507740  1
  Na  Na12  1  0.313888  0.958844  0.038699  1
  Na  Na13  1  0.813888  0.041156  0.961301  1
  Na  Na14  1  0.813888  0.458844  0.461301  1
  Na  Na15  1  0.313888  0.541156  0.538699  1
  Mg  Mg16  1  0.239057  0.005846  0.360273  1
  Mg  Mg17  1  0.739057  0.994154  0.639727  1
  Mg  Mg18  1  0.739057  0.505846  0.139727  1
  Mg  Mg19  1  0.239057  0.494154  0.860273  1
  Mg  Mg20  1  0.971253  0.755553  0.260672  1
  Mg  Mg21  1  0.471253  0.244447  0.739328  1
  Mg  Mg22  1  0.471253  0.255553  0.239328  1
  Mg  Mg23  1  0.971253  0.744447  0.760672  1
  Mg  Mg24  1  0.249846  0.494795  0.333335  1
  Mg  Mg25  1  0.749846  0.505205  0.666665  1
  Mg  Mg26  1  0.749846  0.994795  0.166665  1
  Mg  Mg27  1  0.249846  0.005205  0.833335  1
  P  P28  1  0.231949  0.512256  0.180090  1
  P  P29  1  0.731949  0.487744  0.819910  1
  P  P30  1  0.731949  0.012256  0.319910  1
  P  P31  1  0.231949  0.987744  0.680090  1
  P  P32  1  0.242110  0.996918  0.208060  1
  P  P33  1  0.742110  0.003082  0.791940  1
  P  P34  1  0.742110  0.496918  0.291940  1
  P  P35  1  0.242110  0.503082  0.708060  1
  P  P36  1  0.099686  0.736107  0.430801  1
  P  P37  1  0.599686  0.263893  0.569199  1
  P  P38  1  0.599686  0.236107  0.069199  1
  P  P39  1  0.099686  0.763893  0.930801  1
  P  P40  1  0.788974  0.729141  0.551464  1
  P  P41  1  0.288974  0.270859  0.448536  1
  P  P42  1  0.288974  0.229141  0.948536  1
  P  P43  1  0.788974  0.770859  0.051464  1
  O  O44  1  0.212067  0.862302  0.438686  1
  O  O45  1  0.712067  0.137698  0.561314  1
  O  O46  1  0.712067  0.362302  0.061314  1
  O  O47  1  0.212067  0.637698  0.938686  1
  O  O48  1  0.202515  0.885838  0.263404  1
  O  O49  1  0.702515  0.114162  0.736596  1
  O  O50  1  0.702515  0.385838  0.236596  1
  O  O51  1  0.202515  0.614162  0.763404  1
  O  O52  1  0.061311  0.023816  0.157511  1
  O  O53  1  0.561311  0.976184  0.842489  1
  O  O54  1  0.561311  0.523816  0.342489  1
  O  O55  1  0.061311  0.476184  0.657511  1
  O  O56  1  0.432057  0.964053  0.161890  1
  O  O57  1  0.932057  0.035947  0.838110  1
  O  O58  1  0.932057  0.464053  0.338110  1
  O  O59  1  0.432057  0.535947  0.661890  1
  O  O60  1  0.246791  0.627407  0.415930  1
  O  O61  1  0.746791  0.372593  0.584070  1
  O  O62  1  0.746791  0.127407  0.084070  1
  O  O63  1  0.246791  0.872593  0.915930  1
  O  O64  1  0.257448  0.395201  0.231922  1
  O  O65  1  0.757448  0.604799  0.768078  1
  O  O66  1  0.757448  0.895201  0.268078  1
  O  O67  1  0.257448  0.104799  0.731922  1
  O  O68  1  0.426842  0.543556  0.136504  1
  O  O69  1  0.926842  0.456444  0.863496  1
  O  O70  1  0.926842  0.043556  0.363496  1
  O  O71  1  0.426842  0.956444  0.636504  1
  O  O72  1  0.051634  0.487613  0.127907  1
  O  O73  1  0.551634  0.512387  0.872093  1
  O  O74  1  0.551634  0.987613  0.372093  1
  O  O75  1  0.051634  0.012387  0.627907  1
  O  O76  1  0.772196  0.612795  0.239173  1
  O  O77  1  0.272196  0.387205  0.760827  1
  O  O78  1  0.272196  0.112795  0.260827  1
  O  O79  1  0.772196  0.887205  0.739173  1
  O  O80  1  0.196596  0.622940  0.236428  1
  O  O81  1  0.696596  0.377060  0.763572  1
  O  O82  1  0.696596  0.122940  0.263572  1
  O  O83  1  0.196596  0.877060  0.736428  1
  O  O84  1  0.426539  0.241436  0.124272  1
  O  O85  1  0.926539  0.758564  0.875728  1
  O  O86  1  0.926539  0.741436  0.375728  1
  O  O87  1  0.426539  0.258564  0.624272  1
  O  O88  1  0.013564  0.701394  0.513065  1
  O  O89  1  0.513564  0.298606  0.486935  1
  O  O90  1  0.513564  0.201394  0.986935  1
  O  O91  1  0.013564  0.798606  0.013065  1
  O  O92  1  0.812948  0.687487  0.631355  1
  O  O93  1  0.312948  0.312513  0.368645  1
  O  O94  1  0.312948  0.187487  0.868645  1
  O  O95  1  0.812948  0.812513  0.131355  1
  O  O96  1  0.638974  0.648874  0.508497  1
  O  O97  1  0.138974  0.351126  0.491503  1
  O  O98  1  0.138974  0.148874  0.991503  1
  O  O99  1  0.638974  0.851126  0.008497  1
  O  O100  1  0.751649  0.871441  0.545697  1
  O  O101  1  0.251649  0.128559  0.454303  1
  O  O102  1  0.251649  0.371441  0.954303  1
  O  O103  1  0.751649  0.628559  0.045697  1
