# generated using pymatgen
data_La2ZnRhO6
_symmetry_space_group_name_H-M   'P 1'
_cell_length_a   5.59195623
_cell_length_b   5.79491026
_cell_length_c   9.72288016
_cell_angle_alpha   90.00000000
_cell_angle_beta   125.14918739
_cell_angle_gamma   90.00000000
_symmetry_Int_Tables_number   1
_chemical_formula_structural   La2ZnRhO6
_chemical_formula_sum   'La4 Zn2 Rh2 O12'
_cell_volume   257.61783436
_cell_formula_units_Z   2
loop_
 _symmetry_equiv_pos_site_id
 _symmetry_equiv_pos_as_xyz
  1  'x, y, z'
loop_
 _atom_site_type_symbol
 _atom_site_label
 _atom_site_symmetry_multiplicity
 _atom_site_fract_x
 _atom_site_fract_y
 _atom_site_fract_z
 _atom_site_occupancy
  La  La0  1  0.735610  0.942758  0.749211  1
  La  La1  1  0.264390  0.442758  0.750789  1
  La  La2  1  0.264390  0.057242  0.250789  1
  La  La3  1  0.735610  0.557242  0.249211  1
  Zn  Zn4  1  0.500000  0.000000  0.000000  1
  Zn  Zn5  1  0.500000  0.500000  0.500000  1
  Rh  Rh6  1  0.000000  0.500000  0.000000  1
  Rh  Rh7  1  0.000000  0.000000  0.500000  1
  O  O8  1  0.847768  0.527857  0.753783  1
  O  O9  1  0.152232  0.027857  0.746217  1
  O  O10  1  0.152232  0.472143  0.246217  1
  O  O11  1  0.847768  0.972143  0.253783  1
  O  O12  1  0.655277  0.801757  0.450522  1
  O  O13  1  0.344723  0.301757  0.049478  1
  O  O14  1  0.344723  0.198243  0.549478  1
  O  O15  1  0.655277  0.698243  0.950522  1
  O  O16  1  0.756360  0.208652  0.949233  1
  O  O17  1  0.243640  0.708652  0.550767  1
  O  O18  1  0.243640  0.791348  0.050767  1
  O  O19  1  0.756360  0.291348  0.449233  1
