# generated using pymatgen
data_Th(PRu)2
_symmetry_space_group_name_H-M   'P 1'
_cell_length_a   4.16589900
_cell_length_b   7.58206794
_cell_length_c   10.52964052
_cell_angle_alpha   90.00000000
_cell_angle_beta   90.00000000
_cell_angle_gamma   90.00000000
_symmetry_Int_Tables_number   1
_chemical_formula_structural   Th(PRu)2
_chemical_formula_sum   'Th4 P8 Ru8'
_cell_volume   332.59058641
_cell_formula_units_Z   4
loop_
 _symmetry_equiv_pos_site_id
 _symmetry_equiv_pos_as_xyz
  1  'x, y, z'
loop_
 _atom_site_type_symbol
 _atom_site_label
 _atom_site_symmetry_multiplicity
 _atom_site_fract_x
 _atom_site_fract_y
 _atom_site_fract_z
 _atom_site_occupancy
  Th  Th0  1  0.250000  0.766786  0.831309  1
  Th  Th1  1  0.750000  0.233214  0.168691  1
  Th  Th2  1  0.250000  0.266786  0.668691  1
  Th  Th3  1  0.750000  0.733214  0.331309  1
  P  P4  1  0.250000  0.595203  0.530212  1
  P  P5  1  0.750000  0.404797  0.469788  1
  P  P6  1  0.250000  0.095203  0.969788  1
  P  P7  1  0.750000  0.904797  0.030212  1
  P  P8  1  0.250000  0.029351  0.340187  1
  P  P9  1  0.750000  0.970649  0.659813  1
  P  P10  1  0.250000  0.529351  0.159813  1
  P  P11  1  0.750000  0.470649  0.840187  1
  Ru  Ru12  1  0.750000  0.610196  0.049543  1
  Ru  Ru13  1  0.250000  0.389804  0.950457  1
  Ru  Ru14  1  0.750000  0.110196  0.450457  1
  Ru  Ru15  1  0.250000  0.889804  0.549543  1
  Ru  Ru16  1  0.250000  0.367443  0.367778  1
  Ru  Ru17  1  0.750000  0.632557  0.632222  1
  Ru  Ru18  1  0.250000  0.867443  0.132222  1
  Ru  Ru19  1  0.750000  0.132557  0.867778  1
