# generated using pymatgen
data_SrZn11
_symmetry_space_group_name_H-M   'P 1'
_cell_length_a   8.37366976
_cell_length_b   8.37366976
_cell_length_c   8.37366976
_cell_angle_alpha   99.78058513
_cell_angle_beta   99.78058513
_cell_angle_gamma   131.31885341
_symmetry_Int_Tables_number   1
_chemical_formula_structural   SrZn11
_chemical_formula_sum   'Sr2 Zn22'
_cell_volume   401.77799727
_cell_formula_units_Z   2
loop_
 _symmetry_equiv_pos_site_id
 _symmetry_equiv_pos_as_xyz
  1  'x, y, z'
loop_
 _atom_site_type_symbol
 _atom_site_label
 _atom_site_symmetry_multiplicity
 _atom_site_fract_x
 _atom_site_fract_y
 _atom_site_fract_z
 _atom_site_occupancy
  Sr  Sr0  1  0.500000  0.500000  0.000000  1
  Sr  Sr1  1  0.750000  0.250000  0.500000  1
  Zn  Zn2  1  0.849299  0.433236  0.171679  1
  Zn  Zn3  1  0.261557  0.677620  0.828321  1
  Zn  Zn4  1  0.250000  0.750000  0.500000  1
  Zn  Zn5  1  0.000000  0.000000  0.000000  1
  Zn  Zn6  1  0.125000  0.875000  0.250000  1
  Zn  Zn7  1  0.125000  0.875000  0.750000  1
  Zn  Zn8  1  0.125000  0.375000  0.250000  1
  Zn  Zn9  1  0.625000  0.875000  0.750000  1
  Zn  Zn10  1  0.849299  0.677620  0.416063  1
  Zn  Zn11  1  0.683236  0.599299  0.671679  1
  Zn  Zn12  1  0.927620  0.011557  0.328321  1
  Zn  Zn13  1  0.261557  0.433236  0.583937  1
  Zn  Zn14  1  0.566764  0.738443  0.416063  1
  Zn  Zn15  1  0.322380  0.150701  0.583937  1
  Zn  Zn16  1  0.988443  0.072380  0.671679  1
  Zn  Zn17  1  0.400701  0.316764  0.328321  1
  Zn  Zn18  1  0.400701  0.072380  0.083937  1
  Zn  Zn19  1  0.566764  0.150701  0.828321  1
  Zn  Zn20  1  0.322380  0.738443  0.171679  1
  Zn  Zn21  1  0.988443  0.316764  0.916063  1
  Zn  Zn22  1  0.683236  0.011557  0.083937  1
  Zn  Zn23  1  0.927620  0.599299  0.916063  1
