# generated using pymatgen
data_SrB4O7
_symmetry_space_group_name_H-M   'P 1'
_cell_length_a   17.30233444
_cell_length_b   17.30233444
_cell_length_c   4.29576776
_cell_angle_alpha   90.00000000
_cell_angle_beta   90.00000000
_cell_angle_gamma   120.00000000
_symmetry_Int_Tables_number   1
_chemical_formula_structural   SrB4O7
_chemical_formula_sum   'Sr9 B36 O63'
_cell_volume   1113.73234027
_cell_formula_units_Z   9
loop_
 _symmetry_equiv_pos_site_id
 _symmetry_equiv_pos_as_xyz
  1  'x, y, z'
loop_
 _atom_site_type_symbol
 _atom_site_label
 _atom_site_symmetry_multiplicity
 _atom_site_fract_x
 _atom_site_fract_y
 _atom_site_fract_z
 _atom_site_occupancy
  Sr  Sr0  1  0.333333  0.666667  0.498821  1
  Sr  Sr1  1  0.000000  0.000000  0.705531  1
  Sr  Sr2  1  0.666667  0.333333  0.606975  1
  Sr  Sr3  1  0.340958  0.342814  0.701218  1
  Sr  Sr4  1  0.001856  0.659042  0.701218  1
  Sr  Sr5  1  0.657186  0.998144  0.701218  1
  Sr  Sr6  1  0.674846  0.672613  0.516495  1
  Sr  Sr7  1  0.997767  0.325154  0.516495  1
  Sr  Sr8  1  0.327387  0.002233  0.516495  1
  B  B9  1  0.515144  0.380194  0.324219  1
  B  B10  1  0.865049  0.484856  0.324219  1
  B  B11  1  0.619806  0.134951  0.324219  1
  B  B12  1  0.636758  0.485424  0.997288  1
  B  B13  1  0.848665  0.363242  0.997288  1
  B  B14  1  0.514576  0.151335  0.997288  1
  B  B15  1  0.300066  0.471462  0.241681  1
  B  B16  1  0.171396  0.699934  0.241681  1
  B  B17  1  0.528538  0.828604  0.241681  1
  B  B18  1  0.192452  0.481104  0.906175  1
  B  B19  1  0.288653  0.807548  0.906175  1
  B  B20  1  0.518896  0.711347  0.906175  1
  B  B21  1  0.178649  0.141021  0.277570  1
  B  B22  1  0.962372  0.821351  0.277570  1
  B  B23  1  0.858979  0.037628  0.277570  1
  B  B24  1  0.199964  0.039057  0.944104  1
  B  B25  1  0.839093  0.800036  0.944104  1
  B  B26  1  0.960943  0.160907  0.944104  1
  B  B27  1  0.507578  0.512646  0.110950  1
  B  B28  1  0.005068  0.492422  0.110950  1
  B  B29  1  0.487354  0.994932  0.110950  1
  B  B30  1  0.451045  0.558346  0.597582  1
  B  B31  1  0.107301  0.548955  0.597582  1
  B  B32  1  0.441654  0.892699  0.597582  1
  B  B33  1  0.168780  0.327414  0.047318  1
  B  B34  1  0.158635  0.831220  0.047318  1
  B  B35  1  0.672586  0.841365  0.047318  1
  B  B36  1  0.108350  0.225958  0.559600  1
  B  B37  1  0.117608  0.891650  0.559600  1
  B  B38  1  0.774042  0.882392  0.559600  1
  B  B39  1  0.336056  0.171024  0.179165  1
  B  B40  1  0.834968  0.663944  0.179165  1
  B  B41  1  0.828976  0.165032  0.179165  1
  B  B42  1  0.438498  0.228853  0.682281  1
  B  B43  1  0.790355  0.561502  0.682281  1
  B  B44  1  0.771147  0.209645  0.682281  1
  O  O45  1  0.491762  0.322019  0.561923  1
  O  O46  1  0.830257  0.508238  0.561923  1
  O  O47  1  0.677981  0.169743  0.561923  1
  O  O48  1  0.466458  0.419907  0.248904  1
  O  O49  1  0.953449  0.533542  0.248904  1
  O  O50  1  0.580093  0.046551  0.248904  1
  O  O51  1  0.598303  0.407659  0.183927  1
  O  O52  1  0.809356  0.401697  0.183927  1
  O  O53  1  0.592341  0.190644  0.183927  1
  O  O54  1  0.603076  0.542342  0.000005  1
  O  O55  1  0.939266  0.396924  0.000005  1
  O  O56  1  0.457658  0.060734  0.000005  1
  O  O57  1  0.702011  0.491116  0.807737  1
  O  O58  1  0.789104  0.297989  0.807737  1
  O  O59  1  0.508884  0.210896  0.807737  1
  O  O60  1  0.357419  0.509678  0.478792  1
  O  O61  1  0.152259  0.642581  0.478792  1
  O  O62  1  0.490322  0.847741  0.478792  1
  O  O63  1  0.263936  0.382619  0.169097  1
  O  O64  1  0.118683  0.736064  0.169097  1
  O  O65  1  0.617381  0.881317  0.169097  1
  O  O66  1  0.269272  0.523525  0.095401  1
  O  O67  1  0.254253  0.730728  0.095401  1
  O  O68  1  0.476475  0.745747  0.095401  1
  O  O69  1  0.139391  0.390392  0.907856  1
  O  O70  1  0.251001  0.860609  0.907856  1
  O  O71  1  0.609608  0.748999  0.907856  1
  O  O72  1  0.183187  0.538595  0.715498  1
  O  O73  1  0.355408  0.816813  0.715498  1
  O  O74  1  0.461405  0.644592  0.715498  1
  O  O75  1  0.114700  0.147374  0.442824  1
  O  O76  1  0.032674  0.885300  0.442824  1
  O  O77  1  0.852626  0.967326  0.442824  1
  O  O78  1  0.268641  0.195202  0.309707  1
  O  O79  1  0.926561  0.731359  0.309707  1
  O  O80  1  0.804798  0.073439  0.309707  1
  O  O81  1  0.143190  0.066869  0.073200  1
  O  O82  1  0.923679  0.856810  0.073200  1
  O  O83  1  0.933131  0.076321  0.073200  1
  O  O84  1  0.286694  0.076955  0.045044  1
  O  O85  1  0.790262  0.713306  0.045044  1
  O  O86  1  0.923045  0.209738  0.045044  1
  O  O87  1  0.171180  0.984546  0.693080  1
  O  O88  1  0.813365  0.828820  0.693080  1
  O  O89  1  0.015454  0.186635  0.693080  1
  O  O90  1  0.515983  0.576562  0.350085  1
  O  O91  1  0.060579  0.484017  0.350085  1
  O  O92  1  0.423438  0.939421  0.350085  1
  O  O93  1  0.451568  0.503162  0.850503  1
  O  O94  1  0.051594  0.548432  0.850503  1
  O  O95  1  0.496838  0.948406  0.850503  1
  O  O96  1  0.108011  0.280553  0.299890  1
  O  O97  1  0.172543  0.891989  0.299890  1
  O  O98  1  0.719447  0.827457  0.299890  1
  O  O99  1  0.174741  0.272529  0.800289  1
  O  O100  1  0.097788  0.825259  0.800289  1
  O  O101  1  0.727471  0.902212  0.800289  1
  O  O102  1  0.390056  0.166272  0.432160  1
  O  O103  1  0.776216  0.609944  0.432160  1
  O  O104  1  0.833728  0.223784  0.432160  1
  O  O105  1  0.383941  0.234110  0.932917  1
  O  O106  1  0.850169  0.616059  0.932917  1
  O  O107  1  0.765890  0.149831  0.932917  1
