# generated using pymatgen
data_La2MgRhO6
_symmetry_space_group_name_H-M   'P 1'
_cell_length_a   5.59247917
_cell_length_b   5.71300180
_cell_length_c   9.71906832
_cell_angle_alpha   90.00000000
_cell_angle_beta   125.22755718
_cell_angle_gamma   90.00000000
_symmetry_Int_Tables_number   1
_chemical_formula_structural   La2MgRhO6
_chemical_formula_sum   'La4 Mg2 Rh2 O12'
_cell_volume   253.65593078
_cell_formula_units_Z   2
loop_
 _symmetry_equiv_pos_site_id
 _symmetry_equiv_pos_as_xyz
  1  'x, y, z'
loop_
 _atom_site_type_symbol
 _atom_site_label
 _atom_site_symmetry_multiplicity
 _atom_site_fract_x
 _atom_site_fract_y
 _atom_site_fract_z
 _atom_site_occupancy
  La  La0  1  0.738817  0.951824  0.749435  1
  La  La1  1  0.261183  0.451824  0.750565  1
  La  La2  1  0.261183  0.048176  0.250565  1
  La  La3  1  0.738817  0.548176  0.249435  1
  Mg  Mg4  1  0.500000  0.000000  0.000000  1
  Mg  Mg5  1  0.500000  0.500000  0.500000  1
  Rh  Rh6  1  0.000000  0.500000  0.000000  1
  Rh  Rh7  1  0.000000  0.000000  0.500000  1
  O  O8  1  0.839635  0.523740  0.752680  1
  O  O9  1  0.160365  0.023740  0.747320  1
  O  O10  1  0.160365  0.476260  0.247320  1
  O  O11  1  0.839635  0.976260  0.252680  1
  O  O12  1  0.662137  0.795159  0.453231  1
  O  O13  1  0.337863  0.295159  0.046769  1
  O  O14  1  0.337863  0.204841  0.546769  1
  O  O15  1  0.662137  0.704841  0.953231  1
  O  O16  1  0.751486  0.210294  0.953102  1
  O  O17  1  0.248514  0.710294  0.546898  1
  O  O18  1  0.248514  0.789706  0.046898  1
  O  O19  1  0.751486  0.289706  0.453102  1
