# generated using pymatgen
data_Pr(PdO2)2
_symmetry_space_group_name_H-M   'P 1'
_cell_length_a   6.66430276
_cell_length_b   6.66430276
_cell_length_c   6.66430276
_cell_angle_alpha   126.80409238
_cell_angle_beta   126.80409238
_cell_angle_gamma   78.57052626
_symmetry_Int_Tables_number   1
_chemical_formula_structural   Pr(PdO2)2
_chemical_formula_sum   'Pr2 Pd4 O8'
_cell_volume   183.69346879
_cell_formula_units_Z   2
loop_
 _symmetry_equiv_pos_site_id
 _symmetry_equiv_pos_as_xyz
  1  'x, y, z'
loop_
 _atom_site_type_symbol
 _atom_site_label
 _atom_site_symmetry_multiplicity
 _atom_site_fract_x
 _atom_site_fract_y
 _atom_site_fract_z
 _atom_site_occupancy
  Pr  Pr0  1  0.500000  0.500000  0.000000  1
  Pr  Pr1  1  0.250000  0.750000  0.500000  1
  Pd  Pd2  1  0.875000  0.125000  0.750000  1
  Pd  Pd3  1  0.875000  0.625000  0.750000  1
  Pd  Pd4  1  0.875000  0.125000  0.250000  1
  Pd  Pd5  1  0.375000  0.125000  0.250000  1
  O  O6  1  0.501824  0.451678  0.352453  1
  O  O7  1  0.201678  0.349225  0.449854  1
  O  O8  1  0.899370  0.751824  0.550146  1
  O  O9  1  0.099225  0.149370  0.647547  1
  O  O10  1  0.248176  0.798322  0.147547  1
  O  O11  1  0.548322  0.900775  0.050146  1
  O  O12  1  0.650775  0.100630  0.852453  1
  O  O13  1  0.850630  0.498176  0.949854  1
