# generated using pymatgen
data_PrSe2
_symmetry_space_group_name_H-M   'P 1'
_cell_length_a   4.18724488
_cell_length_b   4.18724488
_cell_length_c   8.66765310
_cell_angle_alpha   90.00000000
_cell_angle_beta   90.00000000
_cell_angle_gamma   90.00000000
_symmetry_Int_Tables_number   1
_chemical_formula_structural   PrSe2
_chemical_formula_sum   'Pr2 Se4'
_cell_volume   151.97013243
_cell_formula_units_Z   2
loop_
 _symmetry_equiv_pos_site_id
 _symmetry_equiv_pos_as_xyz
  1  'x, y, z'
loop_
 _atom_site_type_symbol
 _atom_site_label
 _atom_site_symmetry_multiplicity
 _atom_site_fract_x
 _atom_site_fract_y
 _atom_site_fract_z
 _atom_site_occupancy
  Pr  Pr0  1  0.000000  0.500000  0.725512  1
  Pr  Pr1  1  0.500000  0.000000  0.274488  1
  Se  Se2  1  0.000000  0.500000  0.367086  1
  Se  Se3  1  0.500000  0.000000  0.632914  1
  Se  Se4  1  0.000000  0.000000  0.000000  1
  Se  Se5  1  0.500000  0.500000  0.000000  1
