# generated using pymatgen
data_GaAuO2
_symmetry_space_group_name_H-M   'P 1'
_cell_length_a   3.05006806
_cell_length_b   3.05006806
_cell_length_c   12.48642896
_cell_angle_alpha   90.00000000
_cell_angle_beta   90.00000000
_cell_angle_gamma   120.00000000
_symmetry_Int_Tables_number   1
_chemical_formula_structural   GaAuO2
_chemical_formula_sum   'Ga2 Au2 O4'
_cell_volume   100.59767484
_cell_formula_units_Z   2
loop_
 _symmetry_equiv_pos_site_id
 _symmetry_equiv_pos_as_xyz
  1  'x, y, z'
loop_
 _atom_site_type_symbol
 _atom_site_label
 _atom_site_symmetry_multiplicity
 _atom_site_fract_x
 _atom_site_fract_y
 _atom_site_fract_z
 _atom_site_occupancy
  Ga  Ga0  1  0.000000  0.000000  0.000000  1
  Ga  Ga1  1  0.000000  0.000000  0.500000  1
  Au  Au2  1  0.666667  0.333333  0.750000  1
  Au  Au3  1  0.333333  0.666667  0.250000  1
  O  O4  1  0.333333  0.666667  0.419969  1
  O  O5  1  0.666667  0.333333  0.919969  1
  O  O6  1  0.333333  0.666667  0.080031  1
  O  O7  1  0.666667  0.333333  0.580031  1
