# generated using pymatgen
data_Yb4Al23Ni6
_symmetry_space_group_name_H-M   'P 1'
_cell_length_a   8.24756696
_cell_length_b   8.24756696
_cell_length_c   18.28048969
_cell_angle_alpha   68.11051524
_cell_angle_beta   111.88948476
_cell_angle_gamma   151.37094318
_symmetry_Int_Tables_number   1
_chemical_formula_structural   Yb4Al23Ni6
_chemical_formula_sum   'Yb4 Al23 Ni6'
_cell_volume   549.93098688
_cell_formula_units_Z   1
loop_
 _symmetry_equiv_pos_site_id
 _symmetry_equiv_pos_as_xyz
  1  'x, y, z'
loop_
 _atom_site_type_symbol
 _atom_site_label
 _atom_site_symmetry_multiplicity
 _atom_site_fract_x
 _atom_site_fract_y
 _atom_site_fract_z
 _atom_site_occupancy
  Yb  Yb0  1  0.738404  0.261596  0.784466  1
  Yb  Yb1  1  0.578802  0.421198  0.406755  1
  Yb  Yb2  1  0.421198  0.578802  0.593245  1
  Yb  Yb3  1  0.261596  0.738404  0.215534  1
  Al  Al4  1  1.000000  0.000000  0.500000  1
  Al  Al5  1  0.855435  0.144565  0.142502  1
  Al  Al6  1  0.919315  0.080685  0.312745  1
  Al  Al7  1  0.080685  0.919315  0.687255  1
  Al  Al8  1  0.910052  0.089948  0.950805  1
  Al  Al9  1  0.089948  0.910052  0.049195  1
  Al  Al10  1  0.908189  0.091811  0.721810  1
  Al  Al11  1  0.091811  0.908189  0.278190  1
  Al  Al12  1  0.797765  0.202235  0.478511  1
  Al  Al13  1  0.202235  0.797765  0.521489  1
  Al  Al14  1  0.144565  0.855435  0.857498  1
  Al  Al15  1  0.608879  0.391121  0.161969  1
  Al  Al16  1  0.744852  0.255148  0.953630  1
  Al  Al17  1  0.255148  0.744852  0.046370  1
  Al  Al18  1  0.391121  0.608879  0.838031  1
  Al  Al19  1  0.467483  0.532517  0.218839  1
  Al  Al20  1  0.728244  0.271756  0.323468  1
  Al  Al21  1  0.271756  0.728244  0.676532  1
  Al  Al22  1  0.621537  0.378463  0.595691  1
  Al  Al23  1  0.378463  0.621537  0.404309  1
  Al  Al24  1  0.568485  0.431515  0.939153  1
  Al  Al25  1  0.431515  0.568485  0.060847  1
  Al  Al26  1  0.532517  0.467483  0.781161  1
  Ni  Ni27  1  0.993253  0.006747  0.865826  1
  Ni  Ni28  1  0.006747  0.993253  0.134174  1
  Ni  Ni29  1  0.772805  0.227195  0.602500  1
  Ni  Ni30  1  0.689372  0.310628  0.067098  1
  Ni  Ni31  1  0.227195  0.772805  0.397500  1
  Ni  Ni32  1  0.310628  0.689372  0.932902  1
