# generated using pymatgen
data_La3Ni2O7
_symmetry_space_group_name_H-M   'P 1'
_cell_length_a   10.53621703
_cell_length_b   10.53621703
_cell_length_c   5.45708770
_cell_angle_alpha   90.00000000
_cell_angle_beta   90.00000000
_cell_angle_gamma   149.14156834
_symmetry_Int_Tables_number   1
_chemical_formula_structural   La3Ni2O7
_chemical_formula_sum   'La6 Ni4 O14'
_cell_volume   310.72685278
_cell_formula_units_Z   2
loop_
 _symmetry_equiv_pos_site_id
 _symmetry_equiv_pos_as_xyz
  1  'x, y, z'
loop_
 _atom_site_type_symbol
 _atom_site_label
 _atom_site_symmetry_multiplicity
 _atom_site_fract_x
 _atom_site_fract_y
 _atom_site_fract_z
 _atom_site_occupancy
  La  La0  1  0.583429  0.944013  0.250000  1
  La  La1  1  0.416571  0.055987  0.750000  1
  La  La2  1  0.944013  0.583429  0.250000  1
  La  La3  1  0.055987  0.416571  0.750000  1
  La  La4  1  0.750626  0.750626  0.250000  1
  La  La5  1  0.249374  0.249374  0.750000  1
  Ni  Ni6  1  0.350408  0.155508  0.250000  1
  Ni  Ni7  1  0.649592  0.844492  0.750000  1
  Ni  Ni8  1  0.155508  0.350408  0.250000  1
  Ni  Ni9  1  0.844492  0.649592  0.750000  1
  O  O10  1  0.085382  0.914618  0.000000  1
  O  O11  1  0.914618  0.085382  0.500000  1
  O  O12  1  0.914618  0.085382  1.000000  1
  O  O13  1  0.085382  0.914618  0.500000  1
  O  O14  1  0.611730  0.388270  0.500000  1
  O  O15  1  0.388270  0.611730  1.000000  1
  O  O16  1  0.388270  0.611730  0.500000  1
  O  O17  1  0.611730  0.388270  1.000000  1
  O  O18  1  0.397023  0.987346  0.250000  1
  O  O19  1  0.602977  0.012654  0.750000  1
  O  O20  1  0.673615  0.673615  0.750000  1
  O  O21  1  0.326385  0.326385  0.250000  1
  O  O22  1  0.012654  0.602977  0.750000  1
  O  O23  1  0.987346  0.397023  0.250000  1
