# generated using pymatgen
data_K5SnAs3
_symmetry_space_group_name_H-M   'P 1'
_cell_length_a   9.37264524
_cell_length_b   8.46265199
_cell_length_c   17.96927665
_cell_angle_alpha   90.00000000
_cell_angle_beta   121.06174301
_cell_angle_gamma   90.00000000
_symmetry_Int_Tables_number   1
_chemical_formula_structural   K5SnAs3
_chemical_formula_sum   'K20 Sn4 As12'
_cell_volume   1220.90902024
_cell_formula_units_Z   4
loop_
 _symmetry_equiv_pos_site_id
 _symmetry_equiv_pos_as_xyz
  1  'x, y, z'
loop_
 _atom_site_type_symbol
 _atom_site_label
 _atom_site_symmetry_multiplicity
 _atom_site_fract_x
 _atom_site_fract_y
 _atom_site_fract_z
 _atom_site_occupancy
  K  K0  1  0.837085  0.160875  0.258814  1
  K  K1  1  0.162915  0.660875  0.241186  1
  K  K2  1  0.162915  0.839125  0.741186  1
  K  K3  1  0.837085  0.339125  0.758814  1
  K  K4  1  0.158574  0.170012  0.580263  1
  K  K5  1  0.841426  0.670012  0.919737  1
  K  K6  1  0.841426  0.829988  0.419737  1
  K  K7  1  0.158574  0.329988  0.080263  1
  K  K8  1  0.106044  0.007602  0.913606  1
  K  K9  1  0.893956  0.507602  0.586394  1
  K  K10  1  0.893956  0.992398  0.086394  1
  K  K11  1  0.106044  0.492398  0.413606  1
  K  K12  1  0.266374  0.519371  0.923711  1
  K  K13  1  0.733626  0.019371  0.576289  1
  K  K14  1  0.733626  0.480629  0.076289  1
  K  K15  1  0.266374  0.980629  0.423711  1
  K  K16  1  0.553568  0.985361  0.744324  1
  K  K17  1  0.446432  0.485361  0.755676  1
  K  K18  1  0.446432  0.014639  0.255676  1
  K  K19  1  0.553568  0.514639  0.244324  1
  Sn  Sn20  1  0.488170  0.359435  0.414485  1
  Sn  Sn21  1  0.511830  0.859435  0.085515  1
  Sn  Sn22  1  0.511830  0.640565  0.585515  1
  Sn  Sn23  1  0.488170  0.140565  0.914485  1
  As  As24  1  0.484722  0.315750  0.565350  1
  As  As25  1  0.515278  0.815750  0.934650  1
  As  As26  1  0.515278  0.684250  0.434650  1
  As  As27  1  0.484722  0.184250  0.065350  1
  As  As28  1  0.198552  0.227551  0.776210  1
  As  As29  1  0.801448  0.727551  0.723790  1
  As  As30  1  0.801448  0.772449  0.223790  1
  As  As31  1  0.198552  0.272449  0.276210  1
  As  As32  1  0.759127  0.259588  0.920209  1
  As  As33  1  0.240873  0.759588  0.579791  1
  As  As34  1  0.240873  0.740412  0.079791  1
  As  As35  1  0.759127  0.240412  0.420209  1
