# generated using pymatgen
data_Ca2B2O5
_symmetry_space_group_name_H-M   'P 1'
_cell_length_a   3.59287797
_cell_length_b   6.40409452
_cell_length_c   19.42896969
_cell_angle_alpha   90.00000000
_cell_angle_beta   92.49342840
_cell_angle_gamma   90.00000000
_symmetry_Int_Tables_number   1
_chemical_formula_structural   Ca2B2O5
_chemical_formula_sum   'Ca8 B8 O20'
_cell_volume   446.62043892
_cell_formula_units_Z   4
loop_
 _symmetry_equiv_pos_site_id
 _symmetry_equiv_pos_as_xyz
  1  'x, y, z'
loop_
 _atom_site_type_symbol
 _atom_site_label
 _atom_site_symmetry_multiplicity
 _atom_site_fract_x
 _atom_site_fract_y
 _atom_site_fract_z
 _atom_site_occupancy
  Ca  Ca0  1  0.712421  0.449793  0.290093  1
  Ca  Ca1  1  0.287579  0.949793  0.209907  1
  Ca  Ca2  1  0.287579  0.550207  0.709907  1
  Ca  Ca3  1  0.712421  0.050207  0.790093  1
  Ca  Ca4  1  0.246812  0.694952  0.438348  1
  Ca  Ca5  1  0.753188  0.194952  0.061652  1
  Ca  Ca6  1  0.753188  0.305048  0.561652  1
  Ca  Ca7  1  0.246812  0.805048  0.938348  1
  B  B8  1  0.836607  0.967051  0.343131  1
  B  B9  1  0.163393  0.467051  0.156869  1
  B  B10  1  0.163393  0.032949  0.656869  1
  B  B11  1  0.836607  0.532949  0.843131  1
  B  B12  1  0.823072  0.752437  0.082494  1
  B  B13  1  0.176928  0.252437  0.417506  1
  B  B14  1  0.176928  0.247563  0.917506  1
  B  B15  1  0.823072  0.747563  0.582494  1
  O  O16  1  0.243525  0.306039  0.484958  1
  O  O17  1  0.756475  0.806039  0.015042  1
  O  O18  1  0.756475  0.693961  0.515042  1
  O  O19  1  0.243525  0.193961  0.984958  1
  O  O20  1  0.232407  0.392495  0.365693  1
  O  O21  1  0.767593  0.892495  0.134307  1
  O  O22  1  0.767593  0.607505  0.634307  1
  O  O23  1  0.232407  0.107505  0.865693  1
  O  O24  1  0.714044  0.766783  0.352353  1
  O  O25  1  0.285956  0.266783  0.147647  1
  O  O26  1  0.285956  0.233217  0.647647  1
  O  O27  1  0.714044  0.733217  0.852353  1
  O  O28  1  0.031820  0.049924  0.403137  1
  O  O29  1  0.968180  0.549924  0.096863  1
  O  O30  1  0.968180  0.950076  0.596863  1
  O  O31  1  0.031820  0.450076  0.903137  1
  O  O32  1  0.795679  0.075582  0.282650  1
  O  O33  1  0.204321  0.575582  0.217350  1
  O  O34  1  0.204321  0.924418  0.717350  1
  O  O35  1  0.795679  0.424418  0.782650  1
