# generated using pymatgen
data_Na2US3
_symmetry_space_group_name_H-M   'P 1'
_cell_length_a   6.99484501
_cell_length_b   6.99484501
_cell_length_c   7.02904469
_cell_angle_alpha   80.34943608
_cell_angle_beta   99.65056392
_cell_angle_gamma   60.04389035
_symmetry_Int_Tables_number   1
_chemical_formula_structural   Na2US3
_chemical_formula_sum   'Na4 U2 S6'
_cell_volume   280.74847596
_cell_formula_units_Z   2
loop_
 _symmetry_equiv_pos_site_id
 _symmetry_equiv_pos_as_xyz
  1  'x, y, z'
loop_
 _atom_site_type_symbol
 _atom_site_label
 _atom_site_symmetry_multiplicity
 _atom_site_fract_x
 _atom_site_fract_y
 _atom_site_fract_z
 _atom_site_occupancy
  Na  Na0  1  0.000000  0.000000  0.000000  1
  Na  Na1  1  0.500000  0.500000  0.500000  1
  Na  Na2  1  0.839599  0.839599  0.500000  1
  Na  Na3  1  0.160401  0.160401  0.500000  1
  U  U4  1  0.667114  0.667114  0.000000  1
  U  U5  1  0.332886  0.332886  0.000000  1
  S  S6  1  0.279630  0.720370  0.771221  1
  S  S7  1  0.432901  0.923752  0.226190  1
  S  S8  1  0.076248  0.567099  0.226190  1
  S  S9  1  0.720370  0.279630  0.228779  1
  S  S10  1  0.567099  0.076248  0.773810  1
  S  S11  1  0.923752  0.432901  0.773810  1
