# generated using pymatgen
data_Zr5Re24
_symmetry_space_group_name_H-M   'P 1'
_cell_length_a   8.49382206
_cell_length_b   8.49382206
_cell_length_c   8.49382206
_cell_angle_alpha   109.47122063
_cell_angle_beta   109.47122063
_cell_angle_gamma   109.47122063
_symmetry_Int_Tables_number   1
_chemical_formula_structural   Zr5Re24
_chemical_formula_sum   'Zr5 Re24'
_cell_volume   471.72357824
_cell_formula_units_Z   1
loop_
 _symmetry_equiv_pos_site_id
 _symmetry_equiv_pos_as_xyz
  1  'x, y, z'
loop_
 _atom_site_type_symbol
 _atom_site_label
 _atom_site_symmetry_multiplicity
 _atom_site_fract_x
 _atom_site_fract_y
 _atom_site_fract_z
 _atom_site_occupancy
  Zr  Zr0  1  0.000000  0.000000  0.000000  1
  Zr  Zr1  1  0.629515  0.000000  1.000000  1
  Zr  Zr2  1  0.000000  0.629515  0.000000  1
  Zr  Zr3  1  0.000000  0.000000  0.629515  1
  Zr  Zr4  1  0.370485  0.370485  0.370485  1
  Re  Re5  1  0.395602  0.677102  0.000000  1
  Re  Re6  1  0.718500  0.322898  0.322898  1
  Re  Re7  1  0.395602  0.000000  0.677102  1
  Re  Re8  1  0.677102  0.395602  0.000000  1
  Re  Re9  1  0.000000  0.395602  0.677102  1
  Re  Re10  1  0.322898  0.718500  0.322898  1
  Re  Re11  1  0.322898  0.322898  0.718500  1
  Re  Re12  1  0.000000  0.677102  0.395602  1
  Re  Re13  1  0.677102  0.000000  0.395602  1
  Re  Re14  1  0.604398  0.604398  0.281500  1
  Re  Re15  1  0.281500  0.604398  0.604398  1
  Re  Re16  1  0.604398  0.281500  0.604398  1
  Re  Re17  1  0.376691  0.194528  0.000000  1
  Re  Re18  1  0.182163  0.805472  0.805472  1
  Re  Re19  1  0.376691  0.000000  0.194528  1
  Re  Re20  1  0.194528  0.376691  0.000000  1
  Re  Re21  1  0.000000  0.376691  0.194528  1
  Re  Re22  1  0.805472  0.182163  0.805472  1
  Re  Re23  1  0.805472  0.805472  0.182163  1
  Re  Re24  1  0.000000  0.194528  0.376691  1
  Re  Re25  1  0.194528  0.000000  0.376691  1
  Re  Re26  1  0.623309  0.623309  0.817837  1
  Re  Re27  1  0.817837  0.623309  0.623309  1
  Re  Re28  1  0.623309  0.817837  0.623309  1
