# generated using pymatgen
data_KAlP2O7
_symmetry_space_group_name_H-M   'P 1'
_cell_length_a   7.45339839
_cell_length_b   9.78207664
_cell_length_c   8.16213483
_cell_angle_alpha   90.00000000
_cell_angle_beta   107.11053963
_cell_angle_gamma   90.00000000
_symmetry_Int_Tables_number   1
_chemical_formula_structural   KAlP2O7
_chemical_formula_sum   'K4 Al4 P8 O28'
_cell_volume   568.75919132
_cell_formula_units_Z   4
loop_
 _symmetry_equiv_pos_site_id
 _symmetry_equiv_pos_as_xyz
  1  'x, y, z'
loop_
 _atom_site_type_symbol
 _atom_site_label
 _atom_site_symmetry_multiplicity
 _atom_site_fract_x
 _atom_site_fract_y
 _atom_site_fract_z
 _atom_site_occupancy
  K  K0  1  0.180916  0.817951  0.558173  1
  K  K1  1  0.819084  0.317951  0.941827  1
  K  K2  1  0.819084  0.182049  0.441827  1
  K  K3  1  0.180916  0.682049  0.058173  1
  Al  Al4  1  0.238526  0.100424  0.259367  1
  Al  Al5  1  0.761474  0.600424  0.240633  1
  Al  Al6  1  0.761474  0.899576  0.740633  1
  Al  Al7  1  0.238526  0.399576  0.759367  1
  P  P8  1  0.126426  0.403013  0.331352  1
  P  P9  1  0.873574  0.903013  0.168648  1
  P  P10  1  0.873574  0.596987  0.668648  1
  P  P11  1  0.126426  0.096987  0.831352  1
  P  P12  1  0.434174  0.130783  0.688333  1
  P  P13  1  0.565826  0.630783  0.811667  1
  P  P14  1  0.565826  0.869217  0.311667  1
  P  P15  1  0.434174  0.369217  0.188333  1
  O  O16  1  0.442828  0.280850  0.745713  1
  O  O17  1  0.557172  0.780850  0.754287  1
  O  O18  1  0.557172  0.719150  0.254287  1
  O  O19  1  0.442828  0.219150  0.245713  1
  O  O20  1  0.977680  0.999110  0.724446  1
  O  O21  1  0.022320  0.499110  0.775554  1
  O  O22  1  0.022320  0.000890  0.275554  1
  O  O23  1  0.977680  0.500890  0.224446  1
  O  O24  1  0.322599  0.104237  0.503055  1
  O  O25  1  0.677401  0.604237  0.996945  1
  O  O26  1  0.677401  0.895763  0.496945  1
  O  O27  1  0.322599  0.395763  0.003055  1
  O  O28  1  0.150170  0.091951  0.020430  1
  O  O29  1  0.849830  0.591951  0.479570  1
  O  O30  1  0.849830  0.908049  0.979570  1
  O  O31  1  0.150170  0.408049  0.520430  1
  O  O32  1  0.323215  0.046747  0.802687  1
  O  O33  1  0.676785  0.546747  0.697313  1
  O  O34  1  0.676785  0.953253  0.197313  1
  O  O35  1  0.323215  0.453253  0.302687  1
  O  O36  1  0.085524  0.259049  0.254760  1
  O  O37  1  0.914476  0.759049  0.245240  1
  O  O38  1  0.914476  0.740951  0.745240  1
  O  O39  1  0.085524  0.240951  0.754760  1
  O  O40  1  0.631228  0.430582  0.238709  1
  O  O41  1  0.368772  0.930582  0.261291  1
  O  O42  1  0.368772  0.569418  0.761291  1
  O  O43  1  0.631228  0.069418  0.738709  1
