# generated using pymatgen
data_CoSO4
_symmetry_space_group_name_H-M   'P 1'
_cell_length_a   4.79735012
_cell_length_b   4.79735012
_cell_length_c   6.58760507
_cell_angle_alpha   90.00000000
_cell_angle_beta   90.00000000
_cell_angle_gamma   113.84874252
_symmetry_Int_Tables_number   1
_chemical_formula_structural   CoSO4
_chemical_formula_sum   'Co2 S2 O8'
_cell_volume   138.66574727
_cell_formula_units_Z   2
loop_
 _symmetry_equiv_pos_site_id
 _symmetry_equiv_pos_as_xyz
  1  'x, y, z'
loop_
 _atom_site_type_symbol
 _atom_site_label
 _atom_site_symmetry_multiplicity
 _atom_site_fract_x
 _atom_site_fract_y
 _atom_site_fract_z
 _atom_site_occupancy
  Co  Co0  1  0.000000  0.000000  0.500000  1
  Co  Co1  1  0.000000  0.000000  0.000000  1
  S  S2  1  0.650889  0.349111  0.250000  1
  S  S3  1  0.349111  0.650889  0.750000  1
  O  O4  1  0.305166  0.226553  0.250000  1
  O  O5  1  0.249559  0.750441  0.936350  1
  O  O6  1  0.773447  0.694834  0.250000  1
  O  O7  1  0.750441  0.249559  0.063650  1
  O  O8  1  0.694834  0.773447  0.750000  1
  O  O9  1  0.226553  0.305166  0.750000  1
  O  O10  1  0.249559  0.750441  0.563650  1
  O  O11  1  0.750441  0.249559  0.436350  1
