# generated using pymatgen
data_LiAl(MoO4)2
_symmetry_space_group_name_H-M   'P 1'
_cell_length_a   6.72594906
_cell_length_b   7.13332693
_cell_length_c   7.36219545
_cell_angle_alpha   90.98247518
_cell_angle_beta   110.85626970
_cell_angle_gamma   105.00336430
_symmetry_Int_Tables_number   1
_chemical_formula_structural   LiAl(MoO4)2
_chemical_formula_sum   'Li2 Al2 Mo4 O16'
_cell_volume   316.48268329
_cell_formula_units_Z   2
loop_
 _symmetry_equiv_pos_site_id
 _symmetry_equiv_pos_as_xyz
  1  'x, y, z'
loop_
 _atom_site_type_symbol
 _atom_site_label
 _atom_site_symmetry_multiplicity
 _atom_site_fract_x
 _atom_site_fract_y
 _atom_site_fract_z
 _atom_site_occupancy
  Li  Li0  1  0.734804  0.554556  0.252169  1
  Li  Li1  1  0.265196  0.445444  0.747831  1
  Al  Al2  1  0.088619  0.900421  0.175710  1
  Al  Al3  1  0.911381  0.099579  0.824290  1
  Mo  Mo4  1  0.835738  0.578681  0.793162  1
  Mo  Mo5  1  0.164262  0.421319  0.206838  1
  Mo  Mo6  1  0.323310  0.969299  0.710799  1
  Mo  Mo7  1  0.676690  0.030701  0.289201  1
  O  O8  1  0.812368  0.867950  0.219457  1
  O  O9  1  0.187632  0.132050  0.780543  1
  O  O10  1  0.925862  0.848851  0.892671  1
  O  O11  1  0.074138  0.151149  0.107329  1
  O  O12  1  0.589048  0.486784  0.830799  1
  O  O13  1  0.410952  0.513216  0.169201  1
  O  O14  1  0.242770  0.421290  0.458772  1
  O  O15  1  0.757230  0.578710  0.541228  1
  O  O16  1  0.758373  0.040727  0.550516  1
  O  O17  1  0.241627  0.959273  0.449484  1
  O  O18  1  0.773998  0.271467  0.239303  1
  O  O19  1  0.226002  0.728533  0.760697  1
  O  O20  1  0.021409  0.624250  0.151129  1
  O  O21  1  0.978591  0.375750  0.848871  1
  O  O22  1  0.378332  0.943237  0.164672  1
  O  O23  1  0.621668  0.056763  0.835328  1
