# generated using pymatgen
data_Na2Sm2Ti3O10
_symmetry_space_group_name_H-M   'P 1'
_cell_length_a   14.60320831
_cell_length_b   14.60320831
_cell_length_c   14.60320831
_cell_angle_alpha   164.90286685
_cell_angle_beta   164.90286685
_cell_angle_gamma   21.41326294
_symmetry_Int_Tables_number   1
_chemical_formula_structural   Na2Sm2Ti3O10
_chemical_formula_sum   'Na2 Sm2 Ti3 O10'
_cell_volume   211.22594939
_cell_formula_units_Z   1
loop_
 _symmetry_equiv_pos_site_id
 _symmetry_equiv_pos_as_xyz
  1  'x, y, z'
loop_
 _atom_site_type_symbol
 _atom_site_label
 _atom_site_symmetry_multiplicity
 _atom_site_fract_x
 _atom_site_fract_y
 _atom_site_fract_z
 _atom_site_occupancy
  Na  Na0  1  0.712166  0.712166  0.000000  1
  Na  Na1  1  0.287834  0.287834  0.000000  1
  Sm  Sm2  1  0.575383  0.575383  0.000000  1
  Sm  Sm3  1  0.424617  0.424617  0.000000  1
  Ti  Ti4  1  0.853976  0.853976  0.000000  1
  Ti  Ti5  1  0.146024  0.146024  0.000000  1
  Ti  Ti6  1  0.000000  0.000000  0.000000  1
  O  O7  1  0.369233  0.869233  0.500000  1
  O  O8  1  0.869233  0.369233  0.500000  1
  O  O9  1  0.630767  0.130767  0.500000  1
  O  O10  1  0.130767  0.630767  0.500000  1
  O  O11  1  0.792442  0.792442  0.000000  1
  O  O12  1  0.207558  0.207558  0.000000  1
  O  O13  1  0.500000  0.000000  0.500000  1
  O  O14  1  0.067377  0.067377  0.000000  1
  O  O15  1  0.932623  0.932623  0.000000  1
  O  O16  1  1.000000  0.500000  0.500000  1
