# generated using pymatgen
data_K2Ca3Si3O10
_symmetry_space_group_name_H-M   'P 1'
_cell_length_a   5.72403903
_cell_length_b   7.48650881
_cell_length_c   12.06384100
_cell_angle_alpha   85.42372655
_cell_angle_beta   80.47258032
_cell_angle_gamma   88.32354303
_symmetry_Int_Tables_number   1
_chemical_formula_structural   K2Ca3Si3O10
_chemical_formula_sum   'K4 Ca6 Si6 O20'
_cell_volume   508.14863998
_cell_formula_units_Z   2
loop_
 _symmetry_equiv_pos_site_id
 _symmetry_equiv_pos_as_xyz
  1  'x, y, z'
loop_
 _atom_site_type_symbol
 _atom_site_label
 _atom_site_symmetry_multiplicity
 _atom_site_fract_x
 _atom_site_fract_y
 _atom_site_fract_z
 _atom_site_occupancy
  K  K0  1  0.720689  0.960207  0.625765  1
  K  K1  1  0.279311  0.039793  0.374235  1
  K  K2  1  0.167326  0.938669  0.848496  1
  K  K3  1  0.832674  0.061331  0.151504  1
  Ca  Ca4  1  0.206777  0.244406  0.623053  1
  Ca  Ca5  1  0.793223  0.755594  0.376947  1
  Ca  Ca6  1  0.169032  0.470119  0.860214  1
  Ca  Ca7  1  0.830968  0.529881  0.139786  1
  Ca  Ca8  1  0.728057  0.495796  0.660221  1
  Ca  Ca9  1  0.271943  0.504204  0.339779  1
  Si  Si10  1  0.249067  0.728762  0.578315  1
  Si  Si11  1  0.750933  0.271238  0.421685  1
  Si  Si12  1  0.658032  0.185310  0.849990  1
  Si  Si13  1  0.341968  0.814690  0.150010  1
  Si  Si14  1  0.363733  0.254735  0.089266  1
  Si  Si15  1  0.636267  0.745265  0.910734  1
  O  O16  1  0.211603  0.932702  0.622734  1
  O  O17  1  0.788397  0.067298  0.377266  1
  O  O18  1  0.462681  0.311228  0.458399  1
  O  O19  1  0.537319  0.688772  0.541601  1
  O  O20  1  0.128613  0.569977  0.673644  1
  O  O21  1  0.871387  0.430023  0.326356  1
  O  O22  1  0.883990  0.284531  0.533269  1
  O  O23  1  0.116010  0.715469  0.466731  1
  O  O24  1  0.917017  0.261534  0.795762  1
  O  O25  1  0.082983  0.738466  0.204238  1
  O  O26  1  0.461523  0.250100  0.770109  1
  O  O27  1  0.538477  0.749900  0.229891  1
  O  O28  1  0.580555  0.249215  0.978903  1
  O  O29  1  0.419445  0.750785  0.021097  1
  O  O30  1  0.323359  0.038219  0.137533  1
  O  O31  1  0.676641  0.961781  0.862467  1
  O  O32  1  0.530989  0.645716  0.816355  1
  O  O33  1  0.469011  0.354284  0.183645  1
  O  O34  1  0.121947  0.333397  0.049809  1
  O  O35  1  0.878053  0.666603  0.950191  1
