# generated using pymatgen
data_Ag3O4
_symmetry_space_group_name_H-M   'P 1'
_cell_length_a   3.77201104
_cell_length_b   9.34798779
_cell_length_c   5.74571169
_cell_angle_alpha   90.00000000
_cell_angle_beta   104.22882121
_cell_angle_gamma   90.00000000
_symmetry_Int_Tables_number   1
_chemical_formula_structural   Ag3O4
_chemical_formula_sum   'Ag6 O8'
_cell_volume   196.38255949
_cell_formula_units_Z   2
loop_
 _symmetry_equiv_pos_site_id
 _symmetry_equiv_pos_as_xyz
  1  'x, y, z'
loop_
 _atom_site_type_symbol
 _atom_site_label
 _atom_site_symmetry_multiplicity
 _atom_site_fract_x
 _atom_site_fract_y
 _atom_site_fract_z
 _atom_site_occupancy
  Ag  Ag0  1  0.706139  0.858276  0.448957  1
  Ag  Ag1  1  0.293861  0.358276  0.051043  1
  Ag  Ag2  1  0.293861  0.141724  0.551043  1
  Ag  Ag3  1  0.706139  0.641724  0.948957  1
  Ag  Ag4  1  0.000000  0.500000  0.500000  1
  Ag  Ag5  1  0.000000  0.000000  0.000000  1
  O  O6  1  0.947324  0.692046  0.668969  1
  O  O7  1  0.052676  0.192046  0.831031  1
  O  O8  1  0.052676  0.307954  0.331031  1
  O  O9  1  0.947324  0.807954  0.168969  1
  O  O10  1  0.532227  0.956931  0.728860  1
  O  O11  1  0.467773  0.456931  0.771140  1
  O  O12  1  0.532227  0.543069  0.228860  1
  O  O13  1  0.467773  0.043069  0.271140  1
