# generated using pymatgen
data_CaMg2Ni9
_symmetry_space_group_name_H-M   'P 1'
_cell_length_a   8.33616414
_cell_length_b   8.33616414
_cell_length_c   8.33616414
_cell_angle_alpha   33.83863179
_cell_angle_beta   33.83863179
_cell_angle_gamma   33.83863179
_symmetry_Int_Tables_number   1
_chemical_formula_structural   CaMg2Ni9
_chemical_formula_sum   'Ca1 Mg2 Ni9'
_cell_volume   160.07697093
_cell_formula_units_Z   1
loop_
 _symmetry_equiv_pos_site_id
 _symmetry_equiv_pos_as_xyz
  1  'x, y, z'
loop_
 _atom_site_type_symbol
 _atom_site_label
 _atom_site_symmetry_multiplicity
 _atom_site_fract_x
 _atom_site_fract_y
 _atom_site_fract_z
 _atom_site_occupancy
  Ca  Ca0  1  0.000000  0.000000  0.000000  1
  Mg  Mg1  1  0.143307  0.143307  0.143307  1
  Mg  Mg2  1  0.856693  0.856693  0.856693  1
  Ni  Ni3  1  0.918024  0.414030  0.414030  1
  Ni  Ni4  1  0.414030  0.918024  0.414030  1
  Ni  Ni5  1  0.414030  0.414030  0.918024  1
  Ni  Ni6  1  0.585970  0.585970  0.081976  1
  Ni  Ni7  1  0.081976  0.585970  0.585970  1
  Ni  Ni8  1  0.585970  0.081976  0.585970  1
  Ni  Ni9  1  0.500000  0.500000  0.500000  1
  Ni  Ni10  1  0.333448  0.333448  0.333448  1
  Ni  Ni11  1  0.666552  0.666552  0.666552  1
