# generated using pymatgen
data_CsAlO2
_symmetry_space_group_name_H-M   'P 1'
_cell_length_a   5.80309718
_cell_length_b   5.80309718
_cell_length_c   5.80309718
_cell_angle_alpha   60.00000000
_cell_angle_beta   60.00000000
_cell_angle_gamma   60.00000000
_symmetry_Int_Tables_number   1
_chemical_formula_structural   CsAlO2
_chemical_formula_sum   'Cs2 Al2 O4'
_cell_volume   138.18615502
_cell_formula_units_Z   2
loop_
 _symmetry_equiv_pos_site_id
 _symmetry_equiv_pos_as_xyz
  1  'x, y, z'
loop_
 _atom_site_type_symbol
 _atom_site_label
 _atom_site_symmetry_multiplicity
 _atom_site_fract_x
 _atom_site_fract_y
 _atom_site_fract_z
 _atom_site_occupancy
  Cs  Cs0  1  0.000000  0.000000  1.000000  1
  Cs  Cs1  1  0.250000  0.250000  0.250000  1
  Al  Al2  1  0.750000  0.750000  0.750000  1
  Al  Al3  1  0.500000  0.500000  0.500000  1
  O  O4  1  0.125000  0.625000  0.625000  1
  O  O5  1  0.625000  0.625000  0.125000  1
  O  O6  1  0.625000  0.125000  0.625000  1
  O  O7  1  0.625000  0.625000  0.625000  1
