# generated using pymatgen
data_YbMgPd
_symmetry_space_group_name_H-M   'P 1'
_cell_length_a   4.18773830
_cell_length_b   7.38986785
_cell_length_c   8.56904882
_cell_angle_alpha   90.00000000
_cell_angle_beta   90.00000000
_cell_angle_gamma   90.00000000
_symmetry_Int_Tables_number   1
_chemical_formula_structural   YbMgPd
_chemical_formula_sum   'Yb4 Mg4 Pd4'
_cell_volume   265.18491961
_cell_formula_units_Z   4
loop_
 _symmetry_equiv_pos_site_id
 _symmetry_equiv_pos_as_xyz
  1  'x, y, z'
loop_
 _atom_site_type_symbol
 _atom_site_label
 _atom_site_symmetry_multiplicity
 _atom_site_fract_x
 _atom_site_fract_y
 _atom_site_fract_z
 _atom_site_occupancy
  Yb  Yb0  1  0.250000  0.532971  0.174818  1
  Yb  Yb1  1  0.750000  0.467029  0.825182  1
  Yb  Yb2  1  0.250000  0.032971  0.325182  1
  Yb  Yb3  1  0.750000  0.967029  0.674818  1
  Mg  Mg4  1  0.250000  0.637213  0.560979  1
  Mg  Mg5  1  0.750000  0.362787  0.439021  1
  Mg  Mg6  1  0.250000  0.137213  0.939021  1
  Mg  Mg7  1  0.750000  0.862787  0.060979  1
  Pd  Pd8  1  0.750000  0.734791  0.370796  1
  Pd  Pd9  1  0.250000  0.265209  0.629204  1
  Pd  Pd10  1  0.750000  0.234791  0.129204  1
  Pd  Pd11  1  0.250000  0.765209  0.870796  1
