# generated using pymatgen
data_Zn3SiNi2
_symmetry_space_group_name_H-M   'P 1'
_cell_length_a   7.57050780
_cell_length_b   7.57050780
_cell_length_c   7.57050780
_cell_angle_alpha   60.00000000
_cell_angle_beta   60.00000000
_cell_angle_gamma   60.00000000
_symmetry_Int_Tables_number   1
_chemical_formula_structural   Zn3SiNi2
_chemical_formula_sum   'Zn12 Si4 Ni8'
_cell_volume   306.80330616
_cell_formula_units_Z   4
loop_
 _symmetry_equiv_pos_site_id
 _symmetry_equiv_pos_as_xyz
  1  'x, y, z'
loop_
 _atom_site_type_symbol
 _atom_site_label
 _atom_site_symmetry_multiplicity
 _atom_site_fract_x
 _atom_site_fract_y
 _atom_site_fract_z
 _atom_site_occupancy
  Zn  Zn0  1  0.812833  0.187167  0.187167  1
  Zn  Zn1  1  0.187167  0.812833  0.812833  1
  Zn  Zn2  1  0.187167  0.187167  0.812833  1
  Zn  Zn3  1  0.812833  0.812833  0.187167  1
  Zn  Zn4  1  0.812833  0.187167  0.812833  1
  Zn  Zn5  1  0.187167  0.812833  0.187167  1
  Zn  Zn6  1  0.437167  0.062833  0.062833  1
  Zn  Zn7  1  0.062833  0.437167  0.437167  1
  Zn  Zn8  1  0.062833  0.062833  0.437167  1
  Zn  Zn9  1  0.437167  0.437167  0.062833  1
  Zn  Zn10  1  0.437167  0.062833  0.437167  1
  Zn  Zn11  1  0.062833  0.437167  0.062833  1
  Si  Si12  1  0.625000  0.625000  0.625000  1
  Si  Si13  1  0.125000  0.625000  0.625000  1
  Si  Si14  1  0.625000  0.625000  0.125000  1
  Si  Si15  1  0.625000  0.125000  0.625000  1
  Ni  Ni16  1  0.414365  0.414365  0.414365  1
  Ni  Ni17  1  0.756905  0.414365  0.414365  1
  Ni  Ni18  1  0.414365  0.414365  0.756905  1
  Ni  Ni19  1  0.414365  0.756905  0.414365  1
  Ni  Ni20  1  0.835635  0.835635  0.835635  1
  Ni  Ni21  1  0.493095  0.835635  0.835635  1
  Ni  Ni22  1  0.835635  0.835635  0.493095  1
  Ni  Ni23  1  0.835635  0.493095  0.835635  1
