# generated using pymatgen
data_Sc4C3
_symmetry_space_group_name_H-M   'P 1'
_cell_length_a   6.25822846
_cell_length_b   6.25822846
_cell_length_c   6.25822846
_cell_angle_alpha   109.47122063
_cell_angle_beta   109.47122063
_cell_angle_gamma   109.47122063
_symmetry_Int_Tables_number   1
_chemical_formula_structural   Sc4C3
_chemical_formula_sum   'Sc8 C6'
_cell_volume   188.68281600
_cell_formula_units_Z   2
loop_
 _symmetry_equiv_pos_site_id
 _symmetry_equiv_pos_as_xyz
  1  'x, y, z'
loop_
 _atom_site_type_symbol
 _atom_site_label
 _atom_site_symmetry_multiplicity
 _atom_site_fract_x
 _atom_site_fract_y
 _atom_site_fract_z
 _atom_site_occupancy
  Sc  Sc0  1  0.401432  0.500000  0.000000  1
  Sc  Sc1  1  0.598568  0.598568  0.598568  1
  Sc  Sc2  1  0.500000  0.000000  0.401432  1
  Sc  Sc3  1  1.000000  0.401432  0.500000  1
  Sc  Sc4  1  0.500000  0.000000  0.901432  1
  Sc  Sc5  1  0.000000  0.901432  0.500000  1
  Sc  Sc6  1  0.901432  0.500000  0.000000  1
  Sc  Sc7  1  0.098568  0.098568  0.098568  1
  C  C8  1  0.750000  0.875000  0.125000  1
  C  C9  1  0.625000  0.375000  0.250000  1
  C  C10  1  0.875000  0.125000  0.750000  1
  C  C11  1  0.125000  0.750000  0.875000  1
  C  C12  1  0.375000  0.250000  0.625000  1
  C  C13  1  0.250000  0.625000  0.375000  1
