# generated using pymatgen
data_Ce3Zr5O16
_symmetry_space_group_name_H-M   'P 1'
_cell_length_a   7.49510166
_cell_length_b   7.49510166
_cell_length_c   5.35908111
_cell_angle_alpha   90.00000000
_cell_angle_beta   90.00000000
_cell_angle_gamma   90.52096480
_symmetry_Int_Tables_number   1
_chemical_formula_structural   Ce3Zr5O16
_chemical_formula_sum   'Ce3 Zr5 O16'
_cell_volume   301.04223745
_cell_formula_units_Z   1
loop_
 _symmetry_equiv_pos_site_id
 _symmetry_equiv_pos_as_xyz
  1  'x, y, z'
loop_
 _atom_site_type_symbol
 _atom_site_label
 _atom_site_symmetry_multiplicity
 _atom_site_fract_x
 _atom_site_fract_y
 _atom_site_fract_z
 _atom_site_occupancy
  Ce  Ce0  1  0.743108  0.256892  1.000000  1
  Ce  Ce1  1  0.000000  0.000000  0.500000  1
  Ce  Ce2  1  0.256892  0.743108  0.000000  1
  Zr  Zr3  1  0.000000  0.500000  0.499916  1
  Zr  Zr4  1  0.247179  0.247179  0.000000  1
  Zr  Zr5  1  0.500000  0.500000  0.500000  1
  Zr  Zr6  1  0.752821  0.752821  0.000000  1
  Zr  Zr7  1  0.500000  0.000000  0.500084  1
  O  O8  1  0.759717  0.481319  0.692007  1
  O  O9  1  0.019408  0.244277  0.777961  1
  O  O10  1  0.989029  0.270271  0.276484  1
  O  O11  1  0.724413  0.521418  0.209793  1
  O  O12  1  0.240283  0.518681  0.692007  1
  O  O13  1  0.478582  0.275587  0.790207  1
  O  O14  1  0.518681  0.240283  0.307993  1
  O  O15  1  0.275587  0.478582  0.209793  1
  O  O16  1  0.729729  0.010971  0.723516  1
  O  O17  1  0.980592  0.755723  0.777961  1
  O  O18  1  0.010971  0.729729  0.276484  1
  O  O19  1  0.755723  0.980592  0.222039  1
  O  O20  1  0.270271  0.989029  0.723516  1
  O  O21  1  0.521418  0.724413  0.790207  1
  O  O22  1  0.481319  0.759717  0.307993  1
  O  O23  1  0.244277  0.019408  0.222039  1
