# generated using pymatgen
data_Y3CuGeSe7
_symmetry_space_group_name_H-M   'P 1'
_cell_length_a   10.34170310
_cell_length_b   10.34170310
_cell_length_c   6.15214256
_cell_angle_alpha   90.00000000
_cell_angle_beta   90.00000000
_cell_angle_gamma   120.00000000
_symmetry_Int_Tables_number   1
_chemical_formula_structural   Y3CuGeSe7
_chemical_formula_sum   'Y6 Cu2 Ge2 Se14'
_cell_volume   569.82454588
_cell_formula_units_Z   2
loop_
 _symmetry_equiv_pos_site_id
 _symmetry_equiv_pos_as_xyz
  1  'x, y, z'
loop_
 _atom_site_type_symbol
 _atom_site_label
 _atom_site_symmetry_multiplicity
 _atom_site_fract_x
 _atom_site_fract_y
 _atom_site_fract_z
 _atom_site_occupancy
  Y  Y0  1  0.863285  0.643849  0.251267  1
  Y  Y1  1  0.219436  0.863285  0.751267  1
  Y  Y2  1  0.643849  0.780564  0.751267  1
  Y  Y3  1  0.356151  0.219436  0.251267  1
  Y  Y4  1  0.780564  0.136715  0.251267  1
  Y  Y5  1  0.136715  0.356151  0.751267  1
  Cu  Cu6  1  0.000000  0.000000  0.692269  1
  Cu  Cu7  1  0.000000  0.000000  0.192269  1
  Ge  Ge8  1  0.666667  0.333333  0.834219  1
  Ge  Ge9  1  0.333333  0.666667  0.334219  1
  Se  Se10  1  0.574610  0.481702  0.000551  1
  Se  Se11  1  0.481702  0.907092  0.500551  1
  Se  Se12  1  0.907092  0.425390  0.000551  1
  Se  Se13  1  0.092908  0.574610  0.500551  1
  Se  Se14  1  0.518298  0.092908  0.000551  1
  Se  Se15  1  0.425390  0.518298  0.500551  1
  Se  Se16  1  0.333333  0.666667  0.949043  1
  Se  Se17  1  0.666667  0.333333  0.449043  1
  Se  Se18  1  0.841183  0.103686  0.710005  1
  Se  Se19  1  0.737497  0.841183  0.210005  1
  Se  Se20  1  0.103686  0.262503  0.210005  1
  Se  Se21  1  0.896314  0.737497  0.710005  1
  Se  Se22  1  0.262503  0.158817  0.710005  1
  Se  Se23  1  0.158817  0.896314  0.210005  1
