# generated using pymatgen
data_Ba3CaRu2O9
_symmetry_space_group_name_H-M   'P 1'
_cell_length_a   5.90190639
_cell_length_b   5.90190639
_cell_length_c   7.28604080
_cell_angle_alpha   90.00000000
_cell_angle_beta   90.00000000
_cell_angle_gamma   120.00000000
_symmetry_Int_Tables_number   1
_chemical_formula_structural   Ba3CaRu2O9
_chemical_formula_sum   'Ba3 Ca1 Ru2 O9'
_cell_volume   219.78946093
_cell_formula_units_Z   1
loop_
 _symmetry_equiv_pos_site_id
 _symmetry_equiv_pos_as_xyz
  1  'x, y, z'
loop_
 _atom_site_type_symbol
 _atom_site_label
 _atom_site_symmetry_multiplicity
 _atom_site_fract_x
 _atom_site_fract_y
 _atom_site_fract_z
 _atom_site_occupancy
  Ba  Ba0  1  0.666667  0.333333  0.322961  1
  Ba  Ba1  1  0.333333  0.666667  0.677039  1
  Ba  Ba2  1  0.000000  0.000000  0.000000  1
  Ca  Ca3  1  0.000000  0.000000  0.500000  1
  Ru  Ru4  1  0.333333  0.666667  0.165812  1
  Ru  Ru5  1  0.666667  0.333333  0.834188  1
  O  O6  1  0.821608  0.178392  0.686458  1
  O  O7  1  0.821608  0.643215  0.686458  1
  O  O8  1  0.356785  0.178392  0.686458  1
  O  O9  1  0.643215  0.821608  0.313542  1
  O  O10  1  0.178392  0.356785  0.313542  1
  O  O11  1  0.178392  0.821608  0.313542  1
  O  O12  1  0.500000  0.000000  0.000000  1
  O  O13  1  0.000000  0.500000  0.000000  1
  O  O14  1  0.500000  0.500000  0.000000  1
