# generated using pymatgen
data_ScSnPd
_symmetry_space_group_name_H-M   'P 1'
_cell_length_a   7.54358956
_cell_length_b   7.54358956
_cell_length_c   7.24652904
_cell_angle_alpha   90.00000000
_cell_angle_beta   90.00000000
_cell_angle_gamma   120.00000000
_symmetry_Int_Tables_number   1
_chemical_formula_structural   ScSnPd
_chemical_formula_sum   'Sc6 Sn6 Pd6'
_cell_volume   357.12213559
_cell_formula_units_Z   6
loop_
 _symmetry_equiv_pos_site_id
 _symmetry_equiv_pos_as_xyz
  1  'x, y, z'
loop_
 _atom_site_type_symbol
 _atom_site_label
 _atom_site_symmetry_multiplicity
 _atom_site_fract_x
 _atom_site_fract_y
 _atom_site_fract_z
 _atom_site_occupancy
  Sc  Sc0  1  0.400882  0.014980  0.750000  1
  Sc  Sc1  1  0.614098  0.599118  0.750000  1
  Sc  Sc2  1  0.985020  0.385902  0.750000  1
  Sc  Sc3  1  0.385902  0.985020  0.250000  1
  Sc  Sc4  1  0.599118  0.614098  0.250000  1
  Sc  Sc5  1  0.014980  0.400882  0.250000  1
  Sn  Sn6  1  0.725122  0.000000  0.500000  1
  Sn  Sn7  1  0.274878  0.274878  0.000000  1
  Sn  Sn8  1  0.000000  0.725122  0.000000  1
  Sn  Sn9  1  0.000000  0.725122  0.500000  1
  Sn  Sn10  1  0.274878  0.274878  0.500000  1
  Sn  Sn11  1  0.725122  0.000000  0.000000  1
  Pd  Pd12  1  0.333333  0.666667  0.532206  1
  Pd  Pd13  1  0.333333  0.666667  0.967794  1
  Pd  Pd14  1  0.666667  0.333333  0.467794  1
  Pd  Pd15  1  0.666667  0.333333  0.032206  1
  Pd  Pd16  1  0.000000  0.000000  0.750000  1
  Pd  Pd17  1  0.000000  0.000000  0.250000  1
