# generated using pymatgen
data_Mg(Co3P2)2
_symmetry_space_group_name_H-M   'P 1'
_cell_length_a   6.57130672
_cell_length_b   6.57130672
_cell_length_c   3.35878157
_cell_angle_alpha   90.00000000
_cell_angle_beta   90.00000000
_cell_angle_gamma   120.00000000
_symmetry_Int_Tables_number   1
_chemical_formula_structural   Mg(Co3P2)2
_chemical_formula_sum   'Mg1 Co6 P4'
_cell_volume   125.60758645
_cell_formula_units_Z   1
loop_
 _symmetry_equiv_pos_site_id
 _symmetry_equiv_pos_as_xyz
  1  'x, y, z'
loop_
 _atom_site_type_symbol
 _atom_site_label
 _atom_site_symmetry_multiplicity
 _atom_site_fract_x
 _atom_site_fract_y
 _atom_site_fract_z
 _atom_site_occupancy
  Mg  Mg0  1  0.000000  0.000000  0.000000  1
  Co  Co1  1  0.198725  0.801275  0.500000  1
  Co  Co2  1  0.198725  0.397450  0.500000  1
  Co  Co3  1  0.534942  0.069885  0.000000  1
  Co  Co4  1  0.930115  0.465058  0.000000  1
  Co  Co5  1  0.534942  0.465058  0.000000  1
  Co  Co6  1  0.602550  0.801275  0.500000  1
  P  P7  1  0.812774  0.187226  0.500000  1
  P  P8  1  0.374451  0.187226  0.500000  1
  P  P9  1  0.333333  0.666667  0.000000  1
  P  P10  1  0.812774  0.625549  0.500000  1
