# generated using pymatgen
data_Cr2NiO4
_symmetry_space_group_name_H-M   'P 1'
_cell_length_a   6.04329078
_cell_length_b   6.04329078
_cell_length_c   6.04329078
_cell_angle_alpha   121.48054423
_cell_angle_beta   121.48054423
_cell_angle_gamma   87.45419780
_symmetry_Int_Tables_number   1
_chemical_formula_structural   Cr2NiO4
_chemical_formula_sum   'Cr4 Ni2 O8'
_cell_volume   152.40899761
_cell_formula_units_Z   2
loop_
 _symmetry_equiv_pos_site_id
 _symmetry_equiv_pos_as_xyz
  1  'x, y, z'
loop_
 _atom_site_type_symbol
 _atom_site_label
 _atom_site_symmetry_multiplicity
 _atom_site_fract_x
 _atom_site_fract_y
 _atom_site_fract_z
 _atom_site_occupancy
  Cr  Cr0  1  0.375000  0.125000  0.750000  1
  Cr  Cr1  1  0.375000  0.625000  0.750000  1
  Cr  Cr2  1  0.875000  0.625000  0.250000  1
  Cr  Cr3  1  0.375000  0.625000  0.250000  1
  Ni  Ni4  1  0.750000  0.250000  0.500000  1
  Ni  Ni5  1  0.000000  0.000000  0.000000  1
  O  O6  1  0.607614  0.842255  0.234641  1
  O  O7  1  0.122974  0.857614  0.265359  1
  O  O8  1  0.592255  0.857614  0.734641  1
  O  O9  1  0.607614  0.372974  0.765359  1
  O  O10  1  0.142386  0.407745  0.265359  1
  O  O11  1  0.627026  0.392386  0.234641  1
  O  O12  1  0.157745  0.392386  0.765359  1
  O  O13  1  0.142386  0.877026  0.734641  1
