# generated using pymatgen
data_BaAg(PO3)3
_symmetry_space_group_name_H-M   'P 1'
_cell_length_a   6.07215080
_cell_length_b   11.30994826
_cell_length_c   12.47107693
_cell_angle_alpha   90.00000000
_cell_angle_beta   90.00000000
_cell_angle_gamma   90.00000000
_symmetry_Int_Tables_number   1
_chemical_formula_structural   BaAg(PO3)3
_chemical_formula_sum   'Ba4 Ag4 P12 O36'
_cell_volume   856.46007978
_cell_formula_units_Z   4
loop_
 _symmetry_equiv_pos_site_id
 _symmetry_equiv_pos_as_xyz
  1  'x, y, z'
loop_
 _atom_site_type_symbol
 _atom_site_label
 _atom_site_symmetry_multiplicity
 _atom_site_fract_x
 _atom_site_fract_y
 _atom_site_fract_z
 _atom_site_occupancy
  Ba  Ba0  1  0.097612  0.108750  0.080768  1
  Ba  Ba1  1  0.597612  0.391250  0.919232  1
  Ba  Ba2  1  0.902388  0.608750  0.419232  1
  Ba  Ba3  1  0.402388  0.891250  0.580768  1
  Ag  Ag4  1  0.103113  0.483329  0.133580  1
  Ag  Ag5  1  0.603113  0.016671  0.866420  1
  Ag  Ag6  1  0.896887  0.983329  0.366420  1
  Ag  Ag7  1  0.396887  0.516671  0.633580  1
  P  P8  1  0.110475  0.847100  0.856291  1
  P  P9  1  0.610475  0.652900  0.143709  1
  P  P10  1  0.889525  0.347100  0.643709  1
  P  P11  1  0.389525  0.152900  0.356291  1
  P  P12  1  0.913490  0.707283  0.685646  1
  P  P13  1  0.413490  0.792717  0.314354  1
  P  P14  1  0.086510  0.207283  0.814354  1
  P  P15  1  0.586510  0.292717  0.185646  1
  P  P16  1  0.108666  0.587538  0.868306  1
  P  P17  1  0.608666  0.912462  0.131694  1
  P  P18  1  0.891334  0.087538  0.631694  1
  P  P19  1  0.391334  0.412462  0.368306  1
  O  O20  1  0.013579  0.935468  0.931694  1
  O  O21  1  0.513579  0.564532  0.068306  1
  O  O22  1  0.986421  0.435468  0.568306  1
  O  O23  1  0.486421  0.064532  0.431694  1
  O  O24  1  0.325935  0.870384  0.800823  1
  O  O25  1  0.825935  0.629616  0.199177  1
  O  O26  1  0.674065  0.370384  0.699177  1
  O  O27  1  0.174065  0.129616  0.300823  1
  O  O28  1  0.694184  0.704015  0.630284  1
  O  O29  1  0.194184  0.795985  0.369716  1
  O  O30  1  0.305816  0.204015  0.869716  1
  O  O31  1  0.805816  0.295985  0.130284  1
  O  O32  1  0.113325  0.703715  0.613118  1
  O  O33  1  0.613325  0.796285  0.386882  1
  O  O34  1  0.886675  0.203715  0.886882  1
  O  O35  1  0.386675  0.296285  0.113118  1
  O  O36  1  0.327269  0.552894  0.821143  1
  O  O37  1  0.827269  0.947106  0.178857  1
  O  O38  1  0.672731  0.052894  0.678857  1
  O  O39  1  0.172731  0.447106  0.321143  1
  O  O40  1  0.383737  0.280472  0.417517  1
  O  O41  1  0.883737  0.219528  0.582483  1
  O  O42  1  0.616263  0.780472  0.082483  1
  O  O43  1  0.116263  0.719528  0.917517  1
  O  O44  1  0.576844  0.178227  0.263360  1
  O  O45  1  0.076844  0.321773  0.736640  1
  O  O46  1  0.423156  0.678227  0.236640  1
  O  O47  1  0.923156  0.821773  0.763360  1
  O  O48  1  0.575028  0.398636  0.273252  1
  O  O49  1  0.075028  0.101364  0.726748  1
  O  O50  1  0.424972  0.898636  0.226748  1
  O  O51  1  0.924972  0.601364  0.773252  1
  O  O52  1  0.494850  0.494254  0.449177  1
  O  O53  1  0.994850  0.005746  0.550823  1
  O  O54  1  0.505150  0.994254  0.050823  1
  O  O55  1  0.005150  0.505746  0.949177  1
