# generated using pymatgen
data_YbZnPd
_symmetry_space_group_name_H-M   'P 1'
_cell_length_a   4.37309279
_cell_length_b   6.98836439
_cell_length_c   7.77784129
_cell_angle_alpha   90.00000000
_cell_angle_beta   90.00000000
_cell_angle_gamma   90.00000000
_symmetry_Int_Tables_number   1
_chemical_formula_structural   YbZnPd
_chemical_formula_sum   'Yb4 Zn4 Pd4'
_cell_volume   237.69678709
_cell_formula_units_Z   4
loop_
 _symmetry_equiv_pos_site_id
 _symmetry_equiv_pos_as_xyz
  1  'x, y, z'
loop_
 _atom_site_type_symbol
 _atom_site_label
 _atom_site_symmetry_multiplicity
 _atom_site_fract_x
 _atom_site_fract_y
 _atom_site_fract_z
 _atom_site_occupancy
  Yb  Yb0  1  0.250000  0.516350  0.192729  1
  Yb  Yb1  1  0.750000  0.483650  0.807271  1
  Yb  Yb2  1  0.250000  0.016350  0.307271  1
  Yb  Yb3  1  0.750000  0.983650  0.692729  1
  Zn  Zn4  1  0.250000  0.661945  0.573806  1
  Zn  Zn5  1  0.750000  0.338055  0.426194  1
  Zn  Zn6  1  0.250000  0.161945  0.926194  1
  Zn  Zn7  1  0.750000  0.838055  0.073806  1
  Pd  Pd8  1  0.750000  0.718232  0.392605  1
  Pd  Pd9  1  0.250000  0.281768  0.607395  1
  Pd  Pd10  1  0.750000  0.218232  0.107395  1
  Pd  Pd11  1  0.250000  0.781768  0.892605  1
