# generated using pymatgen
data_SiC
_symmetry_space_group_name_H-M   'P 1'
_cell_length_a   12.78008932
_cell_length_b   12.78008932
_cell_length_c   12.78008932
_cell_angle_alpha   13.90859335
_cell_angle_beta   13.90859335
_cell_angle_gamma   13.90859335
_symmetry_Int_Tables_number   1
_chemical_formula_structural   SiC
_chemical_formula_sum   'Si5 C5'
_cell_volume   104.96228130
_cell_formula_units_Z   5
loop_
 _symmetry_equiv_pos_site_id
 _symmetry_equiv_pos_as_xyz
  1  'x, y, z'
loop_
 _atom_site_type_symbol
 _atom_site_label
 _atom_site_symmetry_multiplicity
 _atom_site_fract_x
 _atom_site_fract_y
 _atom_site_fract_z
 _atom_site_occupancy
  Si  Si0  1  0.083342  0.083342  0.083342  1
  Si  Si1  1  0.349991  0.349991  0.349991  1
  Si  Si2  1  0.549955  0.549955  0.549955  1
  Si  Si3  1  0.816595  0.816595  0.816595  1
  Si  Si4  1  0.949958  0.949958  0.949958  1
  C  C5  1  0.133355  0.133355  0.133355  1
  C  C6  1  0.400148  0.400148  0.400148  1
  C  C7  1  0.600104  0.600104  0.600104  1
  C  C8  1  0.866599  0.866599  0.866599  1
  C  C9  1  0.999952  0.999952  0.999952  1
