# generated using pymatgen
data_NdF3
_symmetry_space_group_name_H-M   'P 1'
_cell_length_a   7.08501708
_cell_length_b   7.08501708
_cell_length_c   7.27732614
_cell_angle_alpha   90.00000000
_cell_angle_beta   90.00000000
_cell_angle_gamma   120.00000000
_symmetry_Int_Tables_number   1
_chemical_formula_structural   NdF3
_chemical_formula_sum   'Nd6 F18'
_cell_volume   316.36197170
_cell_formula_units_Z   6
loop_
 _symmetry_equiv_pos_site_id
 _symmetry_equiv_pos_as_xyz
  1  'x, y, z'
loop_
 _atom_site_type_symbol
 _atom_site_label
 _atom_site_symmetry_multiplicity
 _atom_site_fract_x
 _atom_site_fract_y
 _atom_site_fract_z
 _atom_site_occupancy
  Nd  Nd0  1  0.674660  0.000000  0.752076  1
  Nd  Nd1  1  0.674660  0.674660  0.252076  1
  Nd  Nd2  1  0.000000  0.325340  0.252076  1
  Nd  Nd3  1  0.000000  0.674660  0.752076  1
  Nd  Nd4  1  0.325340  0.325340  0.752076  1
  Nd  Nd5  1  0.325340  0.000000  0.252076  1
  F  F6  1  0.618471  0.000000  0.423568  1
  F  F7  1  0.618471  0.618471  0.923568  1
  F  F8  1  0.000000  0.381529  0.923568  1
  F  F9  1  0.000000  0.618471  0.423568  1
  F  F10  1  0.381529  0.381529  0.423568  1
  F  F11  1  0.381529  0.000000  0.923568  1
  F  F12  1  0.000000  0.000000  0.324271  1
  F  F13  1  0.000000  0.000000  0.824271  1
  F  F14  1  0.333333  0.666667  0.209016  1
  F  F15  1  0.666667  0.333333  0.709016  1
  F  F16  1  0.333333  0.666667  0.709016  1
  F  F17  1  0.666667  0.333333  0.209016  1
  F  F18  1  0.274698  0.000000  0.583589  1
  F  F19  1  0.274698  0.274698  0.083589  1
  F  F20  1  0.000000  0.725302  0.083589  1
  F  F21  1  0.000000  0.274698  0.583589  1
  F  F22  1  0.725302  0.725302  0.583589  1
  F  F23  1  0.725302  0.000000  0.083589  1
