# generated using pymatgen
data_Na2FeO4
_symmetry_space_group_name_H-M   'P 1'
_cell_length_a   5.52357465
_cell_length_b   5.52357465
_cell_length_c   7.22498090
_cell_angle_alpha   90.00000000
_cell_angle_beta   90.00000000
_cell_angle_gamma   115.56100432
_symmetry_Int_Tables_number   1
_chemical_formula_structural   Na2FeO4
_chemical_formula_sum   'Na4 Fe2 O8'
_cell_volume   198.85867874
_cell_formula_units_Z   2
loop_
 _symmetry_equiv_pos_site_id
 _symmetry_equiv_pos_as_xyz
  1  'x, y, z'
loop_
 _atom_site_type_symbol
 _atom_site_label
 _atom_site_symmetry_multiplicity
 _atom_site_fract_x
 _atom_site_fract_y
 _atom_site_fract_z
 _atom_site_occupancy
  Na  Na0  1  0.500000  0.500000  1.000000  1
  Na  Na1  1  0.500000  0.500000  0.500000  1
  Na  Na2  1  0.181456  0.818544  0.750000  1
  Na  Na3  1  0.818544  0.181456  0.250000  1
  Fe  Fe4  1  0.147119  0.852881  0.250000  1
  Fe  Fe5  1  0.852881  0.147119  0.750000  1
  O  O6  1  0.249834  0.750166  0.064113  1
  O  O7  1  0.750166  0.249834  0.564113  1
  O  O8  1  0.750166  0.249834  0.935887  1
  O  O9  1  0.249834  0.750166  0.435887  1
  O  O10  1  0.272695  0.188076  0.250000  1
  O  O11  1  0.727305  0.811924  0.750000  1
  O  O12  1  0.811924  0.727305  0.250000  1
  O  O13  1  0.188076  0.272695  0.750000  1
