# generated using pymatgen
data_ZnPbF6
_symmetry_space_group_name_H-M   'P 1'
_cell_length_a   5.73119920
_cell_length_b   5.73119920
_cell_length_c   5.73119920
_cell_angle_alpha   55.96133877
_cell_angle_beta   55.96133877
_cell_angle_gamma   55.96133877
_symmetry_Int_Tables_number   1
_chemical_formula_structural   ZnPbF6
_chemical_formula_sum   'Zn1 Pb1 F6'
_cell_volume   120.65654360
_cell_formula_units_Z   1
loop_
 _symmetry_equiv_pos_site_id
 _symmetry_equiv_pos_as_xyz
  1  'x, y, z'
loop_
 _atom_site_type_symbol
 _atom_site_label
 _atom_site_symmetry_multiplicity
 _atom_site_fract_x
 _atom_site_fract_y
 _atom_site_fract_z
 _atom_site_occupancy
  Zn  Zn0  1  0.000000  0.000000  0.000000  1
  Pb  Pb1  1  0.500000  0.500000  0.500000  1
  F  F2  1  0.882538  0.245084  0.626044  1
  F  F3  1  0.245084  0.626044  0.882538  1
  F  F4  1  0.373956  0.117462  0.754916  1
  F  F5  1  0.754916  0.373956  0.117462  1
  F  F6  1  0.117462  0.754916  0.373956  1
  F  F7  1  0.626044  0.882538  0.245084  1
