# generated using pymatgen
data_LaZnNi
_symmetry_space_group_name_H-M   'P 1'
_cell_length_a   7.26656109
_cell_length_b   7.26656109
_cell_length_c   3.94272323
_cell_angle_alpha   90.00000000
_cell_angle_beta   90.00000000
_cell_angle_gamma   120.00000000
_symmetry_Int_Tables_number   1
_chemical_formula_structural   LaZnNi
_chemical_formula_sum   'La3 Zn3 Ni3'
_cell_volume   180.29545594
_cell_formula_units_Z   3
loop_
 _symmetry_equiv_pos_site_id
 _symmetry_equiv_pos_as_xyz
  1  'x, y, z'
loop_
 _atom_site_type_symbol
 _atom_site_label
 _atom_site_symmetry_multiplicity
 _atom_site_fract_x
 _atom_site_fract_y
 _atom_site_fract_z
 _atom_site_occupancy
  La  La0  1  0.000000  0.583896  0.000000  1
  La  La1  1  0.416104  0.416104  0.000000  1
  La  La2  1  0.583896  0.000000  0.000000  1
  Zn  Zn3  1  0.228892  0.000000  0.500000  1
  Zn  Zn4  1  0.771108  0.771108  0.500000  1
  Zn  Zn5  1  0.000000  0.228892  0.500000  1
  Ni  Ni6  1  0.000000  0.000000  0.000000  1
  Ni  Ni7  1  0.666667  0.333333  0.500000  1
  Ni  Ni8  1  0.333333  0.666667  0.500000  1
