# generated using pymatgen
data_Mg3BeAl8O16
_symmetry_space_group_name_H-M   'P 1'
_cell_length_a   5.74035923
_cell_length_b   5.74035923
_cell_length_c   18.50777378
_cell_angle_alpha   90.00000000
_cell_angle_beta   90.00000000
_cell_angle_gamma   120.00000000
_symmetry_Int_Tables_number   1
_chemical_formula_structural   Mg3BeAl8O16
_chemical_formula_sum   'Mg6 Be2 Al16 O32'
_cell_volume   528.15689878
_cell_formula_units_Z   2
loop_
 _symmetry_equiv_pos_site_id
 _symmetry_equiv_pos_as_xyz
  1  'x, y, z'
loop_
 _atom_site_type_symbol
 _atom_site_label
 _atom_site_symmetry_multiplicity
 _atom_site_fract_x
 _atom_site_fract_y
 _atom_site_fract_z
 _atom_site_occupancy
  Mg  Mg0  1  0.000000  0.000000  0.000087  1
  Mg  Mg1  1  0.000000  0.000000  0.500087  1
  Mg  Mg2  1  0.000000  0.000000  0.200600  1
  Mg  Mg3  1  0.000000  0.000000  0.700600  1
  Mg  Mg4  1  0.666667  0.333333  0.266571  1
  Mg  Mg5  1  0.333333  0.666667  0.766571  1
  Be  Be6  1  0.666667  0.333333  0.003717  1
  Be  Be7  1  0.333333  0.666667  0.503717  1
  Al  Al8  1  0.498295  0.996590  0.606382  1
  Al  Al9  1  0.996590  0.498295  0.106382  1
  Al  Al10  1  0.665885  0.832943  0.360772  1
  Al  Al11  1  0.832943  0.665885  0.860772  1
  Al  Al12  1  0.832943  0.167057  0.860772  1
  Al  Al13  1  0.167057  0.832943  0.360772  1
  Al  Al14  1  0.167057  0.334115  0.360772  1
  Al  Al15  1  0.334115  0.167057  0.860772  1
  Al  Al16  1  0.666667  0.333333  0.450242  1
  Al  Al17  1  0.333333  0.666667  0.950242  1
  Al  Al18  1  0.498295  0.501705  0.606382  1
  Al  Al19  1  0.501705  0.498295  0.106382  1
  Al  Al20  1  0.501705  0.003410  0.106382  1
  Al  Al21  1  0.003410  0.501705  0.606382  1
  Al  Al22  1  0.333333  0.666667  0.232797  1
  Al  Al23  1  0.666667  0.333333  0.732797  1
  O  O24  1  0.628491  0.814245  0.165414  1
  O  O25  1  0.371509  0.185755  0.665414  1
  O  O26  1  0.814245  0.185755  0.665414  1
  O  O27  1  0.185755  0.371509  0.165414  1
  O  O28  1  0.814245  0.628491  0.665414  1
  O  O29  1  0.185755  0.814245  0.165414  1
  O  O30  1  0.333333  0.666667  0.661453  1
  O  O31  1  0.666667  0.333333  0.161453  1
  O  O32  1  0.628985  0.814493  0.547408  1
  O  O33  1  0.814493  0.628985  0.047408  1
  O  O34  1  0.814493  0.185507  0.047408  1
  O  O35  1  0.185507  0.814493  0.547408  1
  O  O36  1  0.185507  0.371015  0.547408  1
  O  O37  1  0.371015  0.185507  0.047408  1
  O  O38  1  0.666667  0.333333  0.547938  1
  O  O39  1  0.333333  0.666667  0.047938  1
  O  O40  1  0.838070  0.676139  0.417243  1
  O  O41  1  0.161930  0.838070  0.917243  1
  O  O42  1  0.676139  0.838070  0.917243  1
  O  O43  1  0.323861  0.161930  0.417243  1
  O  O44  1  0.838070  0.161930  0.417243  1
  O  O45  1  0.161930  0.323861  0.917243  1
  O  O46  1  0.000000  0.000000  0.808757  1
  O  O47  1  0.000000  0.000000  0.308757  1
  O  O48  1  0.519516  0.039032  0.800175  1
  O  O49  1  0.480484  0.519516  0.300175  1
  O  O50  1  0.039032  0.519516  0.300175  1
  O  O51  1  0.960968  0.480484  0.800175  1
  O  O52  1  0.519516  0.480484  0.800175  1
  O  O53  1  0.480484  0.960968  0.300175  1
  O  O54  1  0.666667  0.333333  0.916556  1
  O  O55  1  0.333333  0.666667  0.416556  1
