# generated using pymatgen
data_Gd2Si2O7
_symmetry_space_group_name_H-M   'P 1'
_cell_length_a   5.12741500
_cell_length_b   8.34110700
_cell_length_c   14.00390000
_cell_angle_alpha   90.00000000
_cell_angle_beta   90.00000000
_cell_angle_gamma   90.00000000
_symmetry_Int_Tables_number   1
_chemical_formula_structural   Gd2Si2O7
_chemical_formula_sum   'Gd8 Si8 O28'
_cell_volume   598.92323651
_cell_formula_units_Z   4
loop_
 _symmetry_equiv_pos_site_id
 _symmetry_equiv_pos_as_xyz
  1  'x, y, z'
loop_
 _atom_site_type_symbol
 _atom_site_label
 _atom_site_symmetry_multiplicity
 _atom_site_fract_x
 _atom_site_fract_y
 _atom_site_fract_z
 _atom_site_occupancy
  Gd  Gd0  1  0.841857  0.007946  0.125750  1
  Gd  Gd1  1  0.158143  0.507946  0.874250  1
  Gd  Gd2  1  0.658143  0.007946  0.625750  1
  Gd  Gd3  1  0.341857  0.507946  0.374250  1
  Gd  Gd4  1  0.841857  0.492054  0.125750  1
  Gd  Gd5  1  0.158143  0.992054  0.874250  1
  Gd  Gd6  1  0.658143  0.492054  0.625750  1
  Gd  Gd7  1  0.341857  0.992054  0.374250  1
  Si  Si8  1  0.124944  0.750000  0.538681  1
  Si  Si9  1  0.875056  0.250000  0.461319  1
  Si  Si10  1  0.375056  0.750000  0.038681  1
  Si  Si11  1  0.624944  0.250000  0.961319  1
  Si  Si12  1  0.878739  0.750000  0.319995  1
  Si  Si13  1  0.121261  0.250000  0.680005  1
  Si  Si14  1  0.621261  0.750000  0.819995  1
  Si  Si15  1  0.378739  0.250000  0.180005  1
  O  O16  1  0.851825  0.750000  0.598332  1
  O  O17  1  0.148175  0.250000  0.401668  1
  O  O18  1  0.648175  0.750000  0.098332  1
  O  O19  1  0.351825  0.250000  0.901668  1
  O  O20  1  0.291869  0.915952  0.546594  1
  O  O21  1  0.708131  0.415952  0.453406  1
  O  O22  1  0.208131  0.915952  0.046594  1
  O  O23  1  0.791869  0.415952  0.953406  1
  O  O24  1  0.291869  0.584048  0.546594  1
  O  O25  1  0.708131  0.084048  0.453406  1
  O  O26  1  0.208131  0.584048  0.046594  1
  O  O27  1  0.791869  0.084048  0.953406  1
  O  O28  1  0.061881  0.750000  0.419829  1
  O  O29  1  0.938119  0.250000  0.580171  1
  O  O30  1  0.438119  0.750000  0.919829  1
  O  O31  1  0.561881  0.250000  0.080171  1
  O  O32  1  0.485490  0.087660  0.231752  1
  O  O33  1  0.514510  0.587660  0.768248  1
  O  O34  1  0.014510  0.087660  0.731752  1
  O  O35  1  0.985490  0.587660  0.268248  1
  O  O36  1  0.485490  0.412340  0.231752  1
  O  O37  1  0.514510  0.912340  0.768248  1
  O  O38  1  0.014510  0.412340  0.731752  1
  O  O39  1  0.985490  0.912340  0.268248  1
  O  O40  1  0.069860  0.250000  0.154499  1
  O  O41  1  0.930140  0.750000  0.845501  1
  O  O42  1  0.430140  0.250000  0.654499  1
  O  O43  1  0.569860  0.750000  0.345501  1
