# generated using pymatgen
data_ThAl
_symmetry_space_group_name_H-M   'P 1'
_cell_length_a   6.14610174
_cell_length_b   6.14610174
_cell_length_c   4.18437217
_cell_angle_alpha   90.00000000
_cell_angle_beta   90.00000000
_cell_angle_gamma   137.42156590
_symmetry_Int_Tables_number   1
_chemical_formula_structural   ThAl
_chemical_formula_sum   'Th2 Al2'
_cell_volume   106.94514040
_cell_formula_units_Z   2
loop_
 _symmetry_equiv_pos_site_id
 _symmetry_equiv_pos_as_xyz
  1  'x, y, z'
loop_
 _atom_site_type_symbol
 _atom_site_label
 _atom_site_symmetry_multiplicity
 _atom_site_fract_x
 _atom_site_fract_y
 _atom_site_fract_z
 _atom_site_occupancy
  Th  Th0  1  0.855542  0.144458  0.750000  1
  Th  Th1  1  0.144458  0.855542  0.250000  1
  Al  Al2  1  0.570766  0.429234  0.750000  1
  Al  Al3  1  0.429234  0.570766  0.250000  1
