# generated using pymatgen
data_NiGe
_symmetry_space_group_name_H-M   'P 1'
_cell_length_a   3.49685650
_cell_length_b   5.37113343
_cell_length_c   5.81585202
_cell_angle_alpha   90.00000000
_cell_angle_beta   90.00000000
_cell_angle_gamma   90.00000000
_symmetry_Int_Tables_number   1
_chemical_formula_structural   NiGe
_chemical_formula_sum   'Ni4 Ge4'
_cell_volume   109.23381447
_cell_formula_units_Z   4
loop_
 _symmetry_equiv_pos_site_id
 _symmetry_equiv_pos_as_xyz
  1  'x, y, z'
loop_
 _atom_site_type_symbol
 _atom_site_label
 _atom_site_symmetry_multiplicity
 _atom_site_fract_x
 _atom_site_fract_y
 _atom_site_fract_z
 _atom_site_occupancy
  Ni  Ni0  1  0.250000  0.506492  0.690001  1
  Ni  Ni1  1  0.750000  0.493508  0.309999  1
  Ni  Ni2  1  0.250000  0.006492  0.809999  1
  Ni  Ni3  1  0.750000  0.993508  0.190001  1
  Ge  Ge4  1  0.250000  0.689394  0.088822  1
  Ge  Ge5  1  0.750000  0.310606  0.911178  1
  Ge  Ge6  1  0.250000  0.189394  0.411178  1
  Ge  Ge7  1  0.750000  0.810606  0.588822  1
