# generated using pymatgen
data_Sr2InF7
_symmetry_space_group_name_H-M   'P 1'
_cell_length_a   5.59825893
_cell_length_b   12.44248138
_cell_length_c   8.41229081
_cell_angle_alpha   90.00000000
_cell_angle_beta   90.59506952
_cell_angle_gamma   90.00000000
_symmetry_Int_Tables_number   1
_chemical_formula_structural   Sr2InF7
_chemical_formula_sum   'Sr8 In4 F28'
_cell_volume   585.93688088
_cell_formula_units_Z   4
loop_
 _symmetry_equiv_pos_site_id
 _symmetry_equiv_pos_as_xyz
  1  'x, y, z'
loop_
 _atom_site_type_symbol
 _atom_site_label
 _atom_site_symmetry_multiplicity
 _atom_site_fract_x
 _atom_site_fract_y
 _atom_site_fract_z
 _atom_site_occupancy
  Sr  Sr0  1  0.766812  0.279352  0.552785  1
  Sr  Sr1  1  0.233188  0.779352  0.947215  1
  Sr  Sr2  1  0.233188  0.720648  0.447215  1
  Sr  Sr3  1  0.766812  0.220648  0.052785  1
  Sr  Sr4  1  0.234259  0.061451  0.323151  1
  Sr  Sr5  1  0.765741  0.561451  0.176849  1
  Sr  Sr6  1  0.765741  0.938549  0.676849  1
  Sr  Sr7  1  0.234259  0.438549  0.823151  1
  In  In8  1  0.278899  0.374471  0.285603  1
  In  In9  1  0.721101  0.874471  0.214397  1
  In  In10  1  0.721101  0.625529  0.714397  1
  In  In11  1  0.278899  0.125529  0.785603  1
  F  F12  1  0.801386  0.860644  0.968349  1
  F  F13  1  0.198614  0.360644  0.531651  1
  F  F14  1  0.198614  0.139356  0.031651  1
  F  F15  1  0.801386  0.639356  0.468349  1
  F  F16  1  0.372902  0.573860  0.626580  1
  F  F17  1  0.627098  0.073860  0.873420  1
  F  F18  1  0.627098  0.426140  0.373420  1
  F  F19  1  0.372902  0.926140  0.126580  1
  F  F20  1  0.491749  0.227563  0.293601  1
  F  F21  1  0.508251  0.727563  0.206399  1
  F  F22  1  0.508251  0.772437  0.706399  1
  F  F23  1  0.491749  0.272437  0.793601  1
  F  F24  1  0.491433  0.395613  0.072703  1
  F  F25  1  0.508567  0.895613  0.427297  1
  F  F26  1  0.508567  0.604387  0.927297  1
  F  F27  1  0.491433  0.104387  0.572703  1
  F  F28  1  0.011644  0.244090  0.304772  1
  F  F29  1  0.988356  0.744090  0.195228  1
  F  F30  1  0.988356  0.755910  0.695228  1
  F  F31  1  0.011644  0.255910  0.804772  1
  F  F32  1  0.013115  0.395395  0.088435  1
  F  F33  1  0.986885  0.895395  0.411565  1
  F  F34  1  0.986885  0.604605  0.911565  1
  F  F35  1  0.013115  0.104605  0.588435  1
  F  F36  1  0.805686  0.041205  0.211757  1
  F  F37  1  0.194314  0.541205  0.288243  1
  F  F38  1  0.194314  0.958795  0.788243  1
  F  F39  1  0.805686  0.458795  0.711757  1
