# generated using pymatgen
data_Cu3P
_symmetry_space_group_name_H-M   'P 1'
_cell_length_a   6.96700419
_cell_length_b   6.96700419
_cell_length_c   7.17908657
_cell_angle_alpha   90.00000000
_cell_angle_beta   90.00000000
_cell_angle_gamma   120.00000000
_symmetry_Int_Tables_number   1
_chemical_formula_structural   Cu3P
_chemical_formula_sum   'Cu18 P6'
_cell_volume   301.78105039
_cell_formula_units_Z   6
loop_
 _symmetry_equiv_pos_site_id
 _symmetry_equiv_pos_as_xyz
  1  'x, y, z'
loop_
 _atom_site_type_symbol
 _atom_site_label
 _atom_site_symmetry_multiplicity
 _atom_site_fract_x
 _atom_site_fract_y
 _atom_site_fract_z
 _atom_site_occupancy
  Cu  Cu0  1  0.374666  0.065567  0.075999  1
  Cu  Cu1  1  0.934433  0.309100  0.075999  1
  Cu  Cu2  1  0.690900  0.625334  0.075999  1
  Cu  Cu3  1  0.309100  0.934433  0.424001  1
  Cu  Cu4  1  0.625334  0.690900  0.424001  1
  Cu  Cu5  1  0.065567  0.374666  0.424001  1
  Cu  Cu6  1  0.625334  0.934433  0.924001  1
  Cu  Cu7  1  0.065567  0.690900  0.924001  1
  Cu  Cu8  1  0.309100  0.374666  0.924001  1
  Cu  Cu9  1  0.690900  0.065567  0.575999  1
  Cu  Cu10  1  0.374666  0.309100  0.575999  1
  Cu  Cu11  1  0.934433  0.625334  0.575999  1
  Cu  Cu12  1  0.333333  0.666667  0.174818  1
  Cu  Cu13  1  0.666667  0.333333  0.325182  1
  Cu  Cu14  1  0.666667  0.333333  0.825182  1
  Cu  Cu15  1  0.333333  0.666667  0.674818  1
  Cu  Cu16  1  0.000000  0.000000  0.250000  1
  Cu  Cu17  1  0.000000  0.000000  0.750000  1
  P  P18  1  0.663309  0.000000  0.250000  1
  P  P19  1  0.000000  0.663309  0.250000  1
  P  P20  1  0.336691  0.336691  0.250000  1
  P  P21  1  0.336691  0.000000  0.750000  1
  P  P22  1  0.000000  0.336691  0.750000  1
  P  P23  1  0.663309  0.663309  0.750000  1
