# generated using pymatgen
data_MgSnAs2
_symmetry_space_group_name_H-M   'P 1'
_cell_length_a   7.43596810
_cell_length_b   7.43596810
_cell_length_c   7.43596810
_cell_angle_alpha   131.05073828
_cell_angle_beta   131.05073828
_cell_angle_gamma   71.73247897
_symmetry_Int_Tables_number   1
_chemical_formula_structural   MgSnAs2
_chemical_formula_sum   'Mg2 Sn2 As4'
_cell_volume   228.75707422
_cell_formula_units_Z   2
loop_
 _symmetry_equiv_pos_site_id
 _symmetry_equiv_pos_as_xyz
  1  'x, y, z'
loop_
 _atom_site_type_symbol
 _atom_site_label
 _atom_site_symmetry_multiplicity
 _atom_site_fract_x
 _atom_site_fract_y
 _atom_site_fract_z
 _atom_site_occupancy
  Mg  Mg0  1  0.250000  0.750000  0.500000  1
  Mg  Mg1  1  0.500000  0.500000  0.000000  1
  Sn  Sn2  1  1.000000  0.000000  0.000000  1
  Sn  Sn3  1  0.750000  0.250000  0.500000  1
  As  As4  1  0.125601  0.125000  0.500601  1
  As  As5  1  0.375000  0.874399  0.999399  1
  As  As6  1  0.624399  0.625000  0.499399  1
  As  As7  1  0.875000  0.375601  0.000601  1
