# generated using pymatgen
data_KMgAs
_symmetry_space_group_name_H-M   'P 1'
_cell_length_a   4.58608215
_cell_length_b   4.58608215
_cell_length_c   7.82881592
_cell_angle_alpha   90.00000000
_cell_angle_beta   90.00000000
_cell_angle_gamma   90.00000000
_symmetry_Int_Tables_number   1
_chemical_formula_structural   KMgAs
_chemical_formula_sum   'K2 Mg2 As2'
_cell_volume   164.65682673
_cell_formula_units_Z   2
loop_
 _symmetry_equiv_pos_site_id
 _symmetry_equiv_pos_as_xyz
  1  'x, y, z'
loop_
 _atom_site_type_symbol
 _atom_site_label
 _atom_site_symmetry_multiplicity
 _atom_site_fract_x
 _atom_site_fract_y
 _atom_site_fract_z
 _atom_site_occupancy
  K  K0  1  0.000000  0.500000  0.355136  1
  K  K1  1  0.500000  0.000000  0.644864  1
  Mg  Mg2  1  0.000000  0.000000  0.000000  1
  Mg  Mg3  1  0.500000  0.500000  0.000000  1
  As  As4  1  0.000000  0.500000  0.807431  1
  As  As5  1  0.500000  0.000000  0.192569  1
