# generated using pymatgen
data_Mo2C
_symmetry_space_group_name_H-M   'P 1'
_cell_length_a   4.75410510
_cell_length_b   5.24148067
_cell_length_c   6.07648521
_cell_angle_alpha   90.00000000
_cell_angle_beta   90.00000000
_cell_angle_gamma   90.00000000
_symmetry_Int_Tables_number   1
_chemical_formula_structural   Mo2C
_chemical_formula_sum   'Mo8 C4'
_cell_volume   151.41720044
_cell_formula_units_Z   4
loop_
 _symmetry_equiv_pos_site_id
 _symmetry_equiv_pos_as_xyz
  1  'x, y, z'
loop_
 _atom_site_type_symbol
 _atom_site_label
 _atom_site_symmetry_multiplicity
 _atom_site_fract_x
 _atom_site_fract_y
 _atom_site_fract_z
 _atom_site_occupancy
  Mo  Mo0  1  0.246500  0.079457  0.877447  1
  Mo  Mo1  1  0.746500  0.920543  0.622553  1
  Mo  Mo2  1  0.253500  0.579457  0.622553  1
  Mo  Mo3  1  0.753500  0.420543  0.877447  1
  Mo  Mo4  1  0.246500  0.579457  0.122553  1
  Mo  Mo5  1  0.746500  0.420543  0.377447  1
  Mo  Mo6  1  0.253500  0.079457  0.377447  1
  Mo  Mo7  1  0.753500  0.920543  0.122553  1
  C  C8  1  0.500000  0.750000  0.877023  1
  C  C9  1  0.000000  0.250000  0.622977  1
  C  C10  1  0.500000  0.250000  0.122977  1
  C  C11  1  0.000000  0.750000  0.377023  1
