# generated using pymatgen
data_RbBS2
_symmetry_space_group_name_H-M   'P 1'
_cell_length_a   9.79553165
_cell_length_b   9.79553165
_cell_length_c   9.79553165
_cell_angle_alpha   110.59621025
_cell_angle_beta   110.59621025
_cell_angle_gamma   110.59621025
_symmetry_Int_Tables_number   1
_chemical_formula_structural   RbBS2
_chemical_formula_sum   'Rb6 B6 S12'
_cell_volume   691.76527875
_cell_formula_units_Z   6
loop_
 _symmetry_equiv_pos_site_id
 _symmetry_equiv_pos_as_xyz
  1  'x, y, z'
loop_
 _atom_site_type_symbol
 _atom_site_label
 _atom_site_symmetry_multiplicity
 _atom_site_fract_x
 _atom_site_fract_y
 _atom_site_fract_z
 _atom_site_occupancy
  Rb  Rb0  1  0.199128  0.300872  0.750000  1
  Rb  Rb1  1  0.750000  0.199128  0.300872  1
  Rb  Rb2  1  0.300872  0.750000  0.199128  1
  Rb  Rb3  1  0.800872  0.699128  0.250000  1
  Rb  Rb4  1  0.250000  0.800872  0.699128  1
  Rb  Rb5  1  0.699128  0.250000  0.800872  1
  B  B6  1  0.862061  0.637939  0.750000  1
  B  B7  1  0.750000  0.862061  0.637939  1
  B  B8  1  0.637939  0.750000  0.862061  1
  B  B9  1  0.137939  0.362061  0.250000  1
  B  B10  1  0.250000  0.137939  0.362061  1
  B  B11  1  0.362061  0.250000  0.137939  1
  S  S12  1  0.133878  0.250000  0.366122  1
  S  S13  1  0.250000  0.366122  0.133878  1
  S  S14  1  0.366122  0.133878  0.250000  1
  S  S15  1  0.866122  0.750000  0.633878  1
  S  S16  1  0.750000  0.633878  0.866122  1
  S  S17  1  0.633878  0.866122  0.750000  1
  S  S18  1  0.472418  0.250000  0.027582  1
  S  S19  1  0.250000  0.027582  0.472418  1
  S  S20  1  0.027582  0.472418  0.250000  1
  S  S21  1  0.527582  0.750000  0.972418  1
  S  S22  1  0.750000  0.972418  0.527582  1
  S  S23  1  0.972418  0.527582  0.750000  1
