# generated using pymatgen
data_La2CdRh2
_symmetry_space_group_name_H-M   'P 1'
_cell_length_a   7.81924790
_cell_length_b   7.81924790
_cell_length_c   3.89912452
_cell_angle_alpha   90.00000000
_cell_angle_beta   90.00000000
_cell_angle_gamma   90.00000000
_symmetry_Int_Tables_number   1
_chemical_formula_structural   La2CdRh2
_chemical_formula_sum   'La4 Cd2 Rh4'
_cell_volume   238.39495971
_cell_formula_units_Z   2
loop_
 _symmetry_equiv_pos_site_id
 _symmetry_equiv_pos_as_xyz
  1  'x, y, z'
loop_
 _atom_site_type_symbol
 _atom_site_label
 _atom_site_symmetry_multiplicity
 _atom_site_fract_x
 _atom_site_fract_y
 _atom_site_fract_z
 _atom_site_occupancy
  La  La0  1  0.834505  0.665495  0.500000  1
  La  La1  1  0.334505  0.834505  0.500000  1
  La  La2  1  0.665495  0.165495  0.500000  1
  La  La3  1  0.165495  0.334505  0.500000  1
  Cd  Cd4  1  0.000000  0.000000  0.000000  1
  Cd  Cd5  1  0.500000  0.500000  0.000000  1
  Rh  Rh6  1  0.861935  0.361935  0.000000  1
  Rh  Rh7  1  0.361935  0.138065  0.000000  1
  Rh  Rh8  1  0.638065  0.861935  0.000000  1
  Rh  Rh9  1  0.138065  0.638065  0.000000  1
