# generated using pymatgen
data_BaSr2Mn2(Si2O7)2
_symmetry_space_group_name_H-M   'P 1'
_cell_length_a   8.39950712
_cell_length_b   8.39950712
_cell_length_c   5.23606352
_cell_angle_alpha   87.16495405
_cell_angle_beta   92.83504595
_cell_angle_gamma   124.09070298
_symmetry_Int_Tables_number   1
_chemical_formula_structural   BaSr2Mn2(Si2O7)2
_chemical_formula_sum   'Ba1 Sr2 Mn2 Si4 O14'
_cell_volume   305.45011670
_cell_formula_units_Z   1
loop_
 _symmetry_equiv_pos_site_id
 _symmetry_equiv_pos_as_xyz
  1  'x, y, z'
loop_
 _atom_site_type_symbol
 _atom_site_label
 _atom_site_symmetry_multiplicity
 _atom_site_fract_x
 _atom_site_fract_y
 _atom_site_fract_z
 _atom_site_occupancy
  Ba  Ba0  1  0.775517  0.775517  0.000000  1
  Sr  Sr1  1  0.301388  0.893801  0.981065  1
  Sr  Sr2  1  0.893801  0.301388  0.018935  1
  Mn  Mn3  1  0.303854  0.303854  0.000000  1
  Mn  Mn4  1  0.109629  0.109629  0.500000  1
  Si  Si5  1  0.628919  0.977284  0.486884  1
  Si  Si6  1  0.977284  0.628919  0.513116  1
  Si  Si7  1  0.557297  0.294858  0.460937  1
  Si  Si8  1  0.294858  0.557297  0.539063  1
  O  O9  1  0.588880  0.133751  0.330028  1
  O  O10  1  0.133751  0.588880  0.669972  1
  O  O11  1  0.542155  0.415986  0.220362  1
  O  O12  1  0.415986  0.542155  0.779638  1
  O  O13  1  0.992745  0.624226  0.208943  1
  O  O14  1  0.624226  0.992745  0.791057  1
  O  O15  1  0.186016  0.065139  0.191601  1
  O  O16  1  0.065139  0.186016  0.808399  1
  O  O17  1  0.821213  0.014572  0.364648  1
  O  O18  1  0.386641  0.188759  0.667944  1
  O  O19  1  0.188759  0.386641  0.332056  1
  O  O20  1  0.766022  0.440549  0.621866  1
  O  O21  1  0.440549  0.766022  0.378134  1
  O  O22  1  0.014572  0.821213  0.635352  1
