# generated using pymatgen
data_CaAl2SiO6
_symmetry_space_group_name_H-M   'P 1'
_cell_length_a   6.54044572
_cell_length_b   6.54044572
_cell_length_c   5.32472026
_cell_angle_alpha   78.12063089
_cell_angle_beta   101.87936911
_cell_angle_gamma   96.40121492
_symmetry_Int_Tables_number   1
_chemical_formula_structural   CaAl2SiO6
_chemical_formula_sum   'Ca2 Al4 Si2 O12'
_cell_volume   217.55691844
_cell_formula_units_Z   2
loop_
 _symmetry_equiv_pos_site_id
 _symmetry_equiv_pos_as_xyz
  1  'x, y, z'
loop_
 _atom_site_type_symbol
 _atom_site_label
 _atom_site_symmetry_multiplicity
 _atom_site_fract_x
 _atom_site_fract_y
 _atom_site_fract_z
 _atom_site_occupancy
  Ca  Ca0  1  0.696529  0.676615  0.759139  1
  Ca  Ca1  1  0.323385  0.303471  0.259139  1
  Al  Al2  1  0.612923  0.190575  0.791521  1
  Al  Al3  1  0.809425  0.387077  0.291521  1
  Al  Al4  1  0.089482  0.091176  0.738730  1
  Al  Al5  1  0.908824  0.910518  0.238730  1
  Si  Si6  1  0.189364  0.618829  0.716318  1
  Si  Si7  1  0.381171  0.810636  0.216318  1
  O  O8  1  0.828096  0.025024  0.877096  1
  O  O9  1  0.357902  0.089418  0.679936  1
  O  O10  1  0.610232  0.339372  0.027621  1
  O  O11  1  0.020929  0.799832  0.625044  1
  O  O12  1  0.110382  0.375756  0.797545  1
  O  O13  1  0.333981  0.643222  0.487050  1
  O  O14  1  0.200168  0.979071  0.125044  1
  O  O15  1  0.624244  0.889618  0.297545  1
  O  O16  1  0.356778  0.666019  0.987050  1
  O  O17  1  0.974976  0.171904  0.377096  1
  O  O18  1  0.910582  0.642098  0.179936  1
  O  O19  1  0.660628  0.389768  0.527621  1
