# generated using pymatgen
data_VAs
_symmetry_space_group_name_H-M   'P 1'
_cell_length_a   3.33988569
_cell_length_b   5.86560781
_cell_length_c   6.27734759
_cell_angle_alpha   90.00000000
_cell_angle_beta   90.00000000
_cell_angle_gamma   90.00000000
_symmetry_Int_Tables_number   1
_chemical_formula_structural   VAs
_chemical_formula_sum   'V4 As4'
_cell_volume   122.97612428
_cell_formula_units_Z   4
loop_
 _symmetry_equiv_pos_site_id
 _symmetry_equiv_pos_as_xyz
  1  'x, y, z'
loop_
 _atom_site_type_symbol
 _atom_site_label
 _atom_site_symmetry_multiplicity
 _atom_site_fract_x
 _atom_site_fract_y
 _atom_site_fract_z
 _atom_site_occupancy
  V  V0  1  0.250000  0.004961  0.816896  1
  V  V1  1  0.750000  0.995039  0.183104  1
  V  V2  1  0.750000  0.495039  0.316896  1
  V  V3  1  0.250000  0.504961  0.683104  1
  As  As4  1  0.250000  0.193559  0.426567  1
  As  As5  1  0.750000  0.806441  0.573433  1
  As  As6  1  0.750000  0.306441  0.926567  1
  As  As7  1  0.250000  0.693559  0.073433  1
