# generated using pymatgen
data_CaCoP2O7
_symmetry_space_group_name_H-M   'P 1'
_cell_length_a   6.51933624
_cell_length_b   6.59127573
_cell_length_c   6.71795347
_cell_angle_alpha   113.72205889
_cell_angle_beta   87.24241745
_cell_angle_gamma   97.45140658
_symmetry_Int_Tables_number   1
_chemical_formula_structural   CaCoP2O7
_chemical_formula_sum   'Ca2 Co2 P4 O14'
_cell_volume   262.05016636
_cell_formula_units_Z   2
loop_
 _symmetry_equiv_pos_site_id
 _symmetry_equiv_pos_as_xyz
  1  'x, y, z'
loop_
 _atom_site_type_symbol
 _atom_site_label
 _atom_site_symmetry_multiplicity
 _atom_site_fract_x
 _atom_site_fract_y
 _atom_site_fract_z
 _atom_site_occupancy
  Ca  Ca0  1  0.142651  0.271078  0.826285  1
  Ca  Ca1  1  0.857349  0.728922  0.173715  1
  Co  Co2  1  0.351627  0.099183  0.224204  1
  Co  Co3  1  0.648373  0.900817  0.775796  1
  P  P4  1  0.856589  0.228430  0.248736  1
  P  P5  1  0.143411  0.771570  0.751264  1
  P  P6  1  0.373359  0.642509  0.332223  1
  P  P7  1  0.626641  0.357491  0.667777  1
  O  O8  1  0.222646  0.610535  0.520366  1
  O  O9  1  0.777354  0.389465  0.479634  1
  O  O10  1  0.025548  0.101168  0.280333  1
  O  O11  1  0.974452  0.898832  0.719667  1
  O  O12  1  0.411806  0.254120  0.562886  1
  O  O13  1  0.588194  0.745880  0.437114  1
  O  O14  1  0.625043  0.597516  0.838203  1
  O  O15  1  0.374957  0.402484  0.161797  1
  O  O16  1  0.068194  0.616327  0.862162  1
  O  O17  1  0.931806  0.383673  0.137838  1
  O  O18  1  0.328772  0.949173  0.866905  1
  O  O19  1  0.671228  0.050827  0.133095  1
  O  O20  1  0.727087  0.205887  0.745768  1
  O  O21  1  0.272913  0.794113  0.254232  1
