# generated using pymatgen
data_Gd2Cu(SeO3)4
_symmetry_space_group_name_H-M   'P 1'
_cell_length_a   8.15707539
_cell_length_b   7.00755561
_cell_length_c   10.89918703
_cell_angle_alpha   90.00000000
_cell_angle_beta   109.68581465
_cell_angle_gamma   90.00000000
_symmetry_Int_Tables_number   1
_chemical_formula_structural   Gd2Cu(SeO3)4
_chemical_formula_sum   'Gd4 Cu2 Se8 O24'
_cell_volume   586.59769925
_cell_formula_units_Z   2
loop_
 _symmetry_equiv_pos_site_id
 _symmetry_equiv_pos_as_xyz
  1  'x, y, z'
loop_
 _atom_site_type_symbol
 _atom_site_label
 _atom_site_symmetry_multiplicity
 _atom_site_fract_x
 _atom_site_fract_y
 _atom_site_fract_z
 _atom_site_occupancy
  Gd  Gd0  1  0.260035  0.656620  0.412816  1
  Gd  Gd1  1  0.239965  0.156620  0.587184  1
  Gd  Gd2  1  0.739965  0.343380  0.587184  1
  Gd  Gd3  1  0.760035  0.843380  0.412816  1
  Cu  Cu4  1  0.000000  0.500000  0.000000  1
  Cu  Cu5  1  0.500000  0.000000  0.000000  1
  Se  Se6  1  0.636382  0.826803  0.681419  1
  Se  Se7  1  0.863618  0.326803  0.318581  1
  Se  Se8  1  0.379030  0.672292  0.135753  1
  Se  Se9  1  0.120970  0.172292  0.864247  1
  Se  Se10  1  0.620970  0.327708  0.864247  1
  Se  Se11  1  0.879030  0.827708  0.135753  1
  Se  Se12  1  0.136382  0.673197  0.681419  1
  Se  Se13  1  0.363618  0.173197  0.318581  1
  O  O14  1  0.414353  0.344827  0.443479  1
  O  O15  1  0.085647  0.844827  0.556521  1
  O  O16  1  0.585647  0.655173  0.556521  1
  O  O17  1  0.914353  0.155173  0.443479  1
  O  O18  1  0.572251  0.110938  0.336520  1
  O  O19  1  0.927749  0.610938  0.663480  1
  O  O20  1  0.427749  0.889062  0.663480  1
  O  O21  1  0.072251  0.389062  0.336520  1
  O  O22  1  0.214384  0.502443  0.598448  1
  O  O23  1  0.285616  0.002443  0.401552  1
  O  O24  1  0.969962  0.779091  0.300011  1
  O  O25  1  0.530038  0.279091  0.699989  1
  O  O26  1  0.030038  0.220909  0.699989  1
  O  O27  1  0.469962  0.720909  0.300011  1
  O  O28  1  0.677882  0.886160  0.151912  1
  O  O29  1  0.822118  0.386160  0.848088  1
  O  O30  1  0.322118  0.113840  0.848088  1
  O  O31  1  0.177882  0.613840  0.151912  1
  O  O32  1  0.321903  0.891880  0.059753  1
  O  O33  1  0.178097  0.391880  0.940247  1
  O  O34  1  0.678097  0.108120  0.940247  1
  O  O35  1  0.821903  0.608120  0.059753  1
  O  O36  1  0.785616  0.497557  0.401552  1
  O  O37  1  0.714384  0.997557  0.598448  1
