# generated using pymatgen
data_Sr2CuGe2O7
_symmetry_space_group_name_H-M   'P 1'
_cell_length_a   8.38505755
_cell_length_b   8.38505755
_cell_length_c   5.28056556
_cell_angle_alpha   90.00000000
_cell_angle_beta   90.00000000
_cell_angle_gamma   90.00000000
_symmetry_Int_Tables_number   1
_chemical_formula_structural   Sr2CuGe2O7
_chemical_formula_sum   'Sr4 Cu2 Ge4 O14'
_cell_volume   371.27228788
_cell_formula_units_Z   2
loop_
 _symmetry_equiv_pos_site_id
 _symmetry_equiv_pos_as_xyz
  1  'x, y, z'
loop_
 _atom_site_type_symbol
 _atom_site_label
 _atom_site_symmetry_multiplicity
 _atom_site_fract_x
 _atom_site_fract_y
 _atom_site_fract_z
 _atom_site_occupancy
  Sr  Sr0  1  0.665266  0.165266  0.989092  1
  Sr  Sr1  1  0.834734  0.665266  0.010908  1
  Sr  Sr2  1  0.165266  0.334734  0.010908  1
  Sr  Sr3  1  0.334734  0.834734  0.989092  1
  Cu  Cu4  1  0.000000  0.000000  0.500000  1
  Cu  Cu5  1  0.500000  0.500000  0.500000  1
  Ge  Ge6  1  0.859284  0.359284  0.532495  1
  Ge  Ge7  1  0.140716  0.640716  0.532495  1
  Ge  Ge8  1  0.640716  0.859284  0.467505  1
  Ge  Ge9  1  0.359284  0.140716  0.467505  1
  O  O10  1  0.680555  0.413642  0.687575  1
  O  O11  1  0.319445  0.586358  0.687575  1
  O  O12  1  0.413642  0.319445  0.312425  1
  O  O13  1  0.586358  0.680555  0.312425  1
  O  O14  1  0.913642  0.180555  0.687575  1
  O  O15  1  0.819445  0.913642  0.312425  1
  O  O16  1  0.180555  0.086358  0.312425  1
  O  O17  1  0.086358  0.819445  0.687575  1
  O  O18  1  0.865513  0.365513  0.203147  1
  O  O19  1  0.634487  0.865513  0.796853  1
  O  O20  1  0.000000  0.500000  0.674368  1
  O  O21  1  0.500000  0.000000  0.325632  1
  O  O22  1  0.134487  0.634487  0.203147  1
  O  O23  1  0.365513  0.134487  0.796853  1
