# generated using pymatgen
data_Na5Ti2Si2PO13
_symmetry_space_group_name_H-M   'P 1'
_cell_length_a   5.46057063
_cell_length_b   7.15861676
_cell_length_c   14.69889204
_cell_angle_alpha   100.01235635
_cell_angle_beta   96.56017947
_cell_angle_gamma   90.56615944
_symmetry_Int_Tables_number   1
_chemical_formula_structural   Na5Ti2Si2PO13
_chemical_formula_sum   'Na10 Ti4 Si4 P2 O26'
_cell_volume   561.86622623
_cell_formula_units_Z   2
loop_
 _symmetry_equiv_pos_site_id
 _symmetry_equiv_pos_as_xyz
  1  'x, y, z'
loop_
 _atom_site_type_symbol
 _atom_site_label
 _atom_site_symmetry_multiplicity
 _atom_site_fract_x
 _atom_site_fract_y
 _atom_site_fract_z
 _atom_site_occupancy
  Na  Na0  1  0.755591  0.256265  0.580993  1
  Na  Na1  1  0.244409  0.743735  0.419007  1
  Na  Na2  1  0.326017  0.539655  0.604517  1
  Na  Na3  1  0.673983  0.460345  0.395483  1
  Na  Na4  1  0.321249  0.032673  0.637567  1
  Na  Na5  1  0.678751  0.967327  0.362433  1
  Na  Na6  1  0.754069  0.877345  0.001102  1
  Na  Na7  1  0.173221  0.420950  0.231602  1
  Na  Na8  1  0.826779  0.579050  0.768398  1
  Na  Na9  1  0.245931  0.122655  0.998898  1
  Ti  Ti10  1  0.778623  0.382224  0.989530  1
  Ti  Ti11  1  0.221377  0.617776  0.010470  1
  Ti  Ti12  1  0.828760  0.069513  0.779094  1
  Ti  Ti13  1  0.171240  0.930487  0.220906  1
  Si  Si14  1  0.353149  0.358179  0.803106  1
  Si  Si15  1  0.327547  0.794907  0.824474  1
  Si  Si16  1  0.646851  0.641821  0.196894  1
  Si  Si17  1  0.672453  0.205093  0.175526  1
  P  P18  1  0.178053  0.226952  0.429935  1
  P  P19  1  0.821947  0.773048  0.570065  1
  O  O20  1  0.669855  0.769654  0.474002  1
  O  O21  1  0.330145  0.230346  0.525998  1
  O  O22  1  0.748321  0.598582  0.611934  1
  O  O23  1  0.251679  0.401418  0.388066  1
  O  O24  1  0.100893  0.774427  0.560320  1
  O  O25  1  0.899107  0.225573  0.439680  1
  O  O26  1  0.917735  0.577648  0.932959  1
  O  O27  1  0.082265  0.422352  0.067041  1
  O  O28  1  0.765679  0.965030  0.636204  1
  O  O29  1  0.234321  0.034970  0.363796  1
  O  O30  1  0.861685  0.173420  0.908229  1
  O  O31  1  0.138315  0.826580  0.091771  1
  O  O32  1  0.586661  0.269117  0.750797  1
  O  O33  1  0.413339  0.730883  0.249203  1
  O  O34  1  0.097630  0.240987  0.757642  1
  O  O35  1  0.902370  0.759013  0.242358  1
  O  O36  1  0.412992  0.393700  0.917539  1
  O  O37  1  0.587008  0.606300  0.082461  1
  O  O38  1  0.555128  0.901526  0.791390  1
  O  O39  1  0.444872  0.098474  0.208610  1
  O  O40  1  0.678654  0.429988  0.230333  1
  O  O41  1  0.321346  0.570012  0.769667  1
  O  O42  1  0.641408  0.199939  0.063828  1
  O  O43  1  0.358592  0.800061  0.936172  1
  O  O44  1  0.939562  0.124203  0.207804  1
  O  O45  1  0.060438  0.875797  0.792196  1
