# generated using pymatgen
data_CaGa3Ni2
_symmetry_space_group_name_H-M   'P 1'
_cell_length_a   6.28397015
_cell_length_b   6.28397015
_cell_length_c   5.16527482
_cell_angle_alpha   90.00000000
_cell_angle_beta   90.00000000
_cell_angle_gamma   102.19156804
_symmetry_Int_Tables_number   1
_chemical_formula_structural   CaGa3Ni2
_chemical_formula_sum   'Ca2 Ga6 Ni4'
_cell_volume   199.36773313
_cell_formula_units_Z   2
loop_
 _symmetry_equiv_pos_site_id
 _symmetry_equiv_pos_as_xyz
  1  'x, y, z'
loop_
 _atom_site_type_symbol
 _atom_site_label
 _atom_site_symmetry_multiplicity
 _atom_site_fract_x
 _atom_site_fract_y
 _atom_site_fract_z
 _atom_site_occupancy
  Ca  Ca0  1  0.343949  0.343949  0.250000  1
  Ca  Ca1  1  0.656051  0.656051  0.750000  1
  Ga  Ga2  1  0.090919  0.466011  0.750000  1
  Ga  Ga3  1  0.466011  0.090919  0.750000  1
  Ga  Ga4  1  0.909081  0.533989  0.250000  1
  Ga  Ga5  1  0.049810  0.049810  0.750000  1
  Ga  Ga6  1  0.950190  0.950190  0.250000  1
  Ga  Ga7  1  0.533989  0.909081  0.250000  1
  Ni  Ni8  1  0.210876  0.789124  0.500000  1
  Ni  Ni9  1  0.210876  0.789124  0.000000  1
  Ni  Ni10  1  0.789124  0.210876  0.000000  1
  Ni  Ni11  1  0.789124  0.210876  0.500000  1
