# generated using pymatgen
data_Na5AsO5
_symmetry_space_group_name_H-M   'P 1'
_cell_length_a   6.03695377
_cell_length_b   6.50431754
_cell_length_c   16.62694238
_cell_angle_alpha   90.00000000
_cell_angle_beta   90.00000000
_cell_angle_gamma   90.00000000
_symmetry_Int_Tables_number   1
_chemical_formula_structural   Na5AsO5
_chemical_formula_sum   'Na20 As4 O20'
_cell_volume   652.87791390
_cell_formula_units_Z   4
loop_
 _symmetry_equiv_pos_site_id
 _symmetry_equiv_pos_as_xyz
  1  'x, y, z'
loop_
 _atom_site_type_symbol
 _atom_site_label
 _atom_site_symmetry_multiplicity
 _atom_site_fract_x
 _atom_site_fract_y
 _atom_site_fract_z
 _atom_site_occupancy
  Na  Na0  1  0.558502  0.750000  0.410667  1
  Na  Na1  1  0.558502  0.250000  0.089333  1
  Na  Na2  1  0.441498  0.250000  0.589333  1
  Na  Na3  1  0.441498  0.750000  0.910667  1
  Na  Na4  1  0.424069  0.500000  0.250000  1
  Na  Na5  1  0.575931  0.000000  0.750000  1
  Na  Na6  1  0.866079  0.494250  0.585381  1
  Na  Na7  1  0.866079  0.505750  0.914619  1
  Na  Na8  1  0.133921  0.994250  0.414619  1
  Na  Na9  1  0.133921  0.005750  0.085381  1
  Na  Na10  1  0.133921  0.505750  0.414619  1
  Na  Na11  1  0.133921  0.494250  0.085381  1
  Na  Na12  1  0.866079  0.005750  0.585381  1
  Na  Na13  1  0.866079  0.994250  0.914619  1
  Na  Na14  1  0.086744  0.750000  0.769930  1
  Na  Na15  1  0.086744  0.250000  0.730070  1
  Na  Na16  1  0.913256  0.250000  0.230070  1
  Na  Na17  1  0.913256  0.750000  0.269930  1
  Na  Na18  1  0.575931  0.500000  0.750000  1
  Na  Na19  1  0.424069  0.000000  0.250000  1
  As  As20  1  0.306622  0.750000  0.595940  1
  As  As21  1  0.306622  0.250000  0.904060  1
  As  As22  1  0.693378  0.250000  0.404060  1
  As  As23  1  0.693378  0.750000  0.095940  1
  O  O24  1  0.427012  0.750000  0.058173  1
  O  O25  1  0.427012  0.250000  0.441827  1
  O  O26  1  0.572988  0.250000  0.941827  1
  O  O27  1  0.572988  0.750000  0.558173  1
  O  O28  1  0.743717  0.250000  0.675853  1
  O  O29  1  0.743717  0.750000  0.824147  1
  O  O30  1  0.110715  0.750000  0.520121  1
  O  O31  1  0.110715  0.250000  0.979879  1
  O  O32  1  0.889285  0.250000  0.479879  1
  O  O33  1  0.889285  0.750000  0.020121  1
  O  O34  1  0.744330  0.464715  0.345050  1
  O  O35  1  0.744330  0.535285  0.154950  1
  O  O36  1  0.255670  0.964715  0.654950  1
  O  O37  1  0.255670  0.035285  0.845050  1
  O  O38  1  0.255670  0.535285  0.654950  1
  O  O39  1  0.255670  0.464715  0.845050  1
  O  O40  1  0.744330  0.035285  0.345050  1
  O  O41  1  0.744330  0.964715  0.154950  1
  O  O42  1  0.256283  0.750000  0.324147  1
  O  O43  1  0.256283  0.250000  0.175853  1
