# generated using pymatgen
data_Lu3Al2
_symmetry_space_group_name_H-M   'P 1'
_cell_length_a   8.05501192
_cell_length_b   8.05501192
_cell_length_c   7.44594733
_cell_angle_alpha   90.00000000
_cell_angle_beta   90.00000000
_cell_angle_gamma   90.00000000
_symmetry_Int_Tables_number   1
_chemical_formula_structural   Lu3Al2
_chemical_formula_sum   'Lu12 Al8'
_cell_volume   483.11701662
_cell_formula_units_Z   4
loop_
 _symmetry_equiv_pos_site_id
 _symmetry_equiv_pos_as_xyz
  1  'x, y, z'
loop_
 _atom_site_type_symbol
 _atom_site_label
 _atom_site_symmetry_multiplicity
 _atom_site_fract_x
 _atom_site_fract_y
 _atom_site_fract_z
 _atom_site_occupancy
  Lu  Lu0  1  0.500000  0.000000  0.250000  1
  Lu  Lu1  1  0.500000  0.000000  0.750000  1
  Lu  Lu2  1  0.000000  0.500000  0.250000  1
  Lu  Lu3  1  0.000000  0.500000  0.750000  1
  Lu  Lu4  1  0.349572  0.349572  0.000000  1
  Lu  Lu5  1  0.849572  0.150428  0.500000  1
  Lu  Lu6  1  0.150428  0.849572  0.500000  1
  Lu  Lu7  1  0.650428  0.650428  0.000000  1
  Lu  Lu8  1  0.797463  0.202537  0.000000  1
  Lu  Lu9  1  0.702537  0.702537  0.500000  1
  Lu  Lu10  1  0.297463  0.297463  0.500000  1
  Lu  Lu11  1  0.202537  0.797463  0.000000  1
  Al  Al12  1  0.119793  0.119793  0.197588  1
  Al  Al13  1  0.619793  0.380207  0.697588  1
  Al  Al14  1  0.380207  0.619793  0.697588  1
  Al  Al15  1  0.880207  0.880207  0.197588  1
  Al  Al16  1  0.380207  0.619793  0.302412  1
  Al  Al17  1  0.619793  0.380207  0.302412  1
  Al  Al18  1  0.119793  0.119793  0.802412  1
  Al  Al19  1  0.880207  0.880207  0.802412  1
