# generated using pymatgen
data_RbMo6Se7
_symmetry_space_group_name_H-M   'P 1'
_cell_length_a   10.02450151
_cell_length_b   10.02450151
_cell_length_c   10.02450151
_cell_angle_alpha   58.24037808
_cell_angle_beta   58.24037808
_cell_angle_gamma   58.24037808
_symmetry_Int_Tables_number   1
_chemical_formula_structural   RbMo6Se7
_chemical_formula_sum   'Rb2 Mo12 Se14'
_cell_volume   683.60290547
_cell_formula_units_Z   2
loop_
 _symmetry_equiv_pos_site_id
 _symmetry_equiv_pos_as_xyz
  1  'x, y, z'
loop_
 _atom_site_type_symbol
 _atom_site_label
 _atom_site_symmetry_multiplicity
 _atom_site_fract_x
 _atom_site_fract_y
 _atom_site_fract_z
 _atom_site_occupancy
  Rb  Rb0  1  0.131436  0.131436  0.131436  1
  Rb  Rb1  1  0.868564  0.868564  0.868564  1
  Mo  Mo2  1  0.621840  0.304682  0.439502  1
  Mo  Mo3  1  0.304682  0.439502  0.621840  1
  Mo  Mo4  1  0.439502  0.621840  0.304682  1
  Mo  Mo5  1  0.378160  0.695318  0.560498  1
  Mo  Mo6  1  0.695318  0.560498  0.378160  1
  Mo  Mo7  1  0.560498  0.378160  0.695318  1
  Mo  Mo8  1  0.383661  0.194058  0.507553  1
  Mo  Mo9  1  0.194058  0.507553  0.383661  1
  Mo  Mo10  1  0.507553  0.383661  0.194058  1
  Mo  Mo11  1  0.616339  0.805942  0.492447  1
  Mo  Mo12  1  0.805942  0.492447  0.616339  1
  Mo  Mo13  1  0.492447  0.616339  0.805942  1
  Se  Se14  1  0.668789  0.302459  0.919787  1
  Se  Se15  1  0.080213  0.331211  0.697541  1
  Se  Se16  1  0.280428  0.280428  0.280428  1
  Se  Se17  1  0.719572  0.719572  0.719572  1
  Se  Se18  1  0.870874  0.255065  0.516025  1
  Se  Se19  1  0.255065  0.516025  0.870874  1
  Se  Se20  1  0.516025  0.870874  0.255065  1
  Se  Se21  1  0.129126  0.744935  0.483975  1
  Se  Se22  1  0.744935  0.483975  0.129126  1
  Se  Se23  1  0.483975  0.129126  0.744935  1
  Se  Se24  1  0.331211  0.697541  0.080213  1
  Se  Se25  1  0.697541  0.080213  0.331211  1
  Se  Se26  1  0.919787  0.668789  0.302459  1
  Se  Se27  1  0.302459  0.919787  0.668789  1
