# generated using pymatgen
data_VFeO4
_symmetry_space_group_name_H-M   'P 1'
_cell_length_a   5.09648635
_cell_length_b   5.09648635
_cell_length_c   6.25164842
_cell_angle_alpha   90.00000000
_cell_angle_beta   90.00000000
_cell_angle_gamma   112.09375672
_symmetry_Int_Tables_number   1
_chemical_formula_structural   VFeO4
_chemical_formula_sum   'V2 Fe2 O8'
_cell_volume   150.45767075
_cell_formula_units_Z   2
loop_
 _symmetry_equiv_pos_site_id
 _symmetry_equiv_pos_as_xyz
  1  'x, y, z'
loop_
 _atom_site_type_symbol
 _atom_site_label
 _atom_site_symmetry_multiplicity
 _atom_site_fract_x
 _atom_site_fract_y
 _atom_site_fract_z
 _atom_site_occupancy
  V  V0  1  0.855598  0.144402  0.750000  1
  V  V1  1  0.144402  0.855598  0.250000  1
  Fe  Fe2  1  0.500000  0.500000  0.500000  1
  Fe  Fe3  1  0.500000  0.500000  0.000000  1
  O  O4  1  0.288472  0.239385  0.250000  1
  O  O5  1  0.711528  0.760615  0.750000  1
  O  O6  1  0.239385  0.288472  0.750000  1
  O  O7  1  0.760615  0.711528  0.250000  1
  O  O8  1  0.264743  0.735257  0.033733  1
  O  O9  1  0.735257  0.264743  0.533733  1
  O  O10  1  0.264743  0.735257  0.466267  1
  O  O11  1  0.735257  0.264743  0.966267  1
