# generated using pymatgen
data_BaLaCuTe3
_symmetry_space_group_name_H-M   'P 1'
_cell_length_a   4.55027879
_cell_length_b   11.98632433
_cell_length_c   15.00676332
_cell_angle_alpha   90.00000000
_cell_angle_beta   90.00000000
_cell_angle_gamma   90.00000000
_symmetry_Int_Tables_number   1
_chemical_formula_structural   BaLaCuTe3
_chemical_formula_sum   'Ba4 La4 Cu4 Te12'
_cell_volume   818.48563956
_cell_formula_units_Z   4
loop_
 _symmetry_equiv_pos_site_id
 _symmetry_equiv_pos_as_xyz
  1  'x, y, z'
loop_
 _atom_site_type_symbol
 _atom_site_label
 _atom_site_symmetry_multiplicity
 _atom_site_fract_x
 _atom_site_fract_y
 _atom_site_fract_z
 _atom_site_occupancy
  Ba  Ba0  1  0.250000  0.775150  0.501646  1
  Ba  Ba1  1  0.750000  0.224850  0.498354  1
  Ba  Ba2  1  0.250000  0.275150  0.998354  1
  Ba  Ba3  1  0.750000  0.724850  0.001646  1
  La  La4  1  0.250000  0.517274  0.258009  1
  La  La5  1  0.750000  0.482726  0.741991  1
  La  La6  1  0.250000  0.017274  0.241991  1
  La  La7  1  0.750000  0.982726  0.758009  1
  Cu  Cu8  1  0.750000  0.761523  0.280735  1
  Cu  Cu9  1  0.250000  0.738477  0.780735  1
  Cu  Cu10  1  0.750000  0.261523  0.219265  1
  Cu  Cu11  1  0.250000  0.238477  0.719265  1
  Te  Te12  1  0.250000  0.762973  0.178781  1
  Te  Te13  1  0.750000  0.237027  0.821219  1
  Te  Te14  1  0.250000  0.262973  0.321219  1
  Te  Te15  1  0.750000  0.737027  0.678781  1
  Te  Te16  1  0.250000  0.907535  0.895119  1
  Te  Te17  1  0.750000  0.592465  0.395119  1
  Te  Te18  1  0.250000  0.407535  0.604881  1
  Te  Te19  1  0.750000  0.092465  0.104881  1
  Te  Te20  1  0.750000  0.945333  0.383412  1
  Te  Te21  1  0.250000  0.054667  0.616588  1
  Te  Te22  1  0.750000  0.445333  0.116588  1
  Te  Te23  1  0.250000  0.554667  0.883412  1
