# generated using pymatgen
data_LiGe2N3
_symmetry_space_group_name_H-M   'P 1'
_cell_length_a   5.56329925
_cell_length_b   5.56329925
_cell_length_c   5.10168246
_cell_angle_alpha   90.00000000
_cell_angle_beta   90.00000000
_cell_angle_gamma   119.84624903
_symmetry_Int_Tables_number   1
_chemical_formula_structural   LiGe2N3
_chemical_formula_sum   'Li2 Ge4 N6'
_cell_volume   136.95555940
_cell_formula_units_Z   2
loop_
 _symmetry_equiv_pos_site_id
 _symmetry_equiv_pos_as_xyz
  1  'x, y, z'
loop_
 _atom_site_type_symbol
 _atom_site_label
 _atom_site_symmetry_multiplicity
 _atom_site_fract_x
 _atom_site_fract_y
 _atom_site_fract_z
 _atom_site_occupancy
  Li  Li0  1  0.658506  0.658506  0.488321  1
  Li  Li1  1  0.341494  0.341494  0.988321  1
  Ge  Ge2  1  0.329932  0.003286  0.492655  1
  Ge  Ge3  1  0.003286  0.329932  0.492655  1
  Ge  Ge4  1  0.670068  0.996714  0.992655  1
  Ge  Ge5  1  0.996714  0.670068  0.992655  1
  N  N6  1  0.335582  0.961441  0.861363  1
  N  N7  1  0.961441  0.335582  0.861363  1
  N  N8  1  0.664418  0.038559  0.361363  1
  N  N9  1  0.038559  0.664418  0.361363  1
  N  N10  1  0.701509  0.701509  0.891646  1
  N  N11  1  0.298491  0.298491  0.391646  1
