# generated using pymatgen
data_Ho2Ge6Pd
_symmetry_space_group_name_H-M   'P 1'
_cell_length_a   11.19111393
_cell_length_b   11.19111393
_cell_length_c   4.09596617
_cell_angle_alpha   90.00000000
_cell_angle_beta   90.00000000
_cell_angle_gamma   159.26059323
_symmetry_Int_Tables_number   1
_chemical_formula_structural   Ho2Ge6Pd
_chemical_formula_sum   'Ho2 Ge6 Pd1'
_cell_volume   181.65659399
_cell_formula_units_Z   1
loop_
 _symmetry_equiv_pos_site_id
 _symmetry_equiv_pos_as_xyz
  1  'x, y, z'
loop_
 _atom_site_type_symbol
 _atom_site_label
 _atom_site_symmetry_multiplicity
 _atom_site_fract_x
 _atom_site_fract_y
 _atom_site_fract_z
 _atom_site_occupancy
  Ho  Ho0  1  0.661799  0.338201  1.000000  1
  Ho  Ho1  1  0.001874  0.998126  0.000000  1
  Ge  Ge2  1  0.787806  0.212194  0.500000  1
  Ge  Ge3  1  0.901819  0.098181  0.500000  1
  Ge  Ge4  1  0.110062  0.889938  0.500000  1
  Ge  Ge5  1  0.286335  0.713665  0.000000  1
  Ge  Ge6  1  0.400148  0.599852  0.000000  1
  Ge  Ge7  1  0.537675  0.462325  0.500000  1
  Pd  Pd8  1  0.220482  0.779518  0.500000  1
