# generated using pymatgen
data_LuGa
_symmetry_space_group_name_H-M   'P 1'
_cell_length_a   5.71050322
_cell_length_b   5.71050322
_cell_length_c   4.01071743
_cell_angle_alpha   90.00000000
_cell_angle_beta   90.00000000
_cell_angle_gamma   136.48588271
_symmetry_Int_Tables_number   1
_chemical_formula_structural   LuGa
_chemical_formula_sum   'Lu2 Ga2'
_cell_volume   90.05249809
_cell_formula_units_Z   2
loop_
 _symmetry_equiv_pos_site_id
 _symmetry_equiv_pos_as_xyz
  1  'x, y, z'
loop_
 _atom_site_type_symbol
 _atom_site_label
 _atom_site_symmetry_multiplicity
 _atom_site_fract_x
 _atom_site_fract_y
 _atom_site_fract_z
 _atom_site_occupancy
  Lu  Lu0  1  0.861627  0.138373  0.250000  1
  Lu  Lu1  1  0.138373  0.861627  0.750000  1
  Ga  Ga2  1  0.578610  0.421390  0.250000  1
  Ga  Ga3  1  0.421390  0.578610  0.750000  1
