# generated using pymatgen
data_NaBe(BO2)3
_symmetry_space_group_name_H-M   'P 1'
_cell_length_a   4.45233846
_cell_length_b   9.24166219
_cell_length_c   12.03962409
_cell_angle_alpha   90.00000000
_cell_angle_beta   90.00000000
_cell_angle_gamma   90.00000000
_symmetry_Int_Tables_number   1
_chemical_formula_structural   NaBe(BO2)3
_chemical_formula_sum   'Na4 Be4 B12 O24'
_cell_volume   495.39450878
_cell_formula_units_Z   4
loop_
 _symmetry_equiv_pos_site_id
 _symmetry_equiv_pos_as_xyz
  1  'x, y, z'
loop_
 _atom_site_type_symbol
 _atom_site_label
 _atom_site_symmetry_multiplicity
 _atom_site_fract_x
 _atom_site_fract_y
 _atom_site_fract_z
 _atom_site_occupancy
  Na  Na0  1  0.280049  0.175958  0.113234  1
  Na  Na1  1  0.780049  0.824042  0.886766  1
  Na  Na2  1  0.780049  0.324042  0.613234  1
  Na  Na3  1  0.280049  0.675958  0.386766  1
  Be  Be4  1  0.826524  0.408077  0.042025  1
  Be  Be5  1  0.326524  0.591923  0.957975  1
  Be  Be6  1  0.326524  0.091923  0.542025  1
  Be  Be7  1  0.826524  0.908077  0.457975  1
  B  B8  1  0.880867  0.430483  0.254402  1
  B  B9  1  0.380867  0.569517  0.745598  1
  B  B10  1  0.380867  0.069517  0.754402  1
  B  B11  1  0.880867  0.930483  0.245598  1
  B  B12  1  0.502763  0.083216  0.336238  1
  B  B13  1  0.002763  0.916784  0.663762  1
  B  B14  1  0.002763  0.416784  0.836238  1
  B  B15  1  0.502763  0.583216  0.163762  1
  B  B16  1  0.158779  0.277482  0.394780  1
  B  B17  1  0.658779  0.722518  0.605220  1
  B  B18  1  0.658779  0.222518  0.894780  1
  B  B19  1  0.158779  0.777482  0.105220  1
  O  O20  1  0.992777  0.382606  0.158233  1
  O  O21  1  0.492777  0.617394  0.841767  1
  O  O22  1  0.492777  0.117394  0.658233  1
  O  O23  1  0.992777  0.882606  0.341767  1
  O  O24  1  0.640457  0.029688  0.241206  1
  O  O25  1  0.140457  0.970312  0.758794  1
  O  O26  1  0.140457  0.470312  0.741206  1
  O  O27  1  0.640457  0.529688  0.258794  1
  O  O28  1  0.562286  0.036713  0.441224  1
  O  O29  1  0.062286  0.963287  0.558776  1
  O  O30  1  0.062286  0.463287  0.941224  1
  O  O31  1  0.562286  0.536713  0.058776  1
  O  O32  1  0.303697  0.195173  0.312328  1
  O  O33  1  0.803697  0.804827  0.687672  1
  O  O34  1  0.803697  0.304827  0.812328  1
  O  O35  1  0.303697  0.695173  0.187672  1
  O  O36  1  0.679409  0.256471  0.002595  1
  O  O37  1  0.179409  0.743529  0.997405  1
  O  O38  1  0.179409  0.243529  0.502595  1
  O  O39  1  0.679409  0.756471  0.497405  1
  O  O40  1  0.986191  0.895594  0.139198  1
  O  O41  1  0.486191  0.104406  0.860802  1
  O  O42  1  0.486191  0.604406  0.639198  1
  O  O43  1  0.986191  0.395594  0.360802  1
