# generated using pymatgen
data_PrAlGe
_symmetry_space_group_name_H-M   'P 1'
_cell_length_a   7.99938880
_cell_length_b   7.99938880
_cell_length_c   7.99938880
_cell_angle_alpha   148.78619812
_cell_angle_beta   148.78619812
_cell_angle_gamma   44.72610689
_symmetry_Int_Tables_number   1
_chemical_formula_structural   PrAlGe
_chemical_formula_sum   'Pr2 Al2 Ge2'
_cell_volume   137.05487967
_cell_formula_units_Z   2
loop_
 _symmetry_equiv_pos_site_id
 _symmetry_equiv_pos_as_xyz
  1  'x, y, z'
loop_
 _atom_site_type_symbol
 _atom_site_label
 _atom_site_symmetry_multiplicity
 _atom_site_fract_x
 _atom_site_fract_y
 _atom_site_fract_z
 _atom_site_occupancy
  Pr  Pr0  1  0.333279  0.333279  0.000000  1
  Pr  Pr1  1  0.083279  0.583279  0.500000  1
  Al  Al2  1  0.917228  0.917228  0.000000  1
  Al  Al3  1  0.667228  0.167228  0.500000  1
  Ge  Ge4  1  0.500993  0.000993  0.500000  1
  Ge  Ge5  1  0.750993  0.750993  0.000000  1
