# generated using pymatgen
data_Ba2VN3
_symmetry_space_group_name_H-M   'P 1'
_cell_length_a   6.57357328
_cell_length_b   6.57357328
_cell_length_c   13.08796989
_cell_angle_alpha   90.00000000
_cell_angle_beta   90.00000000
_cell_angle_gamma   126.28412563
_symmetry_Int_Tables_number   1
_chemical_formula_structural   Ba2VN3
_chemical_formula_sum   'Ba8 V4 N12'
_cell_volume   455.88999722
_cell_formula_units_Z   4
loop_
 _symmetry_equiv_pos_site_id
 _symmetry_equiv_pos_as_xyz
  1  'x, y, z'
loop_
 _atom_site_type_symbol
 _atom_site_label
 _atom_site_symmetry_multiplicity
 _atom_site_fract_x
 _atom_site_fract_y
 _atom_site_fract_z
 _atom_site_occupancy
  Ba  Ba0  1  0.858367  0.141633  0.421768  1
  Ba  Ba1  1  0.358367  0.641633  0.078232  1
  Ba  Ba2  1  0.641633  0.358367  0.921768  1
  Ba  Ba3  1  0.141633  0.858367  0.578232  1
  Ba  Ba4  1  0.443699  0.556301  0.645061  1
  Ba  Ba5  1  0.556301  0.443699  0.354939  1
  Ba  Ba6  1  0.056301  0.943699  0.145061  1
  Ba  Ba7  1  0.943699  0.056301  0.854939  1
  V  V8  1  0.756281  0.243719  0.667620  1
  V  V9  1  0.743719  0.256281  0.167620  1
  V  V10  1  0.243719  0.756281  0.332380  1
  V  V11  1  0.256281  0.743719  0.832380  1
  N  N12  1  0.975701  0.524299  0.750000  1
  N  N13  1  0.524299  0.975701  0.250000  1
  N  N14  1  0.024299  0.475701  0.250000  1
  N  N15  1  0.475701  0.024299  0.750000  1
  N  N16  1  0.404981  0.595019  0.866470  1
  N  N17  1  0.595019  0.404981  0.133530  1
  N  N18  1  0.095019  0.904981  0.366470  1
  N  N19  1  0.666841  0.333159  0.557203  1
  N  N20  1  0.166841  0.833159  0.942797  1
  N  N21  1  0.833159  0.166841  0.057203  1
  N  N22  1  0.333159  0.666841  0.442797  1
  N  N23  1  0.904981  0.095019  0.633530  1
