# generated using pymatgen
data_Sr3CrN3
_symmetry_space_group_name_H-M   'P 1'
_cell_length_a   7.82880106
_cell_length_b   7.82880106
_cell_length_c   5.25089352
_cell_angle_alpha   90.00000000
_cell_angle_beta   90.00000000
_cell_angle_gamma   120.00000000
_symmetry_Int_Tables_number   1
_chemical_formula_structural   Sr3CrN3
_chemical_formula_sum   'Sr6 Cr2 N6'
_cell_volume   278.71115937
_cell_formula_units_Z   2
loop_
 _symmetry_equiv_pos_site_id
 _symmetry_equiv_pos_as_xyz
  1  'x, y, z'
loop_
 _atom_site_type_symbol
 _atom_site_label
 _atom_site_symmetry_multiplicity
 _atom_site_fract_x
 _atom_site_fract_y
 _atom_site_fract_z
 _atom_site_occupancy
  Sr  Sr0  1  0.641736  0.725376  0.750000  1
  Sr  Sr1  1  0.916361  0.641736  0.250000  1
  Sr  Sr2  1  0.725376  0.083639  0.250000  1
  Sr  Sr3  1  0.274624  0.916361  0.750000  1
  Sr  Sr4  1  0.083639  0.358264  0.750000  1
  Sr  Sr5  1  0.358264  0.274624  0.250000  1
  Cr  Cr6  1  0.666667  0.333333  0.750000  1
  Cr  Cr7  1  0.333333  0.666667  0.250000  1
  N  N8  1  0.563102  0.685086  0.250000  1
  N  N9  1  0.878017  0.563102  0.750000  1
  N  N10  1  0.685086  0.121983  0.750000  1
  N  N11  1  0.314914  0.878017  0.250000  1
  N  N12  1  0.121983  0.436898  0.250000  1
  N  N13  1  0.436898  0.314914  0.750000  1
