# generated using pymatgen
data_Mn3Al2(SiO4)3
_symmetry_space_group_name_H-M   'P 1'
_cell_length_a   10.16977932
_cell_length_b   10.16977932
_cell_length_c   10.16977932
_cell_angle_alpha   109.47122063
_cell_angle_beta   109.47122063
_cell_angle_gamma   109.47122063
_symmetry_Int_Tables_number   1
_chemical_formula_structural   Mn3Al2(SiO4)3
_chemical_formula_sum   'Mn12 Al8 Si12 O48'
_cell_volume   809.67866502
_cell_formula_units_Z   4
loop_
 _symmetry_equiv_pos_site_id
 _symmetry_equiv_pos_as_xyz
  1  'x, y, z'
loop_
 _atom_site_type_symbol
 _atom_site_label
 _atom_site_symmetry_multiplicity
 _atom_site_fract_x
 _atom_site_fract_y
 _atom_site_fract_z
 _atom_site_occupancy
  Mn  Mn0  1  0.375000  0.125000  0.250000  1
  Mn  Mn1  1  0.125000  0.250000  0.375000  1
  Mn  Mn2  1  0.375000  0.750000  0.125000  1
  Mn  Mn3  1  0.250000  0.375000  0.125000  1
  Mn  Mn4  1  0.125000  0.375000  0.750000  1
  Mn  Mn5  1  0.750000  0.125000  0.375000  1
  Mn  Mn6  1  0.750000  0.625000  0.875000  1
  Mn  Mn7  1  0.875000  0.750000  0.625000  1
  Mn  Mn8  1  0.625000  0.875000  0.750000  1
  Mn  Mn9  1  0.875000  0.625000  0.250000  1
  Mn  Mn10  1  0.250000  0.875000  0.625000  1
  Mn  Mn11  1  0.625000  0.250000  0.875000  1
  Al  Al12  1  0.000000  0.000000  0.000000  1
  Al  Al13  1  0.500000  1.000000  0.500000  1
  Al  Al14  1  0.500000  0.500000  0.500000  1
  Al  Al15  1  1.000000  0.500000  0.500000  1
  Al  Al16  1  0.500000  1.000000  0.000000  1
  Al  Al17  1  1.000000  1.000000  0.500000  1
  Al  Al18  1  1.000000  0.500000  0.000000  1
  Al  Al19  1  0.500000  0.500000  0.000000  1
  Si  Si20  1  0.125000  0.875000  0.250000  1
  Si  Si21  1  0.375000  0.625000  0.750000  1
  Si  Si22  1  0.625000  0.750000  0.375000  1
  Si  Si23  1  0.250000  0.625000  0.375000  1
  Si  Si24  1  0.750000  0.375000  0.625000  1
  Si  Si25  1  0.875000  0.125000  0.750000  1
  Si  Si26  1  0.125000  0.750000  0.875000  1
  Si  Si27  1  0.625000  0.375000  0.250000  1
  Si  Si28  1  0.375000  0.250000  0.625000  1
  Si  Si29  1  0.750000  0.875000  0.125000  1
  Si  Si30  1  0.875000  0.250000  0.125000  1
  Si  Si31  1  0.250000  0.125000  0.875000  1
  O  O32  1  0.300547  0.487638  0.382698  1
  O  O33  1  0.012362  0.312909  0.895060  1
  O  O34  1  0.117302  0.604940  0.917850  1
  O  O35  1  0.199453  0.582150  0.187091  1
  O  O36  1  0.199453  0.117302  0.012362  1
  O  O37  1  0.582150  0.187091  0.199453  1
  O  O38  1  0.604940  0.187091  0.487638  1
  O  O39  1  0.187091  0.199453  0.582150  1
  O  O40  1  0.895060  0.382698  0.582150  1
  O  O41  1  0.312909  0.917850  0.300547  1
  O  O42  1  0.917850  0.300547  0.312909  1
  O  O43  1  0.012362  0.199453  0.117302  1
  O  O44  1  0.187091  0.487638  0.604940  1
  O  O45  1  0.582150  0.895060  0.382698  1
  O  O46  1  0.117302  0.012362  0.199453  1
  O  O47  1  0.487638  0.604940  0.187091  1
  O  O48  1  0.382698  0.582150  0.895060  1
  O  O49  1  0.895060  0.012362  0.312909  1
  O  O50  1  0.604940  0.917850  0.117302  1
  O  O51  1  0.104940  0.617302  0.417850  1
  O  O52  1  0.917850  0.117302  0.604940  1
  O  O53  1  0.382698  0.300547  0.487638  1
  O  O54  1  0.312909  0.895060  0.012362  1
  O  O55  1  0.300547  0.312909  0.917850  1
  O  O56  1  0.699453  0.512362  0.617302  1
  O  O57  1  0.987638  0.687091  0.104940  1
  O  O58  1  0.882698  0.395060  0.082150  1
  O  O59  1  0.800547  0.417850  0.812909  1
  O  O60  1  0.800547  0.882698  0.987638  1
  O  O61  1  0.417850  0.812909  0.800547  1
  O  O62  1  0.395060  0.812909  0.512362  1
  O  O63  1  0.812909  0.800547  0.417850  1
  O  O64  1  0.699453  0.687091  0.082150  1
  O  O65  1  0.687091  0.104940  0.987638  1
  O  O66  1  0.617302  0.699453  0.512362  1
  O  O67  1  0.512362  0.617302  0.699453  1
  O  O68  1  0.082150  0.882698  0.395060  1
  O  O69  1  0.395060  0.082150  0.882698  1
  O  O70  1  0.104940  0.987638  0.687091  1
  O  O71  1  0.617302  0.417850  0.104940  1
  O  O72  1  0.512362  0.395060  0.812909  1
  O  O73  1  0.882698  0.987638  0.800547  1
  O  O74  1  0.417850  0.104940  0.617302  1
  O  O75  1  0.812909  0.512362  0.395060  1
  O  O76  1  0.987638  0.800547  0.882698  1
  O  O77  1  0.082150  0.699453  0.687091  1
  O  O78  1  0.687091  0.082150  0.699453  1
  O  O79  1  0.487638  0.382698  0.300547  1
