# generated using pymatgen
data_Ce(FeP3)4
_symmetry_space_group_name_H-M   'P 1'
_cell_length_a   6.74329805
_cell_length_b   6.74329805
_cell_length_c   6.74329805
_cell_angle_alpha   109.47122063
_cell_angle_beta   109.47122063
_cell_angle_gamma   109.47122063
_symmetry_Int_Tables_number   1
_chemical_formula_structural   Ce(FeP3)4
_chemical_formula_sum   'Ce1 Fe4 P12'
_cell_volume   236.04520139
_cell_formula_units_Z   1
loop_
 _symmetry_equiv_pos_site_id
 _symmetry_equiv_pos_as_xyz
  1  'x, y, z'
loop_
 _atom_site_type_symbol
 _atom_site_label
 _atom_site_symmetry_multiplicity
 _atom_site_fract_x
 _atom_site_fract_y
 _atom_site_fract_z
 _atom_site_occupancy
  Ce  Ce0  1  0.000000  0.000000  0.000000  1
  Fe  Fe1  1  0.500000  0.000000  0.000000  1
  Fe  Fe2  1  0.000000  0.000000  0.500000  1
  Fe  Fe3  1  0.000000  0.500000  0.000000  1
  Fe  Fe4  1  0.500000  0.500000  0.500000  1
  P  P5  1  0.497521  0.848493  0.649028  1
  P  P6  1  0.199466  0.848493  0.350972  1
  P  P7  1  0.800534  0.151507  0.649028  1
  P  P8  1  0.151507  0.350972  0.502479  1
  P  P9  1  0.350972  0.502479  0.151507  1
  P  P10  1  0.502479  0.151507  0.350972  1
  P  P11  1  0.151507  0.649028  0.800534  1
  P  P12  1  0.350972  0.199466  0.848493  1
  P  P13  1  0.848493  0.649028  0.497521  1
  P  P14  1  0.649028  0.800534  0.151507  1
  P  P15  1  0.848493  0.350972  0.199466  1
  P  P16  1  0.649028  0.497521  0.848493  1
