# generated using pymatgen
data_Sb8Te3
_symmetry_space_group_name_H-M   'P 1'
_cell_length_a   21.75575729
_cell_length_b   21.75575729
_cell_length_c   21.75575729
_cell_angle_alpha   11.54138275
_cell_angle_beta   11.54138275
_cell_angle_gamma   11.54138275
_symmetry_Int_Tables_number   1
_chemical_formula_structural   Sb8Te3
_chemical_formula_sum   'Sb8 Te3'
_cell_volume   358.18524201
_cell_formula_units_Z   1
loop_
 _symmetry_equiv_pos_site_id
 _symmetry_equiv_pos_as_xyz
  1  'x, y, z'
loop_
 _atom_site_type_symbol
 _atom_site_label
 _atom_site_symmetry_multiplicity
 _atom_site_fract_x
 _atom_site_fract_y
 _atom_site_fract_z
 _atom_site_occupancy
  Sb  Sb0  1  0.821611  0.821611  0.821611  1
  Sb  Sb1  1  0.636281  0.636281  0.636281  1
  Sb  Sb2  1  0.363719  0.363719  0.363719  1
  Sb  Sb3  1  0.178389  0.178389  0.178389  1
  Sb  Sb4  1  0.452299  0.452299  0.452299  1
  Sb  Sb5  1  0.904639  0.904639  0.904639  1
  Sb  Sb6  1  0.095361  0.095361  0.095361  1
  Sb  Sb7  1  0.547701  0.547701  0.547701  1
  Te  Te8  1  0.723164  0.723164  0.723164  1
  Te  Te9  1  0.276836  0.276836  0.276836  1
  Te  Te10  1  0.000000  0.000000  0.000000  1
