# generated using pymatgen
data_BaMnV2(AgO4)2
_symmetry_space_group_name_H-M   'P 1'
_cell_length_a   5.63470046
_cell_length_b   5.63470046
_cell_length_c   7.47257944
_cell_angle_alpha   90.00000000
_cell_angle_beta   90.00000000
_cell_angle_gamma   120.00000000
_symmetry_Int_Tables_number   1
_chemical_formula_structural   BaMnV2(AgO4)2
_chemical_formula_sum   'Ba1 Mn1 V2 Ag2 O8'
_cell_volume   205.46735956
_cell_formula_units_Z   1
loop_
 _symmetry_equiv_pos_site_id
 _symmetry_equiv_pos_as_xyz
  1  'x, y, z'
loop_
 _atom_site_type_symbol
 _atom_site_label
 _atom_site_symmetry_multiplicity
 _atom_site_fract_x
 _atom_site_fract_y
 _atom_site_fract_z
 _atom_site_occupancy
  Ba  Ba0  1  0.000000  0.000000  0.000000  1
  Mn  Mn1  1  0.000000  0.000000  0.500000  1
  V  V2  1  0.666667  0.333333  0.248216  1
  V  V3  1  0.333333  0.666667  0.751784  1
  Ag  Ag4  1  0.333333  0.666667  0.309001  1
  Ag  Ag5  1  0.666667  0.333333  0.690999  1
  O  O6  1  0.666667  0.333333  0.019493  1
  O  O7  1  0.333333  0.666667  0.980507  1
  O  O8  1  0.747183  0.665302  0.318292  1
  O  O9  1  0.918119  0.252817  0.318292  1
  O  O10  1  0.334698  0.081881  0.318292  1
  O  O11  1  0.252817  0.334698  0.681708  1
  O  O12  1  0.665302  0.918119  0.681708  1
  O  O13  1  0.081881  0.747183  0.681708  1
