# generated using pymatgen
data_Ba2LiGe3
_symmetry_space_group_name_H-M   'P 1'
_cell_length_a   12.56642189
_cell_length_b   10.83334683
_cell_length_c   8.98162641
_cell_angle_alpha   78.10352644
_cell_angle_beta   57.51911470
_cell_angle_gamma   44.37735885
_symmetry_Int_Tables_number   1
_chemical_formula_structural   Ba2LiGe3
_chemical_formula_sum   'Ba8 Li4 Ge12'
_cell_volume   687.88507903
_cell_formula_units_Z   4
loop_
 _symmetry_equiv_pos_site_id
 _symmetry_equiv_pos_as_xyz
  1  'x, y, z'
loop_
 _atom_site_type_symbol
 _atom_site_label
 _atom_site_symmetry_multiplicity
 _atom_site_fract_x
 _atom_site_fract_y
 _atom_site_fract_z
 _atom_site_occupancy
  Ba  Ba0  1  0.124017  0.124017  0.875983  1
  Ba  Ba1  1  0.875983  0.875983  0.124017  1
  Ba  Ba2  1  0.125983  0.125983  0.374017  1
  Ba  Ba3  1  0.374017  0.374017  0.125983  1
  Ba  Ba4  1  0.377720  0.377720  0.622280  1
  Ba  Ba5  1  0.622280  0.622280  0.377720  1
  Ba  Ba6  1  0.872280  0.872280  0.627720  1
  Ba  Ba7  1  0.627720  0.627720  0.872280  1
  Li  Li8  1  0.831993  0.168007  0.831993  1
  Li  Li9  1  0.168007  0.831993  0.168007  1
  Li  Li10  1  0.418007  0.081993  0.418007  1
  Li  Li11  1  0.081993  0.418007  0.081993  1
  Ge  Ge12  1  0.831034  0.176823  0.332442  1
  Ge  Ge13  1  0.659701  0.332442  0.176823  1
  Ge  Ge14  1  0.332442  0.659701  0.831034  1
  Ge  Ge15  1  0.176823  0.831034  0.659701  1
  Ge  Ge16  1  0.913573  0.586427  0.913573  1
  Ge  Ge17  1  0.586427  0.913573  0.586427  1
  Ge  Ge18  1  0.336427  0.663573  0.336427  1
  Ge  Ge19  1  0.663573  0.336427  0.663573  1
  Ge  Ge20  1  0.073177  0.418966  0.590299  1
  Ge  Ge21  1  0.917558  0.590299  0.418966  1
  Ge  Ge22  1  0.590299  0.917558  0.073177  1
  Ge  Ge23  1  0.418966  0.073177  0.917558  1
