# generated using pymatgen
data_La2Si2O7
_symmetry_space_group_name_H-M   'P 1'
_cell_length_a   6.87726814
_cell_length_b   6.95480122
_cell_length_c   12.64244135
_cell_angle_alpha   83.97708181
_cell_angle_beta   88.89607332
_cell_angle_gamma   88.52785433
_symmetry_Int_Tables_number   1
_chemical_formula_structural   La2Si2O7
_chemical_formula_sum   'La8 Si8 O28'
_cell_volume   601.06851213
_cell_formula_units_Z   4
loop_
 _symmetry_equiv_pos_site_id
 _symmetry_equiv_pos_as_xyz
  1  'x, y, z'
loop_
 _atom_site_type_symbol
 _atom_site_label
 _atom_site_symmetry_multiplicity
 _atom_site_fract_x
 _atom_site_fract_y
 _atom_site_fract_z
 _atom_site_occupancy
  La  La0  1  0.923689  0.166655  0.845669  1
  La  La1  1  0.076311  0.833345  0.154331  1
  La  La2  1  0.323672  0.760466  0.863761  1
  La  La3  1  0.676328  0.239534  0.136239  1
  La  La4  1  0.628662  0.628728  0.361721  1
  La  La5  1  0.371338  0.371272  0.638279  1
  La  La6  1  0.756584  0.803763  0.642116  1
  La  La7  1  0.243416  0.196237  0.357884  1
  Si  Si8  1  0.225244  0.892624  0.609042  1
  Si  Si9  1  0.774756  0.107376  0.390958  1
  Si  Si10  1  0.839851  0.311483  0.589336  1
  Si  Si11  1  0.160149  0.688517  0.410664  1
  Si  Si12  1  0.837619  0.684499  0.908016  1
  Si  Si13  1  0.162381  0.315501  0.091984  1
  Si  Si14  1  0.574369  0.720784  0.102364  1
  Si  Si15  1  0.425631  0.279216  0.897636  1
  O  O16  1  0.071738  0.910990  0.708651  1
  O  O17  1  0.928262  0.089010  0.291349  1
  O  O18  1  0.403066  0.748688  0.654652  1
  O  O19  1  0.596934  0.251312  0.345348  1
  O  O20  1  0.694837  0.907648  0.452603  1
  O  O21  1  0.305163  0.092352  0.547397  1
  O  O22  1  0.093186  0.782423  0.523165  1
  O  O23  1  0.906814  0.217577  0.476835  1
  O  O24  1  0.696271  0.501263  0.554711  1
  O  O25  1  0.303729  0.498737  0.445289  1
  O  O26  1  0.703856  0.157626  0.663555  1
  O  O27  1  0.296144  0.842374  0.336445  1
  O  O28  1  0.973370  0.636353  0.344667  1
  O  O29  1  0.026630  0.363647  0.655333  1
  O  O30  1  0.003951  0.826963  0.948079  1
  O  O31  1  0.996049  0.173037  0.051921  1
  O  O32  1  0.376784  0.813357  0.047611  1
  O  O33  1  0.623216  0.186643  0.952389  1
  O  O34  1  0.468429  0.457414  0.805742  1
  O  O35  1  0.531571  0.542586  0.194258  1
  O  O36  1  0.290980  0.126868  0.842688  1
  O  O37  1  0.709020  0.873132  0.157312  1
  O  O38  1  0.301136  0.396419  0.987376  1
  O  O39  1  0.698864  0.603581  0.012624  1
  O  O40  1  0.061225  0.492408  0.147062  1
  O  O41  1  0.938775  0.507592  0.852938  1
  O  O42  1  0.309162  0.176538  0.171282  1
  O  O43  1  0.690838  0.823462  0.828718  1
