# generated using pymatgen
data_AgMoPO6
_symmetry_space_group_name_H-M   'P 1'
_cell_length_a   6.43599182
_cell_length_b   12.20089469
_cell_length_c   13.59860724
_cell_angle_alpha   90.00000000
_cell_angle_beta   115.16356073
_cell_angle_gamma   90.00000000
_symmetry_Int_Tables_number   1
_chemical_formula_structural   AgMoPO6
_chemical_formula_sum   'Ag8 Mo8 P8 O48'
_cell_volume   966.48926376
_cell_formula_units_Z   8
loop_
 _symmetry_equiv_pos_site_id
 _symmetry_equiv_pos_as_xyz
  1  'x, y, z'
loop_
 _atom_site_type_symbol
 _atom_site_label
 _atom_site_symmetry_multiplicity
 _atom_site_fract_x
 _atom_site_fract_y
 _atom_site_fract_z
 _atom_site_occupancy
  Ag  Ag0  1  0.626513  0.801728  0.645259  1
  Ag  Ag1  1  0.373487  0.301728  0.854741  1
  Ag  Ag2  1  0.373487  0.198272  0.354741  1
  Ag  Ag3  1  0.626513  0.698272  0.145259  1
  Ag  Ag4  1  0.061384  0.710209  0.622558  1
  Ag  Ag5  1  0.938616  0.210209  0.877442  1
  Ag  Ag6  1  0.938616  0.289791  0.377442  1
  Ag  Ag7  1  0.061384  0.789791  0.122558  1
  Mo  Mo8  1  0.144904  0.898061  0.886746  1
  Mo  Mo9  1  0.855096  0.398061  0.613254  1
  Mo  Mo10  1  0.855096  0.101939  0.113254  1
  Mo  Mo11  1  0.144904  0.601939  0.386746  1
  Mo  Mo12  1  0.625125  0.600199  0.870698  1
  Mo  Mo13  1  0.374875  0.100199  0.629302  1
  Mo  Mo14  1  0.374875  0.399801  0.129302  1
  Mo  Mo15  1  0.625125  0.899801  0.370698  1
  P  P16  1  0.634588  0.960726  0.876485  1
  P  P17  1  0.365412  0.460726  0.623515  1
  P  P18  1  0.365412  0.039274  0.123515  1
  P  P19  1  0.634588  0.539274  0.376485  1
  P  P20  1  0.189777  0.614800  0.938065  1
  P  P21  1  0.810223  0.114800  0.561935  1
  P  P22  1  0.810223  0.385200  0.061935  1
  P  P23  1  0.189777  0.885200  0.438065  1
  O  O24  1  0.038952  0.834610  0.757446  1
  O  O25  1  0.961048  0.334610  0.742554  1
  O  O26  1  0.961048  0.165390  0.242554  1
  O  O27  1  0.038952  0.665390  0.257446  1
  O  O28  1  0.895250  0.537226  0.642576  1
  O  O29  1  0.104750  0.037226  0.857424  1
  O  O30  1  0.104750  0.462774  0.357424  1
  O  O31  1  0.895250  0.962774  0.142576  1
  O  O32  1  0.564468  0.702676  0.771884  1
  O  O33  1  0.435532  0.202676  0.728116  1
  O  O34  1  0.435532  0.297324  0.228116  1
  O  O35  1  0.564468  0.797324  0.271884  1
  O  O36  1  0.724563  0.672362  0.994738  1
  O  O37  1  0.275437  0.172362  0.505262  1
  O  O38  1  0.275437  0.327638  0.005262  1
  O  O39  1  0.724563  0.827638  0.494738  1
  O  O40  1  0.290736  0.570480  0.562157  1
  O  O41  1  0.193982  0.737880  0.966500  1
  O  O42  1  0.709264  0.070480  0.937843  1
  O  O43  1  0.290736  0.929520  0.062157  1
  O  O44  1  0.509814  0.978202  0.753359  1
  O  O45  1  0.490186  0.478202  0.746641  1
  O  O46  1  0.490186  0.021798  0.246641  1
  O  O47  1  0.509814  0.521798  0.253359  1
  O  O48  1  0.941052  0.569988  0.881681  1
  O  O49  1  0.058948  0.069988  0.618319  1
  O  O50  1  0.058948  0.430012  0.118319  1
  O  O51  1  0.941052  0.930012  0.381681  1
  O  O52  1  0.298327  0.596313  0.856735  1
  O  O53  1  0.701673  0.096313  0.643265  1
  O  O54  1  0.701673  0.403687  0.143265  1
  O  O55  1  0.298327  0.903687  0.356735  1
  O  O56  1  0.475619  0.605416  0.415431  1
  O  O57  1  0.524381  0.105416  0.084569  1
  O  O58  1  0.524381  0.394584  0.584569  1
  O  O59  1  0.475619  0.894584  0.915431  1
  O  O60  1  0.848135  0.614573  0.404083  1
  O  O61  1  0.151865  0.114573  0.095917  1
  O  O62  1  0.151865  0.385427  0.595917  1
  O  O63  1  0.848135  0.885427  0.904083  1
  O  O64  1  0.330199  0.554230  0.045287  1
  O  O65  1  0.669801  0.054230  0.454713  1
  O  O66  1  0.669801  0.445770  0.954713  1
  O  O67  1  0.330199  0.945770  0.545287  1
  O  O68  1  0.193982  0.762120  0.466500  1
  O  O69  1  0.806018  0.262120  0.033500  1
  O  O70  1  0.806018  0.237880  0.533500  1
  O  O71  1  0.709264  0.429520  0.437843  1
