# generated using pymatgen
data_Ca3Mn2O7
_symmetry_space_group_name_H-M   'P 1'
_cell_length_a   10.10060362
_cell_length_b   10.10060362
_cell_length_c   5.37487297
_cell_angle_alpha   90.00000000
_cell_angle_beta   90.00000000
_cell_angle_gamma   149.40244156
_symmetry_Int_Tables_number   1
_chemical_formula_structural   Ca3Mn2O7
_chemical_formula_sum   'Ca6 Mn4 O14'
_cell_volume   279.11596903
_cell_formula_units_Z   2
loop_
 _symmetry_equiv_pos_site_id
 _symmetry_equiv_pos_as_xyz
  1  'x, y, z'
loop_
 _atom_site_type_symbol
 _atom_site_label
 _atom_site_symmetry_multiplicity
 _atom_site_fract_x
 _atom_site_fract_y
 _atom_site_fract_z
 _atom_site_occupancy
  Ca  Ca0  1  0.244323  0.244323  0.293663  1
  Ca  Ca1  1  0.755677  0.755677  0.793663  1
  Ca  Ca2  1  0.057364  0.431351  0.211907  1
  Ca  Ca3  1  0.942636  0.568649  0.711907  1
  Ca  Ca4  1  0.431351  0.057364  0.211907  1
  Ca  Ca5  1  0.568649  0.942636  0.711907  1
  Mn  Mn6  1  0.847950  0.651658  0.250525  1
  Mn  Mn7  1  0.152050  0.348342  0.750525  1
  Mn  Mn8  1  0.348342  0.152050  0.750525  1
  Mn  Mn9  1  0.651658  0.847950  0.250525  1
  O  O10  1  0.606886  0.998866  0.260481  1
  O  O11  1  0.393114  0.001134  0.760481  1
  O  O12  1  0.001134  0.393114  0.760481  1
  O  O13  1  0.998866  0.606886  0.260481  1
  O  O14  1  0.429076  0.652308  0.961064  1
  O  O15  1  0.570924  0.347692  0.461064  1
  O  O16  1  0.347692  0.570924  0.461064  1
  O  O17  1  0.652308  0.429076  0.961064  1
  O  O18  1  0.958366  0.125577  0.041981  1
  O  O19  1  0.041634  0.874423  0.541981  1
  O  O20  1  0.678062  0.678062  0.234421  1
  O  O21  1  0.321938  0.321938  0.734421  1
  O  O22  1  0.125577  0.958366  0.041981  1
  O  O23  1  0.874423  0.041634  0.541981  1
