# generated using pymatgen
data_Sr3CdIrO6
_symmetry_space_group_name_H-M   'P 1'
_cell_length_a   6.86368448
_cell_length_b   6.86368448
_cell_length_c   6.86368448
_cell_angle_alpha   90.04731230
_cell_angle_beta   90.04731230
_cell_angle_gamma   90.04731230
_symmetry_Int_Tables_number   1
_chemical_formula_structural   Sr3CdIrO6
_chemical_formula_sum   'Sr6 Cd2 Ir2 O12'
_cell_volume   323.34897518
_cell_formula_units_Z   2
loop_
 _symmetry_equiv_pos_site_id
 _symmetry_equiv_pos_as_xyz
  1  'x, y, z'
loop_
 _atom_site_type_symbol
 _atom_site_label
 _atom_site_symmetry_multiplicity
 _atom_site_fract_x
 _atom_site_fract_y
 _atom_site_fract_z
 _atom_site_occupancy
  Sr  Sr0  1  0.611811  0.250000  0.888189  1
  Sr  Sr1  1  0.888189  0.611811  0.250000  1
  Sr  Sr2  1  0.388189  0.750000  0.111811  1
  Sr  Sr3  1  0.250000  0.888189  0.611811  1
  Sr  Sr4  1  0.750000  0.111811  0.388189  1
  Sr  Sr5  1  0.111811  0.388189  0.750000  1
  Cd  Cd6  1  0.750000  0.750000  0.750000  1
  Cd  Cd7  1  0.250000  0.250000  0.250000  1
  Ir  Ir8  1  0.000000  0.000000  0.000000  1
  Ir  Ir9  1  0.500000  0.500000  0.500000  1
  O  O10  1  0.448242  0.583608  0.782517  1
  O  O11  1  0.782517  0.448242  0.583608  1
  O  O12  1  0.583608  0.782517  0.448242  1
  O  O13  1  0.717483  0.916392  0.051758  1
  O  O14  1  0.051758  0.717483  0.916392  1
  O  O15  1  0.916392  0.051758  0.717483  1
  O  O16  1  0.551758  0.416392  0.217483  1
  O  O17  1  0.217483  0.551758  0.416392  1
  O  O18  1  0.416392  0.217483  0.551758  1
  O  O19  1  0.282517  0.083608  0.948242  1
  O  O20  1  0.083608  0.948242  0.282517  1
  O  O21  1  0.948242  0.282517  0.083608  1
