# generated using pymatgen
data_Hf5Te4
_symmetry_space_group_name_H-M   'P 1'
_cell_length_a   7.84586608
_cell_length_b   7.84586608
_cell_length_c   7.84586608
_cell_angle_alpha   93.33237025
_cell_angle_beta   93.33237025
_cell_angle_gamma   152.09733978
_symmetry_Int_Tables_number   1
_chemical_formula_structural   Hf5Te4
_chemical_formula_sum   'Hf5 Te4'
_cell_volume   219.34988093
_cell_formula_units_Z   1
loop_
 _symmetry_equiv_pos_site_id
 _symmetry_equiv_pos_as_xyz
  1  'x, y, z'
loop_
 _atom_site_type_symbol
 _atom_site_label
 _atom_site_symmetry_multiplicity
 _atom_site_fract_x
 _atom_site_fract_y
 _atom_site_fract_z
 _atom_site_occupancy
  Hf  Hf0  1  0.368529  0.689382  0.057911  1
  Hf  Hf1  1  0.310618  0.368529  0.679147  1
  Hf  Hf2  1  0.689382  0.631471  0.320853  1
  Hf  Hf3  1  0.631471  0.310618  0.942089  1
  Hf  Hf4  1  0.000000  0.000000  0.000000  1
  Te  Te5  1  0.285591  0.948126  0.233717  1
  Te  Te6  1  0.051874  0.285591  0.337464  1
  Te  Te7  1  0.948126  0.714409  0.662536  1
  Te  Te8  1  0.714409  0.051874  0.766283  1
