# generated using pymatgen
data_Dy5B2C5
_symmetry_space_group_name_H-M   'P 1'
_cell_length_a   8.15992751
_cell_length_b   8.15992751
_cell_length_c   10.76677124
_cell_angle_alpha   90.00000000
_cell_angle_beta   90.00000000
_cell_angle_gamma   90.00000000
_symmetry_Int_Tables_number   1
_chemical_formula_structural   Dy5B2C5
_chemical_formula_sum   'Dy20 B8 C20'
_cell_volume   716.89918565
_cell_formula_units_Z   4
loop_
 _symmetry_equiv_pos_site_id
 _symmetry_equiv_pos_as_xyz
  1  'x, y, z'
loop_
 _atom_site_type_symbol
 _atom_site_label
 _atom_site_symmetry_multiplicity
 _atom_site_fract_x
 _atom_site_fract_y
 _atom_site_fract_z
 _atom_site_occupancy
  Dy  Dy0  1  0.500000  0.000000  0.638949  1
  Dy  Dy1  1  0.000000  0.500000  0.861051  1
  Dy  Dy2  1  0.000000  0.500000  0.361051  1
  Dy  Dy3  1  0.500000  0.000000  0.138949  1
  Dy  Dy4  1  0.286673  0.406599  0.600262  1
  Dy  Dy5  1  0.713327  0.593401  0.600262  1
  Dy  Dy6  1  0.406599  0.286673  0.899738  1
  Dy  Dy7  1  0.906599  0.213327  0.600262  1
  Dy  Dy8  1  0.093401  0.786673  0.600262  1
  Dy  Dy9  1  0.213327  0.906599  0.899738  1
  Dy  Dy10  1  0.786673  0.093401  0.899738  1
  Dy  Dy11  1  0.593401  0.713327  0.899738  1
  Dy  Dy12  1  0.213327  0.093401  0.399738  1
  Dy  Dy13  1  0.786673  0.906599  0.399738  1
  Dy  Dy14  1  0.093401  0.213327  0.100262  1
  Dy  Dy15  1  0.593401  0.286673  0.399738  1
  Dy  Dy16  1  0.406599  0.713327  0.399738  1
  Dy  Dy17  1  0.286673  0.593401  0.100262  1
  Dy  Dy18  1  0.713327  0.406599  0.100262  1
  Dy  Dy19  1  0.906599  0.786673  0.100262  1
  B  B20  1  0.343917  0.343917  0.250000  1
  B  B21  1  0.843917  0.843917  0.750000  1
  B  B22  1  0.656083  0.343917  0.750000  1
  B  B23  1  0.343917  0.656083  0.750000  1
  B  B24  1  0.156083  0.156083  0.750000  1
  B  B25  1  0.156083  0.843917  0.250000  1
  B  B26  1  0.843917  0.156083  0.250000  1
  B  B27  1  0.656083  0.656083  0.250000  1
  C  C28  1  0.000000  0.500000  0.597005  1
  C  C29  1  0.000000  0.500000  0.097005  1
  C  C30  1  0.500000  0.000000  0.402995  1
  C  C31  1  0.500000  0.000000  0.902995  1
  C  C32  1  0.302163  0.398128  0.375815  1
  C  C33  1  0.697837  0.601872  0.375815  1
  C  C34  1  0.398128  0.302163  0.124185  1
  C  C35  1  0.898128  0.197837  0.375815  1
  C  C36  1  0.101872  0.802163  0.375815  1
  C  C37  1  0.197837  0.898128  0.124185  1
  C  C38  1  0.802163  0.101872  0.124185  1
  C  C39  1  0.601872  0.697837  0.124185  1
  C  C40  1  0.898128  0.802163  0.875815  1
  C  C41  1  0.697837  0.398128  0.875815  1
  C  C42  1  0.302163  0.601872  0.875815  1
  C  C43  1  0.398128  0.697837  0.624185  1
  C  C44  1  0.601872  0.302163  0.624185  1
  C  C45  1  0.101872  0.197837  0.875815  1
  C  C46  1  0.802163  0.898128  0.624185  1
  C  C47  1  0.197837  0.101872  0.624185  1
