# generated using pymatgen
data_Ba2Mn3(SbO)2
_symmetry_space_group_name_H-M   'P 1'
_cell_length_a   11.13093272
_cell_length_b   11.13093272
_cell_length_c   11.13093272
_cell_angle_alpha   156.85524987
_cell_angle_beta   156.85524987
_cell_angle_gamma   32.96221355
_symmetry_Int_Tables_number   1
_chemical_formula_structural   Ba2Mn3(SbO)2
_chemical_formula_sum   'Ba2 Mn3 Sb2 O2'
_cell_volume   212.87277722
_cell_formula_units_Z   1
loop_
 _symmetry_equiv_pos_site_id
 _symmetry_equiv_pos_as_xyz
  1  'x, y, z'
loop_
 _atom_site_type_symbol
 _atom_site_label
 _atom_site_symmetry_multiplicity
 _atom_site_fract_x
 _atom_site_fract_y
 _atom_site_fract_z
 _atom_site_occupancy
  Ba  Ba0  1  0.581265  0.581265  0.000000  1
  Ba  Ba1  1  0.418735  0.418735  0.000000  1
  Mn  Mn2  1  0.000000  0.000000  0.000000  1
  Mn  Mn3  1  0.250000  0.750000  0.500000  1
  Mn  Mn4  1  0.750000  0.250000  0.500000  1
  Sb  Sb5  1  0.166597  0.166597  0.000000  1
  Sb  Sb6  1  0.833403  0.833403  0.000000  1
  O  O7  1  0.500000  0.000000  0.500000  1
  O  O8  1  0.000000  0.500000  0.500000  1
