# generated using pymatgen
data_CrPO4
_symmetry_space_group_name_H-M   'P 1'
_cell_length_a   9.03839306
_cell_length_b   9.03839306
_cell_length_c   9.03839306
_cell_angle_alpha   138.48904857
_cell_angle_beta   108.27394443
_cell_angle_gamma   86.42300912
_symmetry_Int_Tables_number   1
_chemical_formula_structural   CrPO4
_chemical_formula_sum   'Cr6 P6 O24'
_cell_volume   446.90620105
_cell_formula_units_Z   6
loop_
 _symmetry_equiv_pos_site_id
 _symmetry_equiv_pos_as_xyz
  1  'x, y, z'
loop_
 _atom_site_type_symbol
 _atom_site_label
 _atom_site_symmetry_multiplicity
 _atom_site_fract_x
 _atom_site_fract_y
 _atom_site_fract_z
 _atom_site_occupancy
  Cr  Cr0  1  0.883244  0.883244  0.000000  1
  Cr  Cr1  1  0.616756  0.116756  0.500000  1
  Cr  Cr2  1  0.116756  0.116756  0.000000  1
  Cr  Cr3  1  0.383244  0.883244  0.500000  1
  Cr  Cr4  1  1.000000  0.000000  0.500000  1
  Cr  Cr5  1  0.500000  0.500000  0.500000  1
  P  P6  1  0.676426  0.676426  0.000000  1
  P  P7  1  0.823574  0.323574  0.500000  1
  P  P8  1  0.323574  0.323574  0.000000  1
  P  P9  1  0.176426  0.676426  0.500000  1
  P  P10  1  0.250000  0.163657  0.413657  1
  P  P11  1  0.750000  0.836343  0.586343  1
  O  O12  1  0.151337  0.189382  0.538045  1
  O  O13  1  0.348663  0.386708  0.538045  1
  O  O14  1  0.848663  0.810618  0.461955  1
  O  O15  1  0.651337  0.613292  0.461955  1
  O  O16  1  0.860139  0.192994  0.281252  1
  O  O17  1  0.639861  0.421113  0.832855  1
  O  O18  1  0.588258  0.807006  0.167145  1
  O  O19  1  0.911742  0.578887  0.718748  1
  O  O20  1  0.139861  0.807006  0.718748  1
  O  O21  1  0.360139  0.578887  0.167145  1
  O  O22  1  0.411742  0.192994  0.832855  1
  O  O23  1  0.088258  0.421113  0.281252  1
  O  O24  1  0.627405  0.979271  0.606677  1
  O  O25  1  0.872595  0.979271  0.851866  1
  O  O26  1  0.127405  0.020729  0.148134  1
  O  O27  1  0.372595  0.020729  0.393323  1
  O  O28  1  0.369311  0.724388  0.576845  1
  O  O29  1  0.130689  0.207534  0.855077  1
  O  O30  1  0.352458  0.275612  0.144923  1
  O  O31  1  0.147542  0.792466  0.423155  1
  O  O32  1  0.630689  0.275612  0.423155  1
  O  O33  1  0.869311  0.792466  0.144923  1
  O  O34  1  0.647542  0.724388  0.855077  1
  O  O35  1  0.852458  0.207534  0.576845  1
