# generated using pymatgen
data_DySbPd
_symmetry_space_group_name_H-M   'P 1'
_cell_length_a   4.60416272
_cell_length_b   4.60416272
_cell_length_c   7.42788832
_cell_angle_alpha   90.00000000
_cell_angle_beta   90.00000000
_cell_angle_gamma   120.00000000
_symmetry_Int_Tables_number   1
_chemical_formula_structural   DySbPd
_chemical_formula_sum   'Dy2 Sb2 Pd2'
_cell_volume   136.36324431
_cell_formula_units_Z   2
loop_
 _symmetry_equiv_pos_site_id
 _symmetry_equiv_pos_as_xyz
  1  'x, y, z'
loop_
 _atom_site_type_symbol
 _atom_site_label
 _atom_site_symmetry_multiplicity
 _atom_site_fract_x
 _atom_site_fract_y
 _atom_site_fract_z
 _atom_site_occupancy
  Dy  Dy0  1  0.000000  0.000000  0.495759  1
  Dy  Dy1  1  0.000000  0.000000  0.995759  1
  Sb  Sb2  1  0.333333  0.666667  0.722659  1
  Sb  Sb3  1  0.666667  0.333333  0.222659  1
  Pd  Pd4  1  0.666667  0.333333  0.830603  1
  Pd  Pd5  1  0.333333  0.666667  0.330603  1
