# generated using pymatgen
data_SrCr10O15
_symmetry_space_group_name_H-M   'P 1'
_cell_length_a   7.83858554
_cell_length_b   7.83858554
_cell_length_c   9.54359805
_cell_angle_alpha   90.00000000
_cell_angle_beta   90.00000000
_cell_angle_gamma   96.27241076
_symmetry_Int_Tables_number   1
_chemical_formula_structural   SrCr10O15
_chemical_formula_sum   'Sr2 Cr20 O30'
_cell_volume   582.88100855
_cell_formula_units_Z   2
loop_
 _symmetry_equiv_pos_site_id
 _symmetry_equiv_pos_as_xyz
  1  'x, y, z'
loop_
 _atom_site_type_symbol
 _atom_site_label
 _atom_site_symmetry_multiplicity
 _atom_site_fract_x
 _atom_site_fract_y
 _atom_site_fract_z
 _atom_site_occupancy
  Sr  Sr0  1  0.500000  0.500000  0.500000  1
  Sr  Sr1  1  0.000000  0.000000  0.000000  1
  Cr  Cr2  1  0.814853  0.814853  0.634121  1
  Cr  Cr3  1  0.685147  0.685147  0.134121  1
  Cr  Cr4  1  0.314853  0.314853  0.865879  1
  Cr  Cr5  1  0.185147  0.185147  0.365879  1
  Cr  Cr6  1  0.790082  0.044099  0.354450  1
  Cr  Cr7  1  0.709918  0.455901  0.854450  1
  Cr  Cr8  1  0.544099  0.290082  0.145550  1
  Cr  Cr9  1  0.955901  0.209918  0.645550  1
  Cr  Cr10  1  0.209918  0.955901  0.645550  1
  Cr  Cr11  1  0.290082  0.544099  0.145550  1
  Cr  Cr12  1  0.455901  0.709918  0.854450  1
  Cr  Cr13  1  0.044099  0.790082  0.354450  1
  Cr  Cr14  1  0.918777  0.406272  0.114130  1
  Cr  Cr15  1  0.581223  0.093728  0.614130  1
  Cr  Cr16  1  0.906272  0.418777  0.385870  1
  Cr  Cr17  1  0.593728  0.081223  0.885870  1
  Cr  Cr18  1  0.081223  0.593728  0.885870  1
  Cr  Cr19  1  0.418777  0.906272  0.385870  1
  Cr  Cr20  1  0.093728  0.581223  0.614130  1
  Cr  Cr21  1  0.406272  0.918777  0.114130  1
  O  O22  1  0.000000  0.000000  0.500000  1
  O  O23  1  0.500000  0.500000  0.000000  1
  O  O24  1  0.754200  0.245800  0.500000  1
  O  O25  1  0.745800  0.254200  0.000000  1
  O  O26  1  0.245800  0.754200  0.500000  1
  O  O27  1  0.254200  0.745800  0.000000  1
  O  O28  1  0.638381  0.638381  0.730871  1
  O  O29  1  0.861619  0.861619  0.230871  1
  O  O30  1  0.138381  0.138381  0.769129  1
  O  O31  1  0.361619  0.361619  0.269129  1
  O  O32  1  0.064925  0.564925  0.250000  1
  O  O33  1  0.435075  0.935075  0.750000  1
  O  O34  1  0.935075  0.435075  0.750000  1
  O  O35  1  0.564925  0.064925  0.250000  1
  O  O36  1  0.460741  0.723025  0.241533  1
  O  O37  1  0.039259  0.776975  0.741533  1
  O  O38  1  0.223025  0.960741  0.258467  1
  O  O39  1  0.276975  0.539259  0.758467  1
  O  O40  1  0.539259  0.276975  0.758467  1
  O  O41  1  0.960741  0.223025  0.258467  1
  O  O42  1  0.776975  0.039259  0.741533  1
  O  O43  1  0.723025  0.460741  0.241533  1
  O  O44  1  0.363178  0.103881  0.507064  1
  O  O45  1  0.136822  0.396119  0.007064  1
  O  O46  1  0.603881  0.863178  0.992936  1
  O  O47  1  0.896119  0.636822  0.492936  1
  O  O48  1  0.636822  0.896119  0.492936  1
  O  O49  1  0.863178  0.603881  0.992936  1
  O  O50  1  0.396119  0.136822  0.007064  1
  O  O51  1  0.103881  0.363178  0.507064  1
