# generated using pymatgen
data_Nb5Ga13
_symmetry_space_group_name_H-M   'P 1'
_cell_length_a   20.48964570
_cell_length_b   20.48964570
_cell_length_c   3.79071793
_cell_angle_alpha   90.00000000
_cell_angle_beta   90.00000000
_cell_angle_gamma   169.34256331
_symmetry_Int_Tables_number   1
_chemical_formula_structural   Nb5Ga13
_chemical_formula_sum   'Nb5 Ga13'
_cell_volume   294.31558589
_cell_formula_units_Z   1
loop_
 _symmetry_equiv_pos_site_id
 _symmetry_equiv_pos_as_xyz
  1  'x, y, z'
loop_
 _atom_site_type_symbol
 _atom_site_label
 _atom_site_symmetry_multiplicity
 _atom_site_fract_x
 _atom_site_fract_y
 _atom_site_fract_z
 _atom_site_occupancy
  Nb  Nb0  1  0.107979  0.892021  0.500000  1
  Nb  Nb1  1  0.892021  0.107979  0.500000  1
  Nb  Nb2  1  0.283915  0.716085  0.000000  1
  Nb  Nb3  1  0.716085  0.283915  0.000000  1
  Nb  Nb4  1  0.500000  0.500000  0.000000  1
  Ga  Ga5  1  0.445142  0.554858  0.500000  1
  Ga  Ga6  1  0.554858  0.445142  0.500000  1
  Ga  Ga7  1  0.335656  0.664344  0.500000  1
  Ga  Ga8  1  0.664344  0.335656  0.500000  1
  Ga  Ga9  1  0.228179  0.771821  0.500000  1
  Ga  Ga10  1  0.000000  0.000000  0.500000  1
  Ga  Ga11  1  0.945389  0.054611  0.000000  1
  Ga  Ga12  1  0.054611  0.945389  1.000000  1
  Ga  Ga13  1  0.835045  0.164955  0.000000  1
  Ga  Ga14  1  0.164955  0.835045  0.000000  1
  Ga  Ga15  1  0.611893  0.388107  1.000000  1
  Ga  Ga16  1  0.388107  0.611893  1.000000  1
  Ga  Ga17  1  0.771821  0.228179  0.500000  1
