# generated using pymatgen
data_Na6S2O9
_symmetry_space_group_name_H-M   'P 1'
_cell_length_a   6.91765470
_cell_length_b   6.91765470
_cell_length_c   6.91765470
_cell_angle_alpha   60.00000000
_cell_angle_beta   60.00000000
_cell_angle_gamma   60.00000000
_symmetry_Int_Tables_number   1
_chemical_formula_structural   Na6S2O9
_chemical_formula_sum   'Na6 S2 O9'
_cell_volume   234.07856265
_cell_formula_units_Z   1
loop_
 _symmetry_equiv_pos_site_id
 _symmetry_equiv_pos_as_xyz
  1  'x, y, z'
loop_
 _atom_site_type_symbol
 _atom_site_label
 _atom_site_symmetry_multiplicity
 _atom_site_fract_x
 _atom_site_fract_y
 _atom_site_fract_z
 _atom_site_occupancy
  Na  Na0  1  0.764296  0.235704  0.764296  1
  Na  Na1  1  0.764296  0.764296  0.235704  1
  Na  Na2  1  0.235704  0.235704  0.764296  1
  Na  Na3  1  0.764296  0.235704  0.235704  1
  Na  Na4  1  0.235704  0.764296  0.764296  1
  Na  Na5  1  0.235704  0.764296  0.235704  1
  S  S6  1  0.250000  0.250000  0.250000  1
  S  S7  1  0.750000  0.750000  0.750000  1
  O  O8  1  0.000000  0.000000  0.000000  1
  O  O9  1  0.338208  0.338208  0.338208  1
  O  O10  1  0.661792  0.014624  0.661792  1
  O  O11  1  0.014624  0.661792  0.661792  1
  O  O12  1  0.661792  0.661792  0.014624  1
  O  O13  1  0.338208  0.338208  0.985376  1
  O  O14  1  0.338208  0.985376  0.338208  1
  O  O15  1  0.985376  0.338208  0.338208  1
  O  O16  1  0.661792  0.661792  0.661792  1
