# generated using pymatgen
data_Sc2(SeO4)3
_symmetry_space_group_name_H-M   'P 1'
_cell_length_a   9.06942034
_cell_length_b   9.33662606
_cell_length_c   15.52762104
_cell_angle_alpha   90.00000000
_cell_angle_beta   124.95485352
_cell_angle_gamma   90.00000000
_symmetry_Int_Tables_number   1
_chemical_formula_structural   Sc2(SeO4)3
_chemical_formula_sum   'Sc8 Se12 O48'
_cell_volume   1077.65153458
_cell_formula_units_Z   4
loop_
 _symmetry_equiv_pos_site_id
 _symmetry_equiv_pos_as_xyz
  1  'x, y, z'
loop_
 _atom_site_type_symbol
 _atom_site_label
 _atom_site_symmetry_multiplicity
 _atom_site_fract_x
 _atom_site_fract_y
 _atom_site_fract_z
 _atom_site_occupancy
  Sc  Sc0  1  0.132580  0.532569  0.385290  1
  Sc  Sc1  1  0.867420  0.032569  0.114710  1
  Sc  Sc2  1  0.867420  0.467431  0.614710  1
  Sc  Sc3  1  0.132580  0.967431  0.885290  1
  Sc  Sc4  1  0.632630  0.033169  0.383736  1
  Sc  Sc5  1  0.367370  0.533169  0.116264  1
  Sc  Sc6  1  0.367370  0.966831  0.616264  1
  Sc  Sc7  1  0.632630  0.466831  0.883736  1
  Se  Se8  1  0.040528  0.252366  0.005707  1
  Se  Se9  1  0.959472  0.752366  0.494293  1
  Se  Se10  1  0.959472  0.747634  0.994293  1
  Se  Se11  1  0.040528  0.247634  0.505707  1
  Se  Se12  1  0.533150  0.884859  0.143784  1
  Se  Se13  1  0.466850  0.384859  0.356216  1
  Se  Se14  1  0.466850  0.115141  0.856216  1
  Se  Se15  1  0.533150  0.615141  0.643784  1
  Se  Se16  1  0.755030  0.379917  0.150384  1
  Se  Se17  1  0.244970  0.879917  0.349616  1
  Se  Se18  1  0.244970  0.620083  0.849616  1
  Se  Se19  1  0.755030  0.120083  0.650384  1
  O  O20  1  0.017499  0.374477  0.423573  1
  O  O21  1  0.982501  0.874477  0.076427  1
  O  O22  1  0.982501  0.625523  0.576427  1
  O  O23  1  0.017499  0.125523  0.923573  1
  O  O24  1  0.125949  0.631825  0.066455  1
  O  O25  1  0.874051  0.131825  0.433545  1
  O  O26  1  0.874051  0.368175  0.933545  1
  O  O27  1  0.125949  0.868175  0.566455  1
  O  O28  1  0.237282  0.332917  0.057026  1
  O  O29  1  0.762718  0.832917  0.442974  1
  O  O30  1  0.762718  0.667083  0.942974  1
  O  O31  1  0.237282  0.167083  0.557026  1
  O  O32  1  0.033004  0.185521  0.102768  1
  O  O33  1  0.966996  0.685521  0.397232  1
  O  O34  1  0.966996  0.814479  0.897232  1
  O  O35  1  0.033004  0.314479  0.602768  1
  O  O36  1  0.601971  0.000301  0.241118  1
  O  O37  1  0.676488  0.427514  0.454754  1
  O  O38  1  0.323512  0.572486  0.545246  1
  O  O39  1  0.676488  0.072486  0.954754  1
  O  O40  1  0.607870  0.082176  0.678243  1
  O  O41  1  0.392130  0.582176  0.821757  1
  O  O42  1  0.392130  0.917824  0.321757  1
  O  O43  1  0.607870  0.417824  0.178243  1
  O  O44  1  0.665667  0.083893  0.524869  1
  O  O45  1  0.334333  0.583893  0.975131  1
  O  O46  1  0.334333  0.916107  0.475131  1
  O  O47  1  0.665667  0.416107  0.024869  1
  O  O48  1  0.798554  0.294845  0.671953  1
  O  O49  1  0.201446  0.794845  0.828047  1
  O  O50  1  0.201446  0.705155  0.328047  1
  O  O51  1  0.798554  0.205155  0.171953  1
  O  O52  1  0.059393  0.522085  0.774995  1
  O  O53  1  0.940607  0.022085  0.725005  1
  O  O54  1  0.940607  0.477915  0.225005  1
  O  O55  1  0.059393  0.977915  0.274995  1
  O  O56  1  0.671759  0.604797  0.605897  1
  O  O57  1  0.328241  0.104797  0.894103  1
  O  O58  1  0.328241  0.395203  0.394103  1
  O  O59  1  0.671759  0.895203  0.105897  1
  O  O60  1  0.533225  0.780989  0.682745  1
  O  O61  1  0.466775  0.280989  0.817255  1
  O  O62  1  0.466775  0.219011  0.317255  1
  O  O63  1  0.533225  0.719011  0.182745  1
  O  O64  1  0.601971  0.499699  0.741118  1
  O  O65  1  0.398029  0.999699  0.758882  1
  O  O66  1  0.398029  0.500301  0.258882  1
  O  O67  1  0.323512  0.927514  0.045246  1
