# generated using pymatgen
data_Ba2Yb(CuO2)4
_symmetry_space_group_name_H-M   'P 1'
_cell_length_a   14.07800758
_cell_length_b   14.07800758
_cell_length_c   3.86422677
_cell_angle_alpha   90.00000000
_cell_angle_beta   90.00000000
_cell_angle_gamma   164.35415260
_symmetry_Int_Tables_number   1
_chemical_formula_structural   Ba2Yb(CuO2)4
_chemical_formula_sum   'Ba2 Yb1 Cu4 O8'
_cell_volume   206.54303550
_cell_formula_units_Z   1
loop_
 _symmetry_equiv_pos_site_id
 _symmetry_equiv_pos_as_xyz
  1  'x, y, z'
loop_
 _atom_site_type_symbol
 _atom_site_label
 _atom_site_symmetry_multiplicity
 _atom_site_fract_x
 _atom_site_fract_y
 _atom_site_fract_z
 _atom_site_occupancy
  Ba  Ba0  1  0.869583  0.130417  0.500000  1
  Ba  Ba1  1  0.130417  0.869583  0.500000  1
  Yb  Yb2  1  0.000000  0.000000  0.500000  1
  Cu  Cu3  1  0.442778  0.557222  0.000000  1
  Cu  Cu4  1  0.557222  0.442778  0.000000  1
  Cu  Cu5  1  0.287805  0.712195  0.000000  1
  Cu  Cu6  1  0.712195  0.287805  0.000000  1
  O  O7  1  0.779947  0.220053  0.000000  1
  O  O8  1  0.220053  0.779947  1.000000  1
  O  O9  1  0.947053  0.052947  1.000000  1
  O  O10  1  0.052947  0.947053  0.000000  1
  O  O11  1  0.446453  0.553547  0.500000  1
  O  O12  1  0.553547  0.446453  0.500000  1
  O  O13  1  0.353265  0.646735  0.000000  1
  O  O14  1  0.646735  0.353265  0.000000  1
