# generated using pymatgen
data_Pr2(ZnGe2)3
_symmetry_space_group_name_H-M   'P 1'
_cell_length_a   12.82144705
_cell_length_b   12.82144705
_cell_length_c   5.98998318
_cell_angle_alpha   90.00000000
_cell_angle_beta   90.00000000
_cell_angle_gamma   152.94100820
_symmetry_Int_Tables_number   1
_chemical_formula_structural   Pr2(ZnGe2)3
_chemical_formula_sum   'Pr4 Zn6 Ge12'
_cell_volume   447.94317142
_cell_formula_units_Z   2
loop_
 _symmetry_equiv_pos_site_id
 _symmetry_equiv_pos_as_xyz
  1  'x, y, z'
loop_
 _atom_site_type_symbol
 _atom_site_label
 _atom_site_symmetry_multiplicity
 _atom_site_fract_x
 _atom_site_fract_y
 _atom_site_fract_z
 _atom_site_occupancy
  Pr  Pr0  1  0.393752  0.606248  0.750000  1
  Pr  Pr1  1  0.606248  0.393752  0.250000  1
  Pr  Pr2  1  0.894221  0.105779  0.250000  1
  Pr  Pr3  1  0.105779  0.894221  0.750000  1
  Zn  Zn4  1  0.734946  0.734946  0.000000  1
  Zn  Zn5  1  0.840051  0.159949  0.750000  1
  Zn  Zn6  1  0.734946  0.734946  0.500000  1
  Zn  Zn7  1  0.265054  0.265054  0.000000  1
  Zn  Zn8  1  0.159949  0.840051  0.250000  1
  Zn  Zn9  1  0.265054  0.265054  0.500000  1
  Ge  Ge10  1  0.083003  0.485200  0.034005  1
  Ge  Ge11  1  0.916997  0.514800  0.534005  1
  Ge  Ge12  1  0.514800  0.916997  0.034005  1
  Ge  Ge13  1  0.485200  0.083003  0.534005  1
  Ge  Ge14  1  0.916997  0.514800  0.965995  1
  Ge  Ge15  1  0.083003  0.485200  0.465995  1
  Ge  Ge16  1  0.485200  0.083003  0.965995  1
  Ge  Ge17  1  0.058044  0.941956  0.250000  1
  Ge  Ge18  1  0.569144  0.430856  0.750000  1
  Ge  Ge19  1  0.430856  0.569144  0.250000  1
  Ge  Ge20  1  0.941956  0.058044  0.750000  1
  Ge  Ge21  1  0.514800  0.916997  0.465995  1
