# generated using pymatgen
data_Rb6Ge2O7
_symmetry_space_group_name_H-M   'P 1'
_cell_length_a   6.93705539
_cell_length_b   9.56561477
_cell_length_c   11.74977133
_cell_angle_alpha   90.00000000
_cell_angle_beta   124.59101791
_cell_angle_gamma   90.00000000
_symmetry_Int_Tables_number   1
_chemical_formula_structural   Rb6Ge2O7
_chemical_formula_sum   'Rb12 Ge4 O14'
_cell_volume   641.85394324
_cell_formula_units_Z   2
loop_
 _symmetry_equiv_pos_site_id
 _symmetry_equiv_pos_as_xyz
  1  'x, y, z'
loop_
 _atom_site_type_symbol
 _atom_site_label
 _atom_site_symmetry_multiplicity
 _atom_site_fract_x
 _atom_site_fract_y
 _atom_site_fract_z
 _atom_site_occupancy
  Rb  Rb0  1  0.601104  0.786395  0.721401  1
  Rb  Rb1  1  0.601104  0.713605  0.221401  1
  Rb  Rb2  1  0.398896  0.213605  0.278599  1
  Rb  Rb3  1  0.038896  0.353076  0.918624  1
  Rb  Rb4  1  0.961104  0.853076  0.581376  1
  Rb  Rb5  1  0.961104  0.646924  0.081376  1
  Rb  Rb6  1  0.038896  0.146924  0.418624  1
  Rb  Rb7  1  0.791254  0.473080  0.543036  1
  Rb  Rb8  1  0.208746  0.973080  0.956964  1
  Rb  Rb9  1  0.208746  0.526920  0.456964  1
  Rb  Rb10  1  0.791254  0.026920  0.043036  1
  Rb  Rb11  1  0.398896  0.286395  0.778599  1
  Ge  Ge12  1  0.678608  0.361298  0.127914  1
  Ge  Ge13  1  0.678608  0.138702  0.627914  1
  Ge  Ge14  1  0.321392  0.638702  0.872086  1
  Ge  Ge15  1  0.321392  0.861298  0.372086  1
  O  O16  1  0.493134  0.287906  0.564913  1
  O  O17  1  0.500000  0.000000  0.500000  1
  O  O18  1  0.500000  0.500000  0.000000  1
  O  O19  1  0.745165  0.083820  0.790590  1
  O  O20  1  0.506866  0.787906  0.935087  1
  O  O21  1  0.506866  0.712094  0.435087  1
  O  O22  1  0.493134  0.212094  0.064913  1
  O  O23  1  0.932189  0.339450  0.126832  1
  O  O24  1  0.067811  0.839450  0.373168  1
  O  O25  1  0.067811  0.660550  0.873168  1
  O  O26  1  0.932189  0.160550  0.626832  1
  O  O27  1  0.745165  0.416180  0.290590  1
  O  O28  1  0.254835  0.916180  0.209410  1
  O  O29  1  0.254835  0.583820  0.709410  1
