# generated using pymatgen
data_Na2Si2Se5
_symmetry_space_group_name_H-M   'P 1'
_cell_length_a   9.55505444
_cell_length_b   9.55505444
_cell_length_c   11.11320979
_cell_angle_alpha   90.00000000
_cell_angle_beta   90.00000000
_cell_angle_gamma   90.63316906
_symmetry_Int_Tables_number   1
_chemical_formula_structural   Na2Si2Se5
_chemical_formula_sum   'Na8 Si8 Se20'
_cell_volume   1014.56371390
_cell_formula_units_Z   4
loop_
 _symmetry_equiv_pos_site_id
 _symmetry_equiv_pos_as_xyz
  1  'x, y, z'
loop_
 _atom_site_type_symbol
 _atom_site_label
 _atom_site_symmetry_multiplicity
 _atom_site_fract_x
 _atom_site_fract_y
 _atom_site_fract_z
 _atom_site_occupancy
  Na  Na0  1  0.576258  0.081457  0.750000  1
  Na  Na1  1  0.423742  0.918543  0.250000  1
  Na  Na2  1  0.918543  0.423742  0.750000  1
  Na  Na3  1  0.081457  0.576258  0.250000  1
  Na  Na4  1  0.148236  0.148236  0.500000  1
  Na  Na5  1  0.851764  0.851764  1.000000  1
  Na  Na6  1  0.851764  0.851764  0.500000  1
  Na  Na7  1  0.148236  0.148236  1.000000  1
  Si  Si8  1  0.583508  0.688314  0.750000  1
  Si  Si9  1  0.416492  0.311686  0.250000  1
  Si  Si10  1  0.311686  0.416492  0.750000  1
  Si  Si11  1  0.688314  0.583508  0.250000  1
  Si  Si12  1  0.253741  0.746259  0.915751  1
  Si  Si13  1  0.746259  0.253741  0.415751  1
  Si  Si14  1  0.253741  0.746259  0.584249  1
  Si  Si15  1  0.746259  0.253741  0.084249  1
  Se  Se16  1  0.730905  0.812978  0.250000  1
  Se  Se17  1  0.269095  0.187022  0.750000  1
  Se  Se18  1  0.187022  0.269095  0.250000  1
  Se  Se19  1  0.812978  0.730905  0.750000  1
  Se  Se20  1  0.159324  0.840676  0.080406  1
  Se  Se21  1  0.840676  0.159324  0.580406  1
  Se  Se22  1  0.159324  0.840676  0.419594  1
  Se  Se23  1  0.840676  0.159324  0.919594  1
  Se  Se24  1  0.151549  0.848451  0.750000  1
  Se  Se25  1  0.848451  0.151549  0.250000  1
  Se  Se26  1  0.507523  0.205724  0.079370  1
  Se  Se27  1  0.492477  0.794276  0.579370  1
  Se  Se28  1  0.794276  0.492477  0.420630  1
  Se  Se29  1  0.205724  0.507523  0.920630  1
  Se  Se30  1  0.492477  0.794276  0.920630  1
  Se  Se31  1  0.507523  0.205724  0.420630  1
  Se  Se32  1  0.205724  0.507523  0.579370  1
  Se  Se33  1  0.794276  0.492477  0.079370  1
  Se  Se34  1  0.549760  0.450240  0.750000  1
  Se  Se35  1  0.450240  0.549760  0.250000  1
