# generated using pymatgen
data_SrTh2Se5
_symmetry_space_group_name_H-M   'P 1'
_cell_length_a   8.80346416
_cell_length_b   7.96907401
_cell_length_c   12.66900801
_cell_angle_alpha   90.00000000
_cell_angle_beta   90.00314656
_cell_angle_gamma   90.00000000
_symmetry_Int_Tables_number   1
_chemical_formula_structural   SrTh2Se5
_chemical_formula_sum   'Sr4 Th8 Se20'
_cell_volume   888.80005152
_cell_formula_units_Z   4
loop_
 _symmetry_equiv_pos_site_id
 _symmetry_equiv_pos_as_xyz
  1  'x, y, z'
loop_
 _atom_site_type_symbol
 _atom_site_label
 _atom_site_symmetry_multiplicity
 _atom_site_fract_x
 _atom_site_fract_y
 _atom_site_fract_z
 _atom_site_occupancy
  Sr  Sr0  1  0.505437  0.966227  0.174705  1
  Sr  Sr1  1  0.494563  0.466227  0.325295  1
  Sr  Sr2  1  0.494563  0.033773  0.825295  1
  Sr  Sr3  1  0.505437  0.533773  0.674705  1
  Th  Th4  1  0.251240  0.574723  0.991175  1
  Th  Th5  1  0.251240  0.925277  0.491175  1
  Th  Th6  1  0.748760  0.425277  0.008825  1
  Th  Th7  1  0.748760  0.074723  0.508825  1
  Th  Th8  1  0.001952  0.517650  0.679764  1
  Th  Th9  1  0.998048  0.017650  0.820236  1
  Th  Th10  1  0.998048  0.482350  0.320236  1
  Th  Th11  1  0.001952  0.982350  0.179764  1
  Se  Se12  1  0.956139  0.839617  0.398410  1
  Se  Se13  1  0.775934  0.827303  0.684815  1
  Se  Se14  1  0.775934  0.672697  0.184815  1
  Se  Se15  1  0.224066  0.172697  0.315185  1
  Se  Se16  1  0.221389  0.542658  0.498263  1
  Se  Se17  1  0.778611  0.042658  0.001737  1
  Se  Se18  1  0.778611  0.457342  0.501737  1
  Se  Se19  1  0.221389  0.957342  0.998263  1
  Se  Se20  1  0.764525  0.198277  0.283164  1
  Se  Se21  1  0.235475  0.698277  0.216836  1
  Se  Se22  1  0.235475  0.801723  0.716836  1
  Se  Se23  1  0.956139  0.660383  0.898410  1
  Se  Se24  1  0.541540  0.828866  0.410775  1
  Se  Se25  1  0.458460  0.328866  0.089225  1
  Se  Se26  1  0.458460  0.171134  0.589225  1
  Se  Se27  1  0.541540  0.671134  0.910775  1
  Se  Se28  1  0.764525  0.301723  0.783164  1
  Se  Se29  1  0.043861  0.339617  0.101590  1
  Se  Se30  1  0.043861  0.160383  0.601590  1
  Se  Se31  1  0.224066  0.327303  0.815185  1
