# generated using pymatgen
data_TbTaO4
_symmetry_space_group_name_H-M   'P 1'
_cell_length_a   5.17112769
_cell_length_b   5.53512175
_cell_length_c   5.36299321
_cell_angle_alpha   90.00000000
_cell_angle_beta   96.65590776
_cell_angle_gamma   90.00000000
_symmetry_Int_Tables_number   1
_chemical_formula_structural   TbTaO4
_chemical_formula_sum   'Tb2 Ta2 O8'
_cell_volume   152.46940089
_cell_formula_units_Z   2
loop_
 _symmetry_equiv_pos_site_id
 _symmetry_equiv_pos_as_xyz
  1  'x, y, z'
loop_
 _atom_site_type_symbol
 _atom_site_label
 _atom_site_symmetry_multiplicity
 _atom_site_fract_x
 _atom_site_fract_y
 _atom_site_fract_z
 _atom_site_occupancy
  Tb  Tb0  1  0.000000  0.766618  0.250000  1
  Tb  Tb1  1  0.000000  0.233382  0.750000  1
  Ta  Ta2  1  0.500000  0.692120  0.750000  1
  Ta  Ta3  1  0.500000  0.307880  0.250000  1
  O  O4  1  0.269415  0.564088  0.994418  1
  O  O5  1  0.730585  0.564088  0.505582  1
  O  O6  1  0.730585  0.435912  0.005582  1
  O  O7  1  0.269415  0.435912  0.494418  1
  O  O8  1  0.749529  0.086632  0.397979  1
  O  O9  1  0.250471  0.086632  0.102021  1
  O  O10  1  0.250471  0.913368  0.602021  1
  O  O11  1  0.749529  0.913368  0.897979  1
