# generated using pymatgen
data_MnGeRh
_symmetry_space_group_name_H-M   'P 1'
_cell_length_a   7.46951533
_cell_length_b   7.46951533
_cell_length_c   7.46951533
_cell_angle_alpha   127.41697137
_cell_angle_beta   122.94009631
_cell_angle_gamma   81.29349670
_symmetry_Int_Tables_number   1
_chemical_formula_structural   MnGeRh
_chemical_formula_sum   'Mn6 Ge6 Rh6'
_cell_volume   267.58047025
_cell_formula_units_Z   6
loop_
 _symmetry_equiv_pos_site_id
 _symmetry_equiv_pos_as_xyz
  1  'x, y, z'
loop_
 _atom_site_type_symbol
 _atom_site_label
 _atom_site_symmetry_multiplicity
 _atom_site_fract_x
 _atom_site_fract_y
 _atom_site_fract_z
 _atom_site_occupancy
  Mn  Mn0  1  0.942785  0.989209  0.546424  1
  Mn  Mn1  1  0.057215  0.603638  0.046424  1
  Mn  Mn2  1  0.532806  0.559214  0.526407  1
  Mn  Mn3  1  0.467194  0.993601  0.026407  1
  Mn  Mn4  1  0.741472  0.397500  0.156029  1
  Mn  Mn5  1  0.258528  0.414557  0.656029  1
  Ge  Ge6  1  0.722363  0.973345  0.750982  1
  Ge  Ge7  1  0.840280  0.329484  0.503882  1
  Ge  Ge8  1  0.159720  0.663602  0.489204  1
  Ge  Ge9  1  0.277637  0.028619  0.250982  1
  Ge  Ge10  1  0.325602  0.329484  0.989204  1
  Ge  Ge11  1  0.674398  0.663602  0.003882  1
  Rh  Rh12  1  0.000000  0.739780  0.739780  1
  Rh  Rh13  1  0.500000  0.739780  0.239780  1
  Rh  Rh14  1  0.337448  0.000327  0.595513  1
  Rh  Rh15  1  0.095185  0.258065  0.095513  1
  Rh  Rh16  1  0.904815  0.000327  0.162879  1
  Rh  Rh17  1  0.662552  0.258065  0.662879  1
