# generated using pymatgen
data_Ba2P2O7
_symmetry_space_group_name_H-M   'P 1'
_cell_length_a   5.69576471
_cell_length_b   9.42273513
_cell_length_c   14.02823121
_cell_angle_alpha   90.00000000
_cell_angle_beta   90.00000000
_cell_angle_gamma   90.00000000
_symmetry_Int_Tables_number   1
_chemical_formula_structural   Ba2P2O7
_chemical_formula_sum   'Ba8 P8 O28'
_cell_volume   752.89071122
_cell_formula_units_Z   4
loop_
 _symmetry_equiv_pos_site_id
 _symmetry_equiv_pos_as_xyz
  1  'x, y, z'
loop_
 _atom_site_type_symbol
 _atom_site_label
 _atom_site_symmetry_multiplicity
 _atom_site_fract_x
 _atom_site_fract_y
 _atom_site_fract_z
 _atom_site_occupancy
  Ba  Ba0  1  0.750000  0.639773  0.082663  1
  Ba  Ba1  1  0.750000  0.139773  0.417337  1
  Ba  Ba2  1  0.250000  0.360227  0.917337  1
  Ba  Ba3  1  0.250000  0.860227  0.582663  1
  Ba  Ba4  1  0.750000  0.658869  0.755469  1
  Ba  Ba5  1  0.750000  0.158869  0.744531  1
  Ba  Ba6  1  0.250000  0.341131  0.244531  1
  Ba  Ba7  1  0.250000  0.841131  0.255469  1
  P  P8  1  0.750000  0.281912  0.042613  1
  P  P9  1  0.750000  0.781912  0.457387  1
  P  P10  1  0.250000  0.718088  0.957387  1
  P  P11  1  0.250000  0.218088  0.542613  1
  P  P12  1  0.750000  0.047275  0.185194  1
  P  P13  1  0.750000  0.547275  0.314806  1
  P  P14  1  0.250000  0.952725  0.814806  1
  P  P15  1  0.250000  0.452725  0.685194  1
  O  O16  1  0.972603  0.356473  0.079986  1
  O  O17  1  0.527397  0.856473  0.420014  1
  O  O18  1  0.472603  0.643527  0.920014  1
  O  O19  1  0.027397  0.143527  0.579986  1
  O  O20  1  0.027397  0.643527  0.920014  1
  O  O21  1  0.472603  0.143527  0.579986  1
  O  O22  1  0.527397  0.356473  0.079986  1
  O  O23  1  0.972603  0.856473  0.420014  1
  O  O24  1  0.750000  0.272262  0.933265  1
  O  O25  1  0.750000  0.772262  0.566735  1
  O  O26  1  0.250000  0.727738  0.066735  1
  O  O27  1  0.250000  0.227738  0.433265  1
  O  O28  1  0.750000  0.118697  0.079162  1
  O  O29  1  0.750000  0.618697  0.420838  1
  O  O30  1  0.250000  0.881303  0.920838  1
  O  O31  1  0.250000  0.381303  0.579162  1
  O  O32  1  0.973373  0.095655  0.237757  1
  O  O33  1  0.526627  0.595655  0.262243  1
  O  O34  1  0.473373  0.904345  0.762243  1
  O  O35  1  0.026627  0.404345  0.737757  1
  O  O36  1  0.026627  0.904345  0.762243  1
  O  O37  1  0.473373  0.404345  0.737757  1
  O  O38  1  0.526627  0.095655  0.237757  1
  O  O39  1  0.973373  0.595655  0.262243  1
  O  O40  1  0.750000  0.887468  0.167305  1
  O  O41  1  0.750000  0.387468  0.332695  1
  O  O42  1  0.250000  0.112532  0.832695  1
  O  O43  1  0.250000  0.612532  0.667305  1
