# generated using pymatgen
data_HoCrO4
_symmetry_space_group_name_H-M   'P 1'
_cell_length_a   6.68862552
_cell_length_b   6.68862552
_cell_length_c   6.68862552
_cell_angle_alpha   135.72936305
_cell_angle_beta   135.72936305
_cell_angle_gamma   64.39902279
_symmetry_Int_Tables_number   1
_chemical_formula_structural   HoCrO4
_chemical_formula_sum   'Ho2 Cr2 O8'
_cell_volume   143.79821507
_cell_formula_units_Z   2
loop_
 _symmetry_equiv_pos_site_id
 _symmetry_equiv_pos_as_xyz
  1  'x, y, z'
loop_
 _atom_site_type_symbol
 _atom_site_label
 _atom_site_symmetry_multiplicity
 _atom_site_fract_x
 _atom_site_fract_y
 _atom_site_fract_z
 _atom_site_occupancy
  Ho  Ho0  1  0.000000  0.000000  0.000000  1
  Ho  Ho1  1  0.750000  0.250000  0.500000  1
  Cr  Cr2  1  0.500000  0.500000  0.000000  1
  Cr  Cr3  1  0.250000  0.750000  0.500000  1
  O  O4  1  0.162622  0.568090  0.886185  1
  O  O5  1  0.318090  0.931905  0.905468  1
  O  O6  1  0.026437  0.412622  0.094532  1
  O  O7  1  0.681905  0.276437  0.113815  1
  O  O8  1  0.068095  0.973563  0.386185  1
  O  O9  1  0.723563  0.837378  0.405468  1
  O  O10  1  0.431910  0.318095  0.594532  1
  O  O11  1  0.587378  0.681910  0.613815  1
