# generated using pymatgen
data_NiSbSe
_symmetry_space_group_name_H-M   'P 1'
_cell_length_a   6.12153330
_cell_length_b   6.12153330
_cell_length_c   6.12153330
_cell_angle_alpha   90.00000000
_cell_angle_beta   90.00000000
_cell_angle_gamma   90.00000000
_symmetry_Int_Tables_number   1
_chemical_formula_structural   NiSbSe
_chemical_formula_sum   'Ni4 Sb4 Se4'
_cell_volume   229.39325766
_cell_formula_units_Z   4
loop_
 _symmetry_equiv_pos_site_id
 _symmetry_equiv_pos_as_xyz
  1  'x, y, z'
loop_
 _atom_site_type_symbol
 _atom_site_label
 _atom_site_symmetry_multiplicity
 _atom_site_fract_x
 _atom_site_fract_y
 _atom_site_fract_z
 _atom_site_occupancy
  Ni  Ni0  1  0.990493  0.990493  0.990493  1
  Ni  Ni1  1  0.509507  0.009507  0.490493  1
  Ni  Ni2  1  0.490493  0.509507  0.009507  1
  Ni  Ni3  1  0.009507  0.490493  0.509507  1
  Sb  Sb4  1  0.368654  0.131346  0.868654  1
  Sb  Sb5  1  0.868654  0.368654  0.131346  1
  Sb  Sb6  1  0.631346  0.631346  0.631346  1
  Sb  Sb7  1  0.131346  0.868654  0.368654  1
  Se  Se8  1  0.875351  0.124649  0.624649  1
  Se  Se9  1  0.124649  0.624649  0.875351  1
  Se  Se10  1  0.624649  0.875351  0.124649  1
  Se  Se11  1  0.375351  0.375351  0.375351  1
