# generated using pymatgen
data_Tl3Os
_symmetry_space_group_name_H-M   'P 1'
_cell_length_a   6.26383841
_cell_length_b   6.26383841
_cell_length_c   5.44515656
_cell_angle_alpha   90.00000000
_cell_angle_beta   90.00000000
_cell_angle_gamma   120.00000000
_symmetry_Int_Tables_number   1
_chemical_formula_structural   Tl3Os
_chemical_formula_sum   'Tl6 Os2'
_cell_volume   185.02145588
_cell_formula_units_Z   2
loop_
 _symmetry_equiv_pos_site_id
 _symmetry_equiv_pos_as_xyz
  1  'x, y, z'
loop_
 _atom_site_type_symbol
 _atom_site_label
 _atom_site_symmetry_multiplicity
 _atom_site_fract_x
 _atom_site_fract_y
 _atom_site_fract_z
 _atom_site_occupancy
  Tl  Tl0  1  0.828106  0.171894  0.750000  1
  Tl  Tl1  1  0.343788  0.171894  0.750000  1
  Tl  Tl2  1  0.828106  0.656212  0.750000  1
  Tl  Tl3  1  0.171894  0.828106  0.250000  1
  Tl  Tl4  1  0.656212  0.828106  0.250000  1
  Tl  Tl5  1  0.171894  0.343788  0.250000  1
  Os  Os6  1  0.666667  0.333333  0.250000  1
  Os  Os7  1  0.333333  0.666667  0.750000  1
