# generated using pymatgen
data_MgSiO3
_symmetry_space_group_name_H-M   'P 1'
_cell_length_a   5.33700852
_cell_length_b   8.92151518
_cell_length_c   18.77323348
_cell_angle_alpha   90.00000000
_cell_angle_beta   94.44965707
_cell_angle_gamma   90.00000000
_symmetry_Int_Tables_number   1
_chemical_formula_structural   MgSiO3
_chemical_formula_sum   'Mg16 Si16 O48'
_cell_volume   891.17830770
_cell_formula_units_Z   16
loop_
 _symmetry_equiv_pos_site_id
 _symmetry_equiv_pos_as_xyz
  1  'x, y, z'
loop_
 _atom_site_type_symbol
 _atom_site_label
 _atom_site_symmetry_multiplicity
 _atom_site_fract_x
 _atom_site_fract_y
 _atom_site_fract_z
 _atom_site_occupancy
  Mg  Mg0  1  0.750834  0.099998  0.813815  1
  Mg  Mg1  1  0.250834  0.900002  0.813815  1
  Mg  Mg2  1  0.747405  0.744262  0.813882  1
  Mg  Mg3  1  0.247405  0.255738  0.813882  1
  Mg  Mg4  1  0.631406  0.601285  0.563995  1
  Mg  Mg5  1  0.131406  0.398715  0.563995  1
  Mg  Mg6  1  0.632795  0.241280  0.562653  1
  Mg  Mg7  1  0.132795  0.758720  0.562653  1
  Mg  Mg8  1  0.189584  0.100144  0.311320  1
  Mg  Mg9  1  0.689584  0.899856  0.311320  1
  Mg  Mg10  1  0.189000  0.740118  0.311194  1
  Mg  Mg11  1  0.689000  0.259882  0.311194  1
  Mg  Mg12  1  0.260295  0.400858  0.061195  1
  Mg  Mg13  1  0.760295  0.599142  0.061195  1
  Mg  Mg14  1  0.759097  0.241661  0.062231  1
  Mg  Mg15  1  0.259097  0.758339  0.062231  1
  Si  Si16  1  0.627530  0.911936  0.961324  1
  Si  Si17  1  0.127530  0.088064  0.961324  1
  Si  Si18  1  0.567018  0.411941  0.914866  1
  Si  Si19  1  0.067018  0.588059  0.914866  1
  Si  Si20  1  0.338718  0.589551  0.710668  1
  Si  Si21  1  0.838718  0.410449  0.710668  1
  Si  Si22  1  0.873616  0.911738  0.667401  1
  Si  Si23  1  0.373616  0.088262  0.667401  1
  Si  Si24  1  0.920542  0.589547  0.416241  1
  Si  Si25  1  0.420542  0.410453  0.416241  1
  Si  Si26  1  0.897259  0.089338  0.458062  1
  Si  Si27  1  0.397259  0.910662  0.458062  1
  Si  Si28  1  0.482775  0.089624  0.163881  1
  Si  Si29  1  0.982775  0.910376  0.163881  1
  Si  Si30  1  0.962715  0.410628  0.207765  1
  Si  Si31  1  0.462715  0.589372  0.207765  1
  O  O32  1  0.597746  0.908824  0.873828  1
  O  O33  1  0.097746  0.091176  0.873828  1
  O  O34  1  0.557434  0.760623  0.002614  1
  O  O35  1  0.057434  0.239377  0.002614  1
  O  O36  1  0.423466  0.039859  0.987985  1
  O  O37  1  0.923466  0.960141  0.987985  1
  O  O38  1  0.583641  0.411499  0.002161  1
  O  O39  1  0.083641  0.588501  0.002161  1
  O  O40  1  0.771840  0.536014  0.886362  1
  O  O41  1  0.271840  0.463986  0.886362  1
  O  O42  1  0.083969  0.743981  0.873510  1
  O  O43  1  0.583969  0.256019  0.873510  1
  O  O44  1  0.818486  0.406705  0.623038  1
  O  O45  1  0.318486  0.593295  0.623038  1
  O  O46  1  0.421592  0.741471  0.753188  1
  O  O47  1  0.921592  0.258529  0.753188  1
  O  O48  1  0.562817  0.466181  0.737316  1
  O  O49  1  0.062817  0.533819  0.737316  1
  O  O50  1  0.399200  0.090167  0.754688  1
  O  O51  1  0.899200  0.909833  0.754688  1
  O  O52  1  0.832505  0.758426  0.623491  1
  O  O53  1  0.332505  0.241574  0.623491  1
  O  O54  1  0.653992  0.036267  0.640104  1
  O  O55  1  0.153992  0.963733  0.640104  1
  O  O56  1  0.440048  0.407000  0.503385  1
  O  O57  1  0.940048  0.593000  0.503385  1
  O  O58  1  0.887550  0.743387  0.371703  1
  O  O59  1  0.387550  0.256613  0.371703  1
  O  O60  1  0.696030  0.468520  0.388402  1
  O  O61  1  0.196030  0.531480  0.388402  1
  O  O62  1  0.877849  0.092356  0.370756  1
  O  O63  1  0.377849  0.907644  0.370756  1
  O  O64  1  0.432955  0.756470  0.501864  1
  O  O65  1  0.932955  0.243530  0.501864  1
  O  O66  1  0.620673  0.032592  0.485785  1
  O  O67  1  0.120673  0.967408  0.485785  1
  O  O68  1  0.500795  0.090722  0.251069  1
  O  O69  1  0.000795  0.909278  0.251069  1
  O  O70  1  0.956600  0.752493  0.122931  1
  O  O71  1  0.456600  0.247507  0.122931  1
  O  O72  1  0.755733  0.029357  0.134283  1
  O  O73  1  0.255733  0.970643  0.134283  1
  O  O74  1  0.946849  0.408493  0.120673  1
  O  O75  1  0.446849  0.591507  0.120673  1
  O  O76  1  0.990858  0.254675  0.250299  1
  O  O77  1  0.490858  0.745325  0.250299  1
  O  O78  1  0.688784  0.469993  0.236070  1
  O  O79  1  0.188784  0.530007  0.236070  1
