# generated using pymatgen
data_Ba3ZnB5PO14
_symmetry_space_group_name_H-M   'P 1'
_cell_length_a   7.18345317
_cell_length_b   8.32283286
_cell_length_c   10.49121624
_cell_angle_alpha   90.00000000
_cell_angle_beta   90.00000000
_cell_angle_gamma   90.00000000
_symmetry_Int_Tables_number   1
_chemical_formula_structural   Ba3ZnB5PO14
_chemical_formula_sum   'Ba6 Zn2 B10 P2 O28'
_cell_volume   627.23498911
_cell_formula_units_Z   2
loop_
 _symmetry_equiv_pos_site_id
 _symmetry_equiv_pos_as_xyz
  1  'x, y, z'
loop_
 _atom_site_type_symbol
 _atom_site_label
 _atom_site_symmetry_multiplicity
 _atom_site_fract_x
 _atom_site_fract_y
 _atom_site_fract_z
 _atom_site_occupancy
  Ba  Ba0  1  0.563265  0.438663  0.730384  1
  Ba  Ba1  1  0.563265  0.438663  0.269616  1
  Ba  Ba2  1  0.436735  0.938663  0.769616  1
  Ba  Ba3  1  0.436735  0.938663  0.230384  1
  Ba  Ba4  1  0.972959  0.225346  0.500000  1
  Ba  Ba5  1  0.027041  0.725346  0.000000  1
  Zn  Zn6  1  0.240547  0.331705  0.000000  1
  Zn  Zn7  1  0.759453  0.831705  0.500000  1
  B  B8  1  0.052106  0.425079  0.763343  1
  B  B9  1  0.052106  0.425079  0.236657  1
  B  B10  1  0.947894  0.925079  0.736657  1
  B  B11  1  0.947894  0.925079  0.263343  1
  B  B12  1  0.898491  0.174607  0.877488  1
  B  B13  1  0.898491  0.174607  0.122512  1
  B  B14  1  0.101509  0.674607  0.622512  1
  B  B15  1  0.101509  0.674607  0.377488  1
  B  B16  1  0.594415  0.160977  0.000000  1
  B  B17  1  0.405585  0.660977  0.500000  1
  P  P18  1  0.435401  0.161067  0.500000  1
  P  P19  1  0.564599  0.661067  0.000000  1
  O  O20  1  0.320750  0.200779  0.622773  1
  O  O21  1  0.320750  0.200779  0.377227  1
  O  O22  1  0.679250  0.700779  0.877227  1
  O  O23  1  0.679250  0.700779  0.122773  1
  O  O24  1  0.971090  0.231613  0.000000  1
  O  O25  1  0.028910  0.731613  0.500000  1
  O  O26  1  0.310168  0.658951  0.615424  1
  O  O27  1  0.310168  0.658951  0.384576  1
  O  O28  1  0.689832  0.158951  0.884576  1
  O  O29  1  0.689832  0.158951  0.115424  1
  O  O30  1  0.611448  0.270260  0.500000  1
  O  O31  1  0.388552  0.770260  0.000000  1
  O  O32  1  0.405457  0.143267  0.000000  1
  O  O33  1  0.594543  0.643267  0.500000  1
  O  O34  1  0.480055  0.979006  0.500000  1
  O  O35  1  0.519945  0.479006  0.000000  1
  O  O36  1  0.188920  0.462508  0.846672  1
  O  O37  1  0.188920  0.462508  0.153328  1
  O  O38  1  0.811080  0.962508  0.653328  1
  O  O39  1  0.811080  0.962508  0.346672  1
  O  O40  1  0.929615  0.294495  0.773394  1
  O  O41  1  0.929615  0.294495  0.226606  1
  O  O42  1  0.070385  0.794495  0.726606  1
  O  O43  1  0.070385  0.794495  0.273394  1
  O  O44  1  0.013969  0.517663  0.655222  1
  O  O45  1  0.013969  0.517663  0.344778  1
  O  O46  1  0.986031  0.017663  0.844778  1
  O  O47  1  0.986031  0.017663  0.155222  1
