# generated using pymatgen
data_SnPd2
_symmetry_space_group_name_H-M   'P 1'
_cell_length_a   4.33008541
_cell_length_b   5.72798864
_cell_length_c   8.38948414
_cell_angle_alpha   90.00000000
_cell_angle_beta   90.00000000
_cell_angle_gamma   90.00000000
_symmetry_Int_Tables_number   1
_chemical_formula_structural   SnPd2
_chemical_formula_sum   'Sn4 Pd8'
_cell_volume   208.08169081
_cell_formula_units_Z   4
loop_
 _symmetry_equiv_pos_site_id
 _symmetry_equiv_pos_as_xyz
  1  'x, y, z'
loop_
 _atom_site_type_symbol
 _atom_site_label
 _atom_site_symmetry_multiplicity
 _atom_site_fract_x
 _atom_site_fract_y
 _atom_site_fract_z
 _atom_site_occupancy
  Sn  Sn0  1  0.750000  0.798300  0.893345  1
  Sn  Sn1  1  0.750000  0.298300  0.606655  1
  Sn  Sn2  1  0.250000  0.201700  0.106655  1
  Sn  Sn3  1  0.250000  0.701700  0.393345  1
  Pd  Pd4  1  0.750000  0.452612  0.284427  1
  Pd  Pd5  1  0.750000  0.952612  0.215573  1
  Pd  Pd6  1  0.250000  0.547388  0.715573  1
  Pd  Pd7  1  0.250000  0.047388  0.784427  1
  Pd  Pd8  1  0.750000  0.325633  0.932368  1
  Pd  Pd9  1  0.750000  0.825633  0.567632  1
  Pd  Pd10  1  0.250000  0.674367  0.067632  1
  Pd  Pd11  1  0.250000  0.174367  0.432368  1
