# generated using pymatgen
data_UTeAs
_symmetry_space_group_name_H-M   'P 1'
_cell_length_a   4.12757409
_cell_length_b   4.12757409
_cell_length_c   8.90368216
_cell_angle_alpha   90.00000000
_cell_angle_beta   90.00000000
_cell_angle_gamma   90.00000000
_symmetry_Int_Tables_number   1
_chemical_formula_structural   UTeAs
_chemical_formula_sum   'U2 Te2 As2'
_cell_volume   151.69085650
_cell_formula_units_Z   2
loop_
 _symmetry_equiv_pos_site_id
 _symmetry_equiv_pos_as_xyz
  1  'x, y, z'
loop_
 _atom_site_type_symbol
 _atom_site_label
 _atom_site_symmetry_multiplicity
 _atom_site_fract_x
 _atom_site_fract_y
 _atom_site_fract_z
 _atom_site_occupancy
  U  U0  1  0.000000  0.500000  0.246061  1
  U  U1  1  0.500000  0.000000  0.753939  1
  Te  Te2  1  0.000000  0.500000  0.629586  1
  Te  Te3  1  0.500000  0.000000  0.370414  1
  As  As4  1  0.500000  0.500000  0.000000  1
  As  As5  1  0.000000  0.000000  0.000000  1
