# generated using pymatgen
data_K2Ge(S2O7)3
_symmetry_space_group_name_H-M   'P 1'
_cell_length_a   9.85016297
_cell_length_b   9.85016297
_cell_length_c   11.17653910
_cell_angle_alpha   90.00000000
_cell_angle_beta   90.00000000
_cell_angle_gamma   120.00000000
_symmetry_Int_Tables_number   1
_chemical_formula_structural   K2Ge(S2O7)3
_chemical_formula_sum   'K4 Ge2 S12 O42'
_cell_volume   939.12803459
_cell_formula_units_Z   2
loop_
 _symmetry_equiv_pos_site_id
 _symmetry_equiv_pos_as_xyz
  1  'x, y, z'
loop_
 _atom_site_type_symbol
 _atom_site_label
 _atom_site_symmetry_multiplicity
 _atom_site_fract_x
 _atom_site_fract_y
 _atom_site_fract_z
 _atom_site_occupancy
  K  K0  1  0.666667  0.333333  0.440983  1
  K  K1  1  0.333333  0.666667  0.559017  1
  K  K2  1  0.666667  0.333333  0.871528  1
  K  K3  1  0.333333  0.666667  0.128472  1
  Ge  Ge4  1  0.000000  0.000000  0.241396  1
  Ge  Ge5  1  0.000000  0.000000  0.758604  1
  S  S6  1  0.928791  0.262260  0.660591  1
  S  S7  1  0.737740  0.666531  0.660591  1
  S  S8  1  0.333469  0.071209  0.660591  1
  S  S9  1  0.071209  0.737740  0.339409  1
  S  S10  1  0.262260  0.333469  0.339409  1
  S  S11  1  0.666531  0.928791  0.339409  1
  S  S12  1  0.840446  0.652309  0.152057  1
  S  S13  1  0.347691  0.188137  0.152057  1
  S  S14  1  0.811863  0.159554  0.152057  1
  S  S15  1  0.159554  0.347691  0.847943  1
  S  S16  1  0.652309  0.811863  0.847943  1
  S  S17  1  0.188137  0.840446  0.847943  1
  O  O18  1  0.883201  0.824185  0.139058  1
  O  O19  1  0.175815  0.059016  0.139058  1
  O  O20  1  0.940984  0.116799  0.139058  1
  O  O21  1  0.116799  0.175815  0.860942  1
  O  O22  1  0.824185  0.940984  0.860942  1
  O  O23  1  0.059016  0.883201  0.860942  1
  O  O24  1  0.945045  0.116981  0.652532  1
  O  O25  1  0.883019  0.828064  0.652532  1
  O  O26  1  0.171936  0.054955  0.652532  1
  O  O27  1  0.054955  0.883019  0.347468  1
  O  O28  1  0.116981  0.171936  0.347468  1
  O  O29  1  0.828064  0.945045  0.347468  1
  O  O30  1  0.768257  0.224370  0.669420  1
  O  O31  1  0.775630  0.543887  0.669420  1
  O  O32  1  0.456113  0.231743  0.669420  1
  O  O33  1  0.231743  0.775630  0.330580  1
  O  O34  1  0.224370  0.456113  0.330580  1
  O  O35  1  0.543887  0.768257  0.330580  1
  O  O36  1  0.826193  0.586184  0.035421  1
  O  O37  1  0.413816  0.240009  0.035421  1
  O  O38  1  0.759991  0.173807  0.035421  1
  O  O39  1  0.173807  0.413816  0.964579  1
  O  O40  1  0.586184  0.759991  0.964579  1
  O  O41  1  0.240009  0.826193  0.964579  1
  O  O42  1  0.721291  0.569621  0.240053  1
  O  O43  1  0.430379  0.151670  0.240053  1
  O  O44  1  0.848330  0.278709  0.240053  1
  O  O45  1  0.278709  0.430379  0.759947  1
  O  O46  1  0.569621  0.848330  0.759947  1
  O  O47  1  0.151670  0.721291  0.759947  1
  O  O48  1  0.993754  0.330579  0.797407  1
  O  O49  1  0.669421  0.663175  0.797407  1
  O  O50  1  0.336825  0.006246  0.797407  1
  O  O51  1  0.006246  0.669421  0.202593  1
  O  O52  1  0.330579  0.336825  0.202593  1
  O  O53  1  0.663175  0.993754  0.202593  1
  O  O54  1  0.027452  0.376423  0.574096  1
  O  O55  1  0.623577  0.651029  0.574096  1
  O  O56  1  0.348971  0.972548  0.574096  1
  O  O57  1  0.972548  0.623577  0.425904  1
  O  O58  1  0.376423  0.348971  0.425904  1
  O  O59  1  0.651029  0.027452  0.425904  1
