# generated using pymatgen
data_HfAl2
_symmetry_space_group_name_H-M   'P 1'
_cell_length_a   5.24810956
_cell_length_b   5.24810956
_cell_length_c   8.72715252
_cell_angle_alpha   90.00000000
_cell_angle_beta   90.00000000
_cell_angle_gamma   120.00000000
_symmetry_Int_Tables_number   1
_chemical_formula_structural   HfAl2
_chemical_formula_sum   'Hf4 Al8'
_cell_volume   208.16560990
_cell_formula_units_Z   4
loop_
 _symmetry_equiv_pos_site_id
 _symmetry_equiv_pos_as_xyz
  1  'x, y, z'
loop_
 _atom_site_type_symbol
 _atom_site_label
 _atom_site_symmetry_multiplicity
 _atom_site_fract_x
 _atom_site_fract_y
 _atom_site_fract_z
 _atom_site_occupancy
  Hf  Hf0  1  0.333333  0.666667  0.436319  1
  Hf  Hf1  1  0.666667  0.333333  0.936319  1
  Hf  Hf2  1  0.666667  0.333333  0.563681  1
  Hf  Hf3  1  0.333333  0.666667  0.063681  1
  Al  Al4  1  0.170569  0.341139  0.750000  1
  Al  Al5  1  0.829431  0.170569  0.250000  1
  Al  Al6  1  0.341139  0.170569  0.250000  1
  Al  Al7  1  0.658861  0.829431  0.750000  1
  Al  Al8  1  0.000000  0.000000  0.000000  1
  Al  Al9  1  0.000000  0.000000  0.500000  1
  Al  Al10  1  0.829431  0.658861  0.250000  1
  Al  Al11  1  0.170569  0.829431  0.750000  1
