# generated using pymatgen
data_CaMnO3
_symmetry_space_group_name_H-M   'P 1'
_cell_length_a   5.33344435
_cell_length_b   5.39895267
_cell_length_c   7.57146472
_cell_angle_alpha   90.00000000
_cell_angle_beta   90.00000000
_cell_angle_gamma   90.00000000
_symmetry_Int_Tables_number   1
_chemical_formula_structural   CaMnO3
_chemical_formula_sum   'Ca4 Mn4 O12'
_cell_volume   218.02042969
_cell_formula_units_Z   4
loop_
 _symmetry_equiv_pos_site_id
 _symmetry_equiv_pos_as_xyz
  1  'x, y, z'
loop_
 _atom_site_type_symbol
 _atom_site_label
 _atom_site_symmetry_multiplicity
 _atom_site_fract_x
 _atom_site_fract_y
 _atom_site_fract_z
 _atom_site_occupancy
  Ca  Ca0  1  0.508245  0.543787  0.250000  1
  Ca  Ca1  1  0.991755  0.043787  0.250000  1
  Ca  Ca2  1  0.491755  0.456213  0.750000  1
  Ca  Ca3  1  0.008245  0.956213  0.750000  1
  Mn  Mn4  1  0.000000  0.500000  0.000000  1
  Mn  Mn5  1  0.500000  0.000000  0.500000  1
  Mn  Mn6  1  0.000000  0.500000  0.500000  1
  Mn  Mn7  1  0.500000  0.000000  0.000000  1
  O  O8  1  0.422253  0.981529  0.250000  1
  O  O9  1  0.077747  0.481529  0.250000  1
  O  O10  1  0.577747  0.018471  0.750000  1
  O  O11  1  0.922253  0.518471  0.750000  1
  O  O12  1  0.794015  0.792015  0.040085  1
  O  O13  1  0.705985  0.292015  0.459915  1
  O  O14  1  0.205985  0.207985  0.540085  1
  O  O15  1  0.294015  0.707985  0.959915  1
  O  O16  1  0.205985  0.207985  0.959915  1
  O  O17  1  0.294015  0.707985  0.540085  1
  O  O18  1  0.794015  0.792015  0.459915  1
  O  O19  1  0.705985  0.292015  0.040085  1
