# generated using pymatgen
data_Tb2Si5Ru3
_symmetry_space_group_name_H-M   'P 1'
_cell_length_a   8.26098934
_cell_length_b   8.26098934
_cell_length_c   8.26098934
_cell_angle_alpha   140.14975692
_cell_angle_beta   108.40791084
_cell_angle_gamma   85.21011294
_symmetry_Int_Tables_number   1
_chemical_formula_structural   Tb2Si5Ru3
_chemical_formula_sum   'Tb4 Si10 Ru6'
_cell_volume   330.84762563
_cell_formula_units_Z   2
loop_
 _symmetry_equiv_pos_site_id
 _symmetry_equiv_pos_as_xyz
  1  'x, y, z'
loop_
 _atom_site_type_symbol
 _atom_site_label
 _atom_site_symmetry_multiplicity
 _atom_site_fract_x
 _atom_site_fract_y
 _atom_site_fract_z
 _atom_site_occupancy
  Tb  Tb0  1  0.367482  0.134978  0.232504  1
  Tb  Tb1  1  0.632518  0.865022  0.767496  1
  Tb  Tb2  1  0.097527  0.365022  0.732504  1
  Tb  Tb3  1  0.902473  0.634978  0.267496  1
  Si  Si4  1  1.000000  0.250000  0.250000  1
  Si  Si5  1  0.000000  0.750000  0.750000  1
  Si  Si6  1  0.708068  0.958068  0.250000  1
  Si  Si7  1  0.291932  0.541932  0.250000  1
  Si  Si8  1  0.291932  0.041932  0.750000  1
  Si  Si9  1  0.708068  0.458068  0.750000  1
  Si  Si10  1  0.572706  0.404172  0.168534  1
  Si  Si11  1  0.235637  0.904172  0.331466  1
  Si  Si12  1  0.764363  0.095828  0.668534  1
  Si  Si13  1  0.427294  0.595828  0.831466  1
  Ru  Ru14  1  0.946851  0.853998  0.092853  1
  Ru  Ru15  1  0.500000  0.750000  0.250000  1
  Ru  Ru16  1  0.761145  0.353998  0.407147  1
  Ru  Ru17  1  0.238855  0.646002  0.592853  1
  Ru  Ru18  1  0.053149  0.146002  0.907147  1
  Ru  Ru19  1  0.500000  0.250000  0.750000  1
