# generated using pymatgen
data_SrLuCuS3
_symmetry_space_group_name_H-M   'P 1'
_cell_length_a   6.79769911
_cell_length_b   6.79769911
_cell_length_c   10.03607176
_cell_angle_alpha   90.00000000
_cell_angle_beta   90.00000000
_cell_angle_gamma   146.66209342
_symmetry_Int_Tables_number   1
_chemical_formula_structural   SrLuCuS3
_chemical_formula_sum   'Sr2 Lu2 Cu2 S6'
_cell_volume   254.86789079
_cell_formula_units_Z   2
loop_
 _symmetry_equiv_pos_site_id
 _symmetry_equiv_pos_as_xyz
  1  'x, y, z'
loop_
 _atom_site_type_symbol
 _atom_site_label
 _atom_site_symmetry_multiplicity
 _atom_site_fract_x
 _atom_site_fract_y
 _atom_site_fract_z
 _atom_site_occupancy
  Sr  Sr0  1  0.748897  0.251103  0.750000  1
  Sr  Sr1  1  0.251103  0.748897  0.250000  1
  Lu  Lu2  1  0.000000  0.000000  0.000000  1
  Lu  Lu3  1  0.000000  0.000000  0.500000  1
  Cu  Cu4  1  0.527960  0.472040  0.250000  1
  Cu  Cu5  1  0.472040  0.527960  0.750000  1
  S  S6  1  0.075331  0.924669  0.750000  1
  S  S7  1  0.924669  0.075331  0.250000  1
  S  S8  1  0.634761  0.365239  0.064419  1
  S  S9  1  0.634761  0.365239  0.435581  1
  S  S10  1  0.365239  0.634761  0.564419  1
  S  S11  1  0.365239  0.634761  0.935581  1
