# generated using pymatgen
data_Rb2TeMo2(PO7)2
_symmetry_space_group_name_H-M   'P 1'
_cell_length_a   9.24481455
_cell_length_b   11.52427407
_cell_length_c   12.68304434
_cell_angle_alpha   90.00000000
_cell_angle_beta   90.00000000
_cell_angle_gamma   90.00000000
_symmetry_Int_Tables_number   1
_chemical_formula_structural   Rb2TeMo2(PO7)2
_chemical_formula_sum   'Rb8 Te4 Mo8 P8 O56'
_cell_volume   1351.24871060
_cell_formula_units_Z   4
loop_
 _symmetry_equiv_pos_site_id
 _symmetry_equiv_pos_as_xyz
  1  'x, y, z'
loop_
 _atom_site_type_symbol
 _atom_site_label
 _atom_site_symmetry_multiplicity
 _atom_site_fract_x
 _atom_site_fract_y
 _atom_site_fract_z
 _atom_site_occupancy
  Rb  Rb0  1  0.031347  0.217484  0.683175  1
  Rb  Rb1  1  0.468653  0.782516  0.183175  1
  Rb  Rb2  1  0.468653  0.717484  0.816825  1
  Rb  Rb3  1  0.968653  0.717484  0.683175  1
  Rb  Rb4  1  0.968653  0.782516  0.316825  1
  Rb  Rb5  1  0.531347  0.217484  0.816825  1
  Rb  Rb6  1  0.531347  0.282516  0.183175  1
  Rb  Rb7  1  0.031347  0.282516  0.316825  1
  Te  Te8  1  0.127973  0.250000  0.000000  1
  Te  Te9  1  0.372027  0.750000  0.500000  1
  Te  Te10  1  0.872027  0.750000  0.000000  1
  Te  Te11  1  0.627973  0.250000  0.500000  1
  Mo  Mo12  1  0.252081  0.981561  0.879026  1
  Mo  Mo13  1  0.752081  0.518439  0.379026  1
  Mo  Mo14  1  0.752081  0.981561  0.620974  1
  Mo  Mo15  1  0.747919  0.018439  0.120974  1
  Mo  Mo16  1  0.252081  0.518439  0.120974  1
  Mo  Mo17  1  0.247919  0.018439  0.379026  1
  Mo  Mo18  1  0.747919  0.481561  0.879026  1
  Mo  Mo19  1  0.247919  0.481561  0.620974  1
  P  P20  1  0.634952  0.997639  0.367691  1
  P  P21  1  0.634952  0.502361  0.632309  1
  P  P22  1  0.865048  0.497639  0.132309  1
  P  P23  1  0.865048  0.002361  0.867691  1
  P  P24  1  0.365048  0.002361  0.632309  1
  P  P25  1  0.365048  0.497639  0.367691  1
  P  P26  1  0.134952  0.502361  0.867691  1
  P  P27  1  0.134952  0.997639  0.132309  1
  O  O28  1  0.642537  0.132366  0.368217  1
  O  O29  1  0.642537  0.367634  0.631783  1
  O  O30  1  0.857463  0.632366  0.131783  1
  O  O31  1  0.857463  0.867634  0.868217  1
  O  O32  1  0.357463  0.867634  0.631783  1
  O  O33  1  0.357463  0.632366  0.368217  1
  O  O34  1  0.142537  0.367634  0.868217  1
  O  O35  1  0.142537  0.132366  0.131783  1
  O  O36  1  0.520852  0.451533  0.362362  1
  O  O37  1  0.520852  0.048467  0.637638  1
  O  O38  1  0.979148  0.951533  0.137638  1
  O  O39  1  0.979148  0.548467  0.862362  1
  O  O40  1  0.479148  0.548467  0.637638  1
  O  O41  1  0.479148  0.951533  0.362362  1
  O  O42  1  0.020852  0.048467  0.862362  1
  O  O43  1  0.020852  0.451533  0.137638  1
  O  O44  1  0.709060  0.553319  0.532584  1
  O  O45  1  0.709060  0.946681  0.467416  1
  O  O46  1  0.790940  0.053319  0.967416  1
  O  O47  1  0.790940  0.446681  0.032584  1
  O  O48  1  0.312247  0.346600  0.661749  1
  O  O49  1  0.290940  0.446681  0.467416  1
  O  O50  1  0.209060  0.946681  0.032584  1
  O  O51  1  0.209060  0.553319  0.967416  1
  O  O52  1  0.687753  0.653400  0.338251  1
  O  O53  1  0.687753  0.846600  0.661749  1
  O  O54  1  0.812247  0.153400  0.161749  1
  O  O55  1  0.812247  0.346600  0.838251  1
  O  O56  1  0.263831  0.342901  0.072543  1
  O  O57  1  0.263831  0.157099  0.927457  1
  O  O58  1  0.236169  0.842901  0.427457  1
  O  O59  1  0.236169  0.657099  0.572543  1
  O  O60  1  0.736169  0.657099  0.927457  1
  O  O61  1  0.736169  0.842901  0.072543  1
  O  O62  1  0.763831  0.157099  0.572543  1
  O  O63  1  0.763831  0.342901  0.427457  1
  O  O64  1  0.275867  0.451910  0.271272  1
  O  O65  1  0.275867  0.048090  0.728728  1
  O  O66  1  0.224133  0.951910  0.228728  1
  O  O67  1  0.224133  0.548090  0.771272  1
  O  O68  1  0.724133  0.548090  0.728728  1
  O  O69  1  0.724133  0.951910  0.271272  1
  O  O70  1  0.775867  0.048090  0.771272  1
  O  O71  1  0.775867  0.451910  0.228728  1
  O  O72  1  0.436870  0.542803  0.110606  1
  O  O73  1  0.436870  0.957197  0.889394  1
  O  O74  1  0.063130  0.042803  0.389394  1
  O  O75  1  0.063130  0.457197  0.610606  1
  O  O76  1  0.563130  0.457197  0.889394  1
  O  O77  1  0.563130  0.042803  0.110606  1
  O  O78  1  0.936870  0.957197  0.610606  1
  O  O79  1  0.936870  0.542803  0.389394  1
  O  O80  1  0.187753  0.653400  0.161749  1
  O  O81  1  0.187753  0.846600  0.838251  1
  O  O82  1  0.312247  0.153400  0.338251  1
  O  O83  1  0.290940  0.053319  0.532584  1
