# generated using pymatgen
data_MgGeAs2
_symmetry_space_group_name_H-M   'P 1'
_cell_length_a   7.07991869
_cell_length_b   7.07991869
_cell_length_c   7.07991869
_cell_angle_alpha   129.67108397
_cell_angle_beta   129.67108397
_cell_angle_gamma   73.93314112
_symmetry_Int_Tables_number   1
_chemical_formula_structural   MgGeAs2
_chemical_formula_sum   'Mg2 Ge2 As4'
_cell_volume   205.07247316
_cell_formula_units_Z   2
loop_
 _symmetry_equiv_pos_site_id
 _symmetry_equiv_pos_as_xyz
  1  'x, y, z'
loop_
 _atom_site_type_symbol
 _atom_site_label
 _atom_site_symmetry_multiplicity
 _atom_site_fract_x
 _atom_site_fract_y
 _atom_site_fract_z
 _atom_site_occupancy
  Mg  Mg0  1  0.750000  0.250000  0.500000  1
  Mg  Mg1  1  0.000000  0.000000  0.000000  1
  Ge  Ge2  1  0.500000  0.500000  0.000000  1
  Ge  Ge3  1  0.250000  0.750000  0.500000  1
  As  As4  1  0.875000  0.398416  0.023416  1
  As  As5  1  0.601584  0.625000  0.476584  1
  As  As6  1  0.375000  0.851584  0.976584  1
  As  As7  1  0.148416  0.125000  0.523416  1
