# generated using pymatgen
data_Ag8SnSe6
_symmetry_space_group_name_H-M   'P 1'
_cell_length_a   7.94469687
_cell_length_b   8.12718141
_cell_length_c   11.22211743
_cell_angle_alpha   90.00000000
_cell_angle_beta   90.00000000
_cell_angle_gamma   90.00000000
_symmetry_Int_Tables_number   1
_chemical_formula_structural   Ag8SnSe6
_chemical_formula_sum   'Ag16 Sn2 Se12'
_cell_volume   724.58959641
_cell_formula_units_Z   2
loop_
 _symmetry_equiv_pos_site_id
 _symmetry_equiv_pos_as_xyz
  1  'x, y, z'
loop_
 _atom_site_type_symbol
 _atom_site_label
 _atom_site_symmetry_multiplicity
 _atom_site_fract_x
 _atom_site_fract_y
 _atom_site_fract_z
 _atom_site_occupancy
  Ag  Ag0  1  0.623344  0.500000  0.535357  1
  Ag  Ag1  1  0.698743  0.500000  0.965571  1
  Ag  Ag2  1  0.301257  0.000000  0.465571  1
  Ag  Ag3  1  0.830529  0.773550  0.135672  1
  Ag  Ag4  1  0.474585  0.807266  0.260090  1
  Ag  Ag5  1  0.525415  0.692734  0.760090  1
  Ag  Ag6  1  0.830529  0.226450  0.135672  1
  Ag  Ag7  1  0.169471  0.273550  0.635672  1
  Ag  Ag8  1  0.169471  0.726450  0.635672  1
  Ag  Ag9  1  0.525415  0.307266  0.760090  1
  Ag  Ag10  1  0.886726  0.212319  0.865018  1
  Ag  Ag11  1  0.113274  0.287681  0.365018  1
  Ag  Ag12  1  0.113274  0.712319  0.365018  1
  Ag  Ag13  1  0.886726  0.787681  0.865018  1
  Ag  Ag14  1  0.474585  0.192734  0.260090  1
  Ag  Ag15  1  0.376656  0.000000  0.035357  1
  Sn  Sn16  1  0.247120  0.500000  0.015810  1
  Sn  Sn17  1  0.752880  0.000000  0.515810  1
  Se  Se18  1  0.289829  0.500000  0.500492  1
  Se  Se19  1  0.710171  0.000000  0.000492  1
  Se  Se20  1  0.802282  0.500000  0.744689  1
  Se  Se21  1  0.197718  0.000000  0.244689  1
  Se  Se22  1  0.505953  0.500000  0.152140  1
  Se  Se23  1  0.494047  0.000000  0.652140  1
  Se  Se24  1  0.004324  0.500000  0.167733  1
  Se  Se25  1  0.995676  0.000000  0.667733  1
  Se  Se26  1  0.242857  0.239806  0.888524  1
  Se  Se27  1  0.757143  0.260194  0.388524  1
  Se  Se28  1  0.757143  0.739806  0.388524  1
  Se  Se29  1  0.242857  0.760194  0.888524  1
