# generated using pymatgen
data_Sr2SnSe3F2
_symmetry_space_group_name_H-M   'P 1'
_cell_length_a   6.19249044
_cell_length_b   6.19838079
_cell_length_c   19.73559572
_cell_angle_alpha   90.00000000
_cell_angle_beta   90.00000000
_cell_angle_gamma   90.00000000
_symmetry_Int_Tables_number   1
_chemical_formula_structural   Sr2SnSe3F2
_chemical_formula_sum   'Sr8 Sn4 Se12 F8'
_cell_volume   757.51953683
_cell_formula_units_Z   4
loop_
 _symmetry_equiv_pos_site_id
 _symmetry_equiv_pos_as_xyz
  1  'x, y, z'
loop_
 _atom_site_type_symbol
 _atom_site_label
 _atom_site_symmetry_multiplicity
 _atom_site_fract_x
 _atom_site_fract_y
 _atom_site_fract_z
 _atom_site_occupancy
  Sr  Sr0  1  0.504719  0.754213  0.069533  1
  Sr  Sr1  1  0.004719  0.745787  0.930467  1
  Sr  Sr2  1  0.995281  0.254213  0.430467  1
  Sr  Sr3  1  0.495281  0.245787  0.569533  1
  Sr  Sr4  1  0.504719  0.754213  0.430467  1
  Sr  Sr5  1  0.004719  0.745787  0.569533  1
  Sr  Sr6  1  0.995281  0.254213  0.069533  1
  Sr  Sr7  1  0.495281  0.245787  0.930467  1
  Sn  Sn8  1  0.580375  0.146055  0.250000  1
  Sn  Sn9  1  0.080375  0.353945  0.750000  1
  Sn  Sn10  1  0.919625  0.646055  0.250000  1
  Sn  Sn11  1  0.419625  0.853945  0.750000  1
  Se  Se12  1  0.487369  0.257207  0.369429  1
  Se  Se13  1  0.987369  0.242793  0.630571  1
  Se  Se14  1  0.012631  0.757207  0.130571  1
  Se  Se15  1  0.512631  0.742793  0.869429  1
  Se  Se16  1  0.507175  0.733460  0.250000  1
  Se  Se17  1  0.007175  0.766540  0.750000  1
  Se  Se18  1  0.992825  0.233460  0.250000  1
  Se  Se19  1  0.492825  0.266540  0.750000  1
  Se  Se20  1  0.487369  0.257207  0.130571  1
  Se  Se21  1  0.987369  0.242793  0.869429  1
  Se  Se22  1  0.012631  0.757207  0.369429  1
  Se  Se23  1  0.512631  0.742793  0.630571  1
  F  F24  1  0.253311  0.498726  0.499326  1
  F  F25  1  0.753311  0.001274  0.500674  1
  F  F26  1  0.246689  0.998726  0.000674  1
  F  F27  1  0.746689  0.501274  0.999326  1
  F  F28  1  0.746689  0.501274  0.500674  1
  F  F29  1  0.246689  0.998726  0.499326  1
  F  F30  1  0.753311  0.001274  0.999326  1
  F  F31  1  0.253311  0.498726  0.000674  1
