# generated using pymatgen
data_Ca2B2O5
_symmetry_space_group_name_H-M   'P 1'
_cell_length_a   3.59473841
_cell_length_b   6.39858389
_cell_length_c   19.38930266
_cell_angle_alpha   90.00000000
_cell_angle_beta   90.00000000
_cell_angle_gamma   90.00000000
_symmetry_Int_Tables_number   1
_chemical_formula_structural   Ca2B2O5
_chemical_formula_sum   'Ca8 B8 O20'
_cell_volume   445.97791238
_cell_formula_units_Z   4
loop_
 _symmetry_equiv_pos_site_id
 _symmetry_equiv_pos_as_xyz
  1  'x, y, z'
loop_
 _atom_site_type_symbol
 _atom_site_label
 _atom_site_symmetry_multiplicity
 _atom_site_fract_x
 _atom_site_fract_y
 _atom_site_fract_z
 _atom_site_occupancy
  Ca  Ca0  1  0.702986  0.701809  0.290108  1
  Ca  Ca1  1  0.797014  0.298191  0.790108  1
  Ca  Ca2  1  0.202986  0.798191  0.709892  1
  Ca  Ca3  1  0.297014  0.201809  0.209892  1
  Ca  Ca4  1  0.202771  0.945424  0.438441  1
  Ca  Ca5  1  0.297229  0.054576  0.938441  1
  Ca  Ca6  1  0.702771  0.554576  0.561559  1
  Ca  Ca7  1  0.797229  0.445424  0.061559  1
  B  B8  1  0.814908  0.218379  0.343335  1
  B  B9  1  0.685092  0.781621  0.843335  1
  B  B10  1  0.314908  0.281621  0.656665  1
  B  B11  1  0.185092  0.718379  0.156665  1
  B  B12  1  0.857883  0.002972  0.082368  1
  B  B13  1  0.642117  0.997028  0.582368  1
  B  B14  1  0.357883  0.497028  0.917632  1
  B  B15  1  0.142117  0.502972  0.417632  1
  O  O16  1  0.200031  0.555727  0.485005  1
  O  O17  1  0.299969  0.444273  0.985005  1
  O  O18  1  0.700031  0.944273  0.514995  1
  O  O19  1  0.799969  0.055727  0.014995  1
  O  O20  1  0.204155  0.643762  0.365705  1
  O  O21  1  0.295845  0.356238  0.865705  1
  O  O22  1  0.704155  0.856238  0.634295  1
  O  O23  1  0.795845  0.143762  0.134295  1
  O  O24  1  0.687244  0.018610  0.352426  1
  O  O25  1  0.812756  0.981390  0.852426  1
  O  O26  1  0.187244  0.481390  0.647574  1
  O  O27  1  0.312756  0.518610  0.147574  1
  O  O28  1  0.996461  0.300645  0.403405  1
  O  O29  1  0.503539  0.699355  0.903405  1
  O  O30  1  0.496461  0.199355  0.596595  1
  O  O31  1  0.003539  0.800645  0.096595  1
  O  O32  1  0.790824  0.327272  0.282719  1
  O  O33  1  0.709176  0.672728  0.782719  1
  O  O34  1  0.290824  0.172728  0.717281  1
  O  O35  1  0.209176  0.827272  0.217281  1
