# generated using pymatgen
data_Ba3Y4O9
_symmetry_space_group_name_H-M   'P 1'
_cell_length_a   9.27691149
_cell_length_b   9.27691149
_cell_length_c   9.27691149
_cell_angle_alpha   38.78605333
_cell_angle_beta   38.78605333
_cell_angle_gamma   38.78605333
_symmetry_Int_Tables_number   1
_chemical_formula_structural   Ba3Y4O9
_chemical_formula_sum   'Ba3 Y4 O9'
_cell_volume   281.62495383
_cell_formula_units_Z   1
loop_
 _symmetry_equiv_pos_site_id
 _symmetry_equiv_pos_as_xyz
  1  'x, y, z'
loop_
 _atom_site_type_symbol
 _atom_site_label
 _atom_site_symmetry_multiplicity
 _atom_site_fract_x
 _atom_site_fract_y
 _atom_site_fract_z
 _atom_site_occupancy
  Ba  Ba0  1  0.416454  0.416454  0.416454  1
  Ba  Ba1  1  0.835212  0.835212  0.835212  1
  Ba  Ba2  1  0.001720  0.001720  0.001720  1
  Y  Y3  1  0.700381  0.700381  0.700381  1
  Y  Y4  1  0.262277  0.262277  0.262277  1
  Y  Y5  1  0.136864  0.136864  0.136864  1
  Y  Y6  1  0.574730  0.574730  0.574730  1
  O  O7  1  0.419594  0.961635  0.544057  1
  O  O8  1  0.961635  0.544057  0.419594  1
  O  O9  1  0.544057  0.419594  0.961635  1
  O  O10  1  0.290448  0.877591  0.420365  1
  O  O11  1  0.877591  0.420365  0.290448  1
  O  O12  1  0.420365  0.290448  0.877591  1
  O  O13  1  0.418099  0.854078  0.983496  1
  O  O14  1  0.983496  0.418099  0.854078  1
  O  O15  1  0.854078  0.983496  0.418099  1
