# generated using pymatgen
data_Sr4TiAs4
_symmetry_space_group_name_H-M   'P 1'
_cell_length_a   12.98476366
_cell_length_b   12.98476366
_cell_length_c   12.98476366
_cell_angle_alpha   90.00000000
_cell_angle_beta   90.00000000
_cell_angle_gamma   90.00000000
_symmetry_Int_Tables_number   1
_chemical_formula_structural   Sr4TiAs4
_chemical_formula_sum   'Sr32 Ti8 As32'
_cell_volume   2189.28422578
_cell_formula_units_Z   8
loop_
 _symmetry_equiv_pos_site_id
 _symmetry_equiv_pos_as_xyz
  1  'x, y, z'
loop_
 _atom_site_type_symbol
 _atom_site_label
 _atom_site_symmetry_multiplicity
 _atom_site_fract_x
 _atom_site_fract_y
 _atom_site_fract_z
 _atom_site_occupancy
  Sr  Sr0  1  0.147414  0.147414  0.147414  1
  Sr  Sr1  1  0.352586  0.647414  0.352586  1
  Sr  Sr2  1  0.647414  0.352586  0.352586  1
  Sr  Sr3  1  0.352586  0.352586  0.647414  1
  Sr  Sr4  1  0.147414  0.852586  0.852586  1
  Sr  Sr5  1  0.852586  0.852586  0.147414  1
  Sr  Sr6  1  0.852586  0.147414  0.852586  1
  Sr  Sr7  1  0.647414  0.647414  0.647414  1
  Sr  Sr8  1  0.904772  0.862619  0.647225  1
  Sr  Sr9  1  0.904772  0.137381  0.352775  1
  Sr  Sr10  1  0.862619  0.647225  0.904772  1
  Sr  Sr11  1  0.137381  0.647225  0.095228  1
  Sr  Sr12  1  0.647225  0.904772  0.862619  1
  Sr  Sr13  1  0.352775  0.095228  0.862619  1
  Sr  Sr14  1  0.595228  0.852775  0.362619  1
  Sr  Sr15  1  0.595228  0.147225  0.637381  1
  Sr  Sr16  1  0.404772  0.852775  0.637381  1
  Sr  Sr17  1  0.147225  0.637381  0.595228  1
  Sr  Sr18  1  0.637381  0.404772  0.852775  1
  Sr  Sr19  1  0.637381  0.595228  0.147225  1
  Sr  Sr20  1  0.852775  0.362619  0.595228  1
  Sr  Sr21  1  0.362619  0.595228  0.852775  1
  Sr  Sr22  1  0.852775  0.637381  0.404772  1
  Sr  Sr23  1  0.147225  0.362619  0.404772  1
  Sr  Sr24  1  0.362619  0.404772  0.147225  1
  Sr  Sr25  1  0.352775  0.904772  0.137381  1
  Sr  Sr26  1  0.647225  0.095228  0.137381  1
  Sr  Sr27  1  0.862619  0.352775  0.095228  1
  Sr  Sr28  1  0.137381  0.352775  0.904772  1
  Sr  Sr29  1  0.095228  0.137381  0.647225  1
  Sr  Sr30  1  0.095228  0.862619  0.352775  1
  Sr  Sr31  1  0.404772  0.147225  0.362619  1
  Ti  Ti32  1  0.000000  0.000000  0.000000  1
  Ti  Ti33  1  0.750000  0.000000  0.500000  1
  Ti  Ti34  1  0.500000  0.750000  0.000000  1
  Ti  Ti35  1  0.500000  0.250000  0.000000  1
  Ti  Ti36  1  0.000000  0.500000  0.250000  1
  Ti  Ti37  1  0.000000  0.500000  0.750000  1
  Ti  Ti38  1  0.250000  0.000000  0.500000  1
  Ti  Ti39  1  0.500000  0.500000  0.500000  1
  As  As40  1  0.608540  0.855548  0.115475  1
  As  As41  1  0.644452  0.108540  0.384525  1
  As  As42  1  0.891460  0.615475  0.644452  1
  As  As43  1  0.108540  0.615475  0.355548  1
  As  As44  1  0.615475  0.644452  0.891460  1
  As  As45  1  0.384525  0.355548  0.891460  1
  As  As46  1  0.855548  0.884525  0.391460  1
  As  As47  1  0.855548  0.115475  0.608540  1
  As  As48  1  0.144452  0.884525  0.608540  1
  As  As49  1  0.390257  0.390257  0.390257  1
  As  As50  1  0.608540  0.144452  0.884525  1
  As  As51  1  0.644452  0.891460  0.615475  1
  As  As52  1  0.884525  0.391460  0.855548  1
  As  As53  1  0.391460  0.855548  0.884525  1
  As  As54  1  0.884525  0.608540  0.144452  1
  As  As55  1  0.115475  0.391460  0.144452  1
  As  As56  1  0.391460  0.144452  0.115475  1
  As  As57  1  0.384525  0.644452  0.108540  1
  As  As58  1  0.615475  0.355548  0.108540  1
  As  As59  1  0.891460  0.384525  0.355548  1
  As  As60  1  0.108540  0.384525  0.644452  1
  As  As61  1  0.355548  0.108540  0.615475  1
  As  As62  1  0.355548  0.891460  0.384525  1
  As  As63  1  0.144452  0.115475  0.391460  1
  As  As64  1  0.109743  0.890257  0.109743  1
  As  As65  1  0.109743  0.109743  0.890257  1
  As  As66  1  0.890257  0.109743  0.109743  1
  As  As67  1  0.609743  0.609743  0.390257  1
  As  As68  1  0.390257  0.609743  0.609743  1
  As  As69  1  0.609743  0.390257  0.609743  1
  As  As70  1  0.890257  0.890257  0.890257  1
  As  As71  1  0.115475  0.608540  0.855548  1
