# generated using pymatgen
data_K(USe3)2
_symmetry_space_group_name_H-M   'P 1'
_cell_length_a   11.57213059
_cell_length_b   11.57213059
_cell_length_c   11.57213059
_cell_angle_alpha   159.82870207
_cell_angle_beta   152.32303159
_cell_angle_gamma   34.48784900
_symmetry_Int_Tables_number   1
_chemical_formula_structural   K(USe3)2
_chemical_formula_sum   'K1 U2 Se6'
_cell_volume   247.96933204
_cell_formula_units_Z   1
loop_
 _symmetry_equiv_pos_site_id
 _symmetry_equiv_pos_as_xyz
  1  'x, y, z'
loop_
 _atom_site_type_symbol
 _atom_site_label
 _atom_site_symmetry_multiplicity
 _atom_site_fract_x
 _atom_site_fract_y
 _atom_site_fract_z
 _atom_site_occupancy
  K  K0  1  0.000000  0.000000  0.000000  1
  U  U1  1  0.318925  0.818925  0.500000  1
  U  U2  1  0.681075  0.181075  0.500000  1
  Se  Se3  1  0.773910  0.773910  0.000000  1
  Se  Se4  1  0.361570  0.608022  0.753548  1
  Se  Se5  1  0.638430  0.391978  0.246452  1
  Se  Se6  1  0.226090  0.226090  0.000000  1
  Se  Se7  1  0.854474  0.608022  0.246452  1
  Se  Se8  1  0.145526  0.391978  0.753548  1
