# generated using pymatgen
data_CaMg3SiN4
_symmetry_space_group_name_H-M   'P 1'
_cell_length_a   10.56176355
_cell_length_b   10.56176355
_cell_length_c   10.56176355
_cell_angle_alpha   114.08201986
_cell_angle_beta   114.08201986
_cell_angle_gamma   100.59770842
_symmetry_Int_Tables_number   1
_chemical_formula_structural   CaMg3SiN4
_chemical_formula_sum   'Ca8 Mg24 Si8 N32'
_cell_volume   891.00931969
_cell_formula_units_Z   8
loop_
 _symmetry_equiv_pos_site_id
 _symmetry_equiv_pos_as_xyz
  1  'x, y, z'
loop_
 _atom_site_type_symbol
 _atom_site_label
 _atom_site_symmetry_multiplicity
 _atom_site_fract_x
 _atom_site_fract_y
 _atom_site_fract_z
 _atom_site_occupancy
  Ca  Ca0  1  0.195072  0.231518  0.492214  1
  Ca  Ca1  1  0.739304  0.702858  0.507786  1
  Ca  Ca2  1  0.981518  0.989304  0.536446  1
  Ca  Ca3  1  0.452858  0.445072  0.463554  1
  Ca  Ca4  1  0.554928  0.018482  0.007786  1
  Ca  Ca5  1  0.010696  0.547142  0.992214  1
  Ca  Ca6  1  0.768482  0.260696  0.963554  1
  Ca  Ca7  1  0.297142  0.804928  0.036446  1
  Mg  Mg8  1  0.167160  0.307061  0.867564  1
  Mg  Mg9  1  0.439496  0.299596  0.132436  1
  Mg  Mg10  1  0.057061  0.689496  0.639901  1
  Mg  Mg11  1  0.049596  0.417160  0.360099  1
  Mg  Mg12  1  0.582840  0.942939  0.632436  1
  Mg  Mg13  1  0.310504  0.950404  0.367564  1
  Mg  Mg14  1  0.692939  0.560504  0.860099  1
  Mg  Mg15  1  0.700404  0.832840  0.139901  1
  Mg  Mg16  1  0.452313  0.274326  0.856003  1
  Mg  Mg17  1  0.418323  0.596310  0.143997  1
  Mg  Mg18  1  0.024326  0.668323  0.322013  1
  Mg  Mg19  1  0.346310  0.702313  0.677987  1
  Mg  Mg20  1  0.297687  0.975674  0.643997  1
  Mg  Mg21  1  0.331677  0.653690  0.356003  1
  Mg  Mg22  1  0.725674  0.581677  0.177987  1
  Mg  Mg23  1  0.403690  0.547687  0.822013  1
  Mg  Mg24  1  0.907209  0.092130  0.126510  1
  Mg  Mg25  1  0.965620  0.780699  0.873490  1
  Mg  Mg26  1  0.842130  0.215620  0.684920  1
  Mg  Mg27  1  0.530699  0.157209  0.315080  1
  Mg  Mg28  1  0.842791  0.157870  0.373490  1
  Mg  Mg29  1  0.784380  0.469301  0.626510  1
  Mg  Mg30  1  0.907870  0.034380  0.815080  1
  Mg  Mg31  1  0.219301  0.092791  0.184920  1
  Si  Si32  1  0.000934  0.860133  0.219061  1
  Si  Si33  1  0.641072  0.781873  0.780939  1
  Si  Si34  1  0.610133  0.891072  0.359199  1
  Si  Si35  1  0.531873  0.250934  0.640801  1
  Si  Si36  1  0.749066  0.389867  0.280939  1
  Si  Si37  1  0.108928  0.468127  0.719061  1
  Si  Si38  1  0.139867  0.358928  0.140801  1
  Si  Si39  1  0.218127  0.999066  0.859199  1
  N  N40  1  0.247017  0.138335  0.807516  1
  N  N41  1  0.330819  0.439502  0.192484  1
  N  N42  1  0.888335  0.580819  0.391318  1
  N  N43  1  0.189502  0.497017  0.608682  1
  N  N44  1  0.502983  0.111665  0.692484  1
  N  N45  1  0.419181  0.810498  0.307516  1
  N  N46  1  0.861665  0.669181  0.108682  1
  N  N47  1  0.560498  0.752983  0.891318  1
  N  N48  1  0.926781  0.997027  0.267886  1
  N  N49  1  0.729140  0.658894  0.732114  1
  N  N50  1  0.747027  0.979140  0.570246  1
  N  N51  1  0.408894  0.176781  0.429754  1
  N  N52  1  0.823219  0.252973  0.232114  1
  N  N53  1  0.020860  0.591106  0.767886  1
  N  N54  1  0.002973  0.270860  0.929754  1
  N  N55  1  0.341106  0.073219  0.070246  1
  N  N56  1  0.135485  0.896604  0.413534  1
  N  N57  1  0.483070  0.721951  0.586466  1
  N  N58  1  0.646604  0.733070  0.261120  1
  N  N59  1  0.471951  0.385485  0.738880  1
  N  N60  1  0.614515  0.353396  0.086466  1
  N  N61  1  0.266930  0.528049  0.913534  1
  N  N62  1  0.103396  0.516930  0.238880  1
  N  N63  1  0.278049  0.864515  0.761120  1
  N  N64  1  0.002605  0.269702  0.623838  1
  N  N65  1  0.645865  0.378767  0.376162  1
  N  N66  1  0.019702  0.895865  0.767097  1
  N  N67  1  0.128767  0.252605  0.232903  1
  N  N68  1  0.747395  0.980298  0.876162  1
  N  N69  1  0.104135  0.871233  0.123838  1
  N  N70  1  0.730298  0.354135  0.732903  1
  N  N71  1  0.621233  0.997395  0.267097  1
