# generated using pymatgen
data_CaP
_symmetry_space_group_name_H-M   'P 1'
_cell_length_a   7.66208255
_cell_length_b   7.66208255
_cell_length_c   5.72137270
_cell_angle_alpha   90.00000000
_cell_angle_beta   90.00000000
_cell_angle_gamma   120.00000000
_symmetry_Int_Tables_number   1
_chemical_formula_structural   CaP
_chemical_formula_sum   'Ca6 P6'
_cell_volume   290.88714213
_cell_formula_units_Z   6
loop_
 _symmetry_equiv_pos_site_id
 _symmetry_equiv_pos_as_xyz
  1  'x, y, z'
loop_
 _atom_site_type_symbol
 _atom_site_label
 _atom_site_symmetry_multiplicity
 _atom_site_fract_x
 _atom_site_fract_y
 _atom_site_fract_z
 _atom_site_occupancy
  Ca  Ca0  1  0.000000  0.643266  0.500000  1
  Ca  Ca1  1  0.356734  0.356734  0.500000  1
  Ca  Ca2  1  0.643266  0.000000  0.500000  1
  Ca  Ca3  1  0.000000  0.308786  0.000000  1
  Ca  Ca4  1  0.691214  0.691214  0.000000  1
  Ca  Ca5  1  0.308786  0.000000  0.000000  1
  P  P6  1  0.666667  0.333333  0.201667  1
  P  P7  1  0.666667  0.333333  0.798333  1
  P  P8  1  0.333333  0.666667  0.798333  1
  P  P9  1  0.333333  0.666667  0.201667  1
  P  P10  1  0.000000  0.000000  0.696735  1
  P  P11  1  0.000000  0.000000  0.303265  1
