# generated using pymatgen
data_MgSiO3
_symmetry_space_group_name_H-M   'P 1'
_cell_length_a   5.35252073
_cell_length_b   8.90002826
_cell_length_c   18.64141189
_cell_angle_alpha   90.00000000
_cell_angle_beta   91.20404012
_cell_angle_gamma   90.00000000
_symmetry_Int_Tables_number   1
_chemical_formula_structural   MgSiO3
_chemical_formula_sum   'Mg16 Si16 O48'
_cell_volume   887.83578420
_cell_formula_units_Z   16
loop_
 _symmetry_equiv_pos_site_id
 _symmetry_equiv_pos_as_xyz
  1  'x, y, z'
loop_
 _atom_site_type_symbol
 _atom_site_label
 _atom_site_symmetry_multiplicity
 _atom_site_fract_x
 _atom_site_fract_y
 _atom_site_fract_z
 _atom_site_occupancy
  Mg  Mg0  1  0.750000  0.399947  0.000000  1
  Mg  Mg1  1  0.250000  0.600053  0.000000  1
  Mg  Mg2  1  0.250000  0.242624  0.000000  1
  Mg  Mg3  1  0.750000  0.757376  0.000000  1
  Mg  Mg4  1  0.722601  0.900893  0.249540  1
  Mg  Mg5  1  0.777399  0.900893  0.750460  1
  Mg  Mg6  1  0.277399  0.099107  0.750460  1
  Mg  Mg7  1  0.222601  0.099107  0.249540  1
  Mg  Mg8  1  0.723302  0.258033  0.252147  1
  Mg  Mg9  1  0.776698  0.258033  0.747853  1
  Mg  Mg10  1  0.276698  0.741967  0.747853  1
  Mg  Mg11  1  0.223302  0.741967  0.252147  1
  Mg  Mg12  1  0.250000  0.596618  0.500000  1
  Mg  Mg13  1  0.750000  0.403382  0.500000  1
  Mg  Mg14  1  0.250000  0.238972  0.500000  1
  Mg  Mg15  1  0.750000  0.761028  0.500000  1
  Si  Si16  1  0.450771  0.911099  0.895851  1
  Si  Si17  1  0.049229  0.911099  0.104149  1
  Si  Si18  1  0.549229  0.088901  0.104149  1
  Si  Si19  1  0.950771  0.088901  0.895851  1
  Si  Si20  1  0.408767  0.410664  0.852215  1
  Si  Si21  1  0.091233  0.410664  0.147785  1
  Si  Si22  1  0.591233  0.589336  0.147785  1
  Si  Si23  1  0.908767  0.589336  0.852215  1
  Si  Si24  1  0.420861  0.909437  0.397166  1
  Si  Si25  1  0.079139  0.909437  0.602834  1
  Si  Si26  1  0.579139  0.090563  0.602834  1
  Si  Si27  1  0.920861  0.090563  0.397166  1
  Si  Si28  1  0.918465  0.589820  0.352884  1
  Si  Si29  1  0.581535  0.589820  0.647116  1
  Si  Si30  1  0.081535  0.410180  0.647116  1
  Si  Si31  1  0.418465  0.410180  0.352884  1
  O  O32  1  0.446412  0.908182  0.808216  1
  O  O33  1  0.053588  0.908182  0.191784  1
  O  O34  1  0.553588  0.091818  0.191784  1
  O  O35  1  0.946412  0.091818  0.808216  1
  O  O36  1  0.428609  0.756781  0.939728  1
  O  O37  1  0.071391  0.756781  0.060272  1
  O  O38  1  0.571391  0.243219  0.060272  1
  O  O39  1  0.928609  0.243219  0.939728  1
  O  O40  1  0.238932  0.034517  0.922994  1
  O  O41  1  0.261068  0.034517  0.077006  1
  O  O42  1  0.761068  0.965483  0.077006  1
  O  O43  1  0.738932  0.965483  0.922994  1
  O  O44  1  0.417209  0.407508  0.940112  1
  O  O45  1  0.082791  0.407508  0.059888  1
  O  O46  1  0.582791  0.592492  0.059888  1
  O  O47  1  0.917209  0.592492  0.940112  1
  O  O48  1  0.472206  0.257437  0.809771  1
  O  O49  1  0.027794  0.257437  0.190229  1
  O  O50  1  0.527794  0.742563  0.190229  1
  O  O51  1  0.972206  0.742563  0.809771  1
  O  O52  1  0.627323  0.530704  0.824927  1
  O  O53  1  0.872677  0.530704  0.175073  1
  O  O54  1  0.372677  0.469296  0.175073  1
  O  O55  1  0.127323  0.469296  0.824927  1
  O  O56  1  0.401488  0.907844  0.309851  1
  O  O57  1  0.098512  0.907844  0.690149  1
  O  O58  1  0.598512  0.092156  0.690149  1
  O  O59  1  0.901488  0.092156  0.309851  1
  O  O60  1  0.425306  0.751654  0.439222  1
  O  O61  1  0.074694  0.751654  0.560778  1
  O  O62  1  0.574694  0.248346  0.560778  1
  O  O63  1  0.925306  0.248346  0.439222  1
  O  O64  1  0.697492  0.977476  0.425980  1
  O  O65  1  0.802508  0.977476  0.574020  1
  O  O66  1  0.302508  0.022524  0.574020  1
  O  O67  1  0.197492  0.022524  0.425980  1
  O  O68  1  0.914935  0.591088  0.440421  1
  O  O69  1  0.585065  0.591088  0.559579  1
  O  O70  1  0.085065  0.408912  0.559579  1
  O  O71  1  0.414935  0.408912  0.440421  1
  O  O72  1  0.907389  0.748965  0.312395  1
  O  O73  1  0.592611  0.748965  0.687605  1
  O  O74  1  0.092611  0.251035  0.687605  1
  O  O75  1  0.407389  0.251035  0.312395  1
  O  O76  1  0.196283  0.528277  0.323400  1
  O  O77  1  0.303717  0.528277  0.676600  1
  O  O78  1  0.803717  0.471723  0.676600  1
  O  O79  1  0.696283  0.471723  0.323400  1
