# generated using pymatgen
data_Ca2H3Br
_symmetry_space_group_name_H-M   'P 1'
_cell_length_a   3.90359922
_cell_length_b   3.90359922
_cell_length_c   6.92727979
_cell_angle_alpha   90.00000000
_cell_angle_beta   90.00000000
_cell_angle_gamma   120.00000000
_symmetry_Int_Tables_number   1
_chemical_formula_structural   Ca2H3Br
_chemical_formula_sum   'Ca2 H3 Br1'
_cell_volume   91.41633496
_cell_formula_units_Z   1
loop_
 _symmetry_equiv_pos_site_id
 _symmetry_equiv_pos_as_xyz
  1  'x, y, z'
loop_
 _atom_site_type_symbol
 _atom_site_label
 _atom_site_symmetry_multiplicity
 _atom_site_fract_x
 _atom_site_fract_y
 _atom_site_fract_z
 _atom_site_occupancy
  Ca  Ca0  1  0.666667  0.333333  0.183996  1
  Ca  Ca1  1  0.333333  0.666667  0.816004  1
  H  H2  1  0.666667  0.333333  0.854225  1
  H  H3  1  0.333333  0.666667  0.145775  1
  H  H4  1  0.000000  0.000000  0.000000  1
  Br  Br5  1  0.000000  0.000000  0.500000  1
