# generated using pymatgen
data_LiNbZnO4
_symmetry_space_group_name_H-M   'P 1'
_cell_length_a   6.17185224
_cell_length_b   6.17185224
_cell_length_c   8.50539275
_cell_angle_alpha   90.00000000
_cell_angle_beta   90.00000000
_cell_angle_gamma   90.00000000
_symmetry_Int_Tables_number   1
_chemical_formula_structural   LiNbZnO4
_chemical_formula_sum   'Li4 Nb4 Zn4 O16'
_cell_volume   323.98537995
_cell_formula_units_Z   4
loop_
 _symmetry_equiv_pos_site_id
 _symmetry_equiv_pos_as_xyz
  1  'x, y, z'
loop_
 _atom_site_type_symbol
 _atom_site_label
 _atom_site_symmetry_multiplicity
 _atom_site_fract_x
 _atom_site_fract_y
 _atom_site_fract_z
 _atom_site_occupancy
  Li  Li0  1  0.219424  0.000000  0.250000  1
  Li  Li1  1  0.000000  0.219424  0.000000  1
  Li  Li2  1  0.000000  0.780576  0.500000  1
  Li  Li3  1  0.780576  0.000000  0.750000  1
  Nb  Nb4  1  0.786832  0.500000  0.750000  1
  Nb  Nb5  1  0.213168  0.500000  0.250000  1
  Nb  Nb6  1  0.500000  0.786832  0.500000  1
  Nb  Nb7  1  0.500000  0.213168  0.000000  1
  Zn  Zn8  1  0.259100  0.259100  0.625000  1
  Zn  Zn9  1  0.259100  0.740900  0.875000  1
  Zn  Zn10  1  0.740900  0.740900  0.125000  1
  Zn  Zn11  1  0.740900  0.259100  0.375000  1
  O  O12  1  0.265839  0.517370  0.483540  1
  O  O13  1  0.517370  0.734161  0.733540  1
  O  O14  1  0.482630  0.265839  0.233540  1
  O  O15  1  0.734161  0.517370  0.516460  1
  O  O16  1  0.734161  0.482630  0.983540  1
  O  O17  1  0.016640  0.736693  0.246751  1
  O  O18  1  0.482630  0.734161  0.266460  1
  O  O19  1  0.517370  0.265839  0.766460  1
  O  O20  1  0.263307  0.016640  0.996751  1
  O  O21  1  0.983360  0.263307  0.746751  1
  O  O22  1  0.736693  0.016640  0.003249  1
  O  O23  1  0.263307  0.983360  0.503249  1
  O  O24  1  0.983360  0.736693  0.753249  1
  O  O25  1  0.736693  0.983360  0.496751  1
  O  O26  1  0.016640  0.263307  0.253249  1
  O  O27  1  0.265839  0.482630  0.016460  1
