# generated using pymatgen
data_AlAgSe2
_symmetry_space_group_name_H-M   'P 1'
_cell_length_a   7.01049602
_cell_length_b   7.01049602
_cell_length_c   7.01049602
_cell_angle_alpha   128.94092031
_cell_angle_beta   128.94092031
_cell_angle_gamma   75.10565405
_symmetry_Int_Tables_number   1
_chemical_formula_structural   AlAgSe2
_chemical_formula_sum   'Al2 Ag2 Se4'
_cell_volume   202.94216217
_cell_formula_units_Z   2
loop_
 _symmetry_equiv_pos_site_id
 _symmetry_equiv_pos_as_xyz
  1  'x, y, z'
loop_
 _atom_site_type_symbol
 _atom_site_label
 _atom_site_symmetry_multiplicity
 _atom_site_fract_x
 _atom_site_fract_y
 _atom_site_fract_z
 _atom_site_occupancy
  Al  Al0  1  0.250000  0.750000  0.500000  1
  Al  Al1  1  0.500000  0.500000  0.000000  1
  Ag  Ag2  1  0.000000  0.000000  0.000000  1
  Ag  Ag3  1  0.750000  0.250000  0.500000  1
  Se  Se4  1  0.588875  0.625000  0.463875  1
  Se  Se5  1  0.375000  0.838875  0.963875  1
  Se  Se6  1  0.161125  0.125000  0.536125  1
  Se  Se7  1  0.875000  0.411125  0.036125  1
