# generated using pymatgen
data_Tb3CuSnSe7
_symmetry_space_group_name_H-M   'P 1'
_cell_length_a   10.27758457
_cell_length_b   10.27758457
_cell_length_c   6.50755717
_cell_angle_alpha   90.00000000
_cell_angle_beta   90.00000000
_cell_angle_gamma   120.00000000
_symmetry_Int_Tables_number   1
_chemical_formula_structural   Tb3CuSnSe7
_chemical_formula_sum   'Tb6 Cu2 Sn2 Se14'
_cell_volume   595.29295365
_cell_formula_units_Z   2
loop_
 _symmetry_equiv_pos_site_id
 _symmetry_equiv_pos_as_xyz
  1  'x, y, z'
loop_
 _atom_site_type_symbol
 _atom_site_label
 _atom_site_symmetry_multiplicity
 _atom_site_fract_x
 _atom_site_fract_y
 _atom_site_fract_z
 _atom_site_occupancy
  Tb  Tb0  1  0.642555  0.849516  0.901395  1
  Tb  Tb1  1  0.793039  0.642555  0.401395  1
  Tb  Tb2  1  0.849516  0.206961  0.401395  1
  Tb  Tb3  1  0.150484  0.793039  0.901395  1
  Tb  Tb4  1  0.206961  0.357445  0.901395  1
  Tb  Tb5  1  0.357445  0.150484  0.401395  1
  Cu  Cu6  1  0.000000  0.000000  0.500245  1
  Cu  Cu7  1  0.000000  0.000000  0.000245  1
  Sn  Sn8  1  0.666667  0.333333  0.829661  1
  Sn  Sn9  1  0.333333  0.666667  0.329661  1
  Se  Se10  1  0.481995  0.560743  0.147961  1
  Se  Se11  1  0.921252  0.481995  0.647961  1
  Se  Se12  1  0.560743  0.078748  0.647961  1
  Se  Se13  1  0.439257  0.921252  0.147961  1
  Se  Se14  1  0.333333  0.666667  0.722189  1
  Se  Se15  1  0.666667  0.333333  0.222189  1
  Se  Se16  1  0.078748  0.518005  0.147961  1
  Se  Se17  1  0.518005  0.439257  0.647961  1
  Se  Se18  1  0.264161  0.115753  0.973412  1
  Se  Se19  1  0.148408  0.264161  0.473412  1
  Se  Se20  1  0.115753  0.851592  0.473412  1
  Se  Se21  1  0.884247  0.148408  0.973412  1
  Se  Se22  1  0.851592  0.735839  0.973412  1
  Se  Se23  1  0.735839  0.884247  0.473412  1
