# generated using pymatgen
data_Na2LiAu3
_symmetry_space_group_name_H-M   'P 1'
_cell_length_a   5.61838541
_cell_length_b   5.61838541
_cell_length_c   8.83478829
_cell_angle_alpha   90.00000000
_cell_angle_beta   90.00000000
_cell_angle_gamma   120.00000000
_symmetry_Int_Tables_number   1
_chemical_formula_structural   Na2LiAu3
_chemical_formula_sum   'Na4 Li2 Au6'
_cell_volume   241.51818396
_cell_formula_units_Z   2
loop_
 _symmetry_equiv_pos_site_id
 _symmetry_equiv_pos_as_xyz
  1  'x, y, z'
loop_
 _atom_site_type_symbol
 _atom_site_label
 _atom_site_symmetry_multiplicity
 _atom_site_fract_x
 _atom_site_fract_y
 _atom_site_fract_z
 _atom_site_occupancy
  Na  Na0  1  0.666667  0.333333  0.068436  1
  Na  Na1  1  0.333333  0.666667  0.931564  1
  Na  Na2  1  0.333333  0.666667  0.568436  1
  Na  Na3  1  0.666667  0.333333  0.431564  1
  Li  Li4  1  0.000000  0.000000  0.000000  1
  Li  Li5  1  0.000000  0.000000  0.500000  1
  Au  Au6  1  0.832164  0.664327  0.750000  1
  Au  Au7  1  0.167836  0.832164  0.250000  1
  Au  Au8  1  0.664327  0.832164  0.250000  1
  Au  Au9  1  0.335673  0.167836  0.750000  1
  Au  Au10  1  0.832164  0.167836  0.750000  1
  Au  Au11  1  0.167836  0.335673  0.250000  1
