# generated using pymatgen
data_YbGa7Au3
_symmetry_space_group_name_H-M   'P 1'
_cell_length_a   8.56858324
_cell_length_b   8.56858324
_cell_length_c   8.56858324
_cell_angle_alpha   57.62889593
_cell_angle_beta   57.62889593
_cell_angle_gamma   57.62889593
_symmetry_Int_Tables_number   1
_chemical_formula_structural   YbGa7Au3
_chemical_formula_sum   'Yb2 Ga14 Au6'
_cell_volume   420.60524661
_cell_formula_units_Z   2
loop_
 _symmetry_equiv_pos_site_id
 _symmetry_equiv_pos_as_xyz
  1  'x, y, z'
loop_
 _atom_site_type_symbol
 _atom_site_label
 _atom_site_symmetry_multiplicity
 _atom_site_fract_x
 _atom_site_fract_y
 _atom_site_fract_z
 _atom_site_occupancy
  Yb  Yb0  1  0.000000  0.000000  0.000000  1
  Yb  Yb1  1  0.500000  0.500000  0.500000  1
  Ga  Ga2  1  0.353131  0.169458  0.572939  1
  Ga  Ga3  1  0.169458  0.572939  0.353131  1
  Ga  Ga4  1  0.572939  0.353131  0.169458  1
  Ga  Ga5  1  0.146869  0.927061  0.330542  1
  Ga  Ga6  1  0.927061  0.330542  0.146869  1
  Ga  Ga7  1  0.330542  0.146869  0.927061  1
  Ga  Ga8  1  0.646869  0.830542  0.427061  1
  Ga  Ga9  1  0.830542  0.427061  0.646869  1
  Ga  Ga10  1  0.750000  0.750000  0.750000  1
  Ga  Ga11  1  0.250000  0.250000  0.250000  1
  Ga  Ga12  1  0.669458  0.853131  0.072939  1
  Ga  Ga13  1  0.072939  0.669458  0.853131  1
  Ga  Ga14  1  0.853131  0.072939  0.669458  1
  Ga  Ga15  1  0.427061  0.646869  0.830542  1
  Au  Au16  1  0.568209  0.250000  0.931791  1
  Au  Au17  1  0.750000  0.068209  0.431791  1
  Au  Au18  1  0.068209  0.431791  0.750000  1
  Au  Au19  1  0.431791  0.750000  0.068209  1
  Au  Au20  1  0.931791  0.568209  0.250000  1
  Au  Au21  1  0.250000  0.931791  0.568209  1
