# generated using pymatgen
data_BaCoP2O7
_symmetry_space_group_name_H-M   'P 1'
_cell_length_a   5.38129207
_cell_length_b   7.51215236
_cell_length_c   7.68533515
_cell_angle_alpha   102.98259701
_cell_angle_beta   91.75941625
_cell_angle_gamma   93.91490330
_symmetry_Int_Tables_number   1
_chemical_formula_structural   BaCoP2O7
_chemical_formula_sum   'Ba2 Co2 P4 O14'
_cell_volume   301.69350084
_cell_formula_units_Z   2
loop_
 _symmetry_equiv_pos_site_id
 _symmetry_equiv_pos_as_xyz
  1  'x, y, z'
loop_
 _atom_site_type_symbol
 _atom_site_label
 _atom_site_symmetry_multiplicity
 _atom_site_fract_x
 _atom_site_fract_y
 _atom_site_fract_z
 _atom_site_occupancy
  Ba  Ba0  1  0.207917  0.777531  0.933236  1
  Ba  Ba1  1  0.792083  0.222469  0.066764  1
  Co  Co2  1  0.800262  0.389469  0.605710  1
  Co  Co3  1  0.199738  0.610531  0.394290  1
  P  P4  1  0.294678  0.269758  0.785276  1
  P  P5  1  0.705322  0.730242  0.214724  1
  P  P6  1  0.293308  0.192209  0.400577  1
  P  P7  1  0.706692  0.807791  0.599423  1
  O  O8  1  0.218250  0.027627  0.253286  1
  O  O9  1  0.067899  0.387698  0.799509  1
  O  O10  1  0.711004  0.846838  0.076225  1
  O  O11  1  0.542995  0.387179  0.796710  1
  O  O12  1  0.435700  0.726672  0.602972  1
  O  O13  1  0.564300  0.273328  0.397028  1
  O  O14  1  0.267855  0.130161  0.589307  1
  O  O15  1  0.107383  0.346029  0.408925  1
  O  O16  1  0.781750  0.972373  0.746714  1
  O  O17  1  0.457005  0.612821  0.203290  1
  O  O18  1  0.892617  0.653971  0.591075  1
  O  O19  1  0.288996  0.153162  0.923775  1
  O  O20  1  0.732145  0.869839  0.410693  1
  O  O21  1  0.932101  0.612302  0.200491  1
