# generated using pymatgen
data_Al6Tc
_symmetry_space_group_name_H-M   'P 1'
_cell_length_a   5.04842575
_cell_length_b   5.04842575
_cell_length_c   9.01994371
_cell_angle_alpha   90.00000000
_cell_angle_beta   90.00000000
_cell_angle_gamma   98.27592600
_symmetry_Int_Tables_number   1
_chemical_formula_structural   Al6Tc
_chemical_formula_sum   'Al12 Tc2'
_cell_volume   227.49375169
_cell_formula_units_Z   2
loop_
 _symmetry_equiv_pos_site_id
 _symmetry_equiv_pos_as_xyz
  1  'x, y, z'
loop_
 _atom_site_type_symbol
 _atom_site_label
 _atom_site_symmetry_multiplicity
 _atom_site_fract_x
 _atom_site_fract_y
 _atom_site_fract_z
 _atom_site_occupancy
  Al  Al0  1  0.676016  0.323984  0.000000  1
  Al  Al1  1  0.323984  0.676016  0.500000  1
  Al  Al2  1  0.323984  0.676016  1.000000  1
  Al  Al3  1  0.676016  0.323984  0.500000  1
  Al  Al4  1  0.133474  0.133474  0.600338  1
  Al  Al5  1  0.866526  0.866526  0.100338  1
  Al  Al6  1  0.133474  0.133474  0.899662  1
  Al  Al7  1  0.866526  0.866526  0.399662  1
  Al  Al8  1  0.028592  0.389867  0.250000  1
  Al  Al9  1  0.971408  0.610133  0.750000  1
  Al  Al10  1  0.389867  0.028592  0.250000  1
  Al  Al11  1  0.610133  0.971408  0.750000  1
  Tc  Tc12  1  0.543978  0.543978  0.250000  1
  Tc  Tc13  1  0.456022  0.456022  0.750000  1
