# generated using pymatgen
data_KAlCuF6
_symmetry_space_group_name_H-M   'P 1'
_cell_length_a   6.73723040
_cell_length_b   7.15358526
_cell_length_c   9.95376654
_cell_angle_alpha   90.00000000
_cell_angle_beta   90.00000000
_cell_angle_gamma   90.00000000
_symmetry_Int_Tables_number   1
_chemical_formula_structural   KAlCuF6
_chemical_formula_sum   'K4 Al4 Cu4 F24'
_cell_volume   479.72528294
_cell_formula_units_Z   4
loop_
 _symmetry_equiv_pos_site_id
 _symmetry_equiv_pos_as_xyz
  1  'x, y, z'
loop_
 _atom_site_type_symbol
 _atom_site_label
 _atom_site_symmetry_multiplicity
 _atom_site_fract_x
 _atom_site_fract_y
 _atom_site_fract_z
 _atom_site_occupancy
  K  K0  1  0.987284  0.250000  0.380646  1
  K  K1  1  0.512716  0.750000  0.880646  1
  K  K2  1  0.487284  0.250000  0.119354  1
  K  K3  1  0.012716  0.750000  0.619354  1
  Al  Al4  1  0.500000  0.000000  0.500000  1
  Al  Al5  1  0.000000  0.500000  0.000000  1
  Al  Al6  1  0.500000  0.500000  0.500000  1
  Al  Al7  1  0.000000  0.000000  0.000000  1
  Cu  Cu8  1  0.313198  0.250000  0.762055  1
  Cu  Cu9  1  0.686802  0.750000  0.237945  1
  Cu  Cu10  1  0.186802  0.750000  0.262055  1
  Cu  Cu11  1  0.813198  0.250000  0.737945  1
  F  F12  1  0.615521  0.007477  0.334145  1
  F  F13  1  0.115521  0.492523  0.165855  1
  F  F14  1  0.384479  0.507477  0.665855  1
  F  F15  1  0.884479  0.992523  0.834145  1
  F  F16  1  0.384479  0.992523  0.665855  1
  F  F17  1  0.884479  0.507477  0.834145  1
  F  F18  1  0.615521  0.492523  0.334145  1
  F  F19  1  0.115521  0.007477  0.165855  1
  F  F20  1  0.737993  0.055214  0.575030  1
  F  F21  1  0.237993  0.444786  0.924970  1
  F  F22  1  0.262007  0.555214  0.424970  1
  F  F23  1  0.762007  0.944786  0.075030  1
  F  F24  1  0.072153  0.250000  0.663635  1
  F  F25  1  0.572153  0.250000  0.836365  1
  F  F26  1  0.927847  0.750000  0.336365  1
  F  F27  1  0.427847  0.750000  0.163635  1
  F  F28  1  0.435730  0.250000  0.484516  1
  F  F29  1  0.935730  0.250000  0.015484  1
  F  F30  1  0.564270  0.750000  0.515484  1
  F  F31  1  0.064270  0.750000  0.984516  1
  F  F32  1  0.237993  0.055214  0.924970  1
  F  F33  1  0.737993  0.444786  0.575030  1
  F  F34  1  0.762007  0.555214  0.075030  1
  F  F35  1  0.262007  0.944786  0.424970  1
