# generated using pymatgen
data_Mn2Al4Si5O18
_symmetry_space_group_name_H-M   'P 1'
_cell_length_a   10.12621718
_cell_length_b   10.12621718
_cell_length_c   9.39429404
_cell_angle_alpha   90.00000000
_cell_angle_beta   90.00000000
_cell_angle_gamma   120.83316097
_symmetry_Int_Tables_number   1
_chemical_formula_structural   Mn2Al4Si5O18
_chemical_formula_sum   'Mn4 Al8 Si10 O36'
_cell_volume   827.14486085
_cell_formula_units_Z   2
loop_
 _symmetry_equiv_pos_site_id
 _symmetry_equiv_pos_as_xyz
  1  'x, y, z'
loop_
 _atom_site_type_symbol
 _atom_site_label
 _atom_site_symmetry_multiplicity
 _atom_site_fract_x
 _atom_site_fract_y
 _atom_site_fract_z
 _atom_site_occupancy
  Mn  Mn0  1  0.162874  0.837126  0.750000  1
  Mn  Mn1  1  0.837126  0.162874  0.750000  1
  Mn  Mn2  1  0.837126  0.162874  0.250000  1
  Mn  Mn3  1  0.162874  0.837126  0.250000  1
  Al  Al4  1  0.758220  0.852838  0.500000  1
  Al  Al5  1  0.241780  0.147162  0.500000  1
  Al  Al6  1  0.852838  0.758220  1.000000  1
  Al  Al7  1  0.147162  0.241780  1.000000  1
  Al  Al8  1  0.000000  0.500000  0.749923  1
  Al  Al9  1  0.500000  0.000000  0.750077  1
  Al  Al10  1  0.000000  0.500000  0.250077  1
  Al  Al11  1  0.500000  0.000000  0.249923  1
  Si  Si12  1  0.595513  0.865421  1.000000  1
  Si  Si13  1  0.606034  0.230149  0.500000  1
  Si  Si14  1  0.769851  0.393966  0.000000  1
  Si  Si15  1  0.404487  0.134579  0.000000  1
  Si  Si16  1  0.000000  0.000000  0.750000  1
  Si  Si17  1  0.000000  0.000000  0.250000  1
  Si  Si18  1  0.865421  0.595513  0.500000  1
  Si  Si19  1  0.134579  0.404487  0.500000  1
  Si  Si20  1  0.393966  0.769851  0.500000  1
  Si  Si21  1  0.230149  0.606034  1.000000  1
  O  O22  1  0.264668  0.587636  0.500000  1
  O  O23  1  0.735332  0.412364  0.500000  1
  O  O24  1  0.587636  0.264668  1.000000  1
  O  O25  1  0.412364  0.735332  1.000000  1
  O  O26  1  0.567452  0.804619  0.500000  1
  O  O27  1  0.432548  0.195381  0.500000  1
  O  O28  1  0.804619  0.567452  0.000000  1
  O  O29  1  0.195381  0.432548  0.000000  1
  O  O30  1  0.208280  0.298140  0.500000  1
  O  O31  1  0.791720  0.701860  0.500000  1
  O  O32  1  0.298140  0.208280  0.000000  1
  O  O33  1  0.701860  0.791720  1.000000  1
  O  O34  1  0.628659  0.975627  0.858204  1
  O  O35  1  0.371341  0.024373  0.858204  1
  O  O36  1  0.975627  0.628659  0.641796  1
  O  O37  1  0.024373  0.371341  0.641796  1
  O  O38  1  0.371341  0.024373  0.141796  1
  O  O39  1  0.628659  0.975627  0.141796  1
  O  O40  1  0.024373  0.371341  0.358204  1
  O  O41  1  0.975627  0.628659  0.358204  1
  O  O42  1  0.973213  0.854393  0.849250  1
  O  O43  1  0.026787  0.145607  0.849250  1
  O  O44  1  0.363851  0.848676  0.358497  1
  O  O45  1  0.636149  0.151324  0.358497  1
  O  O46  1  0.848676  0.363851  0.141503  1
  O  O47  1  0.151324  0.636149  0.141503  1
  O  O48  1  0.636149  0.151324  0.641503  1
  O  O49  1  0.363851  0.848676  0.641503  1
  O  O50  1  0.151324  0.636149  0.858497  1
  O  O51  1  0.854393  0.973213  0.650750  1
  O  O52  1  0.854393  0.973213  0.349250  1
  O  O53  1  0.145607  0.026787  0.349250  1
  O  O54  1  0.973213  0.854393  0.150750  1
  O  O55  1  0.026787  0.145607  0.150750  1
  O  O56  1  0.145607  0.026787  0.650750  1
  O  O57  1  0.848676  0.363851  0.858497  1
