# generated using pymatgen
data_RbEr2Cu3Se5
_symmetry_space_group_name_H-M   'P 1'
_cell_length_a   7.55391085
_cell_length_b   7.55391085
_cell_length_c   17.05048086
_cell_angle_alpha   90.00000000
_cell_angle_beta   90.00000000
_cell_angle_gamma   148.44046297
_symmetry_Int_Tables_number   1
_chemical_formula_structural   RbEr2Cu3Se5
_chemical_formula_sum   'Rb2 Er4 Cu6 Se10'
_cell_volume   509.21479371
_cell_formula_units_Z   2
loop_
 _symmetry_equiv_pos_site_id
 _symmetry_equiv_pos_as_xyz
  1  'x, y, z'
loop_
 _atom_site_type_symbol
 _atom_site_label
 _atom_site_symmetry_multiplicity
 _atom_site_fract_x
 _atom_site_fract_y
 _atom_site_fract_z
 _atom_site_occupancy
  Rb  Rb0  1  0.439093  0.560907  0.250000  1
  Rb  Rb1  1  0.560907  0.439093  0.750000  1
  Er  Er2  1  0.692010  0.307990  0.092207  1
  Er  Er3  1  0.307990  0.692010  0.907793  1
  Er  Er4  1  0.307990  0.692010  0.592207  1
  Er  Er5  1  0.692010  0.307990  0.407793  1
  Cu  Cu6  1  0.915621  0.084379  0.029848  1
  Cu  Cu7  1  0.084379  0.915621  0.970152  1
  Cu  Cu8  1  0.084379  0.915621  0.529848  1
  Cu  Cu9  1  0.915621  0.084379  0.470152  1
  Cu  Cu10  1  0.158520  0.841480  0.250000  1
  Cu  Cu11  1  0.841480  0.158520  0.750000  1
  Se  Se12  1  0.939540  0.060460  0.883786  1
  Se  Se13  1  0.060460  0.939540  0.116214  1
  Se  Se14  1  0.060460  0.939540  0.383786  1
  Se  Se15  1  0.939540  0.060460  0.616214  1
  Se  Se16  1  0.254894  0.745106  0.750000  1
  Se  Se17  1  0.745106  0.254894  0.250000  1
  Se  Se18  1  0.667136  0.332864  0.928571  1
  Se  Se19  1  0.332864  0.667136  0.071429  1
  Se  Se20  1  0.332864  0.667136  0.428571  1
  Se  Se21  1  0.667136  0.332864  0.571429  1
