# generated using pymatgen
data_HoCo3Cu2
_symmetry_space_group_name_H-M   'P 1'
_cell_length_a   4.88165211
_cell_length_b   4.88165211
_cell_length_c   4.06787937
_cell_angle_alpha   90.00000000
_cell_angle_beta   90.00000000
_cell_angle_gamma   120.00000000
_symmetry_Int_Tables_number   1
_chemical_formula_structural   HoCo3Cu2
_chemical_formula_sum   'Ho1 Co3 Cu2'
_cell_volume   83.95225200
_cell_formula_units_Z   1
loop_
 _symmetry_equiv_pos_site_id
 _symmetry_equiv_pos_as_xyz
  1  'x, y, z'
loop_
 _atom_site_type_symbol
 _atom_site_label
 _atom_site_symmetry_multiplicity
 _atom_site_fract_x
 _atom_site_fract_y
 _atom_site_fract_z
 _atom_site_occupancy
  Ho  Ho0  1  0.000000  0.000000  0.000000  1
  Co  Co1  1  0.500000  0.500000  0.500000  1
  Co  Co2  1  0.500000  0.000000  0.500000  1
  Co  Co3  1  0.000000  0.500000  0.500000  1
  Cu  Cu4  1  0.666667  0.333333  0.000000  1
  Cu  Cu5  1  0.333333  0.666667  0.000000  1
