# generated using pymatgen
data_K2Cd3Te4
_symmetry_space_group_name_H-M   'P 1'
_cell_length_a   7.44986007
_cell_length_b   11.61040724
_cell_length_c   15.42800886
_cell_angle_alpha   90.00000000
_cell_angle_beta   90.00000000
_cell_angle_gamma   90.00000000
_symmetry_Int_Tables_number   1
_chemical_formula_structural   K2Cd3Te4
_chemical_formula_sum   'K8 Cd12 Te16'
_cell_volume   1334.45965494
_cell_formula_units_Z   4
loop_
 _symmetry_equiv_pos_site_id
 _symmetry_equiv_pos_as_xyz
  1  'x, y, z'
loop_
 _atom_site_type_symbol
 _atom_site_label
 _atom_site_symmetry_multiplicity
 _atom_site_fract_x
 _atom_site_fract_y
 _atom_site_fract_z
 _atom_site_occupancy
  K  K0  1  0.979270  0.250000  0.534438  1
  K  K1  1  0.479270  0.750000  0.965562  1
  K  K2  1  0.520730  0.250000  0.034438  1
  K  K3  1  0.020730  0.750000  0.465562  1
  K  K4  1  0.000000  0.000000  0.000000  1
  K  K5  1  0.500000  0.000000  0.500000  1
  K  K6  1  0.000000  0.500000  0.000000  1
  K  K7  1  0.500000  0.500000  0.500000  1
  Cd  Cd8  1  0.340199  0.597944  0.256057  1
  Cd  Cd9  1  0.730110  0.750000  0.702275  1
  Cd  Cd10  1  0.159801  0.902056  0.756057  1
  Cd  Cd11  1  0.659801  0.097944  0.743943  1
  Cd  Cd12  1  0.340199  0.902056  0.256057  1
  Cd  Cd13  1  0.840199  0.097944  0.243943  1
  Cd  Cd14  1  0.659801  0.402056  0.743943  1
  Cd  Cd15  1  0.159801  0.597944  0.756057  1
  Cd  Cd16  1  0.769890  0.750000  0.202275  1
  Cd  Cd17  1  0.269890  0.250000  0.297725  1
  Cd  Cd18  1  0.230110  0.250000  0.797725  1
  Cd  Cd19  1  0.840199  0.402056  0.243943  1
  Te  Te20  1  0.074611  0.250000  0.135890  1
  Te  Te21  1  0.425389  0.250000  0.635890  1
  Te  Te22  1  0.925389  0.750000  0.864110  1
  Te  Te23  1  0.574611  0.750000  0.364110  1
  Te  Te24  1  0.368502  0.750000  0.645335  1
  Te  Te25  1  0.868502  0.250000  0.854665  1
  Te  Te26  1  0.631498  0.250000  0.354665  1
  Te  Te27  1  0.131498  0.750000  0.145335  1
  Te  Te28  1  0.885751  0.532889  0.633915  1
  Te  Te29  1  0.385751  0.467111  0.866085  1
  Te  Te30  1  0.114249  0.032889  0.366085  1
  Te  Te31  1  0.614249  0.967111  0.133915  1
  Te  Te32  1  0.114249  0.467111  0.366085  1
  Te  Te33  1  0.614249  0.532889  0.133915  1
  Te  Te34  1  0.885751  0.967111  0.633915  1
  Te  Te35  1  0.385751  0.032889  0.866085  1
