# generated using pymatgen
data_CsSi2BO6
_symmetry_space_group_name_H-M   'P 1'
_cell_length_a   11.38970585
_cell_length_b   11.38970585
_cell_length_c   11.38970585
_cell_angle_alpha   109.25511631
_cell_angle_beta   109.25511631
_cell_angle_gamma   109.90429923
_symmetry_Int_Tables_number   1
_chemical_formula_structural   CsSi2BO6
_chemical_formula_sum   'Cs8 Si16 B8 O48'
_cell_volume   1137.35753082
_cell_formula_units_Z   8
loop_
 _symmetry_equiv_pos_site_id
 _symmetry_equiv_pos_as_xyz
  1  'x, y, z'
loop_
 _atom_site_type_symbol
 _atom_site_label
 _atom_site_symmetry_multiplicity
 _atom_site_fract_x
 _atom_site_fract_y
 _atom_site_fract_z
 _atom_site_occupancy
  Cs  Cs0  1  0.376527  0.123473  0.500000  1
  Cs  Cs1  1  0.123473  0.623473  0.746945  1
  Cs  Cs2  1  0.626527  0.873473  1.000000  1
  Cs  Cs3  1  0.373473  0.373473  0.246945  1
  Cs  Cs4  1  0.873473  0.626527  0.000000  1
  Cs  Cs5  1  0.126527  0.126527  0.753055  1
  Cs  Cs6  1  0.623473  0.876527  0.500000  1
  Cs  Cs7  1  0.876527  0.376527  0.253055  1
  Si  Si8  1  0.844889  0.302298  0.725074  1
  Si  Si9  1  0.077223  0.802298  0.457408  1
  Si  Si10  1  0.869815  0.827223  0.774926  1
  Si  Si11  1  0.552298  0.327223  0.957408  1
  Si  Si12  1  0.405111  0.447703  0.774926  1
  Si  Si13  1  0.172777  0.947703  0.042592  1
  Si  Si14  1  0.380185  0.922777  0.725074  1
  Si  Si15  1  0.697702  0.422777  0.542592  1
  Si  Si16  1  0.344889  0.619815  0.542592  1
  Si  Si17  1  0.577223  0.119815  0.274926  1
  Si  Si18  1  0.369815  0.594889  0.042592  1
  Si  Si19  1  0.052298  0.094889  0.225074  1
  Si  Si20  1  0.905111  0.130185  0.957408  1
  Si  Si21  1  0.672777  0.630185  0.225074  1
  Si  Si22  1  0.880185  0.155111  0.457408  1
  Si  Si23  1  0.197702  0.655111  0.274926  1
  B  B24  1  0.164389  0.335611  0.500000  1
  B  B25  1  0.335611  0.835611  0.171223  1
  B  B26  1  0.414389  0.085611  0.000000  1
  B  B27  1  0.585611  0.585611  0.671223  1
  B  B28  1  0.085611  0.414389  0.000000  1
  B  B29  1  0.914389  0.914389  0.328777  1
  B  B30  1  0.835611  0.664389  0.500000  1
  B  B31  1  0.664389  0.164389  0.828777  1
  O  O32  1  0.515333  0.040189  0.732006  1
  O  O33  1  0.808183  0.540189  0.524856  1
  O  O34  1  0.533327  0.558183  0.767994  1
  O  O35  1  0.290189  0.058183  0.024856  1
  O  O36  1  0.734667  0.709811  0.767994  1
  O  O37  1  0.441817  0.209811  0.975144  1
  O  O38  1  0.716673  0.191817  0.732006  1
  O  O39  1  0.959811  0.691817  0.475144  1
  O  O40  1  0.015333  0.283327  0.475144  1
  O  O41  1  0.308183  0.783327  0.267994  1
  O  O42  1  0.033327  0.265333  0.975144  1
  O  O43  1  0.790189  0.765333  0.232006  1
  O  O44  1  0.234667  0.466673  0.024856  1
  O  O45  1  0.941817  0.966673  0.232006  1
  O  O46  1  0.216673  0.484667  0.524856  1
  O  O47  1  0.459811  0.984667  0.267994  1
  O  O48  1  0.797495  0.403863  0.669356  1
  O  O49  1  0.234507  0.903863  0.606368  1
  O  O50  1  0.878139  0.984507  0.830644  1
  O  O51  1  0.653863  0.484507  0.106368  1
  O  O52  1  0.452505  0.346137  0.830644  1
  O  O53  1  0.015493  0.846137  0.893632  1
  O  O54  1  0.371861  0.765493  0.669356  1
  O  O55  1  0.596137  0.265493  0.393632  1
  O  O56  1  0.297495  0.628139  0.393632  1
  O  O57  1  0.734507  0.128139  0.330644  1
  O  O58  1  0.378139  0.547495  0.893632  1
  O  O59  1  0.153863  0.047495  0.169356  1
  O  O60  1  0.952505  0.121861  0.106368  1
  O  O61  1  0.515493  0.621861  0.169356  1
  O  O62  1  0.871861  0.202505  0.606368  1
  O  O63  1  0.096137  0.702505  0.330644  1
  O  O64  1  0.667122  0.292595  0.922082  1
  O  O65  1  0.870512  0.792595  0.625473  1
  O  O66  1  0.495039  0.620512  0.577918  1
  O  O67  1  0.542595  0.120512  0.125473  1
  O  O68  1  0.582878  0.457405  0.577918  1
  O  O69  1  0.379488  0.957405  0.874527  1
  O  O70  1  0.754961  0.129488  0.922082  1
  O  O71  1  0.707405  0.629488  0.374527  1
  O  O72  1  0.167122  0.245039  0.374527  1
  O  O73  1  0.370512  0.745039  0.077918  1
  O  O74  1  0.995039  0.417122  0.874527  1
  O  O75  1  0.042595  0.917122  0.422082  1
  O  O76  1  0.082878  0.504961  0.125473  1
  O  O77  1  0.879488  0.004961  0.422082  1
  O  O78  1  0.254961  0.332878  0.625473  1
  O  O79  1  0.207405  0.832878  0.077918  1
