# generated using pymatgen
data_BaS4O13
_symmetry_space_group_name_H-M   'P 1'
_cell_length_a   7.68541454
_cell_length_b   7.68541454
_cell_length_c   9.81984013
_cell_angle_alpha   84.68989636
_cell_angle_beta   95.31010364
_cell_angle_gamma   76.62437758
_symmetry_Int_Tables_number   1
_chemical_formula_structural   BaS4O13
_chemical_formula_sum   'Ba2 S8 O26'
_cell_volume   557.95858218
_cell_formula_units_Z   2
loop_
 _symmetry_equiv_pos_site_id
 _symmetry_equiv_pos_as_xyz
  1  'x, y, z'
loop_
 _atom_site_type_symbol
 _atom_site_label
 _atom_site_symmetry_multiplicity
 _atom_site_fract_x
 _atom_site_fract_y
 _atom_site_fract_z
 _atom_site_occupancy
  Ba  Ba0  1  0.804448  0.804448  0.750000  1
  Ba  Ba1  1  0.195552  0.195552  0.250000  1
  S  S2  1  0.425845  0.230219  0.881342  1
  S  S3  1  0.230219  0.425845  0.618658  1
  S  S4  1  0.574155  0.769781  0.118658  1
  S  S5  1  0.769781  0.574155  0.381342  1
  S  S6  1  0.803098  0.287689  0.921888  1
  S  S7  1  0.287689  0.803098  0.578112  1
  S  S8  1  0.196902  0.712311  0.078112  1
  S  S9  1  0.712311  0.196902  0.421888  1
  O  O10  1  0.490220  0.061608  0.829206  1
  O  O11  1  0.061608  0.490220  0.670794  1
  O  O12  1  0.509780  0.938392  0.170794  1
  O  O13  1  0.938392  0.509780  0.329206  1
  O  O14  1  0.269240  0.254282  0.953301  1
  O  O15  1  0.254282  0.269240  0.546699  1
  O  O16  1  0.730760  0.745718  0.046699  1
  O  O17  1  0.745718  0.730760  0.453301  1
  O  O18  1  0.389853  0.389853  0.750000  1
  O  O19  1  0.610147  0.610147  0.250000  1
  O  O20  1  0.571576  0.292442  0.967552  1
  O  O21  1  0.292442  0.571576  0.532448  1
  O  O22  1  0.428424  0.707558  0.032448  1
  O  O23  1  0.707558  0.428424  0.467552  1
  O  O24  1  0.766772  0.448426  0.825423  1
  O  O25  1  0.448426  0.766772  0.674577  1
  O  O26  1  0.233228  0.551574  0.174577  1
  O  O27  1  0.551574  0.233228  0.325423  1
  O  O28  1  0.882087  0.298918  0.058866  1
  O  O29  1  0.298918  0.882087  0.441134  1
  O  O30  1  0.117913  0.701082  0.941134  1
  O  O31  1  0.701082  0.117913  0.558866  1
  O  O32  1  0.854181  0.117158  0.867991  1
  O  O33  1  0.117158  0.854181  0.632009  1
  O  O34  1  0.145819  0.882842  0.132009  1
  O  O35  1  0.882842  0.145819  0.367991  1
