# generated using pymatgen
data_LaNiSn
_symmetry_space_group_name_H-M   'P 1'
_cell_length_a   4.75395445
_cell_length_b   7.29576445
_cell_length_c   7.81078029
_cell_angle_alpha   90.00000000
_cell_angle_beta   90.00000000
_cell_angle_gamma   90.00000000
_symmetry_Int_Tables_number   1
_chemical_formula_structural   LaNiSn
_chemical_formula_sum   'La4 Ni4 Sn4'
_cell_volume   270.90700930
_cell_formula_units_Z   4
loop_
 _symmetry_equiv_pos_site_id
 _symmetry_equiv_pos_as_xyz
  1  'x, y, z'
loop_
 _atom_site_type_symbol
 _atom_site_label
 _atom_site_symmetry_multiplicity
 _atom_site_fract_x
 _atom_site_fract_y
 _atom_site_fract_z
 _atom_site_occupancy
  La  La0  1  0.750000  0.315361  0.031447  1
  La  La1  1  0.250000  0.684639  0.968553  1
  La  La2  1  0.250000  0.815361  0.468553  1
  La  La3  1  0.750000  0.184639  0.531447  1
  Ni  Ni4  1  0.250000  0.425179  0.675813  1
  Ni  Ni5  1  0.750000  0.574821  0.324187  1
  Ni  Ni6  1  0.250000  0.074821  0.175813  1
  Ni  Ni7  1  0.750000  0.925179  0.824187  1
  Sn  Sn8  1  0.250000  0.100745  0.823113  1
  Sn  Sn9  1  0.750000  0.600745  0.676887  1
  Sn  Sn10  1  0.250000  0.399255  0.323113  1
  Sn  Sn11  1  0.750000  0.899255  0.176887  1
