# generated using pymatgen
data_Fe2PO5
_symmetry_space_group_name_H-M   'P 1'
_cell_length_a   7.39922663
_cell_length_b   7.39922663
_cell_length_c   7.39922663
_cell_angle_alpha   137.04326316
_cell_angle_beta   137.04326316
_cell_angle_gamma   62.37149179
_symmetry_Int_Tables_number   1
_chemical_formula_structural   Fe2PO5
_chemical_formula_sum   'Fe4 P2 O10'
_cell_volume   185.84607929
_cell_formula_units_Z   2
loop_
 _symmetry_equiv_pos_site_id
 _symmetry_equiv_pos_as_xyz
  1  'x, y, z'
loop_
 _atom_site_type_symbol
 _atom_site_label
 _atom_site_symmetry_multiplicity
 _atom_site_fract_x
 _atom_site_fract_y
 _atom_site_fract_z
 _atom_site_occupancy
  Fe  Fe0  1  0.875000  0.625000  0.250000  1
  Fe  Fe1  1  0.375000  0.625000  0.250000  1
  Fe  Fe2  1  0.375000  0.125000  0.750000  1
  Fe  Fe3  1  0.375000  0.625000  0.750000  1
  P  P4  1  0.000000  0.000000  0.000000  1
  P  P5  1  0.750000  0.250000  0.500000  1
  O  O6  1  0.250000  0.750000  0.500000  1
  O  O7  1  0.500000  0.500000  0.000000  1
  O  O8  1  0.694826  0.932468  0.762359  1
  O  O9  1  0.067532  0.829891  0.762359  1
  O  O10  1  0.067532  0.305174  0.237641  1
  O  O11  1  0.055174  0.317532  0.737641  1
  O  O12  1  0.170109  0.932468  0.237641  1
  O  O13  1  0.682468  0.944826  0.262359  1
  O  O14  1  0.682468  0.420109  0.737641  1
  O  O15  1  0.579891  0.317532  0.262359  1
