# generated using pymatgen
data_RbCuSe4
_symmetry_space_group_name_H-M   'P 1'
_cell_length_a   5.57063837
_cell_length_b   9.02939355
_cell_length_c   13.81854532
_cell_angle_alpha   90.00000000
_cell_angle_beta   90.00000000
_cell_angle_gamma   90.00000000
_symmetry_Int_Tables_number   1
_chemical_formula_structural   RbCuSe4
_chemical_formula_sum   'Rb4 Cu4 Se16'
_cell_volume   695.06572918
_cell_formula_units_Z   4
loop_
 _symmetry_equiv_pos_site_id
 _symmetry_equiv_pos_as_xyz
  1  'x, y, z'
loop_
 _atom_site_type_symbol
 _atom_site_label
 _atom_site_symmetry_multiplicity
 _atom_site_fract_x
 _atom_site_fract_y
 _atom_site_fract_z
 _atom_site_occupancy
  Rb  Rb0  1  0.687571  0.060101  0.333602  1
  Rb  Rb1  1  0.187571  0.439899  0.666398  1
  Rb  Rb2  1  0.312429  0.560101  0.166398  1
  Rb  Rb3  1  0.812429  0.939899  0.833602  1
  Cu  Cu4  1  0.967354  0.863080  0.564108  1
  Cu  Cu5  1  0.532646  0.136920  0.064108  1
  Cu  Cu6  1  0.032646  0.363080  0.935892  1
  Cu  Cu7  1  0.467354  0.636920  0.435892  1
  Se  Se8  1  0.659690  0.883426  0.096347  1
  Se  Se9  1  0.840310  0.116574  0.596347  1
  Se  Se10  1  0.340310  0.383426  0.403653  1
  Se  Se11  1  0.159690  0.616574  0.903653  1
  Se  Se12  1  0.635559  0.697116  0.595272  1
  Se  Se13  1  0.135559  0.802884  0.404728  1
  Se  Se14  1  0.364441  0.197116  0.904728  1
  Se  Se15  1  0.864441  0.302884  0.095272  1
  Se  Se16  1  0.340022  0.866911  0.661695  1
  Se  Se17  1  0.840022  0.633089  0.338305  1
  Se  Se18  1  0.659978  0.366911  0.838305  1
  Se  Se19  1  0.159978  0.133089  0.161695  1
  Se  Se20  1  0.418225  0.087832  0.565175  1
  Se  Se21  1  0.918225  0.412168  0.434825  1
  Se  Se22  1  0.581775  0.587832  0.934825  1
  Se  Se23  1  0.081775  0.912168  0.065175  1
