# generated using pymatgen
data_ScB4Os3
_symmetry_space_group_name_H-M   'P 1'
_cell_length_a   6.10783481
_cell_length_b   6.10783481
_cell_length_c   9.87022051
_cell_angle_alpha   90.00000000
_cell_angle_beta   90.00000000
_cell_angle_gamma   151.95279221
_symmetry_Int_Tables_number   1
_chemical_formula_structural   ScB4Os3
_chemical_formula_sum   'Sc2 B8 Os6'
_cell_volume   173.13426260
_cell_formula_units_Z   2
loop_
 _symmetry_equiv_pos_site_id
 _symmetry_equiv_pos_as_xyz
  1  'x, y, z'
loop_
 _atom_site_type_symbol
 _atom_site_label
 _atom_site_symmetry_multiplicity
 _atom_site_fract_x
 _atom_site_fract_y
 _atom_site_fract_z
 _atom_site_occupancy
  Sc  Sc0  1  0.500000  0.500000  1.000000  1
  Sc  Sc1  1  0.500000  0.500000  0.500000  1
  B  B2  1  0.370851  0.629149  0.250000  1
  B  B3  1  0.629149  0.370851  0.750000  1
  B  B4  1  0.649526  0.350474  0.250000  1
  B  B5  1  0.350474  0.649526  0.750000  1
  B  B6  1  0.843685  0.156315  0.891263  1
  B  B7  1  0.156315  0.843685  0.391263  1
  B  B8  1  0.156315  0.843685  0.108737  1
  B  B9  1  0.843685  0.156315  0.608737  1
  Os  Os10  1  0.798242  0.201758  0.108308  1
  Os  Os11  1  0.988860  0.011140  0.750000  1
  Os  Os12  1  0.011140  0.988860  0.250000  1
  Os  Os13  1  0.201758  0.798242  0.891692  1
  Os  Os14  1  0.201758  0.798242  0.608308  1
  Os  Os15  1  0.798242  0.201758  0.391692  1
