# generated using pymatgen
data_YCo(BO2)5
_symmetry_space_group_name_H-M   'P 1'
_cell_length_a   8.64072391
_cell_length_b   7.66340852
_cell_length_c   12.39631606
_cell_angle_alpha   90.00000000
_cell_angle_beta   130.49539745
_cell_angle_gamma   90.00000000
_symmetry_Int_Tables_number   1
_chemical_formula_structural   YCo(BO2)5
_chemical_formula_sum   'Y4 Co4 B20 O40'
_cell_volume   624.22341567
_cell_formula_units_Z   4
loop_
 _symmetry_equiv_pos_site_id
 _symmetry_equiv_pos_as_xyz
  1  'x, y, z'
loop_
 _atom_site_type_symbol
 _atom_site_label
 _atom_site_symmetry_multiplicity
 _atom_site_fract_x
 _atom_site_fract_y
 _atom_site_fract_z
 _atom_site_occupancy
  Y  Y0  1  0.942432  0.315234  0.257780  1
  Y  Y1  1  0.057568  0.815234  0.242220  1
  Y  Y2  1  0.057568  0.684766  0.742220  1
  Y  Y3  1  0.942432  0.184766  0.757780  1
  Co  Co4  1  0.471867  0.096935  0.370427  1
  Co  Co5  1  0.528133  0.596935  0.129573  1
  Co  Co6  1  0.528133  0.903065  0.629573  1
  Co  Co7  1  0.471867  0.403065  0.870427  1
  B  B8  1  0.522466  0.187169  0.089091  1
  B  B9  1  0.477534  0.687169  0.410909  1
  B  B10  1  0.477534  0.812831  0.910909  1
  B  B11  1  0.522466  0.312831  0.589091  1
  B  B12  1  0.848568  0.898067  0.509234  1
  B  B13  1  0.151432  0.398067  0.990766  1
  B  B14  1  0.151432  0.101933  0.490766  1
  B  B15  1  0.848568  0.601933  0.009234  1
  B  B16  1  0.278969  0.967900  0.057065  1
  B  B17  1  0.721031  0.467900  0.442935  1
  B  B18  1  0.721031  0.032100  0.942935  1
  B  B19  1  0.278969  0.532100  0.557065  1
  B  B20  1  0.085210  0.175259  0.102462  1
  B  B21  1  0.914790  0.675259  0.397538  1
  B  B22  1  0.914790  0.824741  0.897538  1
  B  B23  1  0.085210  0.324741  0.602462  1
  B  B24  1  0.662106  0.926715  0.247018  1
  B  B25  1  0.337894  0.426715  0.252982  1
  B  B26  1  0.337894  0.073285  0.752982  1
  B  B27  1  0.662106  0.573285  0.747018  1
  O  O28  1  0.113354  0.054960  0.370387  1
  O  O29  1  0.886646  0.554960  0.129613  1
  O  O30  1  0.886646  0.945040  0.629613  1
  O  O31  1  0.113354  0.445040  0.870387  1
  O  O32  1  0.422359  0.847034  0.428984  1
  O  O33  1  0.577641  0.347034  0.071016  1
  O  O34  1  0.577641  0.152966  0.571016  1
  O  O35  1  0.422359  0.652966  0.928984  1
  O  O36  1  0.328441  0.123956  0.009769  1
  O  O37  1  0.671559  0.623956  0.490231  1
  O  O38  1  0.671559  0.876044  0.990231  1
  O  O39  1  0.328441  0.376044  0.509769  1
  O  O40  1  0.025787  0.268500  0.977132  1
  O  O41  1  0.974213  0.768500  0.522868  1
  O  O42  1  0.974213  0.731500  0.022868  1
  O  O43  1  0.025787  0.231500  0.477132  1
  O  O44  1  0.903581  0.110174  0.078558  1
  O  O45  1  0.096419  0.610174  0.421442  1
  O  O46  1  0.096419  0.889826  0.921442  1
  O  O47  1  0.903581  0.389826  0.578558  1
  O  O48  1  0.232825  0.029740  0.148781  1
  O  O49  1  0.767175  0.529740  0.351219  1
  O  O50  1  0.767175  0.970260  0.851219  1
  O  O51  1  0.232825  0.470260  0.648781  1
  O  O52  1  0.456918  0.851962  0.140649  1
  O  O53  1  0.543082  0.351962  0.359351  1
  O  O54  1  0.543082  0.148038  0.859351  1
  O  O55  1  0.456918  0.648038  0.640649  1
  O  O56  1  0.686973  0.092102  0.199754  1
  O  O57  1  0.313027  0.592102  0.300246  1
  O  O58  1  0.313027  0.907898  0.800246  1
  O  O59  1  0.686973  0.407898  0.699754  1
  O  O60  1  0.693961  0.968019  0.378566  1
  O  O61  1  0.306039  0.468019  0.121434  1
  O  O62  1  0.306039  0.031981  0.621434  1
  O  O63  1  0.693961  0.531981  0.878566  1
  O  O64  1  0.809501  0.795407  0.273772  1
  O  O65  1  0.190499  0.295407  0.226228  1
  O  O66  1  0.190499  0.204593  0.726228  1
  O  O67  1  0.809501  0.704593  0.773772  1
