# generated using pymatgen
data_BaB2S3O13
_symmetry_space_group_name_H-M   'P 1'
_cell_length_a   4.49816226
_cell_length_b   12.65766459
_cell_length_c   17.55378499
_cell_angle_alpha   90.00000000
_cell_angle_beta   90.00000000
_cell_angle_gamma   90.00000000
_symmetry_Int_Tables_number   1
_chemical_formula_structural   BaB2S3O13
_chemical_formula_sum   'Ba4 B8 S12 O52'
_cell_volume   999.44632479
_cell_formula_units_Z   4
loop_
 _symmetry_equiv_pos_site_id
 _symmetry_equiv_pos_as_xyz
  1  'x, y, z'
loop_
 _atom_site_type_symbol
 _atom_site_label
 _atom_site_symmetry_multiplicity
 _atom_site_fract_x
 _atom_site_fract_y
 _atom_site_fract_z
 _atom_site_occupancy
  Ba  Ba0  1  0.527558  0.250000  0.281496  1
  Ba  Ba1  1  0.972442  0.250000  0.781496  1
  Ba  Ba2  1  0.472442  0.750000  0.718504  1
  Ba  Ba3  1  0.027558  0.750000  0.218504  1
  B  B4  1  0.937329  0.349431  0.579427  1
  B  B5  1  0.562671  0.150569  0.079427  1
  B  B6  1  0.062671  0.849431  0.420573  1
  B  B7  1  0.437329  0.650569  0.920573  1
  B  B8  1  0.062671  0.650569  0.420573  1
  B  B9  1  0.437329  0.849431  0.920573  1
  B  B10  1  0.937329  0.150569  0.579427  1
  B  B11  1  0.562671  0.349431  0.079427  1
  S  S12  1  0.057056  0.436334  0.147262  1
  S  S13  1  0.442944  0.063666  0.647262  1
  S  S14  1  0.942944  0.936334  0.852738  1
  S  S15  1  0.557056  0.563666  0.352738  1
  S  S16  1  0.942944  0.563666  0.852738  1
  S  S17  1  0.557056  0.936334  0.352738  1
  S  S18  1  0.057056  0.063666  0.147262  1
  S  S19  1  0.442944  0.436334  0.647262  1
  S  S20  1  0.133284  0.250000  0.453815  1
  S  S21  1  0.366716  0.250000  0.953815  1
  S  S22  1  0.866716  0.750000  0.546185  1
  S  S23  1  0.633284  0.750000  0.046185  1
  O  O24  1  0.536184  0.250000  0.116316  1
  O  O25  1  0.963816  0.250000  0.616316  1
  O  O26  1  0.463816  0.750000  0.883684  1
  O  O27  1  0.036184  0.750000  0.383684  1
  O  O28  1  0.014027  0.347103  0.496942  1
  O  O29  1  0.485973  0.152897  0.996942  1
  O  O30  1  0.985973  0.847103  0.503058  1
  O  O31  1  0.514027  0.652897  0.003058  1
  O  O32  1  0.985973  0.652897  0.503058  1
  O  O33  1  0.514027  0.847103  0.003058  1
  O  O34  1  0.014027  0.152897  0.496942  1
  O  O35  1  0.485973  0.347103  0.996942  1
  O  O36  1  0.025531  0.365237  0.212439  1
  O  O37  1  0.474469  0.134763  0.712439  1
  O  O38  1  0.974469  0.865237  0.787561  1
  O  O39  1  0.525531  0.634763  0.287561  1
  O  O40  1  0.974469  0.634763  0.787561  1
  O  O41  1  0.525531  0.865237  0.287561  1
  O  O42  1  0.025531  0.134763  0.212439  1
  O  O43  1  0.474469  0.365237  0.712439  1
  O  O44  1  0.005377  0.250000  0.377426  1
  O  O45  1  0.494623  0.250000  0.877426  1
  O  O46  1  0.994623  0.750000  0.622574  1
  O  O47  1  0.505377  0.750000  0.122574  1
  O  O48  1  0.452964  0.250000  0.451898  1
  O  O49  1  0.047036  0.250000  0.951898  1
  O  O50  1  0.547036  0.750000  0.548102  1
  O  O51  1  0.952964  0.750000  0.048102  1
  O  O52  1  0.989475  0.545593  0.162460  1
  O  O53  1  0.510525  0.954407  0.662460  1
  O  O54  1  0.010525  0.045593  0.837540  1
  O  O55  1  0.489475  0.454407  0.337540  1
  O  O56  1  0.010525  0.454407  0.837540  1
  O  O57  1  0.489475  0.045593  0.337540  1
  O  O58  1  0.989475  0.954407  0.162460  1
  O  O59  1  0.510525  0.545593  0.662460  1
  O  O60  1  0.379447  0.433490  0.118111  1
  O  O61  1  0.120553  0.066510  0.618111  1
  O  O62  1  0.620553  0.933490  0.881889  1
  O  O63  1  0.879447  0.566510  0.381889  1
  O  O64  1  0.620553  0.566510  0.881889  1
  O  O65  1  0.879447  0.933490  0.381889  1
  O  O66  1  0.379447  0.066510  0.118111  1
  O  O67  1  0.120553  0.433490  0.618111  1
  O  O68  1  0.875660  0.394892  0.079403  1
  O  O69  1  0.624340  0.105108  0.579403  1
  O  O70  1  0.124340  0.894892  0.920597  1
  O  O71  1  0.375660  0.605108  0.420597  1
  O  O72  1  0.124340  0.605108  0.920597  1
  O  O73  1  0.375660  0.894892  0.420597  1
  O  O74  1  0.875660  0.105108  0.079403  1
  O  O75  1  0.624340  0.394892  0.579403  1
