# generated using pymatgen
data_LaAlGe
_symmetry_space_group_name_H-M   'P 1'
_cell_length_a   8.04203139
_cell_length_b   8.04203139
_cell_length_c   8.04203139
_cell_angle_alpha   148.46376768
_cell_angle_beta   148.46376768
_cell_angle_gamma   45.20121527
_symmetry_Int_Tables_number   1
_chemical_formula_structural   LaAlGe
_chemical_formula_sum   'La2 Al2 Ge2'
_cell_volume   141.83332956
_cell_formula_units_Z   2
loop_
 _symmetry_equiv_pos_site_id
 _symmetry_equiv_pos_as_xyz
  1  'x, y, z'
loop_
 _atom_site_type_symbol
 _atom_site_label
 _atom_site_symmetry_multiplicity
 _atom_site_fract_x
 _atom_site_fract_y
 _atom_site_fract_z
 _atom_site_occupancy
  La  La0  1  0.499446  0.999446  0.500000  1
  La  La1  1  0.749446  0.749446  0.000000  1
  Al  Al2  1  0.082806  0.582806  0.500000  1
  Al  Al3  1  0.332806  0.332806  0.000000  1
  Ge  Ge4  1  0.916048  0.416048  0.500000  1
  Ge  Ge5  1  0.166048  0.166048  0.000000  1
