# generated using pymatgen
data_Hg(PO3)2
_symmetry_space_group_name_H-M   'P 1'
_cell_length_a   7.31152922
_cell_length_b   9.98983467
_cell_length_c   14.00287419
_cell_angle_alpha   90.00000000
_cell_angle_beta   90.00000000
_cell_angle_gamma   90.00000000
_symmetry_Int_Tables_number   1
_chemical_formula_structural   Hg(PO3)2
_chemical_formula_sum   'Hg8 P16 O48'
_cell_volume   1022.78348692
_cell_formula_units_Z   8
loop_
 _symmetry_equiv_pos_site_id
 _symmetry_equiv_pos_as_xyz
  1  'x, y, z'
loop_
 _atom_site_type_symbol
 _atom_site_label
 _atom_site_symmetry_multiplicity
 _atom_site_fract_x
 _atom_site_fract_y
 _atom_site_fract_z
 _atom_site_occupancy
  Hg  Hg0  1  0.541082  0.995926  0.293882  1
  Hg  Hg1  1  0.041082  0.504074  0.706118  1
  Hg  Hg2  1  0.458918  0.495926  0.206118  1
  Hg  Hg3  1  0.958918  0.004074  0.793882  1
  Hg  Hg4  1  0.458918  0.004074  0.706118  1
  Hg  Hg5  1  0.958918  0.495926  0.293882  1
  Hg  Hg6  1  0.541082  0.504074  0.793882  1
  Hg  Hg7  1  0.041082  0.995926  0.206118  1
  P  P8  1  0.074941  0.297879  0.097780  1
  P  P9  1  0.574941  0.202121  0.902220  1
  P  P10  1  0.925059  0.797879  0.402220  1
  P  P11  1  0.425059  0.702121  0.597780  1
  P  P12  1  0.925059  0.702121  0.902220  1
  P  P13  1  0.425059  0.797879  0.097780  1
  P  P14  1  0.074941  0.202121  0.597780  1
  P  P15  1  0.574941  0.297879  0.402220  1
  P  P16  1  0.680989  0.214636  0.103263  1
  P  P17  1  0.180989  0.285364  0.896737  1
  P  P18  1  0.319011  0.714636  0.396737  1
  P  P19  1  0.819011  0.785364  0.603263  1
  P  P20  1  0.319011  0.785364  0.896737  1
  P  P21  1  0.819011  0.714636  0.103263  1
  P  P22  1  0.680989  0.285364  0.603263  1
  P  P23  1  0.180989  0.214636  0.396737  1
  O  O24  1  0.651386  0.141582  0.000908  1
  O  O25  1  0.151386  0.358418  0.999092  1
  O  O26  1  0.348614  0.641582  0.499092  1
  O  O27  1  0.848614  0.858418  0.500908  1
  O  O28  1  0.348614  0.858418  0.999092  1
  O  O29  1  0.848614  0.641582  0.000908  1
  O  O30  1  0.651386  0.358418  0.500908  1
  O  O31  1  0.151386  0.141582  0.499092  1
  O  O32  1  0.856038  0.310406  0.085946  1
  O  O33  1  0.356038  0.189594  0.914054  1
  O  O34  1  0.143962  0.810406  0.414054  1
  O  O35  1  0.643962  0.689594  0.585946  1
  O  O36  1  0.143962  0.689594  0.914054  1
  O  O37  1  0.643962  0.810406  0.085946  1
  O  O38  1  0.856038  0.189594  0.585946  1
  O  O39  1  0.356038  0.310406  0.414054  1
  O  O40  1  0.133808  0.153947  0.105025  1
  O  O41  1  0.130605  0.397386  0.174273  1
  O  O42  1  0.633808  0.346053  0.894975  1
  O  O43  1  0.366192  0.846053  0.605025  1
  O  O44  1  0.866192  0.846053  0.894975  1
  O  O45  1  0.366192  0.653947  0.105025  1
  O  O46  1  0.133808  0.346053  0.605025  1
  O  O47  1  0.633808  0.153947  0.394975  1
  O  O48  1  0.019015  0.302132  0.377516  1
  O  O49  1  0.519015  0.197868  0.622484  1
  O  O50  1  0.980985  0.802132  0.122484  1
  O  O51  1  0.480985  0.697868  0.877516  1
  O  O52  1  0.980985  0.697868  0.622484  1
  O  O53  1  0.480985  0.802132  0.377516  1
  O  O54  1  0.019015  0.197868  0.877516  1
  O  O55  1  0.519015  0.302132  0.122484  1
  O  O56  1  0.230867  0.105241  0.326804  1
  O  O57  1  0.730868  0.394759  0.673196  1
  O  O58  1  0.769132  0.605241  0.173196  1
  O  O59  1  0.269133  0.894759  0.826804  1
  O  O60  1  0.769132  0.894759  0.673196  1
  O  O61  1  0.269133  0.605241  0.326804  1
  O  O62  1  0.230867  0.394759  0.826804  1
  O  O63  1  0.730868  0.105241  0.173196  1
  O  O64  1  0.630605  0.397386  0.325727  1
  O  O65  1  0.130605  0.102614  0.674273  1
  O  O66  1  0.369395  0.897386  0.174273  1
  O  O67  1  0.869395  0.602614  0.825727  1
  O  O68  1  0.369395  0.602614  0.674273  1
  O  O69  1  0.869395  0.897386  0.325727  1
  O  O70  1  0.630605  0.102614  0.825727  1
  O  O71  1  0.866192  0.653947  0.394975  1
