# generated using pymatgen
data_ErPtF7
_symmetry_space_group_name_H-M   'P 1'
_cell_length_a   8.81852182
_cell_length_b   5.51558002
_cell_length_c   11.92920074
_cell_angle_alpha   90.00000000
_cell_angle_beta   117.42559116
_cell_angle_gamma   90.00000000
_symmetry_Int_Tables_number   1
_chemical_formula_structural   ErPtF7
_chemical_formula_sum   'Er4 Pt4 F28'
_cell_volume   515.01561105
_cell_formula_units_Z   4
loop_
 _symmetry_equiv_pos_site_id
 _symmetry_equiv_pos_as_xyz
  1  'x, y, z'
loop_
 _atom_site_type_symbol
 _atom_site_label
 _atom_site_symmetry_multiplicity
 _atom_site_fract_x
 _atom_site_fract_y
 _atom_site_fract_z
 _atom_site_occupancy
  Er  Er0  1  0.814443  0.761204  0.235753  1
  Er  Er1  1  0.185557  0.261204  0.264247  1
  Er  Er2  1  0.185557  0.238796  0.764247  1
  Er  Er3  1  0.814443  0.738796  0.735753  1
  Pt  Pt4  1  0.272178  0.759456  0.043072  1
  Pt  Pt5  1  0.727822  0.259456  0.456928  1
  Pt  Pt6  1  0.727822  0.240544  0.956928  1
  Pt  Pt7  1  0.272178  0.740544  0.543072  1
  F  F8  1  0.702675  0.436623  0.084961  1
  F  F9  1  0.297325  0.936623  0.415039  1
  F  F10  1  0.297325  0.563377  0.915039  1
  F  F11  1  0.702675  0.063377  0.584961  1
  F  F12  1  0.276367  0.437446  0.456592  1
  F  F13  1  0.723633  0.937446  0.043408  1
  F  F14  1  0.723633  0.562554  0.543408  1
  F  F15  1  0.276367  0.062554  0.956592  1
  F  F16  1  0.522879  0.777071  0.141692  1
  F  F17  1  0.477121  0.277071  0.358308  1
  F  F18  1  0.477121  0.222929  0.858308  1
  F  F19  1  0.522879  0.722929  0.641692  1
  F  F20  1  0.021711  0.753355  0.949254  1
  F  F21  1  0.978289  0.253355  0.550746  1
  F  F22  1  0.978289  0.246645  0.050746  1
  F  F23  1  0.021711  0.746645  0.449254  1
  F  F24  1  0.724347  0.965019  0.362803  1
  F  F25  1  0.275653  0.465019  0.137197  1
  F  F26  1  0.275653  0.034981  0.637197  1
  F  F27  1  0.724347  0.534981  0.862803  1
  F  F28  1  0.746396  0.050466  0.823729  1
  F  F29  1  0.253604  0.550466  0.676271  1
  F  F30  1  0.253604  0.949534  0.176271  1
  F  F31  1  0.746396  0.449534  0.323729  1
  F  F32  1  0.970440  0.416505  0.767148  1
  F  F33  1  0.029560  0.916505  0.732852  1
  F  F34  1  0.029560  0.583495  0.232852  1
  F  F35  1  0.970440  0.083495  0.267148  1
