# generated using pymatgen
data_Ge5P6O25
_symmetry_space_group_name_H-M   'P 1'
_cell_length_a   9.62141050
_cell_length_b   9.62141050
_cell_length_c   9.62141050
_cell_angle_alpha   50.00130806
_cell_angle_beta   50.00130806
_cell_angle_gamma   50.00130806
_symmetry_Int_Tables_number   1
_chemical_formula_structural   Ge5P6O25
_chemical_formula_sum   'Ge5 P6 O25'
_cell_volume   481.01480831
_cell_formula_units_Z   1
loop_
 _symmetry_equiv_pos_site_id
 _symmetry_equiv_pos_as_xyz
  1  'x, y, z'
loop_
 _atom_site_type_symbol
 _atom_site_label
 _atom_site_symmetry_multiplicity
 _atom_site_fract_x
 _atom_site_fract_y
 _atom_site_fract_z
 _atom_site_occupancy
  Ge  Ge0  1  0.431998  0.431998  0.431998  1
  Ge  Ge1  1  0.568002  0.568002  0.568002  1
  Ge  Ge2  1  0.177305  0.177305  0.177305  1
  Ge  Ge3  1  0.822695  0.822695  0.822695  1
  Ge  Ge4  1  0.000000  0.000000  0.000000  1
  P  P5  1  0.823728  0.380224  0.069847  1
  P  P6  1  0.380224  0.069847  0.823728  1
  P  P7  1  0.069847  0.823728  0.380224  1
  P  P8  1  0.176272  0.619776  0.930153  1
  P  P9  1  0.619776  0.930153  0.176272  1
  P  P10  1  0.930153  0.176272  0.619776  1
  O  O11  1  0.862311  0.567051  0.906897  1
  O  O12  1  0.567051  0.906897  0.862311  1
  O  O13  1  0.906897  0.862311  0.567051  1
  O  O14  1  0.137689  0.432949  0.093103  1
  O  O15  1  0.432949  0.093103  0.137689  1
  O  O16  1  0.093103  0.137689  0.432949  1
  O  O17  1  0.592658  0.433577  0.192289  1
  O  O18  1  0.433577  0.192289  0.592658  1
  O  O19  1  0.192289  0.592658  0.433577  1
  O  O20  1  0.407342  0.566423  0.807711  1
  O  O21  1  0.566423  0.807711  0.407342  1
  O  O22  1  0.500000  0.500000  0.500000  1
  O  O23  1  0.778895  0.087950  0.731674  1
  O  O24  1  0.731674  0.778895  0.087950  1
  O  O25  1  0.087950  0.731674  0.778895  1
  O  O26  1  0.221105  0.912050  0.268326  1
  O  O27  1  0.268326  0.221105  0.912050  1
  O  O28  1  0.912050  0.268326  0.221105  1
  O  O29  1  0.033847  0.103004  0.738944  1
  O  O30  1  0.738944  0.033847  0.103004  1
  O  O31  1  0.103004  0.738944  0.033847  1
  O  O32  1  0.966153  0.896996  0.261056  1
  O  O33  1  0.261056  0.966153  0.896996  1
  O  O34  1  0.896996  0.261056  0.966153  1
  O  O35  1  0.807711  0.407342  0.566423  1
