# generated using pymatgen
data_GaPd2
_symmetry_space_group_name_H-M   'P 1'
_cell_length_a   4.10256507
_cell_length_b   5.59041321
_cell_length_c   7.90854067
_cell_angle_alpha   90.00000000
_cell_angle_beta   90.00000000
_cell_angle_gamma   90.00000000
_symmetry_Int_Tables_number   1
_chemical_formula_structural   GaPd2
_chemical_formula_sum   'Ga4 Pd8'
_cell_volume   181.38264886
_cell_formula_units_Z   4
loop_
 _symmetry_equiv_pos_site_id
 _symmetry_equiv_pos_as_xyz
  1  'x, y, z'
loop_
 _atom_site_type_symbol
 _atom_site_label
 _atom_site_symmetry_multiplicity
 _atom_site_fract_x
 _atom_site_fract_y
 _atom_site_fract_z
 _atom_site_occupancy
  Ga  Ga0  1  0.750000  0.705011  0.107996  1
  Ga  Ga1  1  0.250000  0.294989  0.892004  1
  Ga  Ga2  1  0.750000  0.205011  0.392004  1
  Ga  Ga3  1  0.250000  0.794989  0.607996  1
  Pd  Pd4  1  0.750000  0.664235  0.433589  1
  Pd  Pd5  1  0.250000  0.335765  0.566411  1
  Pd  Pd6  1  0.750000  0.164235  0.066411  1
  Pd  Pd7  1  0.250000  0.835765  0.933589  1
  Pd  Pd8  1  0.750000  0.541306  0.791935  1
  Pd  Pd9  1  0.250000  0.458694  0.208065  1
  Pd  Pd10  1  0.750000  0.041306  0.708065  1
  Pd  Pd11  1  0.250000  0.958694  0.291935  1
