# generated using pymatgen
data_Ba4Mg(SiN3)2
_symmetry_space_group_name_H-M   'P 1'
_cell_length_a   11.79488252
_cell_length_b   11.04630088
_cell_length_c   6.99150153
_cell_angle_alpha   78.12569718
_cell_angle_beta   66.41862509
_cell_angle_gamma   35.45567773
_symmetry_Int_Tables_number   1
_chemical_formula_structural   Ba4Mg(SiN3)2
_chemical_formula_sum   'Ba8 Mg2 Si4 N12'
_cell_volume   471.75607303
_cell_formula_units_Z   2
loop_
 _symmetry_equiv_pos_site_id
 _symmetry_equiv_pos_as_xyz
  1  'x, y, z'
loop_
 _atom_site_type_symbol
 _atom_site_label
 _atom_site_symmetry_multiplicity
 _atom_site_fract_x
 _atom_site_fract_y
 _atom_site_fract_z
 _atom_site_occupancy
  Ba  Ba0  1  0.149956  0.149956  0.850044  1
  Ba  Ba1  1  0.850044  0.850044  0.149956  1
  Ba  Ba2  1  0.100044  0.100044  0.399956  1
  Ba  Ba3  1  0.399956  0.399956  0.100044  1
  Ba  Ba4  1  0.331435  0.331435  0.668565  1
  Ba  Ba5  1  0.668565  0.668565  0.331435  1
  Ba  Ba6  1  0.918565  0.918565  0.581435  1
  Ba  Ba7  1  0.581435  0.581435  0.918565  1
  Mg  Mg8  1  0.500000  0.500000  0.500000  1
  Mg  Mg9  1  0.750000  0.750000  0.750000  1
  Si  Si10  1  0.157831  0.842169  0.842169  1
  Si  Si11  1  0.842169  0.157831  0.157831  1
  Si  Si12  1  0.092169  0.407831  0.407831  1
  Si  Si13  1  0.407831  0.092169  0.092169  1
  N  N14  1  0.225356  0.638451  0.783306  1
  N  N15  1  0.352887  0.783306  0.638451  1
  N  N16  1  0.783306  0.352887  0.225356  1
  N  N17  1  0.638451  0.225356  0.352887  1
  N  N18  1  0.024644  0.611549  0.466694  1
  N  N19  1  0.897113  0.466694  0.611549  1
  N  N20  1  0.466694  0.897113  0.024644  1
  N  N21  1  0.611549  0.024644  0.897113  1
  N  N22  1  0.885032  0.114968  0.885032  1
  N  N23  1  0.114968  0.885032  0.114968  1
  N  N24  1  0.364968  0.135032  0.364968  1
  N  N25  1  0.135032  0.364968  0.135032  1
