# generated using pymatgen
data_Re3P4
_symmetry_space_group_name_H-M   'P 1'
_cell_length_a   6.32196477
_cell_length_b   6.32196477
_cell_length_c   6.08339900
_cell_angle_alpha   66.83528425
_cell_angle_beta   113.16471575
_cell_angle_gamma   152.25371317
_symmetry_Int_Tables_number   1
_chemical_formula_structural   Re3P4
_chemical_formula_sum   'Re3 P4'
_cell_volume   103.48535620
_cell_formula_units_Z   1
loop_
 _symmetry_equiv_pos_site_id
 _symmetry_equiv_pos_as_xyz
  1  'x, y, z'
loop_
 _atom_site_type_symbol
 _atom_site_label
 _atom_site_symmetry_multiplicity
 _atom_site_fract_x
 _atom_site_fract_y
 _atom_site_fract_z
 _atom_site_occupancy
  Re  Re0  1  0.263747  0.736253  0.318671  1
  Re  Re1  1  0.736253  0.263747  0.681329  1
  Re  Re2  1  0.000000  0.000000  0.000000  1
  P  P3  1  0.085057  0.914943  0.435944  1
  P  P4  1  0.914943  0.085057  0.564056  1
  P  P5  1  0.350895  0.649105  0.024472  1
  P  P6  1  0.649105  0.350895  0.975528  1
