# generated using pymatgen
data_CeMgPt
_symmetry_space_group_name_H-M   'P 1'
_cell_length_a   7.52924738
_cell_length_b   7.52924738
_cell_length_c   4.11570973
_cell_angle_alpha   90.00000000
_cell_angle_beta   90.00000000
_cell_angle_gamma   120.00000000
_symmetry_Int_Tables_number   1
_chemical_formula_structural   CeMgPt
_chemical_formula_sum   'Ce3 Mg3 Pt3'
_cell_volume   202.05914088
_cell_formula_units_Z   3
loop_
 _symmetry_equiv_pos_site_id
 _symmetry_equiv_pos_as_xyz
  1  'x, y, z'
loop_
 _atom_site_type_symbol
 _atom_site_label
 _atom_site_symmetry_multiplicity
 _atom_site_fract_x
 _atom_site_fract_y
 _atom_site_fract_z
 _atom_site_occupancy
  Ce  Ce0  1  0.585049  0.585049  0.000000  1
  Ce  Ce1  1  0.414951  0.000000  0.000000  1
  Ce  Ce2  1  0.000000  0.414951  0.000000  1
  Mg  Mg3  1  0.000000  0.759958  0.500000  1
  Mg  Mg4  1  0.240042  0.240042  0.500000  1
  Mg  Mg5  1  0.759958  0.000000  0.500000  1
  Pt  Pt6  1  0.333333  0.666667  0.500000  1
  Pt  Pt7  1  0.000000  0.000000  0.000000  1
  Pt  Pt8  1  0.666667  0.333333  0.500000  1
