# generated using pymatgen
data_NiSO4
_symmetry_space_group_name_H-M   'P 1'
_cell_length_a   4.75197842
_cell_length_b   4.75197842
_cell_length_c   6.44633297
_cell_angle_alpha   90.00000000
_cell_angle_beta   90.00000000
_cell_angle_gamma   113.67053669
_symmetry_Int_Tables_number   1
_chemical_formula_structural   NiSO4
_chemical_formula_sum   'Ni2 S2 O8'
_cell_volume   133.31993487
_cell_formula_units_Z   2
loop_
 _symmetry_equiv_pos_site_id
 _symmetry_equiv_pos_as_xyz
  1  'x, y, z'
loop_
 _atom_site_type_symbol
 _atom_site_label
 _atom_site_symmetry_multiplicity
 _atom_site_fract_x
 _atom_site_fract_y
 _atom_site_fract_z
 _atom_site_occupancy
  Ni  Ni0  1  0.000000  0.000000  0.500000  1
  Ni  Ni1  1  0.000000  0.000000  0.000000  1
  S  S2  1  0.349392  0.650608  0.750000  1
  S  S3  1  0.650608  0.349392  0.250000  1
  O  O4  1  0.302227  0.226820  0.250000  1
  O  O5  1  0.697773  0.773180  0.750000  1
  O  O6  1  0.226820  0.302227  0.750000  1
  O  O7  1  0.773180  0.697773  0.250000  1
  O  O8  1  0.749999  0.250001  0.059035  1
  O  O9  1  0.250001  0.749999  0.559035  1
  O  O10  1  0.250001  0.749999  0.940965  1
  O  O11  1  0.749999  0.250001  0.440965  1
