# generated using pymatgen
data_K2Cd3S4
_symmetry_space_group_name_H-M   'P 1'
_cell_length_a   6.75171003
_cell_length_b   10.41801256
_cell_length_c   14.07856401
_cell_angle_alpha   90.00000000
_cell_angle_beta   90.00000000
_cell_angle_gamma   90.00000000
_symmetry_Int_Tables_number   1
_chemical_formula_structural   K2Cd3S4
_chemical_formula_sum   'K8 Cd12 S16'
_cell_volume   990.27774383
_cell_formula_units_Z   4
loop_
 _symmetry_equiv_pos_site_id
 _symmetry_equiv_pos_as_xyz
  1  'x, y, z'
loop_
 _atom_site_type_symbol
 _atom_site_label
 _atom_site_symmetry_multiplicity
 _atom_site_fract_x
 _atom_site_fract_y
 _atom_site_fract_z
 _atom_site_occupancy
  K  K0  1  0.015266  0.250000  0.530540  1
  K  K1  1  0.515266  0.750000  0.969460  1
  K  K2  1  0.984734  0.750000  0.469460  1
  K  K3  1  0.484734  0.250000  0.030540  1
  K  K4  1  0.000000  0.000000  0.000000  1
  K  K5  1  0.500000  0.500000  0.500000  1
  K  K6  1  0.000000  0.500000  0.000000  1
  K  K7  1  0.500000  0.000000  0.500000  1
  Cd  Cd8  1  0.345304  0.093001  0.748517  1
  Cd  Cd9  1  0.845304  0.906999  0.751483  1
  Cd  Cd10  1  0.654696  0.593001  0.251483  1
  Cd  Cd11  1  0.154696  0.406999  0.248517  1
  Cd  Cd12  1  0.654696  0.906999  0.251483  1
  Cd  Cd13  1  0.154696  0.093001  0.248517  1
  Cd  Cd14  1  0.345304  0.406999  0.748517  1
  Cd  Cd15  1  0.845304  0.593001  0.751483  1
  Cd  Cd16  1  0.715084  0.250000  0.296001  1
  Cd  Cd17  1  0.215084  0.750000  0.203999  1
  Cd  Cd18  1  0.284916  0.750000  0.703999  1
  Cd  Cd19  1  0.784916  0.250000  0.796001  1
  S  S20  1  0.626705  0.032978  0.863895  1
  S  S21  1  0.126705  0.967022  0.636105  1
  S  S22  1  0.373295  0.532978  0.136105  1
  S  S23  1  0.873295  0.467022  0.363895  1
  S  S24  1  0.373295  0.967022  0.136105  1
  S  S25  1  0.873295  0.032978  0.363895  1
  S  S26  1  0.626705  0.467022  0.863895  1
  S  S27  1  0.126705  0.532978  0.636105  1
  S  S28  1  0.926066  0.250000  0.142862  1
  S  S29  1  0.426066  0.750000  0.357138  1
  S  S30  1  0.073934  0.750000  0.857138  1
  S  S31  1  0.573934  0.250000  0.642862  1
  S  S32  1  0.861437  0.750000  0.146158  1
  S  S33  1  0.638563  0.750000  0.646158  1
  S  S34  1  0.138563  0.250000  0.853842  1
  S  S35  1  0.361437  0.250000  0.353842  1
