# generated using pymatgen
data_Li3AlSiO5
_symmetry_space_group_name_H-M   'P 1'
_cell_length_a   4.84202822
_cell_length_b   5.37440692
_cell_length_c   15.68112505
_cell_angle_alpha   90.00000000
_cell_angle_beta   90.00000000
_cell_angle_gamma   90.00000000
_symmetry_Int_Tables_number   1
_chemical_formula_structural   Li3AlSiO5
_chemical_formula_sum   'Li12 Al4 Si4 O20'
_cell_volume   408.07038718
_cell_formula_units_Z   4
loop_
 _symmetry_equiv_pos_site_id
 _symmetry_equiv_pos_as_xyz
  1  'x, y, z'
loop_
 _atom_site_type_symbol
 _atom_site_label
 _atom_site_symmetry_multiplicity
 _atom_site_fract_x
 _atom_site_fract_y
 _atom_site_fract_z
 _atom_site_occupancy
  Li  Li0  1  0.896629  0.172165  0.696841  1
  Li  Li1  1  0.396629  0.827835  0.303159  1
  Li  Li2  1  0.396629  0.327835  0.196841  1
  Li  Li3  1  0.896629  0.672165  0.803159  1
  Li  Li4  1  0.894572  0.164787  0.504201  1
  Li  Li5  1  0.394572  0.835213  0.495799  1
  Li  Li6  1  0.394572  0.335213  0.004201  1
  Li  Li7  1  0.894572  0.664787  0.995799  1
  Li  Li8  1  0.896696  0.669937  0.404578  1
  Li  Li9  1  0.396696  0.330063  0.595422  1
  Li  Li10  1  0.396696  0.830063  0.904578  1
  Li  Li11  1  0.896696  0.169937  0.095422  1
  Al  Al12  1  0.398185  0.827973  0.700241  1
  Al  Al13  1  0.898185  0.172027  0.299759  1
  Al  Al14  1  0.898185  0.672027  0.200241  1
  Al  Al15  1  0.398185  0.327973  0.799759  1
  Si  Si16  1  0.894394  0.666473  0.598306  1
  Si  Si17  1  0.394394  0.333527  0.401694  1
  Si  Si18  1  0.394394  0.833527  0.098306  1
  Si  Si19  1  0.894394  0.166473  0.901694  1
  O  O20  1  0.798578  0.812872  0.513088  1
  O  O21  1  0.298578  0.187128  0.486912  1
  O  O22  1  0.298578  0.687128  0.013088  1
  O  O23  1  0.798578  0.312872  0.986912  1
  O  O24  1  0.802334  0.376290  0.602505  1
  O  O25  1  0.302334  0.623710  0.397495  1
  O  O26  1  0.302334  0.123710  0.102505  1
  O  O27  1  0.802334  0.876290  0.897495  1
  O  O28  1  0.766425  0.812349  0.685985  1
  O  O29  1  0.266425  0.187651  0.314015  1
  O  O30  1  0.266425  0.687651  0.185985  1
  O  O31  1  0.766425  0.312349  0.814015  1
  O  O32  1  0.239020  0.691254  0.609232  1
  O  O33  1  0.739020  0.308746  0.390768  1
  O  O34  1  0.739020  0.808746  0.109232  1
  O  O35  1  0.239020  0.191254  0.890768  1
  O  O36  1  0.308667  0.645712  0.790363  1
  O  O37  1  0.808667  0.354288  0.209637  1
  O  O38  1  0.808667  0.854288  0.290363  1
  O  O39  1  0.308667  0.145712  0.709637  1
