# generated using pymatgen
data_Ba3Y2(B2O5)3
_symmetry_space_group_name_H-M   'P 1'
_cell_length_a   12.50099296
_cell_length_b   12.50099296
_cell_length_c   12.50099296
_cell_angle_alpha   109.47122063
_cell_angle_beta   109.47122063
_cell_angle_gamma   109.47122063
_symmetry_Int_Tables_number   1
_chemical_formula_structural   Ba3Y2(B2O5)3
_chemical_formula_sum   'Ba12 Y8 B24 O60'
_cell_volume   1503.87465768
_cell_formula_units_Z   4
loop_
 _symmetry_equiv_pos_site_id
 _symmetry_equiv_pos_as_xyz
  1  'x, y, z'
loop_
 _atom_site_type_symbol
 _atom_site_label
 _atom_site_symmetry_multiplicity
 _atom_site_fract_x
 _atom_site_fract_y
 _atom_site_fract_z
 _atom_site_occupancy
  Ba  Ba0  1  0.119393  0.750000  0.869393  1
  Ba  Ba1  1  0.380607  0.250000  0.630607  1
  Ba  Ba2  1  0.250000  0.630607  0.380607  1
  Ba  Ba3  1  0.750000  0.869393  0.119393  1
  Ba  Ba4  1  0.869393  0.119393  0.750000  1
  Ba  Ba5  1  0.630607  0.380607  0.250000  1
  Ba  Ba6  1  0.880607  0.250000  0.130607  1
  Ba  Ba7  1  0.619393  0.750000  0.369393  1
  Ba  Ba8  1  0.750000  0.369393  0.619393  1
  Ba  Ba9  1  0.250000  0.130607  0.880607  1
  Ba  Ba10  1  0.130607  0.880607  0.250000  1
  Ba  Ba11  1  0.369393  0.619393  0.750000  1
  Y  Y12  1  0.500000  0.500000  0.500000  1
  Y  Y13  1  0.000000  1.000000  0.500000  1
  Y  Y14  1  0.000000  0.500000  0.000000  1
  Y  Y15  1  0.500000  1.000000  0.000000  1
  Y  Y16  1  0.000000  0.500000  0.500000  1
  Y  Y17  1  0.000000  0.000000  0.000000  1
  Y  Y18  1  0.500000  1.000000  0.500000  1
  Y  Y19  1  0.500000  0.500000  0.000000  1
  B  B20  1  0.804198  0.628373  0.548138  1
  B  B21  1  0.919765  0.871627  0.675825  1
  B  B22  1  0.695802  0.243940  0.824175  1
  B  B23  1  0.580235  0.256060  0.951862  1
  B  B24  1  0.256060  0.951862  0.580235  1
  B  B25  1  0.243940  0.824175  0.695802  1
  B  B26  1  0.871627  0.675825  0.919765  1
  B  B27  1  0.628373  0.548138  0.804198  1
  B  B28  1  0.675825  0.919765  0.871627  1
  B  B29  1  0.548138  0.804198  0.628373  1
  B  B30  1  0.951862  0.580235  0.256060  1
  B  B31  1  0.824175  0.695802  0.243940  1
  B  B32  1  0.195802  0.371627  0.451862  1
  B  B33  1  0.080235  0.128373  0.324175  1
  B  B34  1  0.304198  0.756060  0.175825  1
  B  B35  1  0.419765  0.743940  0.048138  1
  B  B36  1  0.743940  0.048138  0.419765  1
  B  B37  1  0.756060  0.175825  0.304198  1
  B  B38  1  0.128373  0.324175  0.080235  1
  B  B39  1  0.371627  0.451862  0.195802  1
  B  B40  1  0.324175  0.080235  0.128373  1
  B  B41  1  0.451862  0.195802  0.371627  1
  B  B42  1  0.048138  0.419765  0.743940  1
  B  B43  1  0.175825  0.304198  0.756060  1
  O  O44  1  0.679990  0.609516  0.488196  1
  O  O45  1  0.878679  0.890484  0.570474  1
  O  O46  1  0.820010  0.308205  0.929526  1
  O  O47  1  0.621321  0.191795  0.011804  1
  O  O48  1  0.191795  0.011804  0.621321  1
  O  O49  1  0.308206  0.929526  0.820010  1
  O  O50  1  0.890484  0.570474  0.878679  1
  O  O51  1  0.609516  0.488196  0.679990  1
  O  O52  1  0.570474  0.878679  0.890484  1
  O  O53  1  0.488196  0.679990  0.609516  1
  O  O54  1  0.011804  0.621321  0.191795  1
  O  O55  1  0.929526  0.820010  0.308206  1
  O  O56  1  0.320010  0.390484  0.511804  1
  O  O57  1  0.121321  0.109516  0.429526  1
  O  O58  1  0.179990  0.691794  0.070474  1
  O  O59  1  0.378679  0.808205  0.988196  1
  O  O60  1  0.808206  0.988196  0.378679  1
  O  O61  1  0.691795  0.070474  0.179990  1
  O  O62  1  0.109516  0.429526  0.121321  1
  O  O63  1  0.390484  0.511804  0.320010  1
  O  O64  1  0.429526  0.121321  0.109516  1
  O  O65  1  0.511804  0.320010  0.390484  1
  O  O66  1  0.988196  0.378679  0.808206  1
  O  O67  1  0.070474  0.179990  0.691795  1
  O  O68  1  0.908361  0.750000  0.658361  1
  O  O69  1  0.591639  0.250000  0.841639  1
  O  O70  1  0.250000  0.841639  0.591639  1
  O  O71  1  0.750000  0.658361  0.908361  1
  O  O72  1  0.658361  0.908361  0.750000  1
  O  O73  1  0.841639  0.591639  0.250000  1
  O  O74  1  0.091639  0.250000  0.341639  1
  O  O75  1  0.408361  0.750000  0.158361  1
  O  O76  1  0.750000  0.158361  0.408361  1
  O  O77  1  0.250000  0.341639  0.091639  1
  O  O78  1  0.341639  0.091639  0.250000  1
  O  O79  1  0.158361  0.408361  0.750000  1
  O  O80  1  0.832279  0.530228  0.508510  1
  O  O81  1  0.978282  0.969772  0.802050  1
  O  O82  1  0.667722  0.176232  0.697950  1
  O  O83  1  0.521718  0.323768  0.991490  1
  O  O84  1  0.323768  0.991490  0.521718  1
  O  O85  1  0.176232  0.697950  0.667721  1
  O  O86  1  0.969772  0.802050  0.978282  1
  O  O87  1  0.530228  0.508510  0.832279  1
  O  O88  1  0.802050  0.978282  0.969772  1
  O  O89  1  0.508510  0.832279  0.530228  1
  O  O90  1  0.991490  0.521718  0.323768  1
  O  O91  1  0.697950  0.667721  0.176232  1
  O  O92  1  0.167722  0.469772  0.491490  1
  O  O93  1  0.021718  0.030228  0.197950  1
  O  O94  1  0.332278  0.823768  0.302050  1
  O  O95  1  0.478282  0.676232  0.008510  1
  O  O96  1  0.676232  0.008510  0.478282  1
  O  O97  1  0.823768  0.302050  0.332278  1
  O  O98  1  0.030228  0.197950  0.021718  1
  O  O99  1  0.469772  0.491490  0.167722  1
  O  O100  1  0.197950  0.021718  0.030228  1
  O  O101  1  0.491490  0.167721  0.469772  1
  O  O102  1  0.008510  0.478282  0.676232  1
  O  O103  1  0.302050  0.332278  0.823768  1
