# generated using pymatgen
data_ErB4Rh
_symmetry_space_group_name_H-M   'P 1'
_cell_length_a   3.55383808
_cell_length_b   5.94177222
_cell_length_c   11.52929149
_cell_angle_alpha   90.00000000
_cell_angle_beta   90.00000000
_cell_angle_gamma   90.00000000
_symmetry_Int_Tables_number   1
_chemical_formula_structural   ErB4Rh
_chemical_formula_sum   'Er4 B16 Rh4'
_cell_volume   243.45363027
_cell_formula_units_Z   4
loop_
 _symmetry_equiv_pos_site_id
 _symmetry_equiv_pos_as_xyz
  1  'x, y, z'
loop_
 _atom_site_type_symbol
 _atom_site_label
 _atom_site_symmetry_multiplicity
 _atom_site_fract_x
 _atom_site_fract_y
 _atom_site_fract_z
 _atom_site_occupancy
  Er  Er0  1  0.000000  0.131463  0.648839  1
  Er  Er1  1  0.000000  0.868537  0.351161  1
  Er  Er2  1  0.000000  0.631463  0.851161  1
  Er  Er3  1  0.000000  0.368537  0.148839  1
  B  B4  1  0.500000  0.790767  0.687305  1
  B  B5  1  0.500000  0.209233  0.312695  1
  B  B6  1  0.500000  0.290767  0.812695  1
  B  B7  1  0.500000  0.709233  0.187305  1
  B  B8  1  0.500000  0.864208  0.530569  1
  B  B9  1  0.500000  0.135792  0.469431  1
  B  B10  1  0.500000  0.364208  0.969431  1
  B  B11  1  0.500000  0.635792  0.030569  1
  B  B12  1  0.500000  0.021854  0.192977  1
  B  B13  1  0.500000  0.978146  0.807023  1
  B  B14  1  0.500000  0.521854  0.307023  1
  B  B15  1  0.500000  0.478146  0.692977  1
  B  B16  1  0.500000  0.112824  0.047273  1
  B  B17  1  0.500000  0.887176  0.952727  1
  B  B18  1  0.500000  0.612824  0.452727  1
  B  B19  1  0.500000  0.387176  0.547273  1
  Rh  Rh20  1  0.000000  0.642820  0.594738  1
  Rh  Rh21  1  0.000000  0.357180  0.405262  1
  Rh  Rh22  1  0.000000  0.142820  0.905262  1
  Rh  Rh23  1  0.000000  0.857180  0.094738  1
