# generated using pymatgen
data_Y5S7
_symmetry_space_group_name_H-M   'P 1'
_cell_length_a   6.71864432
_cell_length_b   6.71864432
_cell_length_c   11.63742761
_cell_angle_alpha   76.03260804
_cell_angle_beta   103.96739196
_cell_angle_gamma   146.96572315
_symmetry_Int_Tables_number   1
_chemical_formula_structural   Y5S7
_chemical_formula_sum   'Y5 S7'
_cell_volume   277.14691051
_cell_formula_units_Z   1
loop_
 _symmetry_equiv_pos_site_id
 _symmetry_equiv_pos_as_xyz
  1  'x, y, z'
loop_
 _atom_site_type_symbol
 _atom_site_label
 _atom_site_symmetry_multiplicity
 _atom_site_fract_x
 _atom_site_fract_y
 _atom_site_fract_z
 _atom_site_occupancy
  Y  Y0  1  0.111946  0.888054  0.421172  1
  Y  Y1  1  0.888054  0.111946  0.578828  1
  Y  Y2  1  0.300316  0.699684  0.187417  1
  Y  Y3  1  0.699684  0.300316  0.812583  1
  Y  Y4  1  0.000000  0.000000  0.000000  1
  S  S5  1  0.259314  0.740686  0.647317  1
  S  S6  1  0.740686  0.259314  0.352683  1
  S  S7  1  0.958177  0.041823  0.214885  1
  S  S8  1  0.041823  0.958177  0.785115  1
  S  S9  1  0.659087  0.340913  0.051188  1
  S  S10  1  0.500000  0.500000  0.500000  1
  S  S11  1  0.340913  0.659087  0.948812  1
