# generated using pymatgen
data_HoNi
_symmetry_space_group_name_H-M   'P 1'
_cell_length_a   4.14759143
_cell_length_b   5.40294120
_cell_length_c   7.00546043
_cell_angle_alpha   90.00000000
_cell_angle_beta   90.00000000
_cell_angle_gamma   90.00000000
_symmetry_Int_Tables_number   1
_chemical_formula_structural   HoNi
_chemical_formula_sum   'Ho4 Ni4'
_cell_volume   156.98671215
_cell_formula_units_Z   4
loop_
 _symmetry_equiv_pos_site_id
 _symmetry_equiv_pos_as_xyz
  1  'x, y, z'
loop_
 _atom_site_type_symbol
 _atom_site_label
 _atom_site_symmetry_multiplicity
 _atom_site_fract_x
 _atom_site_fract_y
 _atom_site_fract_z
 _atom_site_occupancy
  Ho  Ho0  1  0.250000  0.366550  0.680149  1
  Ho  Ho1  1  0.750000  0.633450  0.319851  1
  Ho  Ho2  1  0.750000  0.866550  0.819851  1
  Ho  Ho3  1  0.250000  0.133450  0.180149  1
  Ni  Ni4  1  0.250000  0.872818  0.537261  1
  Ni  Ni5  1  0.750000  0.127182  0.462739  1
  Ni  Ni6  1  0.750000  0.372818  0.962739  1
  Ni  Ni7  1  0.250000  0.627182  0.037261  1
