# generated using pymatgen
data_ErTe2
_symmetry_space_group_name_H-M   'P 1'
_cell_length_a   4.42521654
_cell_length_b   4.42521654
_cell_length_c   8.84654332
_cell_angle_alpha   90.00000000
_cell_angle_beta   90.00000000
_cell_angle_gamma   90.00000000
_symmetry_Int_Tables_number   1
_chemical_formula_structural   ErTe2
_chemical_formula_sum   'Er2 Te4'
_cell_volume   173.23780104
_cell_formula_units_Z   2
loop_
 _symmetry_equiv_pos_site_id
 _symmetry_equiv_pos_as_xyz
  1  'x, y, z'
loop_
 _atom_site_type_symbol
 _atom_site_label
 _atom_site_symmetry_multiplicity
 _atom_site_fract_x
 _atom_site_fract_y
 _atom_site_fract_z
 _atom_site_occupancy
  Er  Er0  1  0.000000  0.500000  0.729039  1
  Er  Er1  1  0.500000  0.000000  0.270961  1
  Te  Te2  1  0.000000  0.500000  0.372715  1
  Te  Te3  1  0.500000  0.000000  0.627285  1
  Te  Te4  1  0.000000  0.000000  0.000000  1
  Te  Te5  1  0.500000  0.500000  0.000000  1
