# generated using pymatgen
data_Rb2SrP2O7
_symmetry_space_group_name_H-M   'P 1'
_cell_length_a   6.00007494
_cell_length_b   6.00007494
_cell_length_c   13.70841984
_cell_angle_alpha   75.49723473
_cell_angle_beta   104.50276527
_cell_angle_gamma   120.44856943
_symmetry_Int_Tables_number   1
_chemical_formula_structural   Rb2SrP2O7
_chemical_formula_sum   'Rb4 Sr2 P4 O14'
_cell_volume   407.35938878
_cell_formula_units_Z   2
loop_
 _symmetry_equiv_pos_site_id
 _symmetry_equiv_pos_as_xyz
  1  'x, y, z'
loop_
 _atom_site_type_symbol
 _atom_site_label
 _atom_site_symmetry_multiplicity
 _atom_site_fract_x
 _atom_site_fract_y
 _atom_site_fract_z
 _atom_site_occupancy
  Rb  Rb0  1  0.367793  0.073214  0.164331  1
  Rb  Rb1  1  0.073214  0.367793  0.335669  1
  Rb  Rb2  1  0.632207  0.926786  0.835669  1
  Rb  Rb3  1  0.926786  0.632207  0.664331  1
  Sr  Sr4  1  0.000000  0.500000  0.000000  1
  Sr  Sr5  1  0.500000  1.000000  0.500000  1
  P  P6  1  0.299834  0.245441  0.864785  1
  P  P7  1  0.245441  0.299834  0.635215  1
  P  P8  1  0.700166  0.754559  0.135215  1
  P  P9  1  0.754559  0.700166  0.364785  1
  O  O10  1  0.160629  0.160629  0.750000  1
  O  O11  1  0.839371  0.839371  0.250000  1
  O  O12  1  0.200111  0.980167  0.932965  1
  O  O13  1  0.980167  0.200111  0.567035  1
  O  O14  1  0.799889  0.019833  0.067035  1
  O  O15  1  0.019833  0.799889  0.432965  1
  O  O16  1  0.596992  0.393749  0.866381  1
  O  O17  1  0.393749  0.596992  0.633619  1
  O  O18  1  0.403008  0.606251  0.133619  1
  O  O19  1  0.606251  0.403008  0.366381  1
  O  O20  1  0.583147  0.810543  0.377645  1
  O  O21  1  0.810543  0.583147  0.122355  1
  O  O22  1  0.416853  0.189457  0.622355  1
  O  O23  1  0.189457  0.416853  0.877645  1
