# generated using pymatgen
data_CaAl4
_symmetry_space_group_name_H-M   'P 1'
_cell_length_a   6.40287393
_cell_length_b   6.40287393
_cell_length_c   6.40287393
_cell_angle_alpha   140.27192363
_cell_angle_beta   140.27192363
_cell_angle_gamma   57.44065330
_symmetry_Int_Tables_number   1
_chemical_formula_structural   CaAl4
_chemical_formula_sum   'Ca1 Al4'
_cell_volume   106.31433928
_cell_formula_units_Z   1
loop_
 _symmetry_equiv_pos_site_id
 _symmetry_equiv_pos_as_xyz
  1  'x, y, z'
loop_
 _atom_site_type_symbol
 _atom_site_label
 _atom_site_symmetry_multiplicity
 _atom_site_fract_x
 _atom_site_fract_y
 _atom_site_fract_z
 _atom_site_occupancy
  Ca  Ca0  1  0.000000  0.000000  0.000000  1
  Al  Al1  1  0.750000  0.250000  0.500000  1
  Al  Al2  1  0.386471  0.386471  0.000000  1
  Al  Al3  1  0.613529  0.613529  0.000000  1
  Al  Al4  1  0.250000  0.750000  0.500000  1
