# generated using pymatgen
data_Tl2Fe3S4
_symmetry_space_group_name_H-M   'P 1'
_cell_length_a   8.74221820
_cell_length_b   8.74221820
_cell_length_c   8.74221820
_cell_angle_alpha   145.48476452
_cell_angle_beta   105.37933050
_cell_angle_gamma   84.88334374
_symmetry_Int_Tables_number   1
_chemical_formula_structural   Tl2Fe3S4
_chemical_formula_sum   'Tl4 Fe6 S8'
_cell_volume   354.64932944
_cell_formula_units_Z   2
loop_
 _symmetry_equiv_pos_site_id
 _symmetry_equiv_pos_as_xyz
  1  'x, y, z'
loop_
 _atom_site_type_symbol
 _atom_site_label
 _atom_site_symmetry_multiplicity
 _atom_site_fract_x
 _atom_site_fract_y
 _atom_site_fract_z
 _atom_site_occupancy
  Tl  Tl0  1  0.869927  0.748273  0.618200  1
  Tl  Tl1  1  0.630073  0.248273  0.878346  1
  Tl  Tl2  1  0.369927  0.751727  0.121654  1
  Tl  Tl3  1  0.130073  0.251727  0.381800  1
  Fe  Fe4  1  0.250000  0.750000  0.500000  1
  Fe  Fe5  1  0.750000  0.250000  0.500000  1
  Fe  Fe6  1  0.994608  0.250000  0.744608  1
  Fe  Fe7  1  0.505392  0.250000  0.255392  1
  Fe  Fe8  1  0.494608  0.750000  0.744608  1
  Fe  Fe9  1  0.005392  0.750000  0.255392  1
  S  S10  1  0.788985  0.909225  0.369254  1
  S  S11  1  0.711015  0.080269  0.120240  1
  S  S12  1  0.960029  0.590775  0.879760  1
  S  S13  1  0.539971  0.419731  0.630746  1
  S  S14  1  0.039971  0.409225  0.120240  1
  S  S15  1  0.460029  0.580269  0.369254  1
  S  S16  1  0.288985  0.919731  0.879760  1
  S  S17  1  0.211015  0.090775  0.630746  1
