# generated using pymatgen
data_CeZr7O16
_symmetry_space_group_name_H-M   'P 1'
_cell_length_a   7.35295870
_cell_length_b   7.35295870
_cell_length_c   5.33225591
_cell_angle_alpha   90.00000000
_cell_angle_beta   90.00000000
_cell_angle_gamma   90.00000000
_symmetry_Int_Tables_number   1
_chemical_formula_structural   CeZr7O16
_chemical_formula_sum   'Ce1 Zr7 O16'
_cell_volume   288.29375680
_cell_formula_units_Z   1
loop_
 _symmetry_equiv_pos_site_id
 _symmetry_equiv_pos_as_xyz
  1  'x, y, z'
loop_
 _atom_site_type_symbol
 _atom_site_label
 _atom_site_symmetry_multiplicity
 _atom_site_fract_x
 _atom_site_fract_y
 _atom_site_fract_z
 _atom_site_occupancy
  Ce  Ce0  1  0.000000  0.000000  0.000000  1
  Zr  Zr1  1  0.252022  0.747978  0.500000  1
  Zr  Zr2  1  0.000000  0.500000  0.000650  1
  Zr  Zr3  1  0.252022  0.252022  0.500000  1
  Zr  Zr4  1  0.500000  0.000000  0.999350  1
  Zr  Zr5  1  0.747978  0.747978  0.500000  1
  Zr  Zr6  1  0.500000  0.500000  0.000000  1
  Zr  Zr7  1  0.747978  0.252022  0.500000  1
  O  O8  1  0.265346  0.000000  0.214443  1
  O  O9  1  0.000000  0.751539  0.301052  1
  O  O10  1  0.000000  0.734654  0.785557  1
  O  O11  1  0.248461  0.000000  0.698948  1
  O  O12  1  0.244868  0.500000  0.191123  1
  O  O13  1  0.000000  0.248461  0.301052  1
  O  O14  1  0.000000  0.265346  0.785557  1
  O  O15  1  0.267502  0.500000  0.691512  1
  O  O16  1  0.734654  0.000000  0.214443  1
  O  O17  1  0.500000  0.732498  0.308488  1
  O  O18  1  0.500000  0.755132  0.808877  1
  O  O19  1  0.751539  0.000000  0.698948  1
  O  O20  1  0.755132  0.500000  0.191123  1
  O  O21  1  0.500000  0.267502  0.308488  1
  O  O22  1  0.500000  0.244868  0.808877  1
  O  O23  1  0.732498  0.500000  0.691512  1
