# generated using pymatgen
data_UCd2O5
_symmetry_space_group_name_H-M   'P 1'
_cell_length_a   6.36848645
_cell_length_b   6.36848645
_cell_length_c   8.21624390
_cell_angle_alpha   72.34881305
_cell_angle_beta   107.65118695
_cell_angle_gamma   130.01725606
_symmetry_Int_Tables_number   1
_chemical_formula_structural   UCd2O5
_chemical_formula_sum   'U2 Cd4 O10'
_cell_volume   240.50053308
_cell_formula_units_Z   2
loop_
 _symmetry_equiv_pos_site_id
 _symmetry_equiv_pos_as_xyz
  1  'x, y, z'
loop_
 _atom_site_type_symbol
 _atom_site_label
 _atom_site_symmetry_multiplicity
 _atom_site_fract_x
 _atom_site_fract_y
 _atom_site_fract_z
 _atom_site_occupancy
  U  U0  1  0.000000  0.000000  0.500000  1
  U  U1  1  0.000000  0.000000  0.000000  1
  Cd  Cd2  1  0.628536  0.296242  0.317662  1
  Cd  Cd3  1  0.296242  0.628536  0.182338  1
  Cd  Cd4  1  0.703758  0.371464  0.817662  1
  Cd  Cd5  1  0.371464  0.703758  0.682338  1
  O  O6  1  0.141866  0.367315  0.520870  1
  O  O7  1  0.858134  0.632685  0.479130  1
  O  O8  1  0.617767  0.928679  0.374590  1
  O  O9  1  0.193880  0.193880  0.250000  1
  O  O10  1  0.928679  0.617767  0.125410  1
  O  O11  1  0.632685  0.858134  0.020870  1
  O  O12  1  0.367315  0.141866  0.979130  1
  O  O13  1  0.071321  0.382233  0.874590  1
  O  O14  1  0.806120  0.806120  0.750000  1
  O  O15  1  0.382233  0.071321  0.625410  1
