# generated using pymatgen
data_LiSbS2
_symmetry_space_group_name_H-M   'P 1'
_cell_length_a   8.70349691
_cell_length_b   8.70349691
_cell_length_c   8.70349691
_cell_angle_alpha   107.71256546
_cell_angle_beta   107.71256546
_cell_angle_gamma   107.71256546
_symmetry_Int_Tables_number   1
_chemical_formula_structural   LiSbS2
_chemical_formula_sum   'Li6 Sb6 S12'
_cell_volume   538.03966322
_cell_formula_units_Z   6
loop_
 _symmetry_equiv_pos_site_id
 _symmetry_equiv_pos_as_xyz
  1  'x, y, z'
loop_
 _atom_site_type_symbol
 _atom_site_label
 _atom_site_symmetry_multiplicity
 _atom_site_fract_x
 _atom_site_fract_y
 _atom_site_fract_z
 _atom_site_occupancy
  Li  Li0  1  0.689865  0.086605  0.253384  1
  Li  Li1  1  0.310135  0.913395  0.746616  1
  Li  Li2  1  0.746616  0.310135  0.913395  1
  Li  Li3  1  0.913395  0.746616  0.310135  1
  Li  Li4  1  0.253384  0.689865  0.086605  1
  Li  Li5  1  0.086605  0.253384  0.689865  1
  Sb  Sb6  1  0.373547  0.147230  0.441914  1
  Sb  Sb7  1  0.441914  0.373547  0.147230  1
  Sb  Sb8  1  0.147230  0.441914  0.373547  1
  Sb  Sb9  1  0.626453  0.852770  0.558086  1
  Sb  Sb10  1  0.558086  0.626453  0.852770  1
  Sb  Sb11  1  0.852770  0.558086  0.626453  1
  S  S12  1  0.157956  0.588022  0.740935  1
  S  S13  1  0.588022  0.740935  0.157956  1
  S  S14  1  0.259065  0.842044  0.411978  1
  S  S15  1  0.740935  0.157956  0.588022  1
  S  S16  1  0.842044  0.411978  0.259065  1
  S  S17  1  0.411978  0.259065  0.842044  1
  S  S18  1  0.943488  0.862638  0.636136  1
  S  S19  1  0.862638  0.636136  0.943488  1
  S  S20  1  0.636136  0.943488  0.862638  1
  S  S21  1  0.056512  0.137362  0.363864  1
  S  S22  1  0.137362  0.363864  0.056512  1
  S  S23  1  0.363864  0.056512  0.137362  1
