# generated using pymatgen
data_K7NbAs4
_symmetry_space_group_name_H-M   'P 1'
_cell_length_a   8.41650722
_cell_length_b   9.26068810
_cell_length_c   10.37270365
_cell_angle_alpha   90.00000000
_cell_angle_beta   90.00000000
_cell_angle_gamma   90.00000000
_symmetry_Int_Tables_number   1
_chemical_formula_structural   K7NbAs4
_chemical_formula_sum   'K14 Nb2 As8'
_cell_volume   808.47599205
_cell_formula_units_Z   2
loop_
 _symmetry_equiv_pos_site_id
 _symmetry_equiv_pos_as_xyz
  1  'x, y, z'
loop_
 _atom_site_type_symbol
 _atom_site_label
 _atom_site_symmetry_multiplicity
 _atom_site_fract_x
 _atom_site_fract_y
 _atom_site_fract_z
 _atom_site_occupancy
  K  K0  1  0.708663  0.833596  0.717119  1
  K  K1  1  0.208663  0.166404  0.782881  1
  K  K2  1  0.208663  0.166404  0.217119  1
  K  K3  1  0.708663  0.833596  0.282881  1
  K  K4  1  0.871868  0.465696  0.711886  1
  K  K5  1  0.371868  0.534304  0.788114  1
  K  K6  1  0.371868  0.534304  0.211886  1
  K  K7  1  0.871868  0.465696  0.288114  1
  K  K8  1  0.161434  0.661495  0.500000  1
  K  K9  1  0.661434  0.338505  0.000000  1
  K  K10  1  0.876467  0.033302  0.000000  1
  K  K11  1  0.376467  0.966698  0.500000  1
  K  K12  1  0.390113  0.892999  0.000000  1
  K  K13  1  0.890113  0.107001  0.500000  1
  Nb  Nb14  1  0.998523  0.673423  0.000000  1
  Nb  Nb15  1  0.498523  0.326577  0.500000  1
  As  As16  1  0.700097  0.682127  0.000000  1
  As  As17  1  0.200097  0.317873  0.500000  1
  As  As18  1  0.093651  0.806835  0.797590  1
  As  As19  1  0.593651  0.193165  0.702410  1
  As  As20  1  0.593651  0.193165  0.297590  1
  As  As21  1  0.093651  0.806835  0.202410  1
  As  As22  1  0.577613  0.590321  0.500000  1
  As  As23  1  0.077613  0.409679  0.000000  1
