# generated using pymatgen
data_MoP4
_symmetry_space_group_name_H-M   'P 1'
_cell_length_a   6.21235349
_cell_length_b   6.21235349
_cell_length_c   5.86178933
_cell_angle_alpha   81.25755376
_cell_angle_beta   98.74244624
_cell_angle_gamma   50.90818883
_symmetry_Int_Tables_number   1
_chemical_formula_structural   MoP4
_chemical_formula_sum   'Mo2 P8'
_cell_volume   164.23597242
_cell_formula_units_Z   2
loop_
 _symmetry_equiv_pos_site_id
 _symmetry_equiv_pos_as_xyz
  1  'x, y, z'
loop_
 _atom_site_type_symbol
 _atom_site_label
 _atom_site_symmetry_multiplicity
 _atom_site_fract_x
 _atom_site_fract_y
 _atom_site_fract_z
 _atom_site_occupancy
  Mo  Mo0  1  0.059097  0.059097  0.750000  1
  Mo  Mo1  1  0.940903  0.940903  0.250000  1
  P  P2  1  0.499808  0.944905  0.689242  1
  P  P3  1  0.944905  0.499808  0.810758  1
  P  P4  1  0.184574  0.626519  0.683301  1
  P  P5  1  0.626519  0.184574  0.816699  1
  P  P6  1  0.815426  0.373481  0.316699  1
  P  P7  1  0.373481  0.815426  0.183301  1
  P  P8  1  0.055095  0.500192  0.189242  1
  P  P9  1  0.500192  0.055095  0.310758  1
