# generated using pymatgen
data_EuBiAu
_symmetry_space_group_name_H-M   'P 1'
_cell_length_a   4.91516830
_cell_length_b   4.91516830
_cell_length_c   8.07299376
_cell_angle_alpha   90.00000000
_cell_angle_beta   90.00000000
_cell_angle_gamma   120.00000000
_symmetry_Int_Tables_number   1
_chemical_formula_structural   EuBiAu
_chemical_formula_sum   'Eu2 Bi2 Au2'
_cell_volume   168.90481639
_cell_formula_units_Z   2
loop_
 _symmetry_equiv_pos_site_id
 _symmetry_equiv_pos_as_xyz
  1  'x, y, z'
loop_
 _atom_site_type_symbol
 _atom_site_label
 _atom_site_symmetry_multiplicity
 _atom_site_fract_x
 _atom_site_fract_y
 _atom_site_fract_z
 _atom_site_occupancy
  Eu  Eu0  1  0.000000  0.000000  0.739434  1
  Eu  Eu1  1  0.000000  0.000000  0.239434  1
  Bi  Bi2  1  0.666667  0.333333  0.963697  1
  Bi  Bi3  1  0.333333  0.666667  0.463697  1
  Au  Au4  1  0.666667  0.333333  0.555869  1
  Au  Au5  1  0.333333  0.666667  0.055869  1
