# generated using pymatgen
data_Be(PN2)2
_symmetry_space_group_name_H-M   'P 1'
_cell_length_a   7.88950619
_cell_length_b   7.88950619
_cell_length_c   7.88950619
_cell_angle_alpha   108.14863156
_cell_angle_beta   108.14863156
_cell_angle_gamma   108.14863156
_symmetry_Int_Tables_number   1
_chemical_formula_structural   Be(PN2)2
_chemical_formula_sum   'Be6 P12 N24'
_cell_volume   395.45976732
_cell_formula_units_Z   6
loop_
 _symmetry_equiv_pos_site_id
 _symmetry_equiv_pos_as_xyz
  1  'x, y, z'
loop_
 _atom_site_type_symbol
 _atom_site_label
 _atom_site_symmetry_multiplicity
 _atom_site_fract_x
 _atom_site_fract_y
 _atom_site_fract_z
 _atom_site_occupancy
  Be  Be0  1  0.556283  0.961725  0.732377  1
  Be  Be1  1  0.732377  0.556283  0.961725  1
  Be  Be2  1  0.961725  0.732377  0.556283  1
  Be  Be3  1  0.443717  0.038275  0.267623  1
  Be  Be4  1  0.267623  0.443717  0.038275  1
  Be  Be5  1  0.038275  0.267623  0.443717  1
  P  P6  1  0.370236  0.601377  0.777227  1
  P  P7  1  0.777227  0.370236  0.601377  1
  P  P8  1  0.601377  0.777227  0.370236  1
  P  P9  1  0.629764  0.398623  0.222773  1
  P  P10  1  0.222773  0.629764  0.398623  1
  P  P11  1  0.398623  0.222773  0.629764  1
  P  P12  1  0.707945  0.930223  0.113369  1
  P  P13  1  0.113369  0.707945  0.930223  1
  P  P14  1  0.930223  0.113369  0.707945  1
  P  P15  1  0.292055  0.069777  0.886631  1
  P  P16  1  0.886631  0.292055  0.069777  1
  P  P17  1  0.069777  0.886631  0.292055  1
  N  N18  1  0.547646  0.831861  0.875337  1
  N  N19  1  0.875337  0.547646  0.831861  1
  N  N20  1  0.831861  0.875337  0.547646  1
  N  N21  1  0.452354  0.168139  0.124663  1
  N  N22  1  0.124663  0.452354  0.168139  1
  N  N23  1  0.168139  0.124663  0.452354  1
  N  N24  1  0.412890  0.087485  0.751463  1
  N  N25  1  0.751463  0.412890  0.087485  1
  N  N26  1  0.087485  0.751463  0.412890  1
  N  N27  1  0.587110  0.912515  0.248537  1
  N  N28  1  0.248537  0.587110  0.912515  1
  N  N29  1  0.912515  0.248537  0.587110  1
  N  N30  1  0.802689  0.136036  0.836042  1
  N  N31  1  0.836042  0.802689  0.136036  1
  N  N32  1  0.136036  0.836042  0.802689  1
  N  N33  1  0.197311  0.863964  0.163958  1
  N  N34  1  0.163958  0.197311  0.863964  1
  N  N35  1  0.863964  0.163958  0.197311  1
  N  N36  1  0.456776  0.787025  0.480643  1
  N  N37  1  0.480643  0.456776  0.787025  1
  N  N38  1  0.787025  0.480643  0.456776  1
  N  N39  1  0.543224  0.212975  0.519357  1
  N  N40  1  0.519357  0.543224  0.212975  1
  N  N41  1  0.212975  0.519357  0.543224  1
