# generated using pymatgen
data_Fe2B
_symmetry_space_group_name_H-M   'P 1'
_cell_length_a   4.16026373
_cell_length_b   4.16026373
_cell_length_c   4.16026373
_cell_angle_alpha   105.02435056
_cell_angle_beta   105.02435056
_cell_angle_gamma   118.78609067
_symmetry_Int_Tables_number   1
_chemical_formula_structural   Fe2B
_chemical_formula_sum   'Fe4 B2'
_cell_volume   54.31483719
_cell_formula_units_Z   2
loop_
 _symmetry_equiv_pos_site_id
 _symmetry_equiv_pos_as_xyz
  1  'x, y, z'
loop_
 _atom_site_type_symbol
 _atom_site_label
 _atom_site_symmetry_multiplicity
 _atom_site_fract_x
 _atom_site_fract_y
 _atom_site_fract_z
 _atom_site_occupancy
  Fe  Fe0  1  0.333851  0.833851  0.167703  1
  Fe  Fe1  1  0.666149  0.166149  0.832297  1
  Fe  Fe2  1  0.833851  0.666149  0.500000  1
  Fe  Fe3  1  0.166149  0.333851  0.500000  1
  B  B4  1  0.750000  0.750000  0.000000  1
  B  B5  1  0.250000  0.250000  0.000000  1
