# generated using pymatgen
data_Li2PtF6
_symmetry_space_group_name_H-M   'P 1'
_cell_length_a   4.73547644
_cell_length_b   4.73547644
_cell_length_c   9.32613134
_cell_angle_alpha   90.00000000
_cell_angle_beta   90.00000000
_cell_angle_gamma   90.00000000
_symmetry_Int_Tables_number   1
_chemical_formula_structural   Li2PtF6
_chemical_formula_sum   'Li4 Pt2 F12'
_cell_volume   209.13604332
_cell_formula_units_Z   2
loop_
 _symmetry_equiv_pos_site_id
 _symmetry_equiv_pos_as_xyz
  1  'x, y, z'
loop_
 _atom_site_type_symbol
 _atom_site_label
 _atom_site_symmetry_multiplicity
 _atom_site_fract_x
 _atom_site_fract_y
 _atom_site_fract_z
 _atom_site_occupancy
  Li  Li0  1  0.000000  0.000000  0.336457  1
  Li  Li1  1  0.500000  0.500000  0.836457  1
  Li  Li2  1  0.000000  0.000000  0.663543  1
  Li  Li3  1  0.500000  0.500000  0.163543  1
  Pt  Pt4  1  0.500000  0.500000  0.500000  1
  Pt  Pt5  1  0.000000  0.000000  0.000000  1
  F  F6  1  0.307705  0.692295  0.660845  1
  F  F7  1  0.192295  0.192295  0.839155  1
  F  F8  1  0.704890  0.295110  0.000000  1
  F  F9  1  0.795110  0.795110  0.500000  1
  F  F10  1  0.295110  0.704890  0.000000  1
  F  F11  1  0.204890  0.204890  0.500000  1
  F  F12  1  0.192295  0.192295  0.160845  1
  F  F13  1  0.307705  0.692295  0.339155  1
  F  F14  1  0.807705  0.807705  0.839155  1
  F  F15  1  0.692295  0.307705  0.660845  1
  F  F16  1  0.807705  0.807705  0.160845  1
  F  F17  1  0.692295  0.307705  0.339155  1
