# generated using pymatgen
data_NiAgO2
_symmetry_space_group_name_H-M   'P 1'
_cell_length_a   6.39536410
_cell_length_b   6.39536410
_cell_length_c   6.39536410
_cell_angle_alpha   27.08377445
_cell_angle_beta   27.08377445
_cell_angle_gamma   27.08377445
_symmetry_Int_Tables_number   1
_chemical_formula_structural   NiAgO2
_chemical_formula_sum   'Ni1 Ag1 O2'
_cell_volume   47.83137023
_cell_formula_units_Z   1
loop_
 _symmetry_equiv_pos_site_id
 _symmetry_equiv_pos_as_xyz
  1  'x, y, z'
loop_
 _atom_site_type_symbol
 _atom_site_label
 _atom_site_symmetry_multiplicity
 _atom_site_fract_x
 _atom_site_fract_y
 _atom_site_fract_z
 _atom_site_occupancy
  Ni  Ni0  1  0.500000  0.500000  0.500000  1
  Ag  Ag1  1  0.000000  0.000000  0.000000  1
  O  O2  1  0.112054  0.112054  0.112054  1
  O  O3  1  0.887946  0.887946  0.887946  1
