# generated using pymatgen
data_Sc11Ir4
_symmetry_space_group_name_H-M   'P 1'
_cell_length_a   9.46433606
_cell_length_b   9.46433606
_cell_length_c   9.46433606
_cell_angle_alpha   60.00000000
_cell_angle_beta   60.00000000
_cell_angle_gamma   60.00000000
_symmetry_Int_Tables_number   1
_chemical_formula_structural   Sc11Ir4
_chemical_formula_sum   'Sc22 Ir8'
_cell_volume   599.45344609
_cell_formula_units_Z   2
loop_
 _symmetry_equiv_pos_site_id
 _symmetry_equiv_pos_as_xyz
  1  'x, y, z'
loop_
 _atom_site_type_symbol
 _atom_site_label
 _atom_site_symmetry_multiplicity
 _atom_site_fract_x
 _atom_site_fract_y
 _atom_site_fract_z
 _atom_site_occupancy
  Sc  Sc0  1  0.801000  0.199000  0.199000  1
  Sc  Sc1  1  0.801000  0.801000  0.199000  1
  Sc  Sc2  1  0.199000  0.801000  0.199000  1
  Sc  Sc3  1  0.199000  0.801000  0.801000  1
  Sc  Sc4  1  0.199000  0.199000  0.801000  1
  Sc  Sc5  1  0.801000  0.199000  0.801000  1
  Sc  Sc6  1  0.617403  0.617403  0.147790  1
  Sc  Sc7  1  0.147790  0.617403  0.617403  1
  Sc  Sc8  1  0.617403  0.617403  0.617403  1
  Sc  Sc9  1  0.617403  0.147790  0.617403  1
  Sc  Sc10  1  0.382597  0.382597  0.852210  1
  Sc  Sc11  1  0.852210  0.382597  0.382597  1
  Sc  Sc12  1  0.382597  0.382597  0.382597  1
  Sc  Sc13  1  0.382597  0.852210  0.382597  1
  Sc  Sc14  1  0.843083  0.843083  0.470750  1
  Sc  Sc15  1  0.470750  0.843083  0.843083  1
  Sc  Sc16  1  0.843083  0.843083  0.843083  1
  Sc  Sc17  1  0.843083  0.470750  0.843083  1
  Sc  Sc18  1  0.156917  0.156917  0.529250  1
  Sc  Sc19  1  0.529250  0.156917  0.156917  1
  Sc  Sc20  1  0.156917  0.156917  0.156917  1
  Sc  Sc21  1  0.156917  0.529250  0.156917  1
  Ir  Ir22  1  0.000000  0.000000  0.000000  1
  Ir  Ir23  1  0.500000  0.500000  0.500000  1
  Ir  Ir24  1  0.000000  0.500000  0.500000  1
  Ir  Ir25  1  1.000000  1.000000  0.500000  1
  Ir  Ir26  1  0.500000  0.000000  0.500000  1
  Ir  Ir27  1  0.500000  0.000000  1.000000  1
  Ir  Ir28  1  0.500000  0.500000  1.000000  1
  Ir  Ir29  1  0.000000  0.500000  1.000000  1
