# generated using pymatgen
data_Tc2P3
_symmetry_space_group_name_H-M   'P 1'
_cell_length_a   6.39718881
_cell_length_b   6.39718881
_cell_length_c   9.04489135
_cell_angle_alpha   57.28714511
_cell_angle_beta   122.71285489
_cell_angle_gamma   151.82049592
_symmetry_Int_Tables_number   1
_chemical_formula_structural   Tc2P3
_chemical_formula_sum   'Tc4 P6'
_cell_volume   145.15070275
_cell_formula_units_Z   2
loop_
 _symmetry_equiv_pos_site_id
 _symmetry_equiv_pos_as_xyz
  1  'x, y, z'
loop_
 _atom_site_type_symbol
 _atom_site_label
 _atom_site_symmetry_multiplicity
 _atom_site_fract_x
 _atom_site_fract_y
 _atom_site_fract_z
 _atom_site_occupancy
  Tc  Tc0  1  0.634479  0.365521  0.855440  1
  Tc  Tc1  1  0.365521  0.634479  0.144560  1
  Tc  Tc2  1  0.749929  0.250071  0.636710  1
  Tc  Tc3  1  0.250071  0.749929  0.363290  1
  P  P4  1  0.902257  0.097743  0.371402  1
  P  P5  1  0.097743  0.902257  0.628598  1
  P  P6  1  0.588653  0.411347  0.322063  1
  P  P7  1  0.411347  0.588653  0.677937  1
  P  P8  1  0.110358  0.889642  0.040148  1
  P  P9  1  0.889642  0.110358  0.959852  1
