# generated using pymatgen
data_K2ZrF6
_symmetry_space_group_name_H-M   'P 1'
_cell_length_a   6.76125511
_cell_length_b   6.76125511
_cell_length_c   7.01592386
_cell_angle_alpha   90.00000000
_cell_angle_beta   90.00000000
_cell_angle_gamma   120.63656788
_symmetry_Int_Tables_number   1
_chemical_formula_structural   K2ZrF6
_chemical_formula_sum   'K4 Zr2 F12'
_cell_volume   275.96148830
_cell_formula_units_Z   2
loop_
 _symmetry_equiv_pos_site_id
 _symmetry_equiv_pos_as_xyz
  1  'x, y, z'
loop_
 _atom_site_type_symbol
 _atom_site_label
 _atom_site_symmetry_multiplicity
 _atom_site_fract_x
 _atom_site_fract_y
 _atom_site_fract_z
 _atom_site_occupancy
  K  K0  1  0.657064  0.342936  0.500901  1
  K  K1  1  0.342936  0.657064  0.499099  1
  K  K2  1  0.342936  0.657064  0.000901  1
  K  K3  1  0.657064  0.342936  0.999099  1
  Zr  Zr4  1  0.050840  0.949160  0.250000  1
  Zr  Zr5  1  0.949160  0.050840  0.750000  1
  F  F6  1  0.900855  0.099145  0.045967  1
  F  F7  1  0.099145  0.900855  0.954033  1
  F  F8  1  0.099145  0.900855  0.545967  1
  F  F9  1  0.900855  0.099145  0.454033  1
  F  F10  1  0.992869  0.386654  0.750000  1
  F  F11  1  0.386654  0.992869  0.250000  1
  F  F12  1  0.718316  0.699702  0.750000  1
  F  F13  1  0.699702  0.718316  0.250000  1
  F  F14  1  0.281684  0.300298  0.250000  1
  F  F15  1  0.300298  0.281684  0.750000  1
  F  F16  1  0.613346  0.007131  0.750000  1
  F  F17  1  0.007131  0.613346  0.250000  1
