# generated using pymatgen
data_Ba2Li(CuO2)3
_symmetry_space_group_name_H-M   'P 1'
_cell_length_a   9.17094449
_cell_length_b   8.24857124
_cell_length_c   7.12783756
_cell_angle_alpha   72.81694706
_cell_angle_beta   59.23575851
_cell_angle_gamma   47.94729442
_symmetry_Int_Tables_number   1
_chemical_formula_structural   Ba2Li(CuO2)3
_chemical_formula_sum   'Ba4 Li2 Cu6 O12'
_cell_volume   343.08940434
_cell_formula_units_Z   2
loop_
 _symmetry_equiv_pos_site_id
 _symmetry_equiv_pos_as_xyz
  1  'x, y, z'
loop_
 _atom_site_type_symbol
 _atom_site_label
 _atom_site_symmetry_multiplicity
 _atom_site_fract_x
 _atom_site_fract_y
 _atom_site_fract_z
 _atom_site_occupancy
  Ba  Ba0  1  0.750000  0.750000  0.750000  1
  Ba  Ba1  1  0.250000  0.250000  0.250000  1
  Ba  Ba2  1  0.230220  0.769780  0.230220  1
  Ba  Ba3  1  0.769780  0.230220  0.769780  1
  Li  Li4  1  0.665787  0.665787  0.334213  1
  Li  Li5  1  0.334213  0.334213  0.665787  1
  Cu  Cu6  1  0.995863  0.310067  0.004137  1
  Cu  Cu7  1  0.689933  0.004137  0.310067  1
  Cu  Cu8  1  0.004137  0.689933  0.995863  1
  Cu  Cu9  1  0.310067  0.995863  0.689933  1
  Cu  Cu10  1  0.679101  0.320899  0.320899  1
  Cu  Cu11  1  0.320899  0.679101  0.679101  1
  O  O12  1  0.897242  0.295245  0.322672  1
  O  O13  1  0.484841  0.322672  0.295245  1
  O  O14  1  0.677328  0.515159  0.102758  1
  O  O15  1  0.704755  0.102758  0.515159  1
  O  O16  1  0.102758  0.704755  0.677328  1
  O  O17  1  0.515159  0.677328  0.704755  1
  O  O18  1  0.921621  0.693717  0.306283  1
  O  O19  1  0.078379  0.306283  0.693717  1
  O  O20  1  0.322672  0.484841  0.897242  1
  O  O21  1  0.295245  0.897242  0.484841  1
  O  O22  1  0.693717  0.921621  0.078379  1
  O  O23  1  0.306283  0.078379  0.921621  1
