# generated using pymatgen
data_BaAg
_symmetry_space_group_name_H-M   'P 1'
_cell_length_a   5.02148186
_cell_length_b   6.74662138
_cell_length_c   8.79466622
_cell_angle_alpha   90.00000000
_cell_angle_beta   90.00000000
_cell_angle_gamma   90.00000000
_symmetry_Int_Tables_number   1
_chemical_formula_structural   BaAg
_chemical_formula_sum   'Ba4 Ag4'
_cell_volume   297.94602651
_cell_formula_units_Z   4
loop_
 _symmetry_equiv_pos_site_id
 _symmetry_equiv_pos_as_xyz
  1  'x, y, z'
loop_
 _atom_site_type_symbol
 _atom_site_label
 _atom_site_symmetry_multiplicity
 _atom_site_fract_x
 _atom_site_fract_y
 _atom_site_fract_z
 _atom_site_occupancy
  Ba  Ba0  1  0.250000  0.133051  0.180804  1
  Ba  Ba1  1  0.750000  0.866949  0.819196  1
  Ba  Ba2  1  0.750000  0.633051  0.319196  1
  Ba  Ba3  1  0.250000  0.366949  0.680804  1
  Ag  Ag4  1  0.250000  0.616980  0.033815  1
  Ag  Ag5  1  0.750000  0.383020  0.966185  1
  Ag  Ag6  1  0.750000  0.116980  0.466185  1
  Ag  Ag7  1  0.250000  0.883020  0.533815  1
