# generated using pymatgen
data_Li3V2(GeO4)3
_symmetry_space_group_name_H-M   'P 1'
_cell_length_a   10.48706864
_cell_length_b   10.48706864
_cell_length_c   10.48706864
_cell_angle_alpha   109.47122063
_cell_angle_beta   109.47122063
_cell_angle_gamma   109.47122063
_symmetry_Int_Tables_number   1
_chemical_formula_structural   Li3V2(GeO4)3
_chemical_formula_sum   'Li12 V8 Ge12 O48'
_cell_volume   887.85172007
_cell_formula_units_Z   4
loop_
 _symmetry_equiv_pos_site_id
 _symmetry_equiv_pos_as_xyz
  1  'x, y, z'
loop_
 _atom_site_type_symbol
 _atom_site_label
 _atom_site_symmetry_multiplicity
 _atom_site_fract_x
 _atom_site_fract_y
 _atom_site_fract_z
 _atom_site_occupancy
  Li  Li0  1  0.625000  0.250000  0.875000  1
  Li  Li1  1  0.875000  0.750000  0.625000  1
  Li  Li2  1  0.750000  0.625000  0.875000  1
  Li  Li3  1  0.250000  0.875000  0.625000  1
  Li  Li4  1  0.875000  0.625000  0.250000  1
  Li  Li5  1  0.625000  0.875000  0.750000  1
  Li  Li6  1  0.375000  0.750000  0.125000  1
  Li  Li7  1  0.125000  0.250000  0.375000  1
  Li  Li8  1  0.250000  0.375000  0.125000  1
  Li  Li9  1  0.750000  0.125000  0.375000  1
  Li  Li10  1  0.125000  0.375000  0.750000  1
  Li  Li11  1  0.375000  0.125000  0.250000  1
  V  V12  1  0.500000  0.500000  0.500000  1
  V  V13  1  0.500000  0.500000  0.000000  1
  V  V14  1  0.500000  1.000000  0.500000  1
  V  V15  1  1.000000  0.500000  0.500000  1
  V  V16  1  0.500000  1.000000  0.000000  1
  V  V17  1  1.000000  0.000000  0.500000  1
  V  V18  1  1.000000  0.500000  1.000000  1
  V  V19  1  1.000000  1.000000  0.000000  1
  Ge  Ge20  1  0.875000  0.125000  0.750000  1
  Ge  Ge21  1  0.125000  0.875000  0.250000  1
  Ge  Ge22  1  0.250000  0.625000  0.375000  1
  Ge  Ge23  1  0.125000  0.750000  0.875000  1
  Ge  Ge24  1  0.750000  0.875000  0.125000  1
  Ge  Ge25  1  0.375000  0.250000  0.625000  1
  Ge  Ge26  1  0.625000  0.750000  0.375000  1
  Ge  Ge27  1  0.875000  0.250000  0.125000  1
  Ge  Ge28  1  0.250000  0.125000  0.875000  1
  Ge  Ge29  1  0.750000  0.375000  0.625000  1
  Ge  Ge30  1  0.375000  0.625000  0.750000  1
  Ge  Ge31  1  0.625000  0.375000  0.250000  1
  O  O32  1  0.804087  0.421461  0.820625  1
  O  O33  1  0.078539  0.882626  0.399164  1
  O  O34  1  0.679375  0.100836  0.983462  1
  O  O35  1  0.695913  0.516538  0.617374  1
  O  O36  1  0.695913  0.679375  0.078539  1
  O  O37  1  0.516538  0.617374  0.695913  1
  O  O38  1  0.100836  0.617374  0.421461  1
  O  O39  1  0.617374  0.695913  0.516538  1
  O  O40  1  0.399164  0.820625  0.516538  1
  O  O41  1  0.882626  0.983462  0.804087  1
  O  O42  1  0.983462  0.804087  0.882626  1
  O  O43  1  0.078539  0.695913  0.679375  1
  O  O44  1  0.617374  0.421461  0.100836  1
  O  O45  1  0.516538  0.399164  0.820625  1
  O  O46  1  0.679375  0.078539  0.695913  1
  O  O47  1  0.421461  0.100836  0.617374  1
  O  O48  1  0.820625  0.516538  0.399164  1
  O  O49  1  0.399164  0.078539  0.882626  1
  O  O50  1  0.100836  0.983462  0.679375  1
  O  O51  1  0.600836  0.179375  0.483462  1
  O  O52  1  0.983462  0.679375  0.100836  1
  O  O53  1  0.820625  0.804087  0.421461  1
  O  O54  1  0.882626  0.399164  0.078539  1
  O  O55  1  0.804087  0.882626  0.983462  1
  O  O56  1  0.195913  0.578539  0.179375  1
  O  O57  1  0.921461  0.117374  0.600836  1
  O  O58  1  0.320625  0.899164  0.016538  1
  O  O59  1  0.304087  0.483462  0.382626  1
  O  O60  1  0.304087  0.320625  0.921461  1
  O  O61  1  0.483462  0.382626  0.304087  1
  O  O62  1  0.899164  0.382626  0.578539  1
  O  O63  1  0.382626  0.304087  0.483462  1
  O  O64  1  0.195913  0.117374  0.016538  1
  O  O65  1  0.117374  0.600836  0.921461  1
  O  O66  1  0.179375  0.195913  0.578539  1
  O  O67  1  0.578539  0.179375  0.195913  1
  O  O68  1  0.016538  0.320625  0.899164  1
  O  O69  1  0.899164  0.016538  0.320625  1
  O  O70  1  0.600836  0.921461  0.117374  1
  O  O71  1  0.179375  0.483462  0.600836  1
  O  O72  1  0.578539  0.899164  0.382626  1
  O  O73  1  0.320625  0.921461  0.304087  1
  O  O74  1  0.483462  0.600836  0.179375  1
  O  O75  1  0.382626  0.578539  0.899164  1
  O  O76  1  0.921461  0.304087  0.320625  1
  O  O77  1  0.016538  0.195913  0.117374  1
  O  O78  1  0.117374  0.016538  0.195913  1
  O  O79  1  0.421461  0.820625  0.804087  1
