# generated using pymatgen
data_CaMoO4
_symmetry_space_group_name_H-M   'P 1'
_cell_length_a   6.90823679
_cell_length_b   6.90823679
_cell_length_c   6.90823679
_cell_angle_alpha   134.78999596
_cell_angle_beta   134.78999596
_cell_angle_gamma   65.85667401
_symmetry_Int_Tables_number   1
_chemical_formula_structural   CaMoO4
_chemical_formula_sum   'Ca2 Mo2 O8'
_cell_volume   163.53761330
_cell_formula_units_Z   2
loop_
 _symmetry_equiv_pos_site_id
 _symmetry_equiv_pos_as_xyz
  1  'x, y, z'
loop_
 _atom_site_type_symbol
 _atom_site_label
 _atom_site_symmetry_multiplicity
 _atom_site_fract_x
 _atom_site_fract_y
 _atom_site_fract_z
 _atom_site_occupancy
  Ca  Ca0  1  0.250000  0.750000  0.500000  1
  Ca  Ca1  1  0.500000  0.500000  0.000000  1
  Mo  Mo2  1  0.750000  0.250000  0.500000  1
  Mo  Mo3  1  0.000000  0.000000  0.000000  1
  O  O4  1  0.813803  0.411376  0.893176  1
  O  O5  1  0.518199  0.920626  0.106824  1
  O  O6  1  0.670626  0.063803  0.902427  1
  O  O7  1  0.161376  0.768199  0.097573  1
  O  O8  1  0.936197  0.838624  0.606824  1
  O  O9  1  0.231801  0.329374  0.393176  1
  O  O10  1  0.079374  0.186197  0.597573  1
  O  O11  1  0.588624  0.481801  0.402427  1
