# generated using pymatgen
data_CrSbSe3
_symmetry_space_group_name_H-M   'P 1'
_cell_length_a   3.84649177
_cell_length_b   9.39370658
_cell_length_c   13.46076265
_cell_angle_alpha   90.00000000
_cell_angle_beta   90.00000000
_cell_angle_gamma   90.00000000
_symmetry_Int_Tables_number   1
_chemical_formula_structural   CrSbSe3
_chemical_formula_sum   'Cr4 Sb4 Se12'
_cell_volume   486.37524726
_cell_formula_units_Z   4
loop_
 _symmetry_equiv_pos_site_id
 _symmetry_equiv_pos_as_xyz
  1  'x, y, z'
loop_
 _atom_site_type_symbol
 _atom_site_label
 _atom_site_symmetry_multiplicity
 _atom_site_fract_x
 _atom_site_fract_y
 _atom_site_fract_z
 _atom_site_occupancy
  Cr  Cr0  1  0.750000  0.656895  0.042389  1
  Cr  Cr1  1  0.250000  0.343105  0.957611  1
  Cr  Cr2  1  0.750000  0.156895  0.457611  1
  Cr  Cr3  1  0.250000  0.843105  0.542389  1
  Sb  Sb4  1  0.250000  0.971445  0.155611  1
  Sb  Sb5  1  0.750000  0.028555  0.844389  1
  Sb  Sb6  1  0.250000  0.471445  0.344389  1
  Sb  Sb7  1  0.750000  0.528555  0.655611  1
  Se  Se8  1  0.750000  0.674860  0.481690  1
  Se  Se9  1  0.250000  0.325140  0.518310  1
  Se  Se10  1  0.750000  0.174860  0.018310  1
  Se  Se11  1  0.250000  0.825140  0.981690  1
  Se  Se12  1  0.250000  0.713205  0.709386  1
  Se  Se13  1  0.750000  0.286795  0.290614  1
  Se  Se14  1  0.250000  0.213205  0.790614  1
  Se  Se15  1  0.750000  0.786795  0.209386  1
  Se  Se16  1  0.750000  0.995322  0.606228  1
  Se  Se17  1  0.250000  0.004678  0.393772  1
  Se  Se18  1  0.750000  0.495322  0.893772  1
  Se  Se19  1  0.250000  0.504678  0.106228  1
