# generated using pymatgen
data_Pr3Si6N11
_symmetry_space_group_name_H-M   'P 1'
_cell_length_a   10.17970713
_cell_length_b   10.17970713
_cell_length_c   4.89904120
_cell_angle_alpha   90.00000000
_cell_angle_beta   90.00000000
_cell_angle_gamma   90.00000000
_symmetry_Int_Tables_number   1
_chemical_formula_structural   Pr3Si6N11
_chemical_formula_sum   'Pr6 Si12 N22'
_cell_volume   507.67018551
_cell_formula_units_Z   2
loop_
 _symmetry_equiv_pos_site_id
 _symmetry_equiv_pos_as_xyz
  1  'x, y, z'
loop_
 _atom_site_type_symbol
 _atom_site_label
 _atom_site_symmetry_multiplicity
 _atom_site_fract_x
 _atom_site_fract_y
 _atom_site_fract_z
 _atom_site_occupancy
  Pr  Pr0  1  0.500000  0.500000  0.352209  1
  Pr  Pr1  1  0.000000  0.000000  0.352209  1
  Pr  Pr2  1  0.682034  0.182034  0.366604  1
  Pr  Pr3  1  0.182034  0.317966  0.366604  1
  Pr  Pr4  1  0.817966  0.682034  0.366604  1
  Pr  Pr5  1  0.317966  0.817966  0.366604  1
  Si  Si6  1  0.117274  0.617274  0.405661  1
  Si  Si7  1  0.617274  0.882726  0.405661  1
  Si  Si8  1  0.382726  0.117274  0.405661  1
  Si  Si9  1  0.882726  0.382726  0.405661  1
  Si  Si10  1  0.579350  0.708737  0.894872  1
  Si  Si11  1  0.420650  0.291263  0.894872  1
  Si  Si12  1  0.291263  0.579350  0.894872  1
  Si  Si13  1  0.708737  0.420650  0.894872  1
  Si  Si14  1  0.791263  0.920650  0.894872  1
  Si  Si15  1  0.920650  0.208737  0.894872  1
  Si  Si16  1  0.079350  0.791263  0.894872  1
  Si  Si17  1  0.208737  0.079350  0.894872  1
  N  N18  1  0.500000  0.000000  0.431128  1
  N  N19  1  0.000000  0.500000  0.431128  1
  N  N20  1  0.420831  0.679232  0.005366  1
  N  N21  1  0.579169  0.320768  0.005366  1
  N  N22  1  0.320768  0.420831  0.005366  1
  N  N23  1  0.679232  0.579169  0.005366  1
  N  N24  1  0.820768  0.079169  0.005366  1
  N  N25  1  0.079169  0.179232  0.005366  1
  N  N26  1  0.920831  0.820768  0.005366  1
  N  N27  1  0.179232  0.920831  0.005366  1
  N  N28  1  0.845625  0.345625  0.060303  1
  N  N29  1  0.345625  0.154375  0.060303  1
  N  N30  1  0.654375  0.845625  0.060303  1
  N  N31  1  0.154375  0.654375  0.060303  1
  N  N32  1  0.230161  0.076044  0.542488  1
  N  N33  1  0.076044  0.769839  0.542488  1
  N  N34  1  0.923956  0.230161  0.542488  1
  N  N35  1  0.769839  0.923956  0.542488  1
  N  N36  1  0.730161  0.423956  0.542488  1
  N  N37  1  0.269839  0.576044  0.542488  1
  N  N38  1  0.423956  0.269839  0.542488  1
  N  N39  1  0.576044  0.730161  0.542488  1
