# generated using pymatgen
data_LiFePO4
_symmetry_space_group_name_H-M   'P 1'
_cell_length_a   5.04441654
_cell_length_b   5.04441654
_cell_length_c   6.23913232
_cell_angle_alpha   90.00000000
_cell_angle_beta   90.00000000
_cell_angle_gamma   112.35198842
_symmetry_Int_Tables_number   1
_chemical_formula_structural   LiFePO4
_chemical_formula_sum   'Li2 Fe2 P2 O8'
_cell_volume   146.83325857
_cell_formula_units_Z   2
loop_
 _symmetry_equiv_pos_site_id
 _symmetry_equiv_pos_as_xyz
  1  'x, y, z'
loop_
 _atom_site_type_symbol
 _atom_site_label
 _atom_site_symmetry_multiplicity
 _atom_site_fract_x
 _atom_site_fract_y
 _atom_site_fract_z
 _atom_site_occupancy
  Li  Li0  1  0.836485  0.163515  0.750000  1
  Li  Li1  1  0.163515  0.836485  0.250000  1
  Fe  Fe2  1  0.500000  0.500000  0.000000  1
  Fe  Fe3  1  0.500000  0.500000  0.500000  1
  P  P4  1  0.150586  0.849414  0.750000  1
  P  P5  1  0.849414  0.150586  0.250000  1
  O  O6  1  0.254347  0.745653  0.953772  1
  O  O7  1  0.259274  0.186354  0.750000  1
  O  O8  1  0.813646  0.740726  0.750000  1
  O  O9  1  0.254347  0.745653  0.546228  1
  O  O10  1  0.745653  0.254347  0.453772  1
  O  O11  1  0.740726  0.813646  0.250000  1
  O  O12  1  0.186354  0.259274  0.250000  1
  O  O13  1  0.745653  0.254347  0.046228  1
