# generated using pymatgen
data_Mg3V2O8
_symmetry_space_group_name_H-M   'P 1'
_cell_length_a   6.56680510
_cell_length_b   6.56680510
_cell_length_c   8.42351352
_cell_angle_alpha   90.00000000
_cell_angle_beta   90.00000000
_cell_angle_gamma   124.39019713
_symmetry_Int_Tables_number   1
_chemical_formula_structural   Mg3V2O8
_chemical_formula_sum   'Mg6 V4 O16'
_cell_volume   299.75476193
_cell_formula_units_Z   2
loop_
 _symmetry_equiv_pos_site_id
 _symmetry_equiv_pos_as_xyz
  1  'x, y, z'
loop_
 _atom_site_type_symbol
 _atom_site_label
 _atom_site_symmetry_multiplicity
 _atom_site_fract_x
 _atom_site_fract_y
 _atom_site_fract_z
 _atom_site_occupancy
  Mg  Mg0  1  0.500000  0.500000  0.500000  1
  Mg  Mg1  1  0.000000  0.000000  0.000000  1
  Mg  Mg2  1  0.114231  0.385769  0.250000  1
  Mg  Mg3  1  0.385769  0.114231  0.750000  1
  Mg  Mg4  1  0.614231  0.885769  0.250000  1
  Mg  Mg5  1  0.885769  0.614231  0.750000  1
  V  V6  1  0.119991  0.880009  0.380353  1
  V  V7  1  0.880009  0.119991  0.619647  1
  V  V8  1  0.380009  0.619991  0.880353  1
  V  V9  1  0.619991  0.380009  0.119647  1
  O  O10  1  0.846218  0.612146  0.999977  1
  O  O11  1  0.612146  0.846218  0.000023  1
  O  O12  1  0.653782  0.887854  0.499977  1
  O  O13  1  0.887854  0.653782  0.500023  1
  O  O14  1  0.153782  0.387854  0.000023  1
  O  O15  1  0.387854  0.153782  0.999977  1
  O  O16  1  0.346218  0.112146  0.500023  1
  O  O17  1  0.112146  0.346218  0.499977  1
  O  O18  1  0.997311  0.002689  0.244926  1
  O  O19  1  0.002689  0.997311  0.755074  1
  O  O20  1  0.249098  0.750902  0.274679  1
  O  O21  1  0.750902  0.249098  0.725321  1
  O  O22  1  0.250902  0.749098  0.774679  1
  O  O23  1  0.749098  0.250902  0.225321  1
  O  O24  1  0.497311  0.502689  0.255074  1
  O  O25  1  0.502689  0.497311  0.744926  1
