# generated using pymatgen
data_LiCeSn
_symmetry_space_group_name_H-M   'P 1'
_cell_length_a   9.55322225
_cell_length_b   9.55322225
_cell_length_c   7.52898218
_cell_angle_alpha   90.00000000
_cell_angle_beta   90.00000000
_cell_angle_gamma   120.00000000
_symmetry_Int_Tables_number   1
_chemical_formula_structural   LiCeSn
_chemical_formula_sum   'Li8 Ce8 Sn8'
_cell_volume   595.06809242
_cell_formula_units_Z   8
loop_
 _symmetry_equiv_pos_site_id
 _symmetry_equiv_pos_as_xyz
  1  'x, y, z'
loop_
 _atom_site_type_symbol
 _atom_site_label
 _atom_site_symmetry_multiplicity
 _atom_site_fract_x
 _atom_site_fract_y
 _atom_site_fract_z
 _atom_site_occupancy
  Li  Li0  1  0.333709  0.166855  0.712937  1
  Li  Li1  1  0.833145  0.166855  0.712937  1
  Li  Li2  1  0.166855  0.833145  0.212937  1
  Li  Li3  1  0.666291  0.833145  0.212937  1
  Li  Li4  1  0.833145  0.666291  0.712937  1
  Li  Li5  1  0.166855  0.333709  0.212937  1
  Li  Li6  1  0.666667  0.333333  0.329893  1
  Li  Li7  1  0.333333  0.666667  0.829893  1
  Ce  Ce8  1  0.000000  0.000000  0.502632  1
  Ce  Ce9  1  0.000000  0.000000  0.002632  1
  Ce  Ce10  1  0.023894  0.511947  0.504764  1
  Ce  Ce11  1  0.488053  0.511947  0.504764  1
  Ce  Ce12  1  0.511947  0.488053  0.004764  1
  Ce  Ce13  1  0.976106  0.488053  0.004764  1
  Ce  Ce14  1  0.488053  0.976106  0.504764  1
  Ce  Ce15  1  0.511947  0.023894  0.004764  1
  Sn  Sn16  1  0.333516  0.166758  0.271216  1
  Sn  Sn17  1  0.833242  0.166758  0.271216  1
  Sn  Sn18  1  0.166758  0.833242  0.771216  1
  Sn  Sn19  1  0.666484  0.833242  0.771216  1
  Sn  Sn20  1  0.833242  0.666484  0.271216  1
  Sn  Sn21  1  0.166758  0.333516  0.771216  1
  Sn  Sn22  1  0.666667  0.333333  0.729733  1
  Sn  Sn23  1  0.333333  0.666667  0.229733  1
