# generated using pymatgen
data_Ce(AgGe)2
_symmetry_space_group_name_H-M   'P 1'
_cell_length_a   6.37629486
_cell_length_b   6.37629486
_cell_length_c   6.37629486
_cell_angle_alpha   140.56158763
_cell_angle_beta   140.56158763
_cell_angle_gamma   57.00159249
_symmetry_Int_Tables_number   1
_chemical_formula_structural   Ce(AgGe)2
_chemical_formula_sum   'Ce1 Ag2 Ge2'
_cell_volume   103.74768956
_cell_formula_units_Z   1
loop_
 _symmetry_equiv_pos_site_id
 _symmetry_equiv_pos_as_xyz
  1  'x, y, z'
loop_
 _atom_site_type_symbol
 _atom_site_label
 _atom_site_symmetry_multiplicity
 _atom_site_fract_x
 _atom_site_fract_y
 _atom_site_fract_z
 _atom_site_occupancy
  Ce  Ce0  1  0.000000  0.000000  0.000000  1
  Ag  Ag1  1  0.750000  0.250000  0.500000  1
  Ag  Ag2  1  0.250000  0.750000  0.500000  1
  Ge  Ge3  1  0.609367  0.609367  0.000000  1
  Ge  Ge4  1  0.390633  0.390633  0.000000  1
