# generated using pymatgen
data_Ba3CoSb2O9
_symmetry_space_group_name_H-M   'P 1'
_cell_length_a   5.93688273
_cell_length_b   5.93688273
_cell_length_c   14.70190047
_cell_angle_alpha   90.00000000
_cell_angle_beta   90.00000000
_cell_angle_gamma   120.00000000
_symmetry_Int_Tables_number   1
_chemical_formula_structural   Ba3CoSb2O9
_chemical_formula_sum   'Ba6 Co2 Sb4 O18'
_cell_volume   448.76714231
_cell_formula_units_Z   2
loop_
 _symmetry_equiv_pos_site_id
 _symmetry_equiv_pos_as_xyz
  1  'x, y, z'
loop_
 _atom_site_type_symbol
 _atom_site_label
 _atom_site_symmetry_multiplicity
 _atom_site_fract_x
 _atom_site_fract_y
 _atom_site_fract_z
 _atom_site_occupancy
  Ba  Ba0  1  0.666667  0.333333  0.087029  1
  Ba  Ba1  1  0.666667  0.333333  0.412971  1
  Ba  Ba2  1  0.333333  0.666667  0.587029  1
  Ba  Ba3  1  0.000000  0.000000  0.250000  1
  Ba  Ba4  1  0.333333  0.666667  0.912971  1
  Ba  Ba5  1  0.000000  0.000000  0.750000  1
  Co  Co6  1  0.000000  0.000000  0.500000  1
  Co  Co7  1  0.000000  0.000000  0.000000  1
  Sb  Sb8  1  0.333333  0.666667  0.348000  1
  Sb  Sb9  1  0.666667  0.333333  0.652000  1
  Sb  Sb10  1  0.666667  0.333333  0.848000  1
  Sb  Sb11  1  0.333333  0.666667  0.152000  1
  O  O12  1  0.831015  0.662029  0.584331  1
  O  O13  1  0.168985  0.337971  0.084331  1
  O  O14  1  0.518307  0.036613  0.750000  1
  O  O15  1  0.831015  0.168985  0.915669  1
  O  O16  1  0.481693  0.963387  0.250000  1
  O  O17  1  0.963387  0.481693  0.750000  1
  O  O18  1  0.036613  0.518307  0.250000  1
  O  O19  1  0.662029  0.831015  0.084331  1
  O  O20  1  0.337971  0.168985  0.584331  1
  O  O21  1  0.481693  0.518307  0.250000  1
  O  O22  1  0.337971  0.168985  0.915669  1
  O  O23  1  0.168985  0.831015  0.084331  1
  O  O24  1  0.168985  0.337971  0.415669  1
  O  O25  1  0.662029  0.831015  0.415669  1
  O  O26  1  0.831015  0.168985  0.584331  1
  O  O27  1  0.168985  0.831015  0.415669  1
  O  O28  1  0.831015  0.662029  0.915669  1
  O  O29  1  0.518307  0.481693  0.750000  1
