# generated using pymatgen
data_Sc2InNi2
_symmetry_space_group_name_H-M   'P 1'
_cell_length_a   7.14297771
_cell_length_b   7.14297771
_cell_length_c   3.37771186
_cell_angle_alpha   90.00000000
_cell_angle_beta   90.00000000
_cell_angle_gamma   90.00000000
_symmetry_Int_Tables_number   1
_chemical_formula_structural   Sc2InNi2
_chemical_formula_sum   'Sc4 In2 Ni4'
_cell_volume   172.33805553
_cell_formula_units_Z   2
loop_
 _symmetry_equiv_pos_site_id
 _symmetry_equiv_pos_as_xyz
  1  'x, y, z'
loop_
 _atom_site_type_symbol
 _atom_site_label
 _atom_site_symmetry_multiplicity
 _atom_site_fract_x
 _atom_site_fract_y
 _atom_site_fract_z
 _atom_site_occupancy
  Sc  Sc0  1  0.671572  0.171572  0.500000  1
  Sc  Sc1  1  0.171572  0.328428  0.500000  1
  Sc  Sc2  1  0.828428  0.671572  0.500000  1
  Sc  Sc3  1  0.328428  0.828428  0.500000  1
  In  In4  1  0.000000  0.000000  0.000000  1
  In  In5  1  0.500000  0.500000  0.000000  1
  Ni  Ni6  1  0.877283  0.377283  0.000000  1
  Ni  Ni7  1  0.377283  0.122717  0.000000  1
  Ni  Ni8  1  0.622717  0.877283  0.000000  1
  Ni  Ni9  1  0.122717  0.622717  0.000000  1
