# generated using pymatgen
data_Sr3CuRhO6
_symmetry_space_group_name_H-M   'P 1'
_cell_length_a   6.79428655
_cell_length_b   6.79428655
_cell_length_c   6.73188479
_cell_angle_alpha   88.79892550
_cell_angle_beta   91.20107450
_cell_angle_gamma   87.67367814
_symmetry_Int_Tables_number   1
_chemical_formula_structural   Sr3CuRhO6
_chemical_formula_sum   'Sr6 Cu2 Rh2 O12'
_cell_volume   310.36114354
_cell_formula_units_Z   2
loop_
 _symmetry_equiv_pos_site_id
 _symmetry_equiv_pos_as_xyz
  1  'x, y, z'
loop_
 _atom_site_type_symbol
 _atom_site_label
 _atom_site_symmetry_multiplicity
 _atom_site_fract_x
 _atom_site_fract_y
 _atom_site_fract_z
 _atom_site_occupancy
  Sr  Sr0  1  0.101669  0.101669  0.750000  1
  Sr  Sr1  1  0.898331  0.898331  0.250000  1
  Sr  Sr2  1  0.389094  0.760249  0.125086  1
  Sr  Sr3  1  0.760249  0.389094  0.374914  1
  Sr  Sr4  1  0.610906  0.239751  0.874914  1
  Sr  Sr5  1  0.239751  0.610906  0.625086  1
  Cu  Cu6  1  0.692162  0.692162  0.750000  1
  Cu  Cu7  1  0.307838  0.307838  0.250000  1
  Rh  Rh8  1  0.500000  0.000000  0.500000  1
  Rh  Rh9  1  1.000000  0.500000  0.000000  1
  O  O10  1  0.393244  0.283300  0.535027  1
  O  O11  1  0.283300  0.393244  0.964973  1
  O  O12  1  0.606756  0.716700  0.464973  1
  O  O13  1  0.716700  0.606756  0.035027  1
  O  O14  1  0.780428  0.074214  0.569142  1
  O  O15  1  0.074214  0.780428  0.930858  1
  O  O16  1  0.219572  0.925786  0.430858  1
  O  O17  1  0.925786  0.219572  0.069142  1
  O  O18  1  0.523541  0.108075  0.214417  1
  O  O19  1  0.108075  0.523541  0.285583  1
  O  O20  1  0.891925  0.476459  0.714417  1
  O  O21  1  0.476459  0.891925  0.785583  1
