# generated using pymatgen
data_Li2LaTa2O7
_symmetry_space_group_name_H-M   'P 1'
_cell_length_a   9.70659765
_cell_length_b   9.70659765
_cell_length_c   9.70659765
_cell_angle_alpha   156.21258775
_cell_angle_beta   156.21258775
_cell_angle_gamma   33.89133679
_symmetry_Int_Tables_number   1
_chemical_formula_structural   Li2LaTa2O7
_chemical_formula_sum   'Li2 La1 Ta2 O7'
_cell_volume   148.63638841
_cell_formula_units_Z   1
loop_
 _symmetry_equiv_pos_site_id
 _symmetry_equiv_pos_as_xyz
  1  'x, y, z'
loop_
 _atom_site_type_symbol
 _atom_site_label
 _atom_site_symmetry_multiplicity
 _atom_site_fract_x
 _atom_site_fract_y
 _atom_site_fract_z
 _atom_site_occupancy
  Li  Li0  1  0.250000  0.750000  0.500000  1
  Li  Li1  1  0.750000  0.250000  0.500000  1
  La  La2  1  0.000000  0.000000  0.000000  1
  Ta  Ta3  1  0.612928  0.612928  0.000000  1
  Ta  Ta4  1  0.387072  0.387072  0.000000  1
  O  O5  1  0.715313  0.715313  0.000000  1
  O  O6  1  0.500000  0.500000  0.000000  1
  O  O7  1  0.597101  0.097101  0.500000  1
  O  O8  1  0.097101  0.597101  0.500000  1
  O  O9  1  0.902899  0.402899  0.500000  1
  O  O10  1  0.402899  0.902899  0.500000  1
  O  O11  1  0.284687  0.284687  0.000000  1
