# generated using pymatgen
data_CaMn(SiO3)2
_symmetry_space_group_name_H-M   'P 1'
_cell_length_a   6.84396628
_cell_length_b   6.84396628
_cell_length_c   5.36339139
_cell_angle_alpha   78.55437552
_cell_angle_beta   101.44562448
_cell_angle_gamma   94.79988100
_symmetry_Int_Tables_number   1
_chemical_formula_structural   CaMn(SiO3)2
_chemical_formula_sum   'Ca2 Mn2 Si4 O12'
_cell_volume   241.07138966
_cell_formula_units_Z   2
loop_
 _symmetry_equiv_pos_site_id
 _symmetry_equiv_pos_as_xyz
  1  'x, y, z'
loop_
 _atom_site_type_symbol
 _atom_site_label
 _atom_site_symmetry_multiplicity
 _atom_site_fract_x
 _atom_site_fract_y
 _atom_site_fract_z
 _atom_site_occupancy
  Ca  Ca0  1  0.700933  0.700933  0.250000  1
  Ca  Ca1  1  0.299067  0.299067  0.750000  1
  Mn  Mn2  1  0.095650  0.095650  0.250000  1
  Mn  Mn3  1  0.904350  0.904350  0.750000  1
  Si  Si4  1  0.378910  0.803779  0.740343  1
  Si  Si5  1  0.196221  0.621090  0.240343  1
  Si  Si6  1  0.621090  0.196221  0.259657  1
  Si  Si7  1  0.803779  0.378910  0.759657  1
  O  O8  1  0.786818  0.027567  0.345265  1
  O  O9  1  0.877387  0.606359  0.670320  1
  O  O10  1  0.972433  0.213182  0.845265  1
  O  O11  1  0.364326  0.669047  0.504588  1
  O  O12  1  0.606359  0.877387  0.829680  1
  O  O13  1  0.027567  0.786818  0.154735  1
  O  O14  1  0.122613  0.393641  0.329680  1
  O  O15  1  0.393641  0.122613  0.170320  1
  O  O16  1  0.330953  0.635674  0.004588  1
  O  O17  1  0.669047  0.364326  0.995412  1
  O  O18  1  0.213182  0.972433  0.654735  1
  O  O19  1  0.635674  0.330953  0.495412  1
