# generated using pymatgen
data_NdAl7Au3
_symmetry_space_group_name_H-M   'P 1'
_cell_length_a   8.51177761
_cell_length_b   8.51177761
_cell_length_c   8.51177761
_cell_angle_alpha   57.28468829
_cell_angle_beta   57.28468829
_cell_angle_gamma   57.28468829
_symmetry_Int_Tables_number   1
_chemical_formula_structural   NdAl7Au3
_chemical_formula_sum   'Nd2 Al14 Au6'
_cell_volume   408.79728045
_cell_formula_units_Z   2
loop_
 _symmetry_equiv_pos_site_id
 _symmetry_equiv_pos_as_xyz
  1  'x, y, z'
loop_
 _atom_site_type_symbol
 _atom_site_label
 _atom_site_symmetry_multiplicity
 _atom_site_fract_x
 _atom_site_fract_y
 _atom_site_fract_z
 _atom_site_occupancy
  Nd  Nd0  1  0.500000  0.500000  0.500000  1
  Nd  Nd1  1  0.000000  0.000000  0.000000  1
  Al  Al2  1  0.569113  0.168208  0.352695  1
  Al  Al3  1  0.168208  0.352695  0.569113  1
  Al  Al4  1  0.352695  0.569113  0.168208  1
  Al  Al5  1  0.930887  0.147305  0.331792  1
  Al  Al6  1  0.147305  0.331792  0.930887  1
  Al  Al7  1  0.331792  0.930887  0.147305  1
  Al  Al8  1  0.430887  0.831792  0.647305  1
  Al  Al9  1  0.831792  0.647305  0.430887  1
  Al  Al10  1  0.750000  0.750000  0.750000  1
  Al  Al11  1  0.250000  0.250000  0.250000  1
  Al  Al12  1  0.668208  0.069113  0.852695  1
  Al  Al13  1  0.852695  0.668208  0.069113  1
  Al  Al14  1  0.069113  0.852695  0.668208  1
  Al  Al15  1  0.647305  0.430887  0.831792  1
  Au  Au16  1  0.250000  0.570966  0.929034  1
  Au  Au17  1  0.570966  0.929034  0.250000  1
  Au  Au18  1  0.929034  0.250000  0.570966  1
  Au  Au19  1  0.750000  0.429034  0.070966  1
  Au  Au20  1  0.429034  0.070966  0.750000  1
  Au  Au21  1  0.070966  0.750000  0.429034  1
