# generated using pymatgen
data_MnAu4
_symmetry_space_group_name_H-M   'P 1'
_cell_length_a   5.05607400
_cell_length_b   5.05607400
_cell_length_c   5.05607400
_cell_angle_alpha   99.28910762
_cell_angle_beta   99.28910762
_cell_angle_gamma   132.62270242
_symmetry_Int_Tables_number   1
_chemical_formula_structural   MnAu4
_chemical_formula_sum   'Mn1 Au4'
_cell_volume   87.09441306
_cell_formula_units_Z   1
loop_
 _symmetry_equiv_pos_site_id
 _symmetry_equiv_pos_as_xyz
  1  'x, y, z'
loop_
 _atom_site_type_symbol
 _atom_site_label
 _atom_site_symmetry_multiplicity
 _atom_site_fract_x
 _atom_site_fract_y
 _atom_site_fract_z
 _atom_site_occupancy
  Mn  Mn0  1  0.000000  0.000000  0.000000  1
  Au  Au1  1  0.795703  0.602541  0.398244  1
  Au  Au2  1  0.204297  0.397459  0.601756  1
  Au  Au3  1  0.602541  0.204297  0.806838  1
  Au  Au4  1  0.397459  0.795703  0.193162  1
