# generated using pymatgen
data_CaAl2SiO6
_symmetry_space_group_name_H-M   'P 1'
_cell_length_a   5.32981406
_cell_length_b   8.75944640
_cell_length_c   9.71241514
_cell_angle_alpha   90.00000000
_cell_angle_beta   105.10593102
_cell_angle_gamma   90.00000000
_symmetry_Int_Tables_number   1
_chemical_formula_structural   CaAl2SiO6
_chemical_formula_sum   'Ca4 Al8 Si4 O24'
_cell_volume   437.76777531
_cell_formula_units_Z   4
loop_
 _symmetry_equiv_pos_site_id
 _symmetry_equiv_pos_as_xyz
  1  'x, y, z'
loop_
 _atom_site_type_symbol
 _atom_site_label
 _atom_site_symmetry_multiplicity
 _atom_site_fract_x
 _atom_site_fract_y
 _atom_site_fract_z
 _atom_site_occupancy
  Ca  Ca0  1  0.015487  0.562193  0.267733  1
  Ca  Ca1  1  0.484513  0.062193  0.732267  1
  Ca  Ca2  1  0.515487  0.937807  0.267733  1
  Ca  Ca3  1  0.984513  0.437807  0.732267  1
  Al  Al4  1  0.332231  0.347153  0.537798  1
  Al  Al5  1  0.167769  0.847153  0.462202  1
  Al  Al6  1  0.667769  0.652847  0.462202  1
  Al  Al7  1  0.832231  0.152847  0.537798  1
  Al  Al8  1  0.016674  0.158749  0.256581  1
  Al  Al9  1  0.483326  0.658749  0.743419  1
  Al  Al10  1  0.516674  0.341251  0.256581  1
  Al  Al11  1  0.983326  0.841251  0.743419  1
  Si  Si12  1  0.815412  0.846280  0.036357  1
  Si  Si13  1  0.684588  0.346280  0.963643  1
  Si  Si14  1  0.184588  0.153720  0.963643  1
  Si  Si15  1  0.315412  0.653720  0.036357  1
  O  O16  1  0.238185  0.330164  0.346335  1
  O  O17  1  0.293920  0.522324  0.617376  1
  O  O18  1  0.640594  0.273742  0.614047  1
  O  O19  1  0.728360  0.834425  0.861582  1
  O  O20  1  0.819538  0.009215  0.114707  1
  O  O21  1  0.100467  0.758473  0.095557  1
  O  O22  1  0.771640  0.334425  0.138418  1
  O  O23  1  0.680462  0.509215  0.885293  1
  O  O24  1  0.399533  0.258473  0.904443  1
  O  O25  1  0.261815  0.830164  0.653665  1
  O  O26  1  0.206080  0.022324  0.382624  1
  O  O27  1  0.859406  0.773742  0.385953  1
  O  O28  1  0.271640  0.165575  0.138418  1
  O  O29  1  0.180462  0.990785  0.885293  1
  O  O30  1  0.899533  0.241527  0.904443  1
  O  O31  1  0.761815  0.669836  0.653665  1
  O  O32  1  0.706080  0.477676  0.382624  1
  O  O33  1  0.359406  0.726258  0.385953  1
  O  O34  1  0.738185  0.169836  0.346335  1
  O  O35  1  0.793920  0.977676  0.617376  1
  O  O36  1  0.140594  0.226258  0.614047  1
  O  O37  1  0.228360  0.665575  0.861582  1
  O  O38  1  0.319538  0.490785  0.114707  1
  O  O39  1  0.600467  0.741527  0.095557  1
