# generated using pymatgen
data_BMo
_symmetry_space_group_name_H-M   'P 1'
_cell_length_a   8.81118695
_cell_length_b   8.81118695
_cell_length_c   8.81118695
_cell_angle_alpha   159.52581734
_cell_angle_beta   159.52581734
_cell_angle_gamma   29.11324272
_symmetry_Int_Tables_number   1
_chemical_formula_structural   BMo
_chemical_formula_sum   'B4 Mo4'
_cell_volume   83.65178266
_cell_formula_units_Z   4
loop_
 _symmetry_equiv_pos_site_id
 _symmetry_equiv_pos_as_xyz
  1  'x, y, z'
loop_
 _atom_site_type_symbol
 _atom_site_label
 _atom_site_symmetry_multiplicity
 _atom_site_fract_x
 _atom_site_fract_y
 _atom_site_fract_z
 _atom_site_occupancy
  B  B0  1  0.594755  0.094755  0.500000  1
  B  B1  1  0.844755  0.844755  0.000000  1
  B  B2  1  0.155245  0.155245  0.000000  1
  B  B3  1  0.905245  0.405245  0.500000  1
  Mo  Mo4  1  0.447018  0.947018  0.500000  1
  Mo  Mo5  1  0.697018  0.697018  0.000000  1
  Mo  Mo6  1  0.302982  0.302982  0.000000  1
  Mo  Mo7  1  0.052982  0.552982  0.500000  1
