# generated using pymatgen
data_Mg3(Ni10B3)2
_symmetry_space_group_name_H-M   'P 1'
_cell_length_a   7.46456307
_cell_length_b   7.46456307
_cell_length_c   7.46456307
_cell_angle_alpha   60.00000000
_cell_angle_beta   60.00000000
_cell_angle_gamma   60.00000000
_symmetry_Int_Tables_number   1
_chemical_formula_structural   Mg3(Ni10B3)2
_chemical_formula_sum   'Mg3 Ni20 B6'
_cell_volume   294.10213480
_cell_formula_units_Z   1
loop_
 _symmetry_equiv_pos_site_id
 _symmetry_equiv_pos_as_xyz
  1  'x, y, z'
loop_
 _atom_site_type_symbol
 _atom_site_label
 _atom_site_symmetry_multiplicity
 _atom_site_fract_x
 _atom_site_fract_y
 _atom_site_fract_z
 _atom_site_occupancy
  Mg  Mg0  1  0.250000  0.250000  0.250000  1
  Mg  Mg1  1  0.750000  0.750000  0.750000  1
  Mg  Mg2  1  1.000000  1.000000  1.000000  1
  Ni  Ni3  1  0.156249  0.614584  0.614584  1
  Ni  Ni4  1  0.385416  0.843751  0.385416  1
  Ni  Ni5  1  0.000000  0.340337  0.659663  1
  Ni  Ni6  1  1.000000  0.340337  0.000000  1
  Ni  Ni7  1  0.340337  1.000000  0.659663  1
  Ni  Ni8  1  0.614584  0.614584  0.614584  1
  Ni  Ni9  1  0.340337  1.000000  0.000000  1
  Ni  Ni10  1  0.659663  0.340337  1.000000  1
  Ni  Ni11  1  1.000000  1.000000  0.659663  1
  Ni  Ni12  1  0.659663  1.000000  0.340337  1
  Ni  Ni13  1  0.340337  0.659663  1.000000  1
  Ni  Ni14  1  1.000000  1.000000  0.340337  1
  Ni  Ni15  1  0.000000  0.659663  1.000000  1
  Ni  Ni16  1  0.000000  0.659663  0.340337  1
  Ni  Ni17  1  0.614584  0.614584  0.156249  1
  Ni  Ni18  1  0.843751  0.385416  0.385416  1
  Ni  Ni19  1  0.385416  0.385416  0.843751  1
  Ni  Ni20  1  0.385416  0.385416  0.385416  1
  Ni  Ni21  1  0.614584  0.156249  0.614584  1
  Ni  Ni22  1  0.659663  0.000000  1.000000  1
  B  B23  1  0.270964  0.729036  0.729036  1
  B  B24  1  0.729036  0.270964  0.270964  1
  B  B25  1  0.270964  0.729036  0.270964  1
  B  B26  1  0.270964  0.270964  0.729036  1
  B  B27  1  0.729036  0.729036  0.270964  1
  B  B28  1  0.729036  0.270964  0.729036  1
