# generated using pymatgen
data_V2PO5
_symmetry_space_group_name_H-M   'P 1'
_cell_length_a   7.38890576
_cell_length_b   7.38890576
_cell_length_c   7.38890576
_cell_angle_alpha   136.51687412
_cell_angle_beta   136.51687412
_cell_angle_gamma   63.18224398
_symmetry_Int_Tables_number   1
_chemical_formula_structural   V2PO5
_chemical_formula_sum   'V4 P2 O10'
_cell_volume   188.59603383
_cell_formula_units_Z   2
loop_
 _symmetry_equiv_pos_site_id
 _symmetry_equiv_pos_as_xyz
  1  'x, y, z'
loop_
 _atom_site_type_symbol
 _atom_site_label
 _atom_site_symmetry_multiplicity
 _atom_site_fract_x
 _atom_site_fract_y
 _atom_site_fract_z
 _atom_site_occupancy
  V  V0  1  0.375000  0.125000  0.750000  1
  V  V1  1  0.875000  0.625000  0.250000  1
  V  V2  1  0.375000  0.625000  0.750000  1
  V  V3  1  0.375000  0.625000  0.250000  1
  P  P4  1  1.000000  0.000000  0.000000  1
  P  P5  1  0.750000  0.250000  0.500000  1
  O  O6  1  0.500000  0.500000  0.000000  1
  O  O7  1  0.250000  0.750000  0.500000  1
  O  O8  1  0.579811  0.316897  0.262913  1
  O  O9  1  0.683103  0.946016  0.262913  1
  O  O10  1  0.683103  0.420189  0.737087  1
  O  O11  1  0.170189  0.933103  0.237087  1
  O  O12  1  0.053984  0.316897  0.737087  1
  O  O13  1  0.066897  0.829811  0.762913  1
  O  O14  1  0.066897  0.303984  0.237087  1
  O  O15  1  0.696016  0.933103  0.762913  1
