# generated using pymatgen
data_Ba2LaC3O9F
_symmetry_space_group_name_H-M   'P 1'
_cell_length_a   6.72668337
_cell_length_b   5.17955656
_cell_length_c   13.33545637
_cell_angle_alpha   90.00000000
_cell_angle_beta   102.50101089
_cell_angle_gamma   90.00000000
_symmetry_Int_Tables_number   1
_chemical_formula_structural   Ba2LaC3O9F
_chemical_formula_sum   'Ba4 La2 C6 O18 F2'
_cell_volume   453.60858231
_cell_formula_units_Z   2
loop_
 _symmetry_equiv_pos_site_id
 _symmetry_equiv_pos_as_xyz
  1  'x, y, z'
loop_
 _atom_site_type_symbol
 _atom_site_label
 _atom_site_symmetry_multiplicity
 _atom_site_fract_x
 _atom_site_fract_y
 _atom_site_fract_z
 _atom_site_occupancy
  Ba  Ba0  1  0.272616  0.250000  0.583165  1
  Ba  Ba1  1  0.784937  0.750000  0.075004  1
  Ba  Ba2  1  0.727384  0.750000  0.416835  1
  Ba  Ba3  1  0.215063  0.250000  0.924996  1
  La  La4  1  0.226581  0.250000  0.238366  1
  La  La5  1  0.773419  0.750000  0.761634  1
  C  C6  1  0.745825  0.250000  0.573381  1
  C  C7  1  0.668434  0.250000  0.871974  1
  C  C8  1  0.331566  0.750000  0.128026  1
  C  C9  1  0.254175  0.750000  0.426619  1
  C  C10  1  0.784634  0.250000  0.272572  1
  C  C11  1  0.215366  0.750000  0.727428  1
  O  O12  1  0.122504  0.534408  0.737959  1
  O  O13  1  0.877496  0.034408  0.262041  1
  O  O14  1  0.122504  0.965592  0.737959  1
  O  O15  1  0.877496  0.465592  0.262041  1
  O  O16  1  0.598835  0.031356  0.896206  1
  O  O17  1  0.598835  0.468644  0.896206  1
  O  O18  1  0.401165  0.531356  0.103794  1
  O  O19  1  0.401165  0.968644  0.103794  1
  O  O20  1  0.191796  0.750000  0.182881  1
  O  O21  1  0.808204  0.250000  0.817119  1
  O  O22  1  0.390393  0.750000  0.702340  1
  O  O23  1  0.609607  0.250000  0.297660  1
  O  O24  1  0.135183  0.750000  0.490402  1
  O  O25  1  0.864817  0.250000  0.509598  1
  O  O26  1  0.320923  0.967557  0.397121  1
  O  O27  1  0.679077  0.467557  0.602879  1
  O  O28  1  0.679077  0.032443  0.602879  1
  O  O29  1  0.320923  0.532443  0.397121  1
  F  F30  1  0.986447  0.250000  0.073532  1
  F  F31  1  0.013553  0.750000  0.926468  1
