# generated using pymatgen
data_SrSi
_symmetry_space_group_name_H-M   'P 1'
_cell_length_a   4.05866060
_cell_length_b   6.13872680
_cell_length_c   8.90659196
_cell_angle_alpha   90.00000000
_cell_angle_beta   90.00000000
_cell_angle_gamma   90.00000000
_symmetry_Int_Tables_number   1
_chemical_formula_structural   SrSi
_chemical_formula_sum   'Sr4 Si4'
_cell_volume   221.90781526
_cell_formula_units_Z   4
loop_
 _symmetry_equiv_pos_site_id
 _symmetry_equiv_pos_as_xyz
  1  'x, y, z'
loop_
 _atom_site_type_symbol
 _atom_site_label
 _atom_site_symmetry_multiplicity
 _atom_site_fract_x
 _atom_site_fract_y
 _atom_site_fract_z
 _atom_site_occupancy
  Sr  Sr0  1  0.250000  0.392006  0.680546  1
  Sr  Sr1  1  0.750000  0.607994  0.319454  1
  Sr  Sr2  1  0.750000  0.892006  0.819454  1
  Sr  Sr3  1  0.250000  0.107994  0.180546  1
  Si  Si4  1  0.250000  0.892916  0.531929  1
  Si  Si5  1  0.750000  0.107084  0.468071  1
  Si  Si6  1  0.750000  0.392916  0.968071  1
  Si  Si7  1  0.250000  0.607084  0.031929  1
