# generated using pymatgen
data_La3BN2O3
_symmetry_space_group_name_H-M   'P 1'
_cell_length_a   3.71563542
_cell_length_b   11.06076418
_cell_length_c   12.74595297
_cell_angle_alpha   90.00000000
_cell_angle_beta   90.00000000
_cell_angle_gamma   90.00000000
_symmetry_Int_Tables_number   1
_chemical_formula_structural   La3BN2O3
_chemical_formula_sum   'La12 B4 N8 O12'
_cell_volume   523.83020739
_cell_formula_units_Z   4
loop_
 _symmetry_equiv_pos_site_id
 _symmetry_equiv_pos_as_xyz
  1  'x, y, z'
loop_
 _atom_site_type_symbol
 _atom_site_label
 _atom_site_symmetry_multiplicity
 _atom_site_fract_x
 _atom_site_fract_y
 _atom_site_fract_z
 _atom_site_occupancy
  La  La0  1  0.250000  0.417510  0.383937  1
  La  La1  1  0.250000  0.082490  0.883937  1
  La  La2  1  0.750000  0.582490  0.616063  1
  La  La3  1  0.750000  0.917510  0.116063  1
  La  La4  1  0.250000  0.275299  0.627513  1
  La  La5  1  0.250000  0.224701  0.127513  1
  La  La6  1  0.750000  0.724701  0.372487  1
  La  La7  1  0.750000  0.775299  0.872487  1
  La  La8  1  0.750000  0.111234  0.385435  1
  La  La9  1  0.750000  0.388766  0.885435  1
  La  La10  1  0.250000  0.888766  0.614565  1
  La  La11  1  0.250000  0.611234  0.114565  1
  B  B12  1  0.750000  0.081562  0.709570  1
  B  B13  1  0.750000  0.418438  0.209570  1
  B  B14  1  0.250000  0.918438  0.290430  1
  B  B15  1  0.250000  0.581562  0.790430  1
  N  N16  1  0.250000  0.467486  0.732949  1
  N  N17  1  0.250000  0.032514  0.232949  1
  N  N18  1  0.750000  0.532514  0.267051  1
  N  N19  1  0.750000  0.967486  0.767051  1
  N  N20  1  0.750000  0.199615  0.761488  1
  N  N21  1  0.750000  0.300385  0.261488  1
  N  N22  1  0.250000  0.800385  0.238512  1
  N  N23  1  0.250000  0.699615  0.738512  1
  O  O24  1  0.250000  0.609727  0.466780  1
  O  O25  1  0.250000  0.890273  0.966780  1
  O  O26  1  0.750000  0.390273  0.533220  1
  O  O27  1  0.750000  0.109727  0.033220  1
  O  O28  1  0.250000  0.210705  0.446104  1
  O  O29  1  0.250000  0.289295  0.946104  1
  O  O30  1  0.750000  0.789295  0.553896  1
  O  O31  1  0.750000  0.710705  0.053896  1
  O  O32  1  0.750000  0.078613  0.595979  1
  O  O33  1  0.750000  0.421387  0.095979  1
  O  O34  1  0.250000  0.921387  0.404021  1
  O  O35  1  0.250000  0.578613  0.904021  1
