# generated using pymatgen
data_Sm2CdPd2
_symmetry_space_group_name_H-M   'P 1'
_cell_length_a   7.78711003
_cell_length_b   7.78711003
_cell_length_c   3.87091327
_cell_angle_alpha   90.00000000
_cell_angle_beta   90.00000000
_cell_angle_gamma   90.00000000
_symmetry_Int_Tables_number   1
_chemical_formula_structural   Sm2CdPd2
_chemical_formula_sum   'Sm4 Cd2 Pd4'
_cell_volume   234.72862959
_cell_formula_units_Z   2
loop_
 _symmetry_equiv_pos_site_id
 _symmetry_equiv_pos_as_xyz
  1  'x, y, z'
loop_
 _atom_site_type_symbol
 _atom_site_label
 _atom_site_symmetry_multiplicity
 _atom_site_fract_x
 _atom_site_fract_y
 _atom_site_fract_z
 _atom_site_occupancy
  Sm  Sm0  1  0.326685  0.826685  0.500000  1
  Sm  Sm1  1  0.826685  0.673315  0.500000  1
  Sm  Sm2  1  0.173315  0.326685  0.500000  1
  Sm  Sm3  1  0.673315  0.173315  0.500000  1
  Cd  Cd4  1  0.000000  0.000000  0.000000  1
  Cd  Cd5  1  0.500000  0.500000  0.000000  1
  Pd  Pd6  1  0.372013  0.127987  0.000000  1
  Pd  Pd7  1  0.872013  0.372013  0.000000  1
  Pd  Pd8  1  0.127987  0.627987  0.000000  1
  Pd  Pd9  1  0.627987  0.872013  0.000000  1
