# generated using pymatgen
data_Lu2Si2O7
_symmetry_space_group_name_H-M   'P 1'
_cell_length_a   6.58290763
_cell_length_b   6.58290763
_cell_length_c   12.00969254
_cell_angle_alpha   90.00000000
_cell_angle_beta   90.00000000
_cell_angle_gamma   90.00000000
_symmetry_Int_Tables_number   1
_chemical_formula_structural   Lu2Si2O7
_chemical_formula_sum   'Lu8 Si8 O28'
_cell_volume   520.43609743
_cell_formula_units_Z   4
loop_
 _symmetry_equiv_pos_site_id
 _symmetry_equiv_pos_as_xyz
  1  'x, y, z'
loop_
 _atom_site_type_symbol
 _atom_site_label
 _atom_site_symmetry_multiplicity
 _atom_site_fract_x
 _atom_site_fract_y
 _atom_site_fract_z
 _atom_site_occupancy
  Lu  Lu0  1  0.647470  0.124745  0.366423  1
  Lu  Lu1  1  0.352530  0.875255  0.866423  1
  Lu  Lu2  1  0.124745  0.647470  0.633577  1
  Lu  Lu3  1  0.624745  0.852530  0.116423  1
  Lu  Lu4  1  0.375255  0.147470  0.616423  1
  Lu  Lu5  1  0.852530  0.624745  0.883577  1
  Lu  Lu6  1  0.147470  0.375255  0.383577  1
  Lu  Lu7  1  0.875255  0.352530  0.133577  1
  Si  Si8  1  0.847620  0.098099  0.878478  1
  Si  Si9  1  0.152380  0.901901  0.378478  1
  Si  Si10  1  0.098099  0.847620  0.121522  1
  Si  Si11  1  0.598099  0.652380  0.628478  1
  Si  Si12  1  0.401901  0.347620  0.128478  1
  Si  Si13  1  0.652380  0.598099  0.371522  1
  Si  Si14  1  0.347620  0.401901  0.871522  1
  Si  Si15  1  0.901901  0.152380  0.621522  1
  O  O16  1  0.861056  0.307364  0.951908  1
  O  O17  1  0.138944  0.692636  0.451908  1
  O  O18  1  0.307364  0.861056  0.048092  1
  O  O19  1  0.807364  0.638944  0.701908  1
  O  O20  1  0.192636  0.361056  0.201908  1
  O  O21  1  0.638944  0.807364  0.298092  1
  O  O22  1  0.361056  0.192636  0.798092  1
  O  O23  1  0.692636  0.138944  0.548092  1
  O  O24  1  0.664228  0.944675  0.926542  1
  O  O25  1  0.335772  0.055325  0.426542  1
  O  O26  1  0.944675  0.664228  0.073458  1
  O  O27  1  0.444675  0.835772  0.676542  1
  O  O28  1  0.555325  0.164228  0.176542  1
  O  O29  1  0.835772  0.444675  0.323458  1
  O  O30  1  0.164228  0.555325  0.823458  1
  O  O31  1  0.055325  0.335772  0.573458  1
  O  O32  1  0.815497  0.184503  0.750000  1
  O  O33  1  0.315497  0.315497  0.000000  1
  O  O34  1  0.684503  0.684503  0.500000  1
  O  O35  1  0.184503  0.815497  0.250000  1
  O  O36  1  0.070461  0.970455  0.624609  1
  O  O37  1  0.529545  0.570461  0.874609  1
  O  O38  1  0.470455  0.429539  0.374609  1
  O  O39  1  0.570461  0.529545  0.125391  1
  O  O40  1  0.429539  0.470455  0.625391  1
  O  O41  1  0.929539  0.029545  0.124609  1
  O  O42  1  0.970455  0.070461  0.375391  1
  O  O43  1  0.029545  0.929539  0.875391  1
