# generated using pymatgen
data_Na4TeO5
_symmetry_space_group_name_H-M   'P 1'
_cell_length_a   5.77380966
_cell_length_b   5.81382561
_cell_length_c   8.63310105
_cell_angle_alpha   108.67062070
_cell_angle_beta   101.55541033
_cell_angle_gamma   102.56241886
_symmetry_Int_Tables_number   1
_chemical_formula_structural   Na4TeO5
_chemical_formula_sum   'Na8 Te2 O10'
_cell_volume   256.29917459
_cell_formula_units_Z   2
loop_
 _symmetry_equiv_pos_site_id
 _symmetry_equiv_pos_as_xyz
  1  'x, y, z'
loop_
 _atom_site_type_symbol
 _atom_site_label
 _atom_site_symmetry_multiplicity
 _atom_site_fract_x
 _atom_site_fract_y
 _atom_site_fract_z
 _atom_site_occupancy
  Na  Na0  1  0.309559  0.514782  0.900350  1
  Na  Na1  1  0.112484  0.493488  0.302275  1
  Na  Na2  1  0.303318  0.995805  0.400491  1
  Na  Na3  1  0.696682  0.004195  0.599509  1
  Na  Na4  1  0.690441  0.485218  0.099650  1
  Na  Na5  1  0.500000  0.500000  0.500000  1
  Na  Na6  1  0.500000  0.000000  0.000000  1
  Na  Na7  1  0.887516  0.506512  0.697725  1
  Te  Te8  1  0.098634  0.006863  0.797192  1
  Te  Te9  1  0.901366  0.993137  0.202808  1
  O  O10  1  0.759607  0.786811  0.845606  1
  O  O11  1  0.240393  0.213189  0.154394  1
  O  O12  1  0.089151  0.226619  0.599266  1
  O  O13  1  0.910849  0.773381  0.400734  1
  O  O14  1  0.567174  0.775708  0.239887  1
  O  O15  1  0.432826  0.224292  0.760113  1
  O  O16  1  0.923227  0.192267  0.962097  1
  O  O17  1  0.076773  0.807733  0.037903  1
  O  O18  1  0.742874  0.206426  0.312443  1
  O  O19  1  0.257126  0.793574  0.687557  1
