# generated using pymatgen
data_CdB4O7
_symmetry_space_group_name_H-M   'P 1'
_cell_length_a   8.42086895
_cell_length_b   8.91336543
_cell_length_c   14.35463920
_cell_angle_alpha   90.00000000
_cell_angle_beta   90.00000000
_cell_angle_gamma   90.00000000
_symmetry_Int_Tables_number   1
_chemical_formula_structural   CdB4O7
_chemical_formula_sum   'Cd8 B32 O56'
_cell_volume   1077.43455980
_cell_formula_units_Z   8
loop_
 _symmetry_equiv_pos_site_id
 _symmetry_equiv_pos_as_xyz
  1  'x, y, z'
loop_
 _atom_site_type_symbol
 _atom_site_label
 _atom_site_symmetry_multiplicity
 _atom_site_fract_x
 _atom_site_fract_y
 _atom_site_fract_z
 _atom_site_occupancy
  Cd  Cd0  1  0.626131  0.110665  0.386087  1
  Cd  Cd1  1  0.126131  0.389335  0.613913  1
  Cd  Cd2  1  0.373869  0.610665  0.113913  1
  Cd  Cd3  1  0.873869  0.889335  0.886087  1
  Cd  Cd4  1  0.373869  0.889335  0.613913  1
  Cd  Cd5  1  0.873869  0.610665  0.386087  1
  Cd  Cd6  1  0.626131  0.389335  0.886087  1
  Cd  Cd7  1  0.126131  0.110665  0.113913  1
  B  B8  1  0.204330  0.148036  0.455148  1
  B  B9  1  0.704330  0.351964  0.544852  1
  B  B10  1  0.795670  0.648036  0.044852  1
  B  B11  1  0.295670  0.851964  0.955148  1
  B  B12  1  0.795670  0.851964  0.544852  1
  B  B13  1  0.295670  0.648036  0.455148  1
  B  B14  1  0.204330  0.351964  0.955148  1
  B  B15  1  0.704330  0.148036  0.044852  1
  B  B16  1  0.009245  0.068920  0.337523  1
  B  B17  1  0.509245  0.431080  0.662477  1
  B  B18  1  0.990755  0.568920  0.162477  1
  B  B19  1  0.490755  0.931080  0.837523  1
  B  B20  1  0.990755  0.931080  0.662477  1
  B  B21  1  0.490755  0.568920  0.337523  1
  B  B22  1  0.009245  0.431080  0.837523  1
  B  B23  1  0.509245  0.068920  0.162477  1
  B  B24  1  0.015510  0.332294  0.265920  1
  B  B25  1  0.515510  0.167706  0.734080  1
  B  B26  1  0.984490  0.832294  0.234080  1
  B  B27  1  0.484490  0.667706  0.765920  1
  B  B28  1  0.984490  0.667706  0.734080  1
  B  B29  1  0.484490  0.832294  0.265920  1
  B  B30  1  0.015510  0.167706  0.765920  1
  B  B31  1  0.515510  0.332294  0.234080  1
  B  B32  1  0.944818  0.283115  0.435138  1
  B  B33  1  0.444818  0.216885  0.564862  1
  B  B34  1  0.055182  0.783115  0.064862  1
  B  B35  1  0.555182  0.716885  0.935138  1
  B  B36  1  0.055182  0.716885  0.564862  1
  B  B37  1  0.555182  0.783115  0.435138  1
  B  B38  1  0.944818  0.216885  0.935138  1
  B  B39  1  0.444818  0.283115  0.064862  1
  O  O40  1  0.163220  0.055440  0.384234  1
  O  O41  1  0.663220  0.444560  0.615766  1
  O  O42  1  0.836780  0.555440  0.115766  1
  O  O43  1  0.336780  0.944560  0.884234  1
  O  O44  1  0.836780  0.944560  0.615766  1
  O  O45  1  0.336780  0.555440  0.384234  1
  O  O46  1  0.163220  0.444560  0.884234  1
  O  O47  1  0.663220  0.055440  0.115766  1
  O  O48  1  0.100947  0.261294  0.483265  1
  O  O49  1  0.600947  0.238706  0.516735  1
  O  O50  1  0.899053  0.761294  0.016735  1
  O  O51  1  0.399053  0.738706  0.983265  1
  O  O52  1  0.899053  0.738706  0.516735  1
  O  O53  1  0.399053  0.761294  0.483265  1
  O  O54  1  0.100947  0.238706  0.983265  1
  O  O55  1  0.600947  0.261294  0.016735  1
  O  O56  1  0.032425  0.178063  0.254516  1
  O  O57  1  0.532425  0.321937  0.745484  1
  O  O58  1  0.967575  0.678063  0.245484  1
  O  O59  1  0.467575  0.821937  0.754516  1
  O  O60  1  0.967575  0.821937  0.745484  1
  O  O61  1  0.467575  0.678063  0.254516  1
  O  O62  1  0.032425  0.321937  0.754516  1
  O  O63  1  0.532425  0.178063  0.245484  1
  O  O64  1  0.969150  0.385751  0.352300  1
  O  O65  1  0.469150  0.114249  0.647700  1
  O  O66  1  0.030850  0.885751  0.147700  1
  O  O67  1  0.530850  0.614249  0.852300  1
  O  O68  1  0.030850  0.614249  0.647700  1
  O  O69  1  0.530850  0.885751  0.352300  1
  O  O70  1  0.969150  0.114249  0.852300  1
  O  O71  1  0.469150  0.385751  0.147700  1
  O  O72  1  0.848004  0.368742  0.500027  1
  O  O73  1  0.348004  0.131258  0.499973  1
  O  O74  1  0.151996  0.868742  0.999973  1
  O  O75  1  0.651996  0.631258  0.000027  1
  O  O76  1  0.151996  0.631258  0.499973  1
  O  O77  1  0.651996  0.868742  0.500027  1
  O  O78  1  0.848004  0.131258  0.000027  1
  O  O79  1  0.348004  0.368742  0.999973  1
  O  O80  1  0.888890  0.138987  0.400233  1
  O  O81  1  0.388890  0.361013  0.599767  1
  O  O82  1  0.111110  0.638987  0.099767  1
  O  O83  1  0.611110  0.861013  0.900233  1
  O  O84  1  0.111110  0.861013  0.599767  1
  O  O85  1  0.611110  0.638987  0.400233  1
  O  O86  1  0.888890  0.361013  0.900233  1
  O  O87  1  0.388890  0.138987  0.099767  1
  O  O88  1  0.547352  0.423176  0.307643  1
  O  O89  1  0.047352  0.076824  0.692357  1
  O  O90  1  0.452648  0.923176  0.192357  1
  O  O91  1  0.952648  0.576824  0.807643  1
  O  O92  1  0.452648  0.576824  0.692357  1
  O  O93  1  0.952648  0.923176  0.307643  1
  O  O94  1  0.547352  0.076824  0.807643  1
  O  O95  1  0.047352  0.423176  0.192357  1
