# generated using pymatgen
data_Zr2Ga(PO4)3
_symmetry_space_group_name_H-M   'P 1'
_cell_length_a   9.54693017
_cell_length_b   9.54693017
_cell_length_c   9.54693017
_cell_angle_alpha   55.40799756
_cell_angle_beta   55.40799756
_cell_angle_gamma   55.40799756
_symmetry_Int_Tables_number   1
_chemical_formula_structural   Zr2Ga(PO4)3
_chemical_formula_sum   'Zr4 Ga2 P6 O24'
_cell_volume   549.65854258
_cell_formula_units_Z   2
loop_
 _symmetry_equiv_pos_site_id
 _symmetry_equiv_pos_as_xyz
  1  'x, y, z'
loop_
 _atom_site_type_symbol
 _atom_site_label
 _atom_site_symmetry_multiplicity
 _atom_site_fract_x
 _atom_site_fract_y
 _atom_site_fract_z
 _atom_site_occupancy
  Zr  Zr0  1  0.649311  0.649311  0.649311  1
  Zr  Zr1  1  0.149311  0.149311  0.149311  1
  Zr  Zr2  1  0.350689  0.350689  0.350689  1
  Zr  Zr3  1  0.850689  0.850689  0.850689  1
  Ga  Ga4  1  0.500000  0.500000  0.500000  1
  Ga  Ga5  1  0.000000  0.000000  0.000000  1
  P  P6  1  0.037496  0.750000  0.462504  1
  P  P7  1  0.750000  0.462504  0.037496  1
  P  P8  1  0.462504  0.037496  0.750000  1
  P  P9  1  0.250000  0.537496  0.962504  1
  P  P10  1  0.537496  0.962504  0.250000  1
  P  P11  1  0.962504  0.250000  0.537496  1
  O  O12  1  0.868192  0.739047  0.489062  1
  O  O13  1  0.739047  0.489062  0.868192  1
  O  O14  1  0.489062  0.868192  0.739047  1
  O  O15  1  0.239047  0.368192  0.989062  1
  O  O16  1  0.368192  0.989062  0.239047  1
  O  O17  1  0.989062  0.239047  0.368192  1
  O  O18  1  0.131808  0.260953  0.510938  1
  O  O19  1  0.260953  0.510938  0.131808  1
  O  O20  1  0.510938  0.131808  0.260953  1
  O  O21  1  0.760953  0.631808  0.010938  1
  O  O22  1  0.631808  0.010938  0.760953  1
  O  O23  1  0.010938  0.760953  0.631808  1
  O  O24  1  0.793800  0.421958  0.569777  1
  O  O25  1  0.421958  0.569777  0.793800  1
  O  O26  1  0.569777  0.793800  0.421958  1
  O  O27  1  0.921958  0.293800  0.069777  1
  O  O28  1  0.293800  0.069777  0.921958  1
  O  O29  1  0.069777  0.921958  0.293800  1
  O  O30  1  0.206200  0.578042  0.430223  1
  O  O31  1  0.578042  0.430223  0.206200  1
  O  O32  1  0.430223  0.206200  0.578042  1
  O  O33  1  0.078042  0.706200  0.930223  1
  O  O34  1  0.706200  0.930223  0.078042  1
  O  O35  1  0.930223  0.078042  0.706200  1
