# generated using pymatgen
data_CaNiP2O7
_symmetry_space_group_name_H-M   'P 1'
_cell_length_a   6.45949688
_cell_length_b   6.56031286
_cell_length_c   6.69225298
_cell_angle_alpha   113.69457339
_cell_angle_beta   87.33924594
_cell_angle_gamma   97.45370722
_symmetry_Int_Tables_number   1
_chemical_formula_structural   CaNiP2O7
_chemical_formula_sum   'Ca2 Ni2 P4 O14'
_cell_volume   257.48690831
_cell_formula_units_Z   2
loop_
 _symmetry_equiv_pos_site_id
 _symmetry_equiv_pos_as_xyz
  1  'x, y, z'
loop_
 _atom_site_type_symbol
 _atom_site_label
 _atom_site_symmetry_multiplicity
 _atom_site_fract_x
 _atom_site_fract_y
 _atom_site_fract_z
 _atom_site_occupancy
  Ca  Ca0  1  0.142886  0.271020  0.825910  1
  Ca  Ca1  1  0.857114  0.728980  0.174090  1
  Ni  Ni2  1  0.352322  0.099821  0.223511  1
  Ni  Ni3  1  0.647678  0.900179  0.776489  1
  P  P4  1  0.856657  0.228501  0.248362  1
  P  P5  1  0.143343  0.771499  0.751638  1
  P  P6  1  0.373518  0.642484  0.331898  1
  P  P7  1  0.626482  0.357516  0.668102  1
  O  O8  1  0.222118  0.610267  0.520377  1
  O  O9  1  0.777882  0.389733  0.479623  1
  O  O10  1  0.027333  0.100810  0.279458  1
  O  O11  1  0.972667  0.899190  0.720542  1
  O  O12  1  0.410541  0.253743  0.561550  1
  O  O13  1  0.589459  0.746257  0.438450  1
  O  O14  1  0.625004  0.598919  0.838207  1
  O  O15  1  0.374996  0.401081  0.161793  1
  O  O16  1  0.067930  0.616097  0.862619  1
  O  O17  1  0.932070  0.383903  0.137381  1
  O  O18  1  0.330734  0.949767  0.867034  1
  O  O19  1  0.669266  0.050233  0.132966  1
  O  O20  1  0.726911  0.205365  0.746142  1
  O  O21  1  0.273089  0.794635  0.253858  1
