# generated using pymatgen
data_VAgHgO4
_symmetry_space_group_name_H-M   'P 1'
_cell_length_a   5.98797199
_cell_length_b   5.98797199
_cell_length_c   7.25409111
_cell_angle_alpha   81.98051476
_cell_angle_beta   98.01948524
_cell_angle_gamma   124.41779436
_symmetry_Int_Tables_number   1
_chemical_formula_structural   VAgHgO4
_chemical_formula_sum   'V2 Ag2 Hg2 O8'
_cell_volume   211.88257833
_cell_formula_units_Z   2
loop_
 _symmetry_equiv_pos_site_id
 _symmetry_equiv_pos_as_xyz
  1  'x, y, z'
loop_
 _atom_site_type_symbol
 _atom_site_label
 _atom_site_symmetry_multiplicity
 _atom_site_fract_x
 _atom_site_fract_y
 _atom_site_fract_z
 _atom_site_occupancy
  V  V0  1  0.690221  0.316640  0.230052  1
  V  V1  1  0.316640  0.690221  0.769948  1
  Ag  Ag2  1  0.627961  0.351884  0.721458  1
  Ag  Ag3  1  0.351884  0.627961  0.278542  1
  Hg  Hg4  1  0.008892  0.008892  0.000000  1
  Hg  Hg5  1  0.972871  0.972871  0.500000  1
  O  O6  1  0.487448  0.219973  0.025009  1
  O  O7  1  0.219973  0.487448  0.974991  1
  O  O8  1  0.263771  0.501187  0.592240  1
  O  O9  1  0.501187  0.263771  0.407760  1
  O  O10  1  0.807436  0.085659  0.267592  1
  O  O11  1  0.085659  0.807436  0.732408  1
  O  O12  1  0.664938  0.950718  0.788109  1
  O  O13  1  0.950718  0.664938  0.211891  1
