# generated using pymatgen
data_HoAsO4
_symmetry_space_group_name_H-M   'P 1'
_cell_length_a   5.95236504
_cell_length_b   5.95236504
_cell_length_c   5.95236504
_cell_angle_alpha   106.48982441
_cell_angle_beta   106.48982441
_cell_angle_gamma   115.61424096
_symmetry_Int_Tables_number   1
_chemical_formula_structural   HoAsO4
_chemical_formula_sum   'Ho2 As2 O8'
_cell_volume   160.93345268
_cell_formula_units_Z   2
loop_
 _symmetry_equiv_pos_site_id
 _symmetry_equiv_pos_as_xyz
  1  'x, y, z'
loop_
 _atom_site_type_symbol
 _atom_site_label
 _atom_site_symmetry_multiplicity
 _atom_site_fract_x
 _atom_site_fract_y
 _atom_site_fract_z
 _atom_site_occupancy
  Ho  Ho0  1  1.000000  1.000000  0.000000  1
  Ho  Ho1  1  0.250000  0.750000  0.500000  1
  As  As2  1  0.750000  0.250000  0.500000  1
  As  As3  1  0.500000  0.500000  0.000000  1
  O  O4  1  0.860098  0.678235  0.181863  1
  O  O5  1  0.928235  0.246373  0.318137  1
  O  O6  1  0.928235  0.610098  0.681863  1
  O  O7  1  0.496373  0.678235  0.818137  1
  O  O8  1  0.321765  0.503627  0.181863  1
  O  O9  1  0.389902  0.071765  0.318137  1
  O  O10  1  0.753627  0.071765  0.681863  1
  O  O11  1  0.321765  0.139902  0.818137  1
