# generated using pymatgen
data_Ba5Yb8Zn4O21
_symmetry_space_group_name_H-M   'P 1'
_cell_length_a   10.19307691
_cell_length_b   10.19307691
_cell_length_c   10.19307691
_cell_angle_alpha   94.44610221
_cell_angle_beta   94.44610221
_cell_angle_gamma   147.66737898
_symmetry_Int_Tables_number   1
_chemical_formula_structural   Ba5Yb8Zn4O21
_chemical_formula_sum   'Ba5 Yb8 Zn4 O21'
_cell_volume   544.01727729
_cell_formula_units_Z   1
loop_
 _symmetry_equiv_pos_site_id
 _symmetry_equiv_pos_as_xyz
  1  'x, y, z'
loop_
 _atom_site_type_symbol
 _atom_site_label
 _atom_site_symmetry_multiplicity
 _atom_site_fract_x
 _atom_site_fract_y
 _atom_site_fract_z
 _atom_site_occupancy
  Ba  Ba0  1  0.144105  0.466918  0.611023  1
  Ba  Ba1  1  0.533082  0.144105  0.677187  1
  Ba  Ba2  1  0.466918  0.855895  0.322813  1
  Ba  Ba3  1  0.855895  0.533082  0.388977  1
  Ba  Ba4  1  0.000000  0.000000  0.000000  1
  Yb  Yb5  1  0.360078  0.591500  0.951578  1
  Yb  Yb6  1  0.408500  0.360078  0.768578  1
  Yb  Yb7  1  0.591500  0.639922  0.231422  1
  Yb  Yb8  1  0.639922  0.408500  0.048422  1
  Yb  Yb9  1  0.166932  0.750216  0.917148  1
  Yb  Yb10  1  0.249784  0.166932  0.416716  1
  Yb  Yb11  1  0.750216  0.833068  0.583284  1
  Yb  Yb12  1  0.833068  0.249784  0.082852  1
  Zn  Zn13  1  0.245704  0.957770  0.203474  1
  Zn  Zn14  1  0.042230  0.245704  0.287934  1
  Zn  Zn15  1  0.957770  0.754296  0.712066  1
  Zn  Zn16  1  0.754296  0.042230  0.796526  1
  O  O17  1  0.501865  0.094665  0.117456  1
  O  O18  1  0.384409  0.501865  0.407200  1
  O  O19  1  0.094665  0.977209  0.592800  1
  O  O20  1  0.977209  0.384409  0.882544  1
  O  O21  1  0.498135  0.905335  0.882544  1
  O  O22  1  0.615591  0.498135  0.592800  1
  O  O23  1  0.905335  0.022791  0.407200  1
  O  O24  1  0.022791  0.615591  0.117456  1
  O  O25  1  0.715831  0.937318  0.137979  1
  O  O26  1  0.577853  0.715831  0.778513  1
  O  O27  1  0.937318  0.799340  0.221487  1
  O  O28  1  0.799340  0.577853  0.862021  1
  O  O29  1  0.284169  0.062682  0.862021  1
  O  O30  1  0.422147  0.284169  0.221487  1
  O  O31  1  0.062682  0.200660  0.778513  1
  O  O32  1  0.200660  0.422147  0.137979  1
  O  O33  1  0.968862  0.372605  0.341467  1
  O  O34  1  0.500000  0.500000  0.000000  1
  O  O35  1  0.031138  0.627395  0.658533  1
  O  O36  1  0.372605  0.031138  0.403743  1
  O  O37  1  0.627395  0.968862  0.596257  1
