# generated using pymatgen
data_KSbO3
_symmetry_space_group_name_H-M   'P 1'
_cell_length_a   9.74887071
_cell_length_b   9.74887071
_cell_length_c   9.74887071
_cell_angle_alpha   90.00000000
_cell_angle_beta   90.00000000
_cell_angle_gamma   90.00000000
_symmetry_Int_Tables_number   1
_chemical_formula_structural   KSbO3
_chemical_formula_sum   'K12 Sb12 O36'
_cell_volume   926.53735291
_cell_formula_units_Z   12
loop_
 _symmetry_equiv_pos_site_id
 _symmetry_equiv_pos_as_xyz
  1  'x, y, z'
loop_
 _atom_site_type_symbol
 _atom_site_label
 _atom_site_symmetry_multiplicity
 _atom_site_fract_x
 _atom_site_fract_y
 _atom_site_fract_z
 _atom_site_occupancy
  K  K0  1  0.750000  0.750000  0.750000  1
  K  K1  1  0.250000  0.250000  0.750000  1
  K  K2  1  0.750000  0.250000  0.250000  1
  K  K3  1  0.250000  0.750000  0.250000  1
  K  K4  1  0.153054  0.153054  0.153054  1
  K  K5  1  0.846946  0.846946  0.153054  1
  K  K6  1  0.153054  0.846946  0.846946  1
  K  K7  1  0.846946  0.153054  0.846946  1
  K  K8  1  0.346946  0.346946  0.346946  1
  K  K9  1  0.653054  0.653054  0.346946  1
  K  K10  1  0.346946  0.653054  0.653054  1
  K  K11  1  0.653054  0.346946  0.653054  1
  Sb  Sb12  1  0.342675  0.500000  0.000000  1
  Sb  Sb13  1  0.000000  0.342675  0.500000  1
  Sb  Sb14  1  0.500000  0.000000  0.342675  1
  Sb  Sb15  1  0.000000  0.657325  0.500000  1
  Sb  Sb16  1  0.500000  0.000000  0.657325  1
  Sb  Sb17  1  0.657325  0.500000  0.000000  1
  Sb  Sb18  1  0.157325  0.000000  0.500000  1
  Sb  Sb19  1  0.500000  0.157325  0.000000  1
  Sb  Sb20  1  0.000000  0.500000  0.157325  1
  Sb  Sb21  1  0.500000  0.842675  0.000000  1
  Sb  Sb22  1  0.000000  0.500000  0.842675  1
  Sb  Sb23  1  0.842675  0.000000  0.500000  1
  O  O24  1  0.789587  0.503305  0.156519  1
  O  O25  1  0.789587  0.496695  0.843481  1
  O  O26  1  0.210413  0.503305  0.843481  1
  O  O27  1  0.496695  0.843481  0.789587  1
  O  O28  1  0.843481  0.210413  0.503305  1
  O  O29  1  0.843481  0.789587  0.496695  1
  O  O30  1  0.503305  0.156519  0.789587  1
  O  O31  1  0.156519  0.789587  0.503305  1
  O  O32  1  0.503305  0.843481  0.210413  1
  O  O33  1  0.496695  0.156519  0.210413  1
  O  O34  1  0.156519  0.210413  0.496695  1
  O  O35  1  0.210413  0.496695  0.156519  1
  O  O36  1  0.710413  0.996695  0.343481  1
  O  O37  1  0.710413  0.003305  0.656519  1
  O  O38  1  0.861903  0.500000  0.500000  1
  O  O39  1  0.289587  0.996695  0.656519  1
  O  O40  1  0.656519  0.289587  0.996695  1
  O  O41  1  0.656519  0.710413  0.003305  1
  O  O42  1  0.996695  0.343481  0.710413  1
  O  O43  1  0.343481  0.710413  0.996695  1
  O  O44  1  0.996695  0.656519  0.289587  1
  O  O45  1  0.003305  0.343481  0.289587  1
  O  O46  1  0.343481  0.289587  0.003305  1
  O  O47  1  0.289587  0.003305  0.343481  1
  O  O48  1  0.361903  0.000000  0.000000  1
  O  O49  1  0.000000  0.361903  0.000000  1
  O  O50  1  0.000000  0.000000  0.361903  1
  O  O51  1  0.000000  0.638097  0.000000  1
  O  O52  1  0.000000  0.000000  0.638097  1
  O  O53  1  0.638097  0.000000  0.000000  1
  O  O54  1  0.138097  0.500000  0.500000  1
  O  O55  1  0.500000  0.138097  0.500000  1
  O  O56  1  0.500000  0.500000  0.138097  1
  O  O57  1  0.500000  0.861903  0.500000  1
  O  O58  1  0.500000  0.500000  0.861903  1
  O  O59  1  0.003305  0.656519  0.710413  1
