# generated using pymatgen
data_SnHgO3
_symmetry_space_group_name_H-M   'P 1'
_cell_length_a   5.76721684
_cell_length_b   5.76721684
_cell_length_c   5.76721684
_cell_angle_alpha   58.93092295
_cell_angle_beta   58.93092295
_cell_angle_gamma   58.93092295
_symmetry_Int_Tables_number   1
_chemical_formula_structural   SnHgO3
_chemical_formula_sum   'Sn2 Hg2 O6'
_cell_volume   132.32973248
_cell_formula_units_Z   2
loop_
 _symmetry_equiv_pos_site_id
 _symmetry_equiv_pos_as_xyz
  1  'x, y, z'
loop_
 _atom_site_type_symbol
 _atom_site_label
 _atom_site_symmetry_multiplicity
 _atom_site_fract_x
 _atom_site_fract_y
 _atom_site_fract_z
 _atom_site_occupancy
  Sn  Sn0  1  0.500000  0.500000  0.500000  1
  Sn  Sn1  1  0.000000  0.000000  0.000000  1
  Hg  Hg2  1  0.250000  0.250000  0.250000  1
  Hg  Hg3  1  0.750000  0.750000  0.750000  1
  O  O4  1  0.250000  0.646489  0.853511  1
  O  O5  1  0.646489  0.853511  0.250000  1
  O  O6  1  0.853511  0.250000  0.646489  1
  O  O7  1  0.750000  0.353511  0.146489  1
  O  O8  1  0.146489  0.750000  0.353511  1
  O  O9  1  0.353511  0.146489  0.750000  1
