# generated using pymatgen
data_CaGa4
_symmetry_space_group_name_H-M   'P 1'
_cell_length_a   6.22506396
_cell_length_b   6.22506396
_cell_length_c   6.22506396
_cell_angle_alpha   138.74312566
_cell_angle_beta   138.74312566
_cell_angle_gamma   59.76675212
_symmetry_Int_Tables_number   1
_chemical_formula_structural   CaGa4
_chemical_formula_sum   'Ca1 Ga4'
_cell_volume   103.84170412
_cell_formula_units_Z   1
loop_
 _symmetry_equiv_pos_site_id
 _symmetry_equiv_pos_as_xyz
  1  'x, y, z'
loop_
 _atom_site_type_symbol
 _atom_site_label
 _atom_site_symmetry_multiplicity
 _atom_site_fract_x
 _atom_site_fract_y
 _atom_site_fract_z
 _atom_site_occupancy
  Ca  Ca0  1  0.000000  0.000000  0.000000  1
  Ga  Ga1  1  0.250000  0.750000  0.500000  1
  Ga  Ga2  1  0.750000  0.250000  0.500000  1
  Ga  Ga3  1  0.385159  0.385159  0.000000  1
  Ga  Ga4  1  0.614841  0.614841  0.000000  1
