# generated using pymatgen
data_Ce2(ZnGe2)3
_symmetry_space_group_name_H-M   'P 1'
_cell_length_a   12.53333615
_cell_length_b   12.53333615
_cell_length_c   5.99453719
_cell_angle_alpha   90.00000000
_cell_angle_beta   90.00000000
_cell_angle_gamma   152.31473193
_symmetry_Int_Tables_number   1
_chemical_formula_structural   Ce2(ZnGe2)3
_chemical_formula_sum   'Ce4 Zn6 Ge12'
_cell_volume   437.50364879
_cell_formula_units_Z   2
loop_
 _symmetry_equiv_pos_site_id
 _symmetry_equiv_pos_as_xyz
  1  'x, y, z'
loop_
 _atom_site_type_symbol
 _atom_site_label
 _atom_site_symmetry_multiplicity
 _atom_site_fract_x
 _atom_site_fract_y
 _atom_site_fract_z
 _atom_site_occupancy
  Ce  Ce0  1  0.106565  0.893435  0.750000  1
  Ce  Ce1  1  0.893435  0.106565  0.250000  1
  Ce  Ce2  1  0.605685  0.394315  0.250000  1
  Ce  Ce3  1  0.394315  0.605685  0.750000  1
  Zn  Zn4  1  0.768987  0.768987  0.000000  1
  Zn  Zn5  1  0.660513  0.339487  0.750000  1
  Zn  Zn6  1  0.768987  0.768987  0.500000  1
  Zn  Zn7  1  0.231013  0.231013  1.000000  1
  Zn  Zn8  1  0.339487  0.660513  0.250000  1
  Zn  Zn9  1  0.231013  0.231013  0.500000  1
  Ge  Ge10  1  0.983589  0.583787  0.033879  1
  Ge  Ge11  1  0.016411  0.416213  0.533879  1
  Ge  Ge12  1  0.416213  0.016411  0.033879  1
  Ge  Ge13  1  0.583787  0.983589  0.533879  1
  Ge  Ge14  1  0.016411  0.416213  0.966121  1
  Ge  Ge15  1  0.983589  0.583787  0.466121  1
  Ge  Ge16  1  0.583787  0.983589  0.966121  1
  Ge  Ge17  1  0.442559  0.557441  0.250000  1
  Ge  Ge18  1  0.927782  0.072218  0.750000  1
  Ge  Ge19  1  0.072218  0.927782  0.250000  1
  Ge  Ge20  1  0.557441  0.442559  0.750000  1
  Ge  Ge21  1  0.416213  0.016411  0.466121  1
