# generated using pymatgen
data_Sr5Ge3
_symmetry_space_group_name_H-M   'P 1'
_cell_length_a   9.85454118
_cell_length_b   9.85454118
_cell_length_c   9.85454118
_cell_angle_alpha   130.99076280
_cell_angle_beta   130.99076280
_cell_angle_gamma   71.82775542
_symmetry_Int_Tables_number   1
_chemical_formula_structural   Sr5Ge3
_chemical_formula_sum   'Sr10 Ge6'
_cell_volume   533.34463983
_cell_formula_units_Z   2
loop_
 _symmetry_equiv_pos_site_id
 _symmetry_equiv_pos_as_xyz
  1  'x, y, z'
loop_
 _atom_site_type_symbol
 _atom_site_label
 _atom_site_symmetry_multiplicity
 _atom_site_fract_x
 _atom_site_fract_y
 _atom_site_fract_z
 _atom_site_occupancy
  Sr  Sr0  1  0.037525  0.180893  0.500000  1
  Sr  Sr1  1  0.537525  0.037525  0.856632  1
  Sr  Sr2  1  0.180893  0.680893  0.143368  1
  Sr  Sr3  1  0.462475  0.962475  0.143368  1
  Sr  Sr4  1  0.680893  0.537525  0.500000  1
  Sr  Sr5  1  0.962475  0.819107  0.500000  1
  Sr  Sr6  1  0.319107  0.462475  0.500000  1
  Sr  Sr7  1  0.819107  0.319107  0.856632  1
  Sr  Sr8  1  0.500000  0.500000  0.000000  1
  Sr  Sr9  1  0.000000  0.000000  0.000000  1
  Ge  Ge10  1  0.113726  0.613726  0.727453  1
  Ge  Ge11  1  0.613726  0.886274  0.500000  1
  Ge  Ge12  1  0.386274  0.113726  0.500000  1
  Ge  Ge13  1  0.886274  0.386274  0.272547  1
  Ge  Ge14  1  0.750000  0.750000  0.000000  1
  Ge  Ge15  1  0.250000  0.250000  0.000000  1
