# generated using pymatgen
data_YMnO3
_symmetry_space_group_name_H-M   'P 1'
_cell_length_a   6.23302198
_cell_length_b   6.23302198
_cell_length_c   11.58909017
_cell_angle_alpha   90.00000000
_cell_angle_beta   90.00000000
_cell_angle_gamma   120.00000000
_symmetry_Int_Tables_number   1
_chemical_formula_structural   YMnO3
_chemical_formula_sum   'Y6 Mn6 O18'
_cell_volume   389.92159700
_cell_formula_units_Z   6
loop_
 _symmetry_equiv_pos_site_id
 _symmetry_equiv_pos_as_xyz
  1  'x, y, z'
loop_
 _atom_site_type_symbol
 _atom_site_label
 _atom_site_symmetry_multiplicity
 _atom_site_fract_x
 _atom_site_fract_y
 _atom_site_fract_z
 _atom_site_occupancy
  Y  Y0  1  0.666667  0.333333  0.233045  1
  Y  Y1  1  0.333333  0.666667  0.733045  1
  Y  Y2  1  0.666667  0.333333  0.733045  1
  Y  Y3  1  0.333333  0.666667  0.233045  1
  Y  Y4  1  0.000000  0.000000  0.775978  1
  Y  Y5  1  0.000000  0.000000  0.275978  1
  Mn  Mn6  1  0.666399  0.000000  0.501375  1
  Mn  Mn7  1  0.666399  0.666399  0.001375  1
  Mn  Mn8  1  0.000000  0.333601  0.001375  1
  Mn  Mn9  1  0.000000  0.666399  0.501375  1
  Mn  Mn10  1  0.333601  0.333601  0.501375  1
  Mn  Mn11  1  0.333601  0.000000  0.001375  1
  O  O12  1  0.666667  0.333333  0.021222  1
  O  O13  1  0.333333  0.666667  0.521222  1
  O  O14  1  0.666667  0.333333  0.521222  1
  O  O15  1  0.333333  0.666667  0.021222  1
  O  O16  1  0.000000  0.000000  0.977540  1
  O  O17  1  0.000000  0.000000  0.477540  1
  O  O18  1  0.358595  0.000000  0.837277  1
  O  O19  1  0.358595  0.358595  0.337277  1
  O  O20  1  0.000000  0.641405  0.337277  1
  O  O21  1  0.000000  0.358595  0.837277  1
  O  O22  1  0.641405  0.641405  0.837277  1
  O  O23  1  0.641405  0.000000  0.337277  1
  O  O24  1  0.307715  0.000000  0.165664  1
  O  O25  1  0.307715  0.307715  0.665664  1
  O  O26  1  0.000000  0.692285  0.665664  1
  O  O27  1  0.000000  0.307715  0.165664  1
  O  O28  1  0.692285  0.692285  0.165664  1
  O  O29  1  0.692285  0.000000  0.665664  1
