# generated using pymatgen
data_Ta2Tl4S11
_symmetry_space_group_name_H-M   'P 1'
_cell_length_a   8.21035563
_cell_length_b   9.19632068
_cell_length_c   13.49371703
_cell_angle_alpha   107.74607604
_cell_angle_beta   89.19912766
_cell_angle_gamma   95.10476496
_symmetry_Int_Tables_number   1
_chemical_formula_structural   Ta2Tl4S11
_chemical_formula_sum   'Ta4 Tl8 S22'
_cell_volume   966.42243018
_cell_formula_units_Z   2
loop_
 _symmetry_equiv_pos_site_id
 _symmetry_equiv_pos_as_xyz
  1  'x, y, z'
loop_
 _atom_site_type_symbol
 _atom_site_label
 _atom_site_symmetry_multiplicity
 _atom_site_fract_x
 _atom_site_fract_y
 _atom_site_fract_z
 _atom_site_occupancy
  Ta  Ta0  1  0.333592  0.887712  0.191678  1
  Ta  Ta1  1  0.666408  0.112288  0.808322  1
  Ta  Ta2  1  0.125965  0.641300  0.306558  1
  Ta  Ta3  1  0.874035  0.358700  0.693442  1
  Tl  Tl4  1  0.230924  0.577822  0.585112  1
  Tl  Tl5  1  0.769076  0.422178  0.414888  1
  Tl  Tl6  1  0.498392  0.739050  0.890889  1
  Tl  Tl7  1  0.501608  0.260950  0.109111  1
  Tl  Tl8  1  0.212481  0.034070  0.575349  1
  Tl  Tl9  1  0.787519  0.965930  0.424651  1
  Tl  Tl10  1  0.046371  0.240662  0.976100  1
  Tl  Tl11  1  0.953629  0.759338  0.023900  1
  S  S12  1  0.004057  0.288557  0.534388  1
  S  S13  1  0.995943  0.711443  0.465612  1
  S  S14  1  0.385211  0.811382  0.371889  1
  S  S15  1  0.614789  0.188618  0.628111  1
  S  S16  1  0.048301  0.364003  0.248971  1
  S  S17  1  0.951699  0.635997  0.751029  1
  S  S18  1  0.096993  0.506226  0.811683  1
  S  S19  1  0.903007  0.493774  0.188317  1
  S  S20  1  0.389590  0.578030  0.354198  1
  S  S21  1  0.610410  0.421970  0.645802  1
  S  S22  1  0.362650  0.129533  0.332125  1
  S  S23  1  0.637350  0.870467  0.667875  1
  S  S24  1  0.727013  0.043699  0.953867  1
  S  S25  1  0.272987  0.956301  0.046133  1
  S  S26  1  0.514810  0.685385  0.119925  1
  S  S27  1  0.485190  0.314615  0.880075  1
  S  S28  1  0.730610  0.395928  0.885147  1
  S  S29  1  0.269390  0.604072  0.114853  1
  S  S30  1  0.952826  0.135170  0.746639  1
  S  S31  1  0.047174  0.864830  0.253361  1
  S  S32  1  0.580552  0.068485  0.254604  1
  S  S33  1  0.419448  0.931515  0.745396  1
