# generated using pymatgen
data_Li3Ge3(MoO6)2
_symmetry_space_group_name_H-M   'P 1'
_cell_length_a   10.71896568
_cell_length_b   10.71896568
_cell_length_c   10.71896568
_cell_angle_alpha   109.47122063
_cell_angle_beta   109.47122063
_cell_angle_gamma   109.47122063
_symmetry_Int_Tables_number   1
_chemical_formula_structural   Li3Ge3(MoO6)2
_chemical_formula_sum   'Li12 Ge12 Mo8 O48'
_cell_volume   948.06202289
_cell_formula_units_Z   4
loop_
 _symmetry_equiv_pos_site_id
 _symmetry_equiv_pos_as_xyz
  1  'x, y, z'
loop_
 _atom_site_type_symbol
 _atom_site_label
 _atom_site_symmetry_multiplicity
 _atom_site_fract_x
 _atom_site_fract_y
 _atom_site_fract_z
 _atom_site_occupancy
  Li  Li0  1  0.625000  0.250000  0.875000  1
  Li  Li1  1  0.875000  0.750000  0.625000  1
  Li  Li2  1  0.750000  0.625000  0.875000  1
  Li  Li3  1  0.250000  0.875000  0.625000  1
  Li  Li4  1  0.875000  0.625000  0.250000  1
  Li  Li5  1  0.625000  0.875000  0.750000  1
  Li  Li6  1  0.375000  0.750000  0.125000  1
  Li  Li7  1  0.125000  0.250000  0.375000  1
  Li  Li8  1  0.250000  0.375000  0.125000  1
  Li  Li9  1  0.750000  0.125000  0.375000  1
  Li  Li10  1  0.125000  0.375000  0.750000  1
  Li  Li11  1  0.375000  0.125000  0.250000  1
  Ge  Ge12  1  0.875000  0.125000  0.750000  1
  Ge  Ge13  1  0.125000  0.875000  0.250000  1
  Ge  Ge14  1  0.250000  0.625000  0.375000  1
  Ge  Ge15  1  0.125000  0.750000  0.875000  1
  Ge  Ge16  1  0.750000  0.875000  0.125000  1
  Ge  Ge17  1  0.375000  0.250000  0.625000  1
  Ge  Ge18  1  0.625000  0.750000  0.375000  1
  Ge  Ge19  1  0.875000  0.250000  0.125000  1
  Ge  Ge20  1  0.250000  0.125000  0.875000  1
  Ge  Ge21  1  0.750000  0.375000  0.625000  1
  Ge  Ge22  1  0.375000  0.625000  0.750000  1
  Ge  Ge23  1  0.625000  0.375000  0.250000  1
  Mo  Mo24  1  0.500000  0.500000  0.500000  1
  Mo  Mo25  1  0.500000  0.500000  0.000000  1
  Mo  Mo26  1  0.500000  1.000000  0.500000  1
  Mo  Mo27  1  1.000000  0.500000  0.500000  1
  Mo  Mo28  1  0.500000  1.000000  0.000000  1
  Mo  Mo29  1  1.000000  1.000000  0.500000  1
  Mo  Mo30  1  1.000000  0.500000  0.000000  1
  Mo  Mo31  1  1.000000  1.000000  0.000000  1
  O  O32  1  0.797926  0.416608  0.814674  1
  O  O33  1  0.083392  0.881318  0.398067  1
  O  O34  1  0.685326  0.101933  0.983252  1
  O  O35  1  0.702074  0.516748  0.618682  1
  O  O36  1  0.702074  0.685326  0.083392  1
  O  O37  1  0.516748  0.618682  0.702074  1
  O  O38  1  0.101933  0.618682  0.416608  1
  O  O39  1  0.618682  0.702074  0.516748  1
  O  O40  1  0.398067  0.814674  0.516748  1
  O  O41  1  0.881318  0.983252  0.797926  1
  O  O42  1  0.983252  0.797926  0.881318  1
  O  O43  1  0.083392  0.702074  0.685326  1
  O  O44  1  0.618682  0.416608  0.101933  1
  O  O45  1  0.516748  0.398067  0.814674  1
  O  O46  1  0.685326  0.083392  0.702074  1
  O  O47  1  0.416608  0.101933  0.618682  1
  O  O48  1  0.814674  0.516748  0.398067  1
  O  O49  1  0.398067  0.083392  0.881318  1
  O  O50  1  0.101933  0.983252  0.685326  1
  O  O51  1  0.601933  0.185326  0.483252  1
  O  O52  1  0.983252  0.685326  0.101933  1
  O  O53  1  0.814674  0.797926  0.416608  1
  O  O54  1  0.881318  0.398067  0.083392  1
  O  O55  1  0.797926  0.881318  0.983252  1
  O  O56  1  0.202074  0.583392  0.185326  1
  O  O57  1  0.916608  0.118682  0.601933  1
  O  O58  1  0.314674  0.898067  0.016748  1
  O  O59  1  0.297926  0.483252  0.381318  1
  O  O60  1  0.297926  0.314674  0.916608  1
  O  O61  1  0.483252  0.381318  0.297926  1
  O  O62  1  0.898067  0.381318  0.583392  1
  O  O63  1  0.381318  0.297926  0.483252  1
  O  O64  1  0.202074  0.118682  0.016748  1
  O  O65  1  0.118682  0.601933  0.916608  1
  O  O66  1  0.185326  0.202074  0.583392  1
  O  O67  1  0.583392  0.185326  0.202074  1
  O  O68  1  0.016748  0.314674  0.898067  1
  O  O69  1  0.898067  0.016748  0.314674  1
  O  O70  1  0.601933  0.916608  0.118682  1
  O  O71  1  0.185326  0.483252  0.601933  1
  O  O72  1  0.583392  0.898067  0.381318  1
  O  O73  1  0.314674  0.916608  0.297926  1
  O  O74  1  0.483252  0.601933  0.185326  1
  O  O75  1  0.381318  0.583392  0.898067  1
  O  O76  1  0.916608  0.297926  0.314674  1
  O  O77  1  0.016748  0.202074  0.118682  1
  O  O78  1  0.118682  0.016748  0.202074  1
  O  O79  1  0.416608  0.814674  0.797926  1
