# generated using pymatgen
data_Ag2Te2O7
_symmetry_space_group_name_H-M   'P 1'
_cell_length_a   7.45075959
_cell_length_b   7.45075959
_cell_length_c   7.45075959
_cell_angle_alpha   120.30112187
_cell_angle_beta   117.86992534
_cell_angle_gamma   91.60389606
_symmetry_Int_Tables_number   1
_chemical_formula_structural   Ag2Te2O7
_chemical_formula_sum   'Ag4 Te4 O14'
_cell_volume   296.22938990
_cell_formula_units_Z   2
loop_
 _symmetry_equiv_pos_site_id
 _symmetry_equiv_pos_as_xyz
  1  'x, y, z'
loop_
 _atom_site_type_symbol
 _atom_site_label
 _atom_site_symmetry_multiplicity
 _atom_site_fract_x
 _atom_site_fract_y
 _atom_site_fract_z
 _atom_site_occupancy
  Ag  Ag0  1  0.500000  0.000000  0.500000  1
  Ag  Ag1  1  0.000000  0.500000  0.500000  1
  Ag  Ag2  1  0.500000  0.500000  0.500000  1
  Ag  Ag3  1  0.500000  0.000000  0.000000  1
  Te  Te4  1  0.000000  0.000000  0.000000  1
  Te  Te5  1  0.500000  0.500000  0.000000  1
  Te  Te6  1  0.000000  0.500000  0.000000  1
  Te  Te7  1  0.000000  0.000000  0.500000  1
  O  O8  1  0.951440  0.676250  0.867053  1
  O  O9  1  0.048560  0.915613  0.724810  1
  O  O10  1  0.690803  0.823750  0.275190  1
  O  O11  1  0.309197  0.584387  0.132947  1
  O  O12  1  0.048560  0.323750  0.132947  1
  O  O13  1  0.951440  0.084387  0.275190  1
  O  O14  1  0.309197  0.176250  0.724810  1
  O  O15  1  0.690803  0.415613  0.867053  1
  O  O16  1  0.909107  0.250000  0.659107  1
  O  O17  1  0.090893  0.750000  0.340893  1
  O  O18  1  0.305170  0.085783  0.219387  1
  O  O19  1  0.694830  0.914217  0.780613  1
  O  O20  1  0.633605  0.414217  0.219387  1
  O  O21  1  0.366395  0.585783  0.780613  1
