# generated using pymatgen
data_BaCr(Si2O5)2
_symmetry_space_group_name_H-M   'P 1'
_cell_length_a   7.64082800
_cell_length_b   7.64082800
_cell_length_c   16.43155800
_cell_angle_alpha   90.00000000
_cell_angle_beta   90.00000000
_cell_angle_gamma   90.00000000
_symmetry_Int_Tables_number   1
_chemical_formula_structural   BaCr(Si2O5)2
_chemical_formula_sum   'Ba4 Cr4 Si16 O40'
_cell_volume   959.31136854
_cell_formula_units_Z   4
loop_
 _symmetry_equiv_pos_site_id
 _symmetry_equiv_pos_as_xyz
  1  'x, y, z'
loop_
 _atom_site_type_symbol
 _atom_site_label
 _atom_site_symmetry_multiplicity
 _atom_site_fract_x
 _atom_site_fract_y
 _atom_site_fract_z
 _atom_site_occupancy
  Ba  Ba0  1  0.500000  0.500000  0.500000  1
  Ba  Ba1  1  0.000000  0.000000  0.500000  1
  Ba  Ba2  1  0.000000  0.000000  0.000000  1
  Ba  Ba3  1  0.500000  0.500000  0.000000  1
  Cr  Cr4  1  0.500000  0.000000  0.594331  1
  Cr  Cr5  1  0.000000  0.500000  0.905669  1
  Cr  Cr6  1  0.000000  0.500000  0.405669  1
  Cr  Cr7  1  0.500000  0.000000  0.094331  1
  Si  Si8  1  0.182181  0.267184  0.655130  1
  Si  Si9  1  0.817819  0.732816  0.655130  1
  Si  Si10  1  0.267184  0.182181  0.844870  1
  Si  Si11  1  0.767184  0.317819  0.655130  1
  Si  Si12  1  0.232816  0.682181  0.655130  1
  Si  Si13  1  0.317819  0.767184  0.844870  1
  Si  Si14  1  0.682181  0.232816  0.844870  1
  Si  Si15  1  0.732816  0.817819  0.844870  1
  Si  Si16  1  0.317819  0.232816  0.344870  1
  Si  Si17  1  0.682181  0.767184  0.344870  1
  Si  Si18  1  0.232816  0.317819  0.155130  1
  Si  Si19  1  0.732816  0.182181  0.344870  1
  Si  Si20  1  0.267184  0.817819  0.344870  1
  Si  Si21  1  0.182181  0.732816  0.155130  1
  Si  Si22  1  0.817819  0.267184  0.155130  1
  Si  Si23  1  0.767184  0.682181  0.155130  1
  O  O24  1  0.270874  0.136022  0.591189  1
  O  O25  1  0.729126  0.863978  0.591189  1
  O  O26  1  0.136022  0.270874  0.908811  1
  O  O27  1  0.636022  0.229126  0.591189  1
  O  O28  1  0.363978  0.770874  0.591189  1
  O  O29  1  0.229126  0.636022  0.908811  1
  O  O30  1  0.770874  0.363978  0.908811  1
  O  O31  1  0.863978  0.729126  0.908811  1
  O  O32  1  0.229126  0.363978  0.408811  1
  O  O33  1  0.770874  0.636022  0.408811  1
  O  O34  1  0.363978  0.229126  0.091189  1
  O  O35  1  0.863978  0.270874  0.408811  1
  O  O36  1  0.136022  0.729126  0.408811  1
  O  O37  1  0.270874  0.863978  0.091189  1
  O  O38  1  0.729126  0.136022  0.091189  1
  O  O39  1  0.254341  0.030296  0.362250  1
  O  O40  1  0.636022  0.770874  0.091189  1
  O  O41  1  0.754341  0.530296  0.637750  1
  O  O42  1  0.469704  0.245659  0.862250  1
  O  O43  1  0.969704  0.254341  0.637750  1
  O  O44  1  0.030296  0.745659  0.637750  1
  O  O45  1  0.254341  0.969704  0.862250  1
  O  O46  1  0.745659  0.030296  0.862250  1
  O  O47  1  0.530296  0.754341  0.862250  1
  O  O48  1  0.720847  0.720847  0.250000  1
  O  O49  1  0.779153  0.220847  0.250000  1
  O  O50  1  0.220847  0.779153  0.250000  1
  O  O51  1  0.279153  0.279153  0.250000  1
  O  O52  1  0.779153  0.779153  0.750000  1
  O  O53  1  0.720847  0.279153  0.750000  1
  O  O54  1  0.279153  0.720847  0.750000  1
  O  O55  1  0.220847  0.220847  0.750000  1
  O  O56  1  0.969704  0.745659  0.137750  1
  O  O57  1  0.754341  0.469704  0.137750  1
  O  O58  1  0.245659  0.530296  0.137750  1
  O  O59  1  0.469704  0.754341  0.362250  1
  O  O60  1  0.530296  0.245659  0.362250  1
  O  O61  1  0.030296  0.254341  0.137750  1
  O  O62  1  0.745659  0.969704  0.362250  1
  O  O63  1  0.245659  0.469704  0.637750  1
