# generated using pymatgen
data_CaCd2
_symmetry_space_group_name_H-M   'P 1'
_cell_length_a   6.10597236
_cell_length_b   6.10597236
_cell_length_c   9.63003862
_cell_angle_alpha   90.00000000
_cell_angle_beta   90.00000000
_cell_angle_gamma   120.00000000
_symmetry_Int_Tables_number   1
_chemical_formula_structural   CaCd2
_chemical_formula_sum   'Ca4 Cd8'
_cell_volume   310.93408220
_cell_formula_units_Z   4
loop_
 _symmetry_equiv_pos_site_id
 _symmetry_equiv_pos_as_xyz
  1  'x, y, z'
loop_
 _atom_site_type_symbol
 _atom_site_label
 _atom_site_symmetry_multiplicity
 _atom_site_fract_x
 _atom_site_fract_y
 _atom_site_fract_z
 _atom_site_occupancy
  Ca  Ca0  1  0.333333  0.666667  0.060248  1
  Ca  Ca1  1  0.666667  0.333333  0.560248  1
  Ca  Ca2  1  0.666667  0.333333  0.939752  1
  Ca  Ca3  1  0.333333  0.666667  0.439752  1
  Cd  Cd4  1  0.000000  0.000000  0.000000  1
  Cd  Cd5  1  0.000000  0.000000  0.500000  1
  Cd  Cd6  1  0.341701  0.170850  0.250000  1
  Cd  Cd7  1  0.170850  0.341701  0.750000  1
  Cd  Cd8  1  0.170850  0.829150  0.750000  1
  Cd  Cd9  1  0.829150  0.170850  0.250000  1
  Cd  Cd10  1  0.829150  0.658299  0.250000  1
  Cd  Cd11  1  0.658299  0.829150  0.750000  1
