# generated using pymatgen
data_SrZn
_symmetry_space_group_name_H-M   'P 1'
_cell_length_a   4.60035500
_cell_length_b   6.39020774
_cell_length_c   8.68975262
_cell_angle_alpha   90.00000000
_cell_angle_beta   90.00000000
_cell_angle_gamma   90.00000000
_symmetry_Int_Tables_number   1
_chemical_formula_structural   SrZn
_chemical_formula_sum   'Sr4 Zn4'
_cell_volume   255.45460538
_cell_formula_units_Z   4
loop_
 _symmetry_equiv_pos_site_id
 _symmetry_equiv_pos_as_xyz
  1  'x, y, z'
loop_
 _atom_site_type_symbol
 _atom_site_label
 _atom_site_symmetry_multiplicity
 _atom_site_fract_x
 _atom_site_fract_y
 _atom_site_fract_z
 _atom_site_occupancy
  Sr  Sr0  1  0.750000  0.883489  0.821618  1
  Sr  Sr1  1  0.250000  0.116511  0.178382  1
  Sr  Sr2  1  0.250000  0.383489  0.678382  1
  Sr  Sr3  1  0.750000  0.616511  0.321618  1
  Zn  Zn4  1  0.750000  0.101259  0.472106  1
  Zn  Zn5  1  0.250000  0.898741  0.527894  1
  Zn  Zn6  1  0.250000  0.601259  0.027894  1
  Zn  Zn7  1  0.750000  0.398741  0.972106  1
