# generated using pymatgen
data_BaAl2Si3(NO)4
_symmetry_space_group_name_H-M   'P 1'
_cell_length_a   7.41806067
_cell_length_b   7.41806067
_cell_length_c   9.57923084
_cell_angle_alpha   90.00000000
_cell_angle_beta   90.00000000
_cell_angle_gamma   134.17459526
_symmetry_Int_Tables_number   1
_chemical_formula_structural   BaAl2Si3(NO)4
_chemical_formula_sum   'Ba2 Al4 Si6 N8 O8'
_cell_volume   378.06248581
_cell_formula_units_Z   2
loop_
 _symmetry_equiv_pos_site_id
 _symmetry_equiv_pos_as_xyz
  1  'x, y, z'
loop_
 _atom_site_type_symbol
 _atom_site_label
 _atom_site_symmetry_multiplicity
 _atom_site_fract_x
 _atom_site_fract_y
 _atom_site_fract_z
 _atom_site_occupancy
  Ba  Ba0  1  0.016710  0.983290  0.500997  1
  Ba  Ba1  1  0.983290  0.016710  0.000997  1
  Al  Al2  1  0.526546  0.473454  0.254934  1
  Al  Al3  1  0.473454  0.526546  0.754934  1
  Al  Al4  1  0.712813  0.287187  0.039034  1
  Al  Al5  1  0.287187  0.712813  0.539034  1
  Si  Si6  1  0.702382  0.297618  0.486176  1
  Si  Si7  1  0.297618  0.702382  0.986176  1
  Si  Si8  1  0.570889  0.917409  0.261460  1
  Si  Si9  1  0.082591  0.429111  0.261460  1
  Si  Si10  1  0.429111  0.082591  0.761460  1
  Si  Si11  1  0.917409  0.570889  0.761460  1
  N  N12  1  0.792419  0.207581  0.351087  1
  N  N13  1  0.207581  0.792419  0.851087  1
  N  N14  1  0.288054  0.711946  0.345868  1
  N  N15  1  0.711946  0.288054  0.845868  1
  N  N16  1  0.534925  0.956819  0.089153  1
  N  N17  1  0.043181  0.465075  0.089153  1
  N  N18  1  0.465075  0.043181  0.589153  1
  N  N19  1  0.956819  0.534925  0.589153  1
  O  O20  1  0.701030  0.801016  0.259485  1
  O  O21  1  0.198984  0.298970  0.259485  1
  O  O22  1  0.298970  0.198984  0.759485  1
  O  O23  1  0.801016  0.701030  0.759485  1
  O  O24  1  0.593528  0.406472  0.411209  1
  O  O25  1  0.406472  0.593528  0.911209  1
  O  O26  1  0.593685  0.406315  0.102798  1
  O  O27  1  0.406315  0.593685  0.602798  1
