# generated using pymatgen
data_Ba4Nd2Cd3Se10
_symmetry_space_group_name_H-M   'P 1'
_cell_length_a   9.84893131
_cell_length_b   9.84893131
_cell_length_c   28.05450140
_cell_angle_alpha   90.00000000
_cell_angle_beta   90.00000000
_cell_angle_gamma   154.17070995
_symmetry_Int_Tables_number   1
_chemical_formula_structural   Ba4Nd2Cd3Se10
_chemical_formula_sum   'Ba8 Nd4 Cd6 Se20'
_cell_volume   1185.65859088
_cell_formula_units_Z   2
loop_
 _symmetry_equiv_pos_site_id
 _symmetry_equiv_pos_as_xyz
  1  'x, y, z'
loop_
 _atom_site_type_symbol
 _atom_site_label
 _atom_site_symmetry_multiplicity
 _atom_site_fract_x
 _atom_site_fract_y
 _atom_site_fract_z
 _atom_site_occupancy
  Ba  Ba0  1  0.594237  0.405763  0.338935  1
  Ba  Ba1  1  0.405763  0.594237  0.838935  1
  Ba  Ba2  1  0.575101  0.424899  0.157586  1
  Ba  Ba3  1  0.424899  0.575101  0.657586  1
  Ba  Ba4  1  0.165899  0.834101  0.609625  1
  Ba  Ba5  1  0.834101  0.165899  0.109625  1
  Ba  Ba6  1  0.165566  0.834434  0.892161  1
  Ba  Ba7  1  0.834434  0.165566  0.392161  1
  Nd  Nd8  1  0.502960  0.497040  0.499676  1
  Nd  Nd9  1  0.497040  0.502960  0.999676  1
  Nd  Nd10  1  0.082482  0.917518  0.753800  1
  Nd  Nd11  1  0.917518  0.082482  0.253800  1
  Cd  Cd12  1  0.214671  0.785329  0.231423  1
  Cd  Cd13  1  0.785329  0.214671  0.731423  1
  Cd  Cd14  1  0.155680  0.844320  0.461306  1
  Cd  Cd15  1  0.844320  0.155680  0.961306  1
  Cd  Cd16  1  0.148218  0.851782  0.045150  1
  Cd  Cd17  1  0.851782  0.148218  0.545150  1
  Se  Se18  1  0.420766  0.579234  0.324576  1
  Se  Se19  1  0.579234  0.420766  0.824576  1
  Se  Se20  1  0.407460  0.592540  0.181676  1
  Se  Se21  1  0.592540  0.407460  0.681676  1
  Se  Se22  1  0.345949  0.654051  0.490160  1
  Se  Se23  1  0.654051  0.345949  0.990160  1
  Se  Se24  1  0.343564  0.656436  0.018473  1
  Se  Se25  1  0.656436  0.343564  0.518473  1
  Se  Se26  1  0.237264  0.762736  0.769258  1
  Se  Se27  1  0.762736  0.237264  0.269258  1
  Se  Se28  1  0.209918  0.790082  0.377341  1
  Se  Se29  1  0.790082  0.209918  0.877341  1
  Se  Se30  1  0.206684  0.793316  0.131564  1
  Se  Se31  1  0.793316  0.206684  0.631564  1
  Se  Se32  1  0.071930  0.928070  0.247723  1
  Se  Se33  1  0.928070  0.071930  0.747723  1
  Se  Se34  1  0.015439  0.984561  0.429665  1
  Se  Se35  1  0.984561  0.015439  0.929665  1
  Se  Se36  1  0.990386  0.009614  0.574031  1
  Se  Se37  1  0.009614  0.990386  0.074031  1
