# generated using pymatgen
data_LaAu
_symmetry_space_group_name_H-M   'P 1'
_cell_length_a   6.13987933
_cell_length_b   6.13987933
_cell_length_c   4.86481481
_cell_angle_alpha   90.00000000
_cell_angle_beta   90.00000000
_cell_angle_gamma   142.04979161
_symmetry_Int_Tables_number   1
_chemical_formula_structural   LaAu
_chemical_formula_sum   'La2 Au2'
_cell_volume   112.78321282
_cell_formula_units_Z   2
loop_
 _symmetry_equiv_pos_site_id
 _symmetry_equiv_pos_as_xyz
  1  'x, y, z'
loop_
 _atom_site_type_symbol
 _atom_site_label
 _atom_site_symmetry_multiplicity
 _atom_site_fract_x
 _atom_site_fract_y
 _atom_site_fract_z
 _atom_site_occupancy
  La  La0  1  0.135925  0.864075  0.250000  1
  La  La1  1  0.864075  0.135925  0.750000  1
  Au  Au2  1  0.413986  0.586014  0.250000  1
  Au  Au3  1  0.586014  0.413986  0.750000  1
