# generated using pymatgen
data_Tm2Si2O7
_symmetry_space_group_name_H-M   'P 1'
_cell_length_a   6.59043687
_cell_length_b   6.62392375
_cell_length_c   12.05587971
_cell_angle_alpha   94.05848066
_cell_angle_beta   91.88782093
_cell_angle_gamma   92.44646541
_symmetry_Int_Tables_number   1
_chemical_formula_structural   Tm2Si2O7
_chemical_formula_sum   'Tm8 Si8 O28'
_cell_volume   524.15412440
_cell_formula_units_Z   4
loop_
 _symmetry_equiv_pos_site_id
 _symmetry_equiv_pos_as_xyz
  1  'x, y, z'
loop_
 _atom_site_type_symbol
 _atom_site_label
 _atom_site_symmetry_multiplicity
 _atom_site_fract_x
 _atom_site_fract_y
 _atom_site_fract_z
 _atom_site_occupancy
  Tm  Tm0  1  0.824767  0.326116  0.111265  1
  Tm  Tm1  1  0.175233  0.673884  0.888735  1
  Tm  Tm2  1  0.865718  0.713376  0.635445  1
  Tm  Tm3  1  0.134282  0.286624  0.364555  1
  Tm  Tm4  1  0.619543  0.587063  0.353063  1
  Tm  Tm5  1  0.380457  0.412937  0.646937  1
  Tm  Tm6  1  0.548250  0.827372  0.113618  1
  Tm  Tm7  1  0.451750  0.172628  0.886382  1
  Si  Si8  1  0.644668  0.122645  0.374555  1
  Si  Si9  1  0.355332  0.877355  0.625445  1
  Si  Si10  1  0.122547  0.776693  0.407093  1
  Si  Si11  1  0.877453  0.223307  0.592907  1
  Si  Si12  1  0.013255  0.835020  0.175070  1
  Si  Si13  1  0.986745  0.164980  0.824930  1
  Si  Si14  1  0.656688  0.648181  0.886477  1
  Si  Si15  1  0.343312  0.351819  0.113523  1
  O  O16  1  0.500919  0.483092  0.815386  1
  O  O17  1  0.499081  0.516908  0.184614  1
  O  O18  1  0.500177  0.833727  0.918590  1
  O  O19  1  0.499823  0.166273  0.081410  1
  O  O20  1  0.851858  0.709643  0.816019  1
  O  O21  1  0.148142  0.290357  0.183981  1
  O  O22  1  0.730185  0.582487  0.008045  1
  O  O23  1  0.269815  0.417513  0.991955  1
  O  O24  1  0.576613  0.909378  0.306032  1
  O  O25  1  0.423387  0.090622  0.693968  1
  O  O26  1  0.461523  0.271292  0.411272  1
  O  O27  1  0.538477  0.728708  0.588728  1
  O  O28  1  0.793261  0.282096  0.309542  1
  O  O29  1  0.206739  0.717904  0.690458  1
  O  O30  1  0.779841  0.071730  0.487580  1
  O  O31  1  0.220159  0.928270  0.512420  1
  O  O32  1  0.148375  0.012532  0.875477  1
  O  O33  1  0.851625  0.987468  0.124523  1
  O  O34  1  0.112977  0.366375  0.786064  1
  O  O35  1  0.887023  0.633625  0.213936  1
  O  O36  1  0.798020  0.204386  0.905970  1
  O  O37  1  0.201980  0.795614  0.094030  1
  O  O38  1  0.900091  0.062522  0.693307  1
  O  O39  1  0.099909  0.937478  0.306693  1
  O  O40  1  0.089535  0.324665  0.550181  1
  O  O41  1  0.910465  0.675335  0.449819  1
  O  O42  1  0.724681  0.402274  0.621809  1
  O  O43  1  0.275319  0.597726  0.378191  1
