# generated using pymatgen
data_NbSn2
_symmetry_space_group_name_H-M   'P 1'
_cell_length_a   10.86214795
_cell_length_b   10.07323468
_cell_length_c   5.73621330
_cell_angle_alpha   81.84752952
_cell_angle_beta   66.63522352
_cell_angle_gamma   31.51724697
_symmetry_Int_Tables_number   1
_chemical_formula_structural   NbSn2
_chemical_formula_sum   'Nb4 Sn8'
_cell_volume   274.85285237
_cell_formula_units_Z   4
loop_
 _symmetry_equiv_pos_site_id
 _symmetry_equiv_pos_as_xyz
  1  'x, y, z'
loop_
 _atom_site_type_symbol
 _atom_site_label
 _atom_site_symmetry_multiplicity
 _atom_site_fract_x
 _atom_site_fract_y
 _atom_site_fract_z
 _atom_site_occupancy
  Nb  Nb0  1  0.876975  0.876975  0.623025  1
  Nb  Nb1  1  0.623025  0.623025  0.876975  1
  Nb  Nb2  1  0.373025  0.373025  0.626975  1
  Nb  Nb3  1  0.626975  0.626975  0.373025  1
  Sn  Sn4  1  0.918812  0.581188  0.918812  1
  Sn  Sn5  1  0.581188  0.918812  0.581188  1
  Sn  Sn6  1  0.331188  0.668812  0.331188  1
  Sn  Sn7  1  0.668812  0.331188  0.668812  1
  Sn  Sn8  1  0.167168  0.167168  0.332832  1
  Sn  Sn9  1  0.332832  0.332832  0.167168  1
  Sn  Sn10  1  0.082832  0.082832  0.917168  1
  Sn  Sn11  1  0.917168  0.917168  0.082832  1
