# generated using pymatgen
data_Ho3Ga5O12
_symmetry_space_group_name_H-M   'P 1'
_cell_length_a   10.72227629
_cell_length_b   10.72227629
_cell_length_c   10.72227629
_cell_angle_alpha   109.47122063
_cell_angle_beta   109.47122063
_cell_angle_gamma   109.47122063
_symmetry_Int_Tables_number   1
_chemical_formula_structural   Ho3Ga5O12
_chemical_formula_sum   'Ho12 Ga20 O48'
_cell_volume   948.94073676
_cell_formula_units_Z   4
loop_
 _symmetry_equiv_pos_site_id
 _symmetry_equiv_pos_as_xyz
  1  'x, y, z'
loop_
 _atom_site_type_symbol
 _atom_site_label
 _atom_site_symmetry_multiplicity
 _atom_site_fract_x
 _atom_site_fract_y
 _atom_site_fract_z
 _atom_site_occupancy
  Ho  Ho0  1  0.625000  0.250000  0.875000  1
  Ho  Ho1  1  0.875000  0.750000  0.625000  1
  Ho  Ho2  1  0.750000  0.625000  0.875000  1
  Ho  Ho3  1  0.250000  0.875000  0.625000  1
  Ho  Ho4  1  0.875000  0.625000  0.250000  1
  Ho  Ho5  1  0.625000  0.875000  0.750000  1
  Ho  Ho6  1  0.375000  0.750000  0.125000  1
  Ho  Ho7  1  0.125000  0.250000  0.375000  1
  Ho  Ho8  1  0.250000  0.375000  0.125000  1
  Ho  Ho9  1  0.750000  0.125000  0.375000  1
  Ho  Ho10  1  0.125000  0.375000  0.750000  1
  Ho  Ho11  1  0.375000  0.125000  0.250000  1
  Ga  Ga12  1  0.875000  0.125000  0.750000  1
  Ga  Ga13  1  0.125000  0.875000  0.250000  1
  Ga  Ga14  1  0.250000  0.625000  0.375000  1
  Ga  Ga15  1  0.125000  0.750000  0.875000  1
  Ga  Ga16  1  0.750000  0.875000  0.125000  1
  Ga  Ga17  1  0.375000  0.250000  0.625000  1
  Ga  Ga18  1  0.625000  0.750000  0.375000  1
  Ga  Ga19  1  0.875000  0.250000  0.125000  1
  Ga  Ga20  1  0.250000  0.125000  0.875000  1
  Ga  Ga21  1  0.750000  0.375000  0.625000  1
  Ga  Ga22  1  0.375000  0.625000  0.750000  1
  Ga  Ga23  1  0.625000  0.375000  0.250000  1
  Ga  Ga24  1  0.500000  0.500000  0.500000  1
  Ga  Ga25  1  0.500000  0.500000  0.000000  1
  Ga  Ga26  1  0.500000  1.000000  0.500000  1
  Ga  Ga27  1  0.000000  0.500000  0.500000  1
  Ga  Ga28  1  0.500000  0.000000  0.000000  1
  Ga  Ga29  1  0.000000  0.000000  0.500000  1
  Ga  Ga30  1  0.000000  0.500000  0.000000  1
  Ga  Ga31  1  0.000000  0.000000  0.000000  1
  O  O32  1  0.793221  0.417210  0.822738  1
  O  O33  1  0.082790  0.876011  0.405528  1
  O  O34  1  0.677262  0.094472  0.970483  1
  O  O35  1  0.706779  0.529517  0.623989  1
  O  O36  1  0.706779  0.677262  0.082790  1
  O  O37  1  0.529517  0.623989  0.706779  1
  O  O38  1  0.094472  0.623989  0.417210  1
  O  O39  1  0.623989  0.706779  0.529517  1
  O  O40  1  0.405528  0.822738  0.529517  1
  O  O41  1  0.876011  0.970483  0.793221  1
  O  O42  1  0.970483  0.793221  0.876011  1
  O  O43  1  0.082790  0.706779  0.677262  1
  O  O44  1  0.623989  0.417210  0.094472  1
  O  O45  1  0.529517  0.405528  0.822738  1
  O  O46  1  0.677262  0.082790  0.706779  1
  O  O47  1  0.417210  0.094472  0.623989  1
  O  O48  1  0.822738  0.529517  0.405528  1
  O  O49  1  0.405528  0.082790  0.876011  1
  O  O50  1  0.094472  0.970483  0.677262  1
  O  O51  1  0.594472  0.177262  0.470483  1
  O  O52  1  0.970483  0.677262  0.094472  1
  O  O53  1  0.822738  0.793221  0.417210  1
  O  O54  1  0.876011  0.405528  0.082790  1
  O  O55  1  0.793221  0.876011  0.970483  1
  O  O56  1  0.206779  0.582790  0.177262  1
  O  O57  1  0.917210  0.123989  0.594472  1
  O  O58  1  0.322738  0.905528  0.029517  1
  O  O59  1  0.293221  0.470483  0.376011  1
  O  O60  1  0.293221  0.322738  0.917210  1
  O  O61  1  0.470483  0.376011  0.293221  1
  O  O62  1  0.905528  0.376011  0.582790  1
  O  O63  1  0.376011  0.293221  0.470483  1
  O  O64  1  0.206779  0.123989  0.029517  1
  O  O65  1  0.123989  0.594472  0.917210  1
  O  O66  1  0.177262  0.206779  0.582790  1
  O  O67  1  0.582790  0.177262  0.206779  1
  O  O68  1  0.029517  0.322738  0.905528  1
  O  O69  1  0.905528  0.029517  0.322738  1
  O  O70  1  0.594472  0.917210  0.123989  1
  O  O71  1  0.177262  0.470483  0.594472  1
  O  O72  1  0.582790  0.905528  0.376011  1
  O  O73  1  0.322738  0.917210  0.293221  1
  O  O74  1  0.470483  0.594472  0.177262  1
  O  O75  1  0.376011  0.582790  0.905528  1
  O  O76  1  0.917210  0.293221  0.322738  1
  O  O77  1  0.029517  0.206779  0.123989  1
  O  O78  1  0.123989  0.029517  0.206779  1
  O  O79  1  0.417210  0.822738  0.793221  1
