# generated using pymatgen
data_NaSn2F5
_symmetry_space_group_name_H-M   'P 1'
_cell_length_a   9.22690643
_cell_length_b   9.22690643
_cell_length_c   14.03372446
_cell_angle_alpha   90.00000000
_cell_angle_beta   90.00000000
_cell_angle_gamma   90.00000000
_symmetry_Int_Tables_number   1
_chemical_formula_structural   NaSn2F5
_chemical_formula_sum   'Na8 Sn16 F40'
_cell_volume   1194.77239071
_cell_formula_units_Z   8
loop_
 _symmetry_equiv_pos_site_id
 _symmetry_equiv_pos_as_xyz
  1  'x, y, z'
loop_
 _atom_site_type_symbol
 _atom_site_label
 _atom_site_symmetry_multiplicity
 _atom_site_fract_x
 _atom_site_fract_y
 _atom_site_fract_z
 _atom_site_occupancy
  Na  Na0  1  0.500000  0.000000  0.750000  1
  Na  Na1  1  0.500000  0.000000  0.250000  1
  Na  Na2  1  0.000000  0.500000  0.750000  1
  Na  Na3  1  0.000000  0.500000  0.250000  1
  Na  Na4  1  0.500000  0.000000  0.000000  1
  Na  Na5  1  0.500000  0.000000  0.500000  1
  Na  Na6  1  0.000000  0.500000  0.500000  1
  Na  Na7  1  0.000000  0.500000  0.000000  1
  Sn  Sn8  1  0.685188  0.668135  0.867265  1
  Sn  Sn9  1  0.831865  0.185188  0.367265  1
  Sn  Sn10  1  0.314812  0.668135  0.632735  1
  Sn  Sn11  1  0.314812  0.331865  0.867265  1
  Sn  Sn12  1  0.168135  0.814812  0.367265  1
  Sn  Sn13  1  0.831865  0.814812  0.132735  1
  Sn  Sn14  1  0.168135  0.185188  0.132735  1
  Sn  Sn15  1  0.685188  0.331865  0.632735  1
  Sn  Sn16  1  0.331865  0.685188  0.132735  1
  Sn  Sn17  1  0.668135  0.314812  0.132735  1
  Sn  Sn18  1  0.185188  0.831865  0.867265  1
  Sn  Sn19  1  0.185188  0.168135  0.632735  1
  Sn  Sn20  1  0.814812  0.831865  0.632735  1
  Sn  Sn21  1  0.668135  0.685188  0.367265  1
  Sn  Sn22  1  0.331865  0.314812  0.367265  1
  Sn  Sn23  1  0.814812  0.168135  0.867265  1
  F  F24  1  0.806507  0.306507  0.000000  1
  F  F25  1  0.850018  0.410830  0.384992  1
  F  F26  1  0.089170  0.649982  0.615008  1
  F  F27  1  0.089170  0.350018  0.884992  1
  F  F28  1  0.910830  0.649982  0.884992  1
  F  F29  1  0.850018  0.589170  0.115008  1
  F  F30  1  0.149982  0.410830  0.115008  1
  F  F31  1  0.910830  0.350018  0.615008  1
  F  F32  1  0.306507  0.806507  0.500000  1
  F  F33  1  0.693493  0.806507  0.000000  1
  F  F34  1  0.306507  0.193493  0.000000  1
  F  F35  1  0.693493  0.193493  0.500000  1
  F  F36  1  0.193493  0.693493  0.000000  1
  F  F37  1  0.806507  0.693493  0.500000  1
  F  F38  1  0.193493  0.306507  0.500000  1
  F  F39  1  0.149982  0.589170  0.384992  1
  F  F40  1  0.370236  0.780986  0.299035  1
  F  F41  1  0.370236  0.219014  0.200965  1
  F  F42  1  0.629764  0.780986  0.200965  1
  F  F43  1  0.719014  0.870236  0.799035  1
  F  F44  1  0.280986  0.129764  0.799035  1
  F  F45  1  0.280986  0.870236  0.700965  1
  F  F46  1  0.629764  0.219014  0.299035  1
  F  F47  1  0.350018  0.910830  0.115008  1
  F  F48  1  0.780986  0.370236  0.799035  1
  F  F49  1  0.129764  0.280986  0.299035  1
  F  F50  1  0.870236  0.719014  0.299035  1
  F  F51  1  0.780986  0.629764  0.700965  1
  F  F52  1  0.219014  0.370236  0.700965  1
  F  F53  1  0.219014  0.629764  0.799035  1
  F  F54  1  0.870236  0.280986  0.200965  1
  F  F55  1  0.129764  0.719014  0.200965  1
  F  F56  1  0.589170  0.149982  0.884992  1
  F  F57  1  0.350018  0.089170  0.384992  1
  F  F58  1  0.649982  0.910830  0.384992  1
  F  F59  1  0.589170  0.850018  0.615008  1
  F  F60  1  0.410830  0.149982  0.615008  1
  F  F61  1  0.410830  0.850018  0.884992  1
  F  F62  1  0.649982  0.089170  0.115008  1
  F  F63  1  0.719014  0.129764  0.700965  1
