# generated using pymatgen
data_YSiRh
_symmetry_space_group_name_H-M   'P 1'
_cell_length_a   4.24875509
_cell_length_b   6.91684477
_cell_length_c   7.45889784
_cell_angle_alpha   90.00000000
_cell_angle_beta   90.00000000
_cell_angle_gamma   90.00000000
_symmetry_Int_Tables_number   1
_chemical_formula_structural   YSiRh
_chemical_formula_sum   'Y4 Si4 Rh4'
_cell_volume   219.20193624
_cell_formula_units_Z   4
loop_
 _symmetry_equiv_pos_site_id
 _symmetry_equiv_pos_as_xyz
  1  'x, y, z'
loop_
 _atom_site_type_symbol
 _atom_site_label
 _atom_site_symmetry_multiplicity
 _atom_site_fract_x
 _atom_site_fract_y
 _atom_site_fract_z
 _atom_site_occupancy
  Y  Y0  1  0.750000  0.498824  0.310216  1
  Y  Y1  1  0.250000  0.001176  0.810216  1
  Y  Y2  1  0.750000  0.998824  0.189784  1
  Y  Y3  1  0.250000  0.501176  0.689784  1
  Si  Si4  1  0.250000  0.296583  0.103259  1
  Si  Si5  1  0.250000  0.796583  0.396741  1
  Si  Si6  1  0.750000  0.703417  0.896741  1
  Si  Si7  1  0.750000  0.203417  0.603259  1
  Rh  Rh8  1  0.250000  0.653999  0.069568  1
  Rh  Rh9  1  0.250000  0.153999  0.430432  1
  Rh  Rh10  1  0.750000  0.846001  0.569568  1
  Rh  Rh11  1  0.750000  0.346001  0.930432  1
