# generated using pymatgen
data_Al2Mo3C
_symmetry_space_group_name_H-M   'P 1'
_cell_length_a   6.88994728
_cell_length_b   6.88994728
_cell_length_c   6.88994728
_cell_angle_alpha   90.00000000
_cell_angle_beta   90.00000000
_cell_angle_gamma   90.00000000
_symmetry_Int_Tables_number   1
_chemical_formula_structural   Al2Mo3C
_chemical_formula_sum   'Al8 Mo12 C4'
_cell_volume   327.07526087
_cell_formula_units_Z   4
loop_
 _symmetry_equiv_pos_site_id
 _symmetry_equiv_pos_as_xyz
  1  'x, y, z'
loop_
 _atom_site_type_symbol
 _atom_site_label
 _atom_site_symmetry_multiplicity
 _atom_site_fract_x
 _atom_site_fract_y
 _atom_site_fract_z
 _atom_site_occupancy
  Al  Al0  1  0.566707  0.433293  0.933293  1
  Al  Al1  1  0.683293  0.683293  0.683293  1
  Al  Al2  1  0.933293  0.566707  0.433293  1
  Al  Al3  1  0.433293  0.933293  0.566707  1
  Al  Al4  1  0.183293  0.816707  0.316707  1
  Al  Al5  1  0.816707  0.316707  0.183293  1
  Al  Al6  1  0.316707  0.183293  0.816707  1
  Al  Al7  1  0.066707  0.066707  0.066707  1
  Mo  Mo8  1  0.625000  0.298213  0.548213  1
  Mo  Mo9  1  0.701787  0.048213  0.875000  1
  Mo  Mo10  1  0.548213  0.625000  0.298213  1
  Mo  Mo11  1  0.951787  0.375000  0.798213  1
  Mo  Mo12  1  0.298213  0.548213  0.625000  1
  Mo  Mo13  1  0.451787  0.125000  0.201787  1
  Mo  Mo14  1  0.048213  0.875000  0.701787  1
  Mo  Mo15  1  0.798213  0.951787  0.375000  1
  Mo  Mo16  1  0.201787  0.451787  0.125000  1
  Mo  Mo17  1  0.875000  0.701787  0.048213  1
  Mo  Mo18  1  0.375000  0.798213  0.951787  1
  Mo  Mo19  1  0.125000  0.201787  0.451787  1
  C  C20  1  0.875000  0.125000  0.625000  1
  C  C21  1  0.125000  0.625000  0.875000  1
  C  C22  1  0.625000  0.875000  0.125000  1
  C  C23  1  0.375000  0.375000  0.375000  1
