# generated using pymatgen
data_KPF6
_symmetry_space_group_name_H-M   'P 1'
_cell_length_a   7.82220257
_cell_length_b   7.82220257
_cell_length_c   7.82220257
_cell_angle_alpha   90.00000000
_cell_angle_beta   90.00000000
_cell_angle_gamma   90.00000000
_symmetry_Int_Tables_number   1
_chemical_formula_structural   KPF6
_chemical_formula_sum   'K4 P4 F24'
_cell_volume   478.61595915
_cell_formula_units_Z   4
loop_
 _symmetry_equiv_pos_site_id
 _symmetry_equiv_pos_as_xyz
  1  'x, y, z'
loop_
 _atom_site_type_symbol
 _atom_site_label
 _atom_site_symmetry_multiplicity
 _atom_site_fract_x
 _atom_site_fract_y
 _atom_site_fract_z
 _atom_site_occupancy
  K  K0  1  0.500000  0.500000  0.500000  1
  K  K1  1  0.000000  0.500000  0.000000  1
  K  K2  1  0.000000  0.000000  0.500000  1
  K  K3  1  0.500000  0.000000  0.000000  1
  P  P4  1  0.000000  0.000000  0.000000  1
  P  P5  1  0.500000  0.000000  0.500000  1
  P  P6  1  0.500000  0.500000  0.000000  1
  P  P7  1  0.000000  0.500000  0.500000  1
  F  F8  1  0.620760  0.157211  0.568154  1
  F  F9  1  0.120760  0.342789  0.431846  1
  F  F10  1  0.379240  0.657211  0.931846  1
  F  F11  1  0.342789  0.431846  0.120760  1
  F  F12  1  0.931846  0.379240  0.657211  1
  F  F13  1  0.431846  0.120760  0.342789  1
  F  F14  1  0.157211  0.568154  0.620760  1
  F  F15  1  0.568154  0.620760  0.157211  1
  F  F16  1  0.120760  0.157211  0.931846  1
  F  F17  1  0.931846  0.120760  0.157211  1
  F  F18  1  0.157211  0.931846  0.120760  1
  F  F19  1  0.342789  0.068154  0.620760  1
  F  F20  1  0.431846  0.379240  0.842789  1
  F  F21  1  0.842789  0.431846  0.379240  1
  F  F22  1  0.568154  0.879240  0.657211  1
  F  F23  1  0.068154  0.620760  0.342789  1
  F  F24  1  0.657211  0.568154  0.879240  1
  F  F25  1  0.620760  0.342789  0.068154  1
  F  F26  1  0.879240  0.657211  0.568154  1
  F  F27  1  0.379240  0.842789  0.431846  1
  F  F28  1  0.879240  0.842789  0.068154  1
  F  F29  1  0.068154  0.879240  0.842789  1
  F  F30  1  0.842789  0.068154  0.879240  1
  F  F31  1  0.657211  0.931846  0.379240  1
