# generated using pymatgen
data_Li5AlO4
_symmetry_space_group_name_H-M   'P 1'
_cell_length_a   9.04436855
_cell_length_b   9.17548741
_cell_length_c   9.21314036
_cell_angle_alpha   90.00000000
_cell_angle_beta   90.00000000
_cell_angle_gamma   90.00000000
_symmetry_Int_Tables_number   1
_chemical_formula_structural   Li5AlO4
_chemical_formula_sum   'Li40 Al8 O32'
_cell_volume   764.56617816
_cell_formula_units_Z   8
loop_
 _symmetry_equiv_pos_site_id
 _symmetry_equiv_pos_as_xyz
  1  'x, y, z'
loop_
 _atom_site_type_symbol
 _atom_site_label
 _atom_site_symmetry_multiplicity
 _atom_site_fract_x
 _atom_site_fract_y
 _atom_site_fract_z
 _atom_site_occupancy
  Li  Li0  1  0.867968  0.147110  0.620941  1
  Li  Li1  1  0.367968  0.852890  0.879059  1
  Li  Li2  1  0.632032  0.647110  0.379059  1
  Li  Li3  1  0.132032  0.352890  0.120941  1
  Li  Li4  1  0.132032  0.852890  0.379059  1
  Li  Li5  1  0.632032  0.147110  0.120941  1
  Li  Li6  1  0.367968  0.352890  0.620941  1
  Li  Li7  1  0.867968  0.647110  0.879059  1
  Li  Li8  1  0.833277  0.106050  0.881038  1
  Li  Li9  1  0.333277  0.893950  0.618962  1
  Li  Li10  1  0.666723  0.606050  0.118962  1
  Li  Li11  1  0.166723  0.393950  0.381038  1
  Li  Li12  1  0.166723  0.893950  0.118962  1
  Li  Li13  1  0.666723  0.106050  0.381038  1
  Li  Li14  1  0.333277  0.393950  0.881038  1
  Li  Li15  1  0.833277  0.606050  0.618962  1
  Li  Li16  1  0.901688  0.126450  0.144490  1
  Li  Li17  1  0.401688  0.873550  0.355510  1
  Li  Li18  1  0.598312  0.626450  0.855510  1
  Li  Li19  1  0.861067  0.885047  0.398212  1
  Li  Li20  1  0.098312  0.873550  0.855510  1
  Li  Li21  1  0.598312  0.126450  0.644490  1
  Li  Li22  1  0.401688  0.373550  0.144490  1
  Li  Li23  1  0.901688  0.626450  0.355510  1
  Li  Li24  1  0.897465  0.381492  0.840822  1
  Li  Li25  1  0.397465  0.618508  0.659178  1
  Li  Li26  1  0.602535  0.881492  0.159178  1
  Li  Li27  1  0.102535  0.118508  0.340822  1
  Li  Li28  1  0.102535  0.618508  0.159178  1
  Li  Li29  1  0.602535  0.381492  0.340822  1
  Li  Li30  1  0.397465  0.118508  0.840822  1
  Li  Li31  1  0.897465  0.881492  0.659178  1
  Li  Li32  1  0.861067  0.385047  0.101788  1
  Li  Li33  1  0.361067  0.614953  0.398212  1
  Li  Li34  1  0.638933  0.885047  0.898212  1
  Li  Li35  1  0.138933  0.114953  0.601788  1
  Li  Li36  1  0.138933  0.614953  0.898212  1
  Li  Li37  1  0.638933  0.385047  0.601788  1
  Li  Li38  1  0.361067  0.114953  0.101788  1
  Li  Li39  1  0.098312  0.373550  0.644490  1
  Al  Al40  1  0.883975  0.355792  0.376504  1
  Al  Al41  1  0.383975  0.644208  0.123496  1
  Al  Al42  1  0.616025  0.855792  0.623496  1
  Al  Al43  1  0.116025  0.144208  0.876504  1
  Al  Al44  1  0.116025  0.644208  0.623496  1
  Al  Al45  1  0.616025  0.355792  0.876504  1
  Al  Al46  1  0.383975  0.144208  0.376504  1
  Al  Al47  1  0.883975  0.855792  0.123496  1
  O  O48  1  0.768667  0.251922  0.257484  1
  O  O49  1  0.268667  0.748078  0.242516  1
  O  O50  1  0.731333  0.751922  0.742516  1
  O  O51  1  0.231333  0.248078  0.757484  1
  O  O52  1  0.231333  0.748078  0.742516  1
  O  O53  1  0.731333  0.251922  0.757484  1
  O  O54  1  0.268667  0.248078  0.257484  1
  O  O55  1  0.768667  0.751922  0.242516  1
  O  O56  1  0.761985  0.484625  0.461354  1
  O  O57  1  0.261985  0.515375  0.038646  1
  O  O58  1  0.738015  0.984625  0.538646  1
  O  O59  1  0.238015  0.015375  0.961354  1
  O  O60  1  0.238015  0.515375  0.538646  1
  O  O61  1  0.738015  0.484625  0.961354  1
  O  O62  1  0.261985  0.015375  0.461354  1
  O  O63  1  0.761985  0.984625  0.038646  1
  O  O64  1  0.999186  0.462258  0.257420  1
  O  O65  1  0.499186  0.537742  0.242580  1
  O  O66  1  0.500814  0.962258  0.742580  1
  O  O67  1  0.000814  0.037742  0.757420  1
  O  O68  1  0.005291  0.753164  0.011019  1
  O  O69  1  0.500814  0.462258  0.757420  1
  O  O70  1  0.499186  0.037742  0.257420  1
  O  O71  1  0.999186  0.962258  0.242580  1
  O  O72  1  0.005291  0.253164  0.488981  1
  O  O73  1  0.505291  0.746836  0.011019  1
  O  O74  1  0.494709  0.753164  0.511019  1
  O  O75  1  0.994709  0.246836  0.988981  1
  O  O76  1  0.994709  0.746836  0.511019  1
  O  O77  1  0.494709  0.253164  0.988981  1
  O  O78  1  0.505291  0.246836  0.488981  1
  O  O79  1  0.000814  0.537742  0.742580  1
