# generated using pymatgen
data_Na2CoP2O7
_symmetry_space_group_name_H-M   'P 1'
_cell_length_a   7.86985107
_cell_length_b   7.86985107
_cell_length_c   5.14721894
_cell_angle_alpha   90.00000000
_cell_angle_beta   90.00000000
_cell_angle_gamma   90.00000000
_symmetry_Int_Tables_number   1
_chemical_formula_structural   Na2CoP2O7
_chemical_formula_sum   'Na4 Co2 P4 O14'
_cell_volume   318.79071898
_cell_formula_units_Z   2
loop_
 _symmetry_equiv_pos_site_id
 _symmetry_equiv_pos_as_xyz
  1  'x, y, z'
loop_
 _atom_site_type_symbol
 _atom_site_label
 _atom_site_symmetry_multiplicity
 _atom_site_fract_x
 _atom_site_fract_y
 _atom_site_fract_z
 _atom_site_occupancy
  Na  Na0  1  0.832894  0.667106  0.490613  1
  Na  Na1  1  0.667106  0.167106  0.509387  1
  Na  Na2  1  0.167106  0.332894  0.490613  1
  Na  Na3  1  0.332894  0.832894  0.509387  1
  Co  Co4  1  0.500000  0.500000  0.000000  1
  Co  Co5  1  0.000000  0.000000  0.000000  1
  P  P6  1  0.638506  0.861494  0.071556  1
  P  P7  1  0.861494  0.361494  0.928444  1
  P  P8  1  0.361494  0.138506  0.071556  1
  P  P9  1  0.138506  0.638506  0.928444  1
  O  O10  1  0.000000  0.500000  0.817127  1
  O  O11  1  0.500000  0.000000  0.182873  1
  O  O12  1  0.639718  0.860282  0.778974  1
  O  O13  1  0.860282  0.360282  0.221026  1
  O  O14  1  0.360282  0.139718  0.778974  1
  O  O15  1  0.139718  0.639718  0.221026  1
  O  O16  1  0.304301  0.580089  0.793188  1
  O  O17  1  0.195699  0.080089  0.206812  1
  O  O18  1  0.695699  0.419911  0.793188  1
  O  O19  1  0.804301  0.919911  0.206812  1
  O  O20  1  0.580089  0.695699  0.206812  1
  O  O21  1  0.919911  0.195699  0.793188  1
  O  O22  1  0.419911  0.304301  0.206812  1
  O  O23  1  0.080089  0.804301  0.793188  1
