# generated using pymatgen
data_Tb2Si3Rh
_symmetry_space_group_name_H-M   'P 1'
_cell_length_a   8.18972231
_cell_length_b   8.18972231
_cell_length_c   7.96985499
_cell_angle_alpha   90.00000000
_cell_angle_beta   90.00000000
_cell_angle_gamma   120.00000000
_symmetry_Int_Tables_number   1
_chemical_formula_structural   Tb2Si3Rh
_chemical_formula_sum   'Tb8 Si12 Rh4'
_cell_volume   462.93434636
_cell_formula_units_Z   4
loop_
 _symmetry_equiv_pos_site_id
 _symmetry_equiv_pos_as_xyz
  1  'x, y, z'
loop_
 _atom_site_type_symbol
 _atom_site_label
 _atom_site_symmetry_multiplicity
 _atom_site_fract_x
 _atom_site_fract_y
 _atom_site_fract_z
 _atom_site_occupancy
  Tb  Tb0  1  0.000000  0.000000  0.750000  1
  Tb  Tb1  1  0.507438  0.014875  0.250000  1
  Tb  Tb2  1  0.507438  0.492562  0.250000  1
  Tb  Tb3  1  0.000000  0.000000  0.250000  1
  Tb  Tb4  1  0.985125  0.492562  0.250000  1
  Tb  Tb5  1  0.492562  0.985125  0.750000  1
  Tb  Tb6  1  0.492562  0.507438  0.750000  1
  Tb  Tb7  1  0.014875  0.507438  0.750000  1
  Si  Si8  1  0.833270  0.166730  0.499601  1
  Si  Si9  1  0.833270  0.666541  0.499601  1
  Si  Si10  1  0.333459  0.166730  0.499601  1
  Si  Si11  1  0.166730  0.333459  0.500399  1
  Si  Si12  1  0.333459  0.166730  0.000399  1
  Si  Si13  1  0.833270  0.166730  0.000399  1
  Si  Si14  1  0.833270  0.666541  0.000399  1
  Si  Si15  1  0.166730  0.333459  0.999601  1
  Si  Si16  1  0.666541  0.833270  0.999601  1
  Si  Si17  1  0.666541  0.833270  0.500399  1
  Si  Si18  1  0.166730  0.833270  0.500399  1
  Si  Si19  1  0.166730  0.833270  0.999601  1
  Rh  Rh20  1  0.666667  0.333333  0.529778  1
  Rh  Rh21  1  0.333333  0.666667  0.470222  1
  Rh  Rh22  1  0.666667  0.333333  0.970222  1
  Rh  Rh23  1  0.333333  0.666667  0.029778  1
