# generated using pymatgen
data_Si4Ir3
_symmetry_space_group_name_H-M   'P 1'
_cell_length_a   3.73721068
_cell_length_b   5.83717515
_cell_length_c   19.03078613
_cell_angle_alpha   90.00000000
_cell_angle_beta   90.00000000
_cell_angle_gamma   90.00000000
_symmetry_Int_Tables_number   1
_chemical_formula_structural   Si4Ir3
_chemical_formula_sum   'Si16 Ir12'
_cell_volume   415.15190475
_cell_formula_units_Z   4
loop_
 _symmetry_equiv_pos_site_id
 _symmetry_equiv_pos_as_xyz
  1  'x, y, z'
loop_
 _atom_site_type_symbol
 _atom_site_label
 _atom_site_symmetry_multiplicity
 _atom_site_fract_x
 _atom_site_fract_y
 _atom_site_fract_z
 _atom_site_occupancy
  Si  Si0  1  0.250000  0.972631  0.450326  1
  Si  Si1  1  0.750000  0.027369  0.549674  1
  Si  Si2  1  0.750000  0.472631  0.049674  1
  Si  Si3  1  0.250000  0.527369  0.950326  1
  Si  Si4  1  0.250000  0.074735  0.909187  1
  Si  Si5  1  0.750000  0.925265  0.090813  1
  Si  Si6  1  0.750000  0.574735  0.590813  1
  Si  Si7  1  0.250000  0.425265  0.409187  1
  Si  Si8  1  0.250000  0.715446  0.269771  1
  Si  Si9  1  0.750000  0.284554  0.730229  1
  Si  Si10  1  0.750000  0.215446  0.230229  1
  Si  Si11  1  0.250000  0.784554  0.769771  1
  Si  Si12  1  0.250000  0.388959  0.143875  1
  Si  Si13  1  0.750000  0.611041  0.856125  1
  Si  Si14  1  0.750000  0.888959  0.356125  1
  Si  Si15  1  0.250000  0.111041  0.643875  1
  Ir  Ir16  1  0.250000  0.392337  0.826184  1
  Ir  Ir17  1  0.750000  0.607663  0.173816  1
  Ir  Ir18  1  0.750000  0.892337  0.673816  1
  Ir  Ir19  1  0.250000  0.107663  0.326184  1
  Ir  Ir20  1  0.250000  0.499876  0.676171  1
  Ir  Ir21  1  0.750000  0.500124  0.323829  1
  Ir  Ir22  1  0.750000  0.999876  0.823829  1
  Ir  Ir23  1  0.250000  0.000124  0.176171  1
  Ir  Ir24  1  0.250000  0.304161  0.531304  1
  Ir  Ir25  1  0.750000  0.695839  0.468696  1
  Ir  Ir26  1  0.750000  0.804161  0.968696  1
  Ir  Ir27  1  0.250000  0.195839  0.031304  1
