# generated using pymatgen
data_SiPt3
_symmetry_space_group_name_H-M   'P 1'
_cell_length_a   5.54219209
_cell_length_b   5.54219209
_cell_length_c   5.44610063
_cell_angle_alpha   61.31671488
_cell_angle_beta   118.68328512
_cell_angle_gamma   88.94873626
_symmetry_Int_Tables_number   1
_chemical_formula_structural   SiPt3
_chemical_formula_sum   'Si2 Pt6'
_cell_volume   121.83729123
_cell_formula_units_Z   2
loop_
 _symmetry_equiv_pos_site_id
 _symmetry_equiv_pos_as_xyz
  1  'x, y, z'
loop_
 _atom_site_type_symbol
 _atom_site_label
 _atom_site_symmetry_multiplicity
 _atom_site_fract_x
 _atom_site_fract_y
 _atom_site_fract_z
 _atom_site_occupancy
  Si  Si0  1  0.285386  0.714614  0.073590  1
  Si  Si1  1  0.714614  0.285386  0.926410  1
  Pt  Pt2  1  0.725884  0.725884  0.500000  1
  Pt  Pt3  1  0.274116  0.274116  0.500000  1
  Pt  Pt4  1  0.815530  0.815530  0.000000  1
  Pt  Pt5  1  0.184470  0.184470  0.000000  1
  Pt  Pt6  1  0.283367  0.716633  0.637021  1
  Pt  Pt7  1  0.716633  0.283367  0.362979  1
