# generated using pymatgen
data_LiEu2IrO6
_symmetry_space_group_name_H-M   'P 1'
_cell_length_a   5.46167769
_cell_length_b   5.82225307
_cell_length_c   9.41532078
_cell_angle_alpha   90.00000000
_cell_angle_beta   124.88358973
_cell_angle_gamma   90.00000000
_symmetry_Int_Tables_number   1
_chemical_formula_structural   LiEu2IrO6
_chemical_formula_sum   'Li2 Eu4 Ir2 O12'
_cell_volume   245.60279040
_cell_formula_units_Z   2
loop_
 _symmetry_equiv_pos_site_id
 _symmetry_equiv_pos_as_xyz
  1  'x, y, z'
loop_
 _atom_site_type_symbol
 _atom_site_label
 _atom_site_symmetry_multiplicity
 _atom_site_fract_x
 _atom_site_fract_y
 _atom_site_fract_z
 _atom_site_occupancy
  Li  Li0  1  0.000000  0.000000  0.000000  1
  Li  Li1  1  0.000000  0.500000  0.500000  1
  Eu  Eu2  1  0.766858  0.070878  0.251279  1
  Eu  Eu3  1  0.233142  0.570878  0.248721  1
  Eu  Eu4  1  0.766858  0.429122  0.751279  1
  Eu  Eu5  1  0.233142  0.929122  0.748721  1
  Ir  Ir6  1  0.500000  0.500000  0.000000  1
  Ir  Ir7  1  0.500000  0.000000  0.500000  1
  O  O8  1  0.269916  0.286551  0.447028  1
  O  O9  1  0.730084  0.786551  0.052972  1
  O  O10  1  0.730084  0.713449  0.552972  1
  O  O11  1  0.269916  0.213449  0.947028  1
  O  O12  1  0.647787  0.031758  0.744467  1
  O  O13  1  0.352213  0.531758  0.755533  1
  O  O14  1  0.843062  0.317073  0.046335  1
  O  O15  1  0.156938  0.817073  0.453665  1
  O  O16  1  0.156938  0.682927  0.953665  1
  O  O17  1  0.843062  0.182927  0.546335  1
  O  O18  1  0.647787  0.468242  0.244467  1
  O  O19  1  0.352213  0.968242  0.255533  1
