# generated using pymatgen
data_TiMnO3
_symmetry_space_group_name_H-M   'P 1'
_cell_length_a   5.65978311
_cell_length_b   5.65978311
_cell_length_c   5.65978311
_cell_angle_alpha   54.62657441
_cell_angle_beta   54.62657441
_cell_angle_gamma   54.62657441
_symmetry_Int_Tables_number   1
_chemical_formula_structural   TiMnO3
_chemical_formula_sum   'Ti2 Mn2 O6'
_cell_volume   112.14700365
_cell_formula_units_Z   2
loop_
 _symmetry_equiv_pos_site_id
 _symmetry_equiv_pos_as_xyz
  1  'x, y, z'
loop_
 _atom_site_type_symbol
 _atom_site_label
 _atom_site_symmetry_multiplicity
 _atom_site_fract_x
 _atom_site_fract_y
 _atom_site_fract_z
 _atom_site_occupancy
  Ti  Ti0  1  0.853466  0.853466  0.853466  1
  Ti  Ti1  1  0.146534  0.146534  0.146534  1
  Mn  Mn2  1  0.640896  0.640896  0.640896  1
  Mn  Mn3  1  0.359104  0.359104  0.359104  1
  O  O4  1  0.786562  0.044464  0.436959  1
  O  O5  1  0.436959  0.786562  0.044464  1
  O  O6  1  0.044464  0.436959  0.786562  1
  O  O7  1  0.213438  0.955536  0.563041  1
  O  O8  1  0.563041  0.213438  0.955536  1
  O  O9  1  0.955536  0.563041  0.213438  1
