# generated using pymatgen
data_Li6Ho(BO3)3
_symmetry_space_group_name_H-M   'P 1'
_cell_length_a   6.70211272
_cell_length_b   16.50978236
_cell_length_c   7.24424259
_cell_angle_alpha   90.00000000
_cell_angle_beta   105.34451212
_cell_angle_gamma   90.00000000
_symmetry_Int_Tables_number   1
_chemical_formula_structural   Li6Ho(BO3)3
_chemical_formula_sum   'Li24 Ho4 B12 O36'
_cell_volume   773.00393537
_cell_formula_units_Z   4
loop_
 _symmetry_equiv_pos_site_id
 _symmetry_equiv_pos_as_xyz
  1  'x, y, z'
loop_
 _atom_site_type_symbol
 _atom_site_label
 _atom_site_symmetry_multiplicity
 _atom_site_fract_x
 _atom_site_fract_y
 _atom_site_fract_z
 _atom_site_occupancy
  Li  Li0  1  0.329960  0.030095  0.453853  1
  Li  Li1  1  0.170040  0.530095  0.546147  1
  Li  Li2  1  0.670040  0.969905  0.546147  1
  Li  Li3  1  0.829960  0.469905  0.453853  1
  Li  Li4  1  0.045451  0.204889  0.562653  1
  Li  Li5  1  0.454549  0.704889  0.437347  1
  Li  Li6  1  0.954549  0.795111  0.437347  1
  Li  Li7  1  0.545451  0.295111  0.562653  1
  Li  Li8  1  0.413638  0.946765  0.863287  1
  Li  Li9  1  0.086362  0.446765  0.136713  1
  Li  Li10  1  0.586362  0.053235  0.136713  1
  Li  Li11  1  0.913638  0.553235  0.863287  1
  Li  Li12  1  0.634939  0.205878  0.284767  1
  Li  Li13  1  0.865061  0.705878  0.715233  1
  Li  Li14  1  0.365061  0.794122  0.715233  1
  Li  Li15  1  0.134939  0.294122  0.284767  1
  Li  Li16  1  0.055916  0.035243  0.693711  1
  Li  Li17  1  0.444084  0.535243  0.306289  1
  Li  Li18  1  0.944084  0.964757  0.306289  1
  Li  Li19  1  0.555916  0.464757  0.693711  1
  Li  Li20  1  0.823801  0.995577  0.928420  1
  Li  Li21  1  0.676199  0.495577  0.071580  1
  Li  Li22  1  0.176199  0.004423  0.071580  1
  Li  Li23  1  0.323801  0.504423  0.928420  1
  Ho  Ho24  1  0.347169  0.309988  0.920479  1
  Ho  Ho25  1  0.152831  0.809988  0.079521  1
  Ho  Ho26  1  0.652831  0.690012  0.079521  1
  Ho  Ho27  1  0.847169  0.190012  0.920479  1
  B  B28  1  0.001334  0.878861  0.714595  1
  B  B29  1  0.498666  0.378861  0.285405  1
  B  B30  1  0.998666  0.121139  0.285405  1
  B  B31  1  0.501334  0.621139  0.714595  1
  B  B32  1  0.338387  0.135991  0.916330  1
  B  B33  1  0.161613  0.635991  0.083670  1
  B  B34  1  0.661613  0.864009  0.083670  1
  B  B35  1  0.838387  0.364009  0.916330  1
  B  B36  1  0.189864  0.384418  0.561533  1
  B  B37  1  0.310136  0.884418  0.438467  1
  B  B38  1  0.810136  0.615582  0.438467  1
  B  B39  1  0.689864  0.115582  0.561533  1
  O  O40  1  0.043479  0.925600  0.880844  1
  O  O41  1  0.456521  0.425600  0.119156  1
  O  O42  1  0.956521  0.074400  0.119156  1
  O  O43  1  0.543479  0.574400  0.880844  1
  O  O44  1  0.058320  0.797347  0.741164  1
  O  O45  1  0.441680  0.297347  0.258836  1
  O  O46  1  0.941680  0.202653  0.258836  1
  O  O47  1  0.558320  0.702653  0.741164  1
  O  O48  1  0.913859  0.911283  0.537564  1
  O  O49  1  0.586141  0.411283  0.462436  1
  O  O50  1  0.086141  0.088717  0.462436  1
  O  O51  1  0.413859  0.588717  0.537564  1
  O  O52  1  0.324138  0.053590  0.911807  1
  O  O53  1  0.175862  0.553590  0.088193  1
  O  O54  1  0.675862  0.946410  0.088193  1
  O  O55  1  0.824138  0.446410  0.911807  1
  O  O56  1  0.028455  0.325574  0.990921  1
  O  O57  1  0.471545  0.825574  0.009079  1
  O  O58  1  0.971545  0.674426  0.009079  1
  O  O59  1  0.528455  0.174426  0.990921  1
  O  O60  1  0.165661  0.185870  0.856207  1
  O  O61  1  0.334339  0.685870  0.143793  1
  O  O62  1  0.834339  0.814130  0.143793  1
  O  O63  1  0.665661  0.314130  0.856207  1
  O  O64  1  0.077477  0.420898  0.394930  1
  O  O65  1  0.422523  0.920898  0.605070  1
  O  O66  1  0.922523  0.579102  0.605070  1
  O  O67  1  0.577477  0.079102  0.394930  1
  O  O68  1  0.229560  0.301602  0.580259  1
  O  O69  1  0.270440  0.801602  0.419741  1
  O  O70  1  0.770440  0.698398  0.419741  1
  O  O71  1  0.729560  0.198398  0.580259  1
  O  O72  1  0.271535  0.431010  0.724673  1
  O  O73  1  0.228465  0.931010  0.275327  1
  O  O74  1  0.728465  0.568990  0.275327  1
  O  O75  1  0.771535  0.068990  0.724673  1
