# generated using pymatgen
data_Er3FeSi3
_symmetry_space_group_name_H-M   'P 1'
_cell_length_a   5.59886541
_cell_length_b   5.59886541
_cell_length_c   13.39491089
_cell_angle_alpha   70.42414031
_cell_angle_beta   109.57585969
_cell_angle_gamma   136.69424631
_symmetry_Int_Tables_number   1
_chemical_formula_structural   Er3FeSi3
_chemical_formula_sum   'Er6 Fe2 Si6'
_cell_volume   268.63722970
_cell_formula_units_Z   2
loop_
 _symmetry_equiv_pos_site_id
 _symmetry_equiv_pos_as_xyz
  1  'x, y, z'
loop_
 _atom_site_type_symbol
 _atom_site_label
 _atom_site_symmetry_multiplicity
 _atom_site_fract_x
 _atom_site_fract_y
 _atom_site_fract_z
 _atom_site_occupancy
  Er  Er0  1  0.748459  0.251541  0.229907  1
  Er  Er1  1  0.251541  0.748459  0.770093  1
  Er  Er2  1  0.523829  0.476171  0.379500  1
  Er  Er3  1  0.476171  0.523829  0.620500  1
  Er  Er4  1  0.398873  0.601127  0.080811  1
  Er  Er5  1  0.601127  0.398873  0.919189  1
  Fe  Fe6  1  0.753144  0.246856  0.584565  1
  Fe  Fe7  1  0.246856  0.753144  0.415435  1
  Si  Si8  1  0.143979  0.856021  0.543394  1
  Si  Si9  1  0.856021  0.143979  0.456606  1
  Si  Si10  1  0.114019  0.885981  0.075427  1
  Si  Si11  1  0.885981  0.114019  0.924573  1
  Si  Si12  1  0.054835  0.945165  0.242110  1
  Si  Si13  1  0.945165  0.054835  0.757890  1
