# generated using pymatgen
data_HoMg2
_symmetry_space_group_name_H-M   'P 1'
_cell_length_a   6.03719418
_cell_length_b   6.03719418
_cell_length_c   9.77546202
_cell_angle_alpha   90.00000000
_cell_angle_beta   90.00000000
_cell_angle_gamma   120.00000000
_symmetry_Int_Tables_number   1
_chemical_formula_structural   HoMg2
_chemical_formula_sum   'Ho4 Mg8'
_cell_volume   308.55899644
_cell_formula_units_Z   4
loop_
 _symmetry_equiv_pos_site_id
 _symmetry_equiv_pos_as_xyz
  1  'x, y, z'
loop_
 _atom_site_type_symbol
 _atom_site_label
 _atom_site_symmetry_multiplicity
 _atom_site_fract_x
 _atom_site_fract_y
 _atom_site_fract_z
 _atom_site_occupancy
  Ho  Ho0  1  0.333333  0.666667  0.935854  1
  Ho  Ho1  1  0.666667  0.333333  0.435854  1
  Ho  Ho2  1  0.666667  0.333333  0.064146  1
  Ho  Ho3  1  0.333333  0.666667  0.564146  1
  Mg  Mg4  1  0.828958  0.657917  0.750000  1
  Mg  Mg5  1  0.171042  0.828958  0.250000  1
  Mg  Mg6  1  0.657917  0.828958  0.250000  1
  Mg  Mg7  1  0.342083  0.171042  0.750000  1
  Mg  Mg8  1  0.000000  0.000000  0.000000  1
  Mg  Mg9  1  0.000000  0.000000  0.500000  1
  Mg  Mg10  1  0.171042  0.342083  0.250000  1
  Mg  Mg11  1  0.828958  0.171042  0.750000  1
