# generated using pymatgen
data_Ca2Ag7
_symmetry_space_group_name_H-M   'P 1'
_cell_length_a   5.56795966
_cell_length_b   5.56795966
_cell_length_c   14.26040209
_cell_angle_alpha   90.00000000
_cell_angle_beta   90.00000000
_cell_angle_gamma   119.89118788
_symmetry_Int_Tables_number   1
_chemical_formula_structural   Ca2Ag7
_chemical_formula_sum   'Ca4 Ag14'
_cell_volume   383.29195773
_cell_formula_units_Z   2
loop_
 _symmetry_equiv_pos_site_id
 _symmetry_equiv_pos_as_xyz
  1  'x, y, z'
loop_
 _atom_site_type_symbol
 _atom_site_label
 _atom_site_symmetry_multiplicity
 _atom_site_fract_x
 _atom_site_fract_y
 _atom_site_fract_z
 _atom_site_occupancy
  Ca  Ca0  1  0.321087  0.321087  0.114805  1
  Ca  Ca1  1  0.678913  0.678913  0.614805  1
  Ca  Ca2  1  0.321087  0.321087  0.385195  1
  Ca  Ca3  1  0.678913  0.678913  0.885195  1
  Ag  Ag4  1  0.828644  0.828644  0.250000  1
  Ag  Ag5  1  0.171356  0.171356  0.750000  1
  Ag  Ag6  1  0.827177  0.329304  0.250000  1
  Ag  Ag7  1  0.172823  0.670696  0.750000  1
  Ag  Ag8  1  0.329304  0.827177  0.250000  1
  Ag  Ag9  1  0.670696  0.172823  0.750000  1
  Ag  Ag10  1  0.993672  0.663581  0.076458  1
  Ag  Ag11  1  0.006328  0.336419  0.576458  1
  Ag  Ag12  1  0.663581  0.993672  0.423542  1
  Ag  Ag13  1  0.336419  0.006328  0.923542  1
  Ag  Ag14  1  0.006328  0.336419  0.923542  1
  Ag  Ag15  1  0.993672  0.663581  0.423542  1
  Ag  Ag16  1  0.336419  0.006328  0.576458  1
  Ag  Ag17  1  0.663581  0.993672  0.076458  1
