# generated using pymatgen
data_Zn3As2
_symmetry_space_group_name_H-M   'P 1'
_cell_length_a   8.44019492
_cell_length_b   8.44019492
_cell_length_c   11.92928082
_cell_angle_alpha   90.00000000
_cell_angle_beta   90.00000000
_cell_angle_gamma   90.00000000
_symmetry_Int_Tables_number   1
_chemical_formula_structural   Zn3As2
_chemical_formula_sum   'Zn24 As16'
_cell_volume   849.80486898
_cell_formula_units_Z   8
loop_
 _symmetry_equiv_pos_site_id
 _symmetry_equiv_pos_as_xyz
  1  'x, y, z'
loop_
 _atom_site_type_symbol
 _atom_site_label
 _atom_site_symmetry_multiplicity
 _atom_site_fract_x
 _atom_site_fract_y
 _atom_site_fract_z
 _atom_site_occupancy
  Zn  Zn0  1  0.500000  0.723765  0.610142  1
  Zn  Zn1  1  0.776235  0.000000  0.110142  1
  Zn  Zn2  1  0.223765  0.000000  0.110142  1
  Zn  Zn3  1  0.000000  0.776235  0.889858  1
  Zn  Zn4  1  0.000000  0.223765  0.889858  1
  Zn  Zn5  1  0.500000  0.276235  0.610142  1
  Zn  Zn6  1  0.723765  0.500000  0.389858  1
  Zn  Zn7  1  0.276235  0.500000  0.389858  1
  Zn  Zn8  1  0.500000  0.779204  0.886010  1
  Zn  Zn9  1  0.720796  0.000000  0.386010  1
  Zn  Zn10  1  0.279204  0.000000  0.386010  1
  Zn  Zn11  1  0.000000  0.720796  0.613990  1
  Zn  Zn12  1  0.000000  0.279204  0.613990  1
  Zn  Zn13  1  0.500000  0.220796  0.886010  1
  Zn  Zn14  1  0.779204  0.500000  0.113990  1
  Zn  Zn15  1  0.220796  0.500000  0.113990  1
  Zn  Zn16  1  0.500000  0.746075  0.146449  1
  Zn  Zn17  1  0.753925  0.000000  0.646449  1
  Zn  Zn18  1  0.246075  0.000000  0.646449  1
  Zn  Zn19  1  0.000000  0.753925  0.353551  1
  Zn  Zn20  1  0.000000  0.246075  0.353551  1
  Zn  Zn21  1  0.500000  0.253925  0.146449  1
  Zn  Zn22  1  0.746075  0.500000  0.853551  1
  Zn  Zn23  1  0.253925  0.500000  0.853551  1
  As  As24  1  0.500000  0.500000  0.745693  1
  As  As25  1  0.000000  0.000000  0.245693  1
  As  As26  1  0.000000  0.000000  0.754307  1
  As  As27  1  0.500000  0.500000  0.254307  1
  As  As28  1  0.500000  0.000000  0.746256  1
  As  As29  1  0.500000  0.000000  0.246256  1
  As  As30  1  0.000000  0.500000  0.753744  1
  As  As31  1  0.000000  0.500000  0.253744  1
  As  As32  1  0.752648  0.752648  0.500000  1
  As  As33  1  0.747352  0.252648  0.000000  1
  As  As34  1  0.252648  0.747352  0.000000  1
  As  As35  1  0.247352  0.247352  0.500000  1
  As  As36  1  0.747352  0.747352  0.000000  1
  As  As37  1  0.752648  0.247352  0.500000  1
  As  As38  1  0.247352  0.752648  0.500000  1
  As  As39  1  0.252648  0.252648  0.000000  1
