# generated using pymatgen
data_LiFe3P3O13
_symmetry_space_group_name_H-M   'P 1'
_cell_length_a   7.56995978
_cell_length_b   6.35790033
_cell_length_c   10.50118645
_cell_angle_alpha   90.00000000
_cell_angle_beta   99.44852124
_cell_angle_gamma   90.00000000
_symmetry_Int_Tables_number   1
_chemical_formula_structural   LiFe3P3O13
_chemical_formula_sum   'Li2 Fe6 P6 O26'
_cell_volume   498.55544911
_cell_formula_units_Z   2
loop_
 _symmetry_equiv_pos_site_id
 _symmetry_equiv_pos_as_xyz
  1  'x, y, z'
loop_
 _atom_site_type_symbol
 _atom_site_label
 _atom_site_symmetry_multiplicity
 _atom_site_fract_x
 _atom_site_fract_y
 _atom_site_fract_z
 _atom_site_occupancy
  Li  Li0  1  0.379082  0.750000  0.864532  1
  Li  Li1  1  0.620918  0.250000  0.135468  1
  Fe  Fe2  1  0.638366  0.250000  0.803499  1
  Fe  Fe3  1  0.361634  0.750000  0.196501  1
  Fe  Fe4  1  0.220615  0.250000  0.555210  1
  Fe  Fe5  1  0.000000  0.500000  0.000000  1
  Fe  Fe6  1  0.779385  0.750000  0.444790  1
  Fe  Fe7  1  0.000000  0.000000  0.000000  1
  P  P8  1  0.781294  0.250000  0.517167  1
  P  P9  1  0.218706  0.750000  0.482833  1
  P  P10  1  0.268170  0.250000  0.233243  1
  P  P11  1  0.731830  0.750000  0.766757  1
  P  P12  1  0.694137  0.750000  0.120242  1
  P  P13  1  0.305863  0.250000  0.879758  1
  O  O14  1  0.650946  0.750000  0.260663  1
  O  O15  1  0.259292  0.554736  0.569314  1
  O  O16  1  0.217819  0.250000  0.368182  1
  O  O17  1  0.795171  0.545864  0.096368  1
  O  O18  1  0.343756  0.750000  0.381169  1
  O  O19  1  0.124729  0.750000  0.089703  1
  O  O20  1  0.656244  0.250000  0.618831  1
  O  O21  1  0.204829  0.045864  0.903632  1
  O  O22  1  0.979100  0.250000  0.585010  1
  O  O23  1  0.020900  0.750000  0.414990  1
  O  O24  1  0.383445  0.060021  0.206701  1
  O  O25  1  0.875271  0.250000  0.910297  1
  O  O26  1  0.616555  0.560021  0.793299  1
  O  O27  1  0.501208  0.750000  0.042279  1
  O  O28  1  0.782181  0.750000  0.631818  1
  O  O29  1  0.204829  0.454136  0.903632  1
  O  O30  1  0.259292  0.945264  0.569314  1
  O  O31  1  0.740708  0.445264  0.430686  1
  O  O32  1  0.383445  0.439979  0.206701  1
  O  O33  1  0.349054  0.250000  0.739337  1
  O  O34  1  0.908224  0.750000  0.871239  1
  O  O35  1  0.091776  0.250000  0.128761  1
  O  O36  1  0.616555  0.939979  0.793299  1
  O  O37  1  0.795171  0.954136  0.096368  1
  O  O38  1  0.740708  0.054736  0.430686  1
  O  O39  1  0.498792  0.250000  0.957721  1
