# generated using pymatgen
data_BeSiN2
_symmetry_space_group_name_H-M   'P 1'
_cell_length_a   4.99615288
_cell_length_b   4.99615288
_cell_length_c   4.99615288
_cell_angle_alpha   131.89005134
_cell_angle_beta   131.89005134
_cell_angle_gamma   70.40273437
_symmetry_Int_Tables_number   1
_chemical_formula_structural   BeSiN2
_chemical_formula_sum   'Be2 Si2 N4'
_cell_volume   67.72592381
_cell_formula_units_Z   2
loop_
 _symmetry_equiv_pos_site_id
 _symmetry_equiv_pos_as_xyz
  1  'x, y, z'
loop_
 _atom_site_type_symbol
 _atom_site_label
 _atom_site_symmetry_multiplicity
 _atom_site_fract_x
 _atom_site_fract_y
 _atom_site_fract_z
 _atom_site_occupancy
  Be  Be0  1  0.750000  0.250000  0.500000  1
  Be  Be1  1  0.000000  0.000000  0.000000  1
  Si  Si2  1  0.250000  0.750000  0.500000  1
  Si  Si3  1  0.500000  0.500000  0.000000  1
  N  N4  1  0.129493  0.125000  0.504493  1
  N  N5  1  0.620507  0.625000  0.495507  1
  N  N6  1  0.875000  0.379493  0.004493  1
  N  N7  1  0.375000  0.870507  0.995507  1
