# generated using pymatgen
data_LiEuO2
_symmetry_space_group_name_H-M   'P 1'
_cell_length_a   3.48349708
_cell_length_b   5.41251853
_cell_length_c   11.47968625
_cell_angle_alpha   90.00000000
_cell_angle_beta   90.00000000
_cell_angle_gamma   90.00000000
_symmetry_Int_Tables_number   1
_chemical_formula_structural   LiEuO2
_chemical_formula_sum   'Li4 Eu4 O8'
_cell_volume   216.44365824
_cell_formula_units_Z   4
loop_
 _symmetry_equiv_pos_site_id
 _symmetry_equiv_pos_as_xyz
  1  'x, y, z'
loop_
 _atom_site_type_symbol
 _atom_site_label
 _atom_site_symmetry_multiplicity
 _atom_site_fract_x
 _atom_site_fract_y
 _atom_site_fract_z
 _atom_site_occupancy
  Li  Li0  1  0.250000  0.403772  0.565578  1
  Li  Li1  1  0.250000  0.096228  0.065578  1
  Li  Li2  1  0.750000  0.596228  0.434422  1
  Li  Li3  1  0.750000  0.903772  0.934422  1
  Eu  Eu4  1  0.250000  0.457630  0.860501  1
  Eu  Eu5  1  0.250000  0.042370  0.360501  1
  Eu  Eu6  1  0.750000  0.542370  0.139499  1
  Eu  Eu7  1  0.750000  0.957630  0.639499  1
  O  O8  1  0.250000  0.753767  0.525199  1
  O  O9  1  0.250000  0.746233  0.025199  1
  O  O10  1  0.750000  0.246233  0.474801  1
  O  O11  1  0.750000  0.253767  0.974801  1
  O  O12  1  0.250000  0.199776  0.702342  1
  O  O13  1  0.250000  0.300224  0.202342  1
  O  O14  1  0.750000  0.800224  0.297658  1
  O  O15  1  0.750000  0.699776  0.797658  1
