# generated using pymatgen
data_Y3Ge5
_symmetry_space_group_name_H-M   'P 1'
_cell_length_a   11.12045789
_cell_length_b   9.18651820
_cell_length_c   7.48837510
_cell_angle_alpha   82.98489531
_cell_angle_beta   55.07554423
_cell_angle_gamma   41.93956046
_symmetry_Int_Tables_number   1
_chemical_formula_structural   Y3Ge5
_chemical_formula_sum   'Y6 Ge10'
_cell_volume   348.92581274
_cell_formula_units_Z   2
loop_
 _symmetry_equiv_pos_site_id
 _symmetry_equiv_pos_as_xyz
  1  'x, y, z'
loop_
 _atom_site_type_symbol
 _atom_site_label
 _atom_site_symmetry_multiplicity
 _atom_site_fract_x
 _atom_site_fract_y
 _atom_site_fract_z
 _atom_site_occupancy
  Y  Y0  1  0.754835  0.745165  0.754835  1
  Y  Y1  1  0.504835  0.495165  0.504835  1
  Y  Y2  1  0.180258  0.155972  0.813526  1
  Y  Y3  1  0.813526  0.850244  0.180258  1
  Y  Y4  1  0.399756  0.436474  0.094028  1
  Y  Y5  1  0.094028  0.069742  0.399756  1
  Ge  Ge6  1  0.727469  0.400928  0.974402  1
  Ge  Ge7  1  0.974402  0.897201  0.727469  1
  Ge  Ge8  1  0.352799  0.275598  0.849072  1
  Ge  Ge9  1  0.849072  0.522531  0.352799  1
  Ge  Ge10  1  0.505247  0.668696  0.830027  1
  Ge  Ge11  1  0.830027  0.996029  0.505247  1
  Ge  Ge12  1  0.056136  0.943864  0.056136  1
  Ge  Ge13  1  0.306136  0.193864  0.306136  1
  Ge  Ge14  1  0.581304  0.744753  0.253971  1
  Ge  Ge15  1  0.253971  0.419973  0.581304  1
