# generated using pymatgen
data_ZrSi2
_symmetry_space_group_name_H-M   'P 1'
_cell_length_a   7.60747545
_cell_length_b   7.60747545
_cell_length_c   3.68008761
_cell_angle_alpha   90.00000000
_cell_angle_beta   90.00000000
_cell_angle_gamma   151.69047302
_symmetry_Int_Tables_number   1
_chemical_formula_structural   ZrSi2
_chemical_formula_sum   'Zr2 Si4'
_cell_volume   101.00259195
_cell_formula_units_Z   2
loop_
 _symmetry_equiv_pos_site_id
 _symmetry_equiv_pos_as_xyz
  1  'x, y, z'
loop_
 _atom_site_type_symbol
 _atom_site_label
 _atom_site_symmetry_multiplicity
 _atom_site_fract_x
 _atom_site_fract_y
 _atom_site_fract_z
 _atom_site_occupancy
  Zr  Zr0  1  0.895071  0.104929  0.750000  1
  Zr  Zr1  1  0.104929  0.895071  0.250000  1
  Si  Si2  1  0.553545  0.446455  0.750000  1
  Si  Si3  1  0.446455  0.553545  0.250000  1
  Si  Si4  1  0.250261  0.749739  0.750000  1
  Si  Si5  1  0.749739  0.250261  0.250000  1
