# generated using pymatgen
data_Co2As
_symmetry_space_group_name_H-M   'P 1'
_cell_length_a   11.89791408
_cell_length_b   11.89791408
_cell_length_c   3.58193426
_cell_angle_alpha   90.00000000
_cell_angle_beta   90.00000000
_cell_angle_gamma   120.00000000
_symmetry_Int_Tables_number   1
_chemical_formula_structural   Co2As
_chemical_formula_sum   'Co24 As12'
_cell_volume   439.12675599
_cell_formula_units_Z   12
loop_
 _symmetry_equiv_pos_site_id
 _symmetry_equiv_pos_as_xyz
  1  'x, y, z'
loop_
 _atom_site_type_symbol
 _atom_site_label
 _atom_site_symmetry_multiplicity
 _atom_site_fract_x
 _atom_site_fract_y
 _atom_site_fract_z
 _atom_site_occupancy
  Co  Co0  1  0.312383  0.000000  0.000000  1
  Co  Co1  1  0.687617  0.687617  0.000000  1
  Co  Co2  1  0.000000  0.312383  0.000000  1
  Co  Co3  1  0.796845  0.000000  0.000000  1
  Co  Co4  1  0.203155  0.203155  0.000000  1
  Co  Co5  1  0.000000  0.796845  0.000000  1
  Co  Co6  1  0.172459  0.543722  0.500000  1
  Co  Co7  1  0.371263  0.827541  0.500000  1
  Co  Co8  1  0.456278  0.628737  0.500000  1
  Co  Co9  1  0.628737  0.456278  0.500000  1
  Co  Co10  1  0.827541  0.371263  0.500000  1
  Co  Co11  1  0.543722  0.172459  0.500000  1
  Co  Co12  1  0.127865  0.000000  0.500000  1
  Co  Co13  1  0.872135  0.872135  0.500000  1
  Co  Co14  1  0.000000  0.127865  0.500000  1
  Co  Co15  1  0.628050  0.000000  0.500000  1
  Co  Co16  1  0.371950  0.371950  0.500000  1
  Co  Co17  1  0.000000  0.628050  0.500000  1
  Co  Co18  1  0.175276  0.718679  0.000000  1
  Co  Co19  1  0.543402  0.824724  0.000000  1
  Co  Co20  1  0.281321  0.456598  0.000000  1
  Co  Co21  1  0.456598  0.281321  0.000000  1
  Co  Co22  1  0.824724  0.543402  0.000000  1
  Co  Co23  1  0.718679  0.175276  0.000000  1
  As  As24  1  0.000000  0.000000  0.000000  1
  As  As25  1  0.502780  0.000000  0.000000  1
  As  As26  1  0.497220  0.497220  0.000000  1
  As  As27  1  0.000000  0.502780  0.000000  1
  As  As28  1  0.336286  0.158454  0.500000  1
  As  As29  1  0.822168  0.663714  0.500000  1
  As  As30  1  0.841546  0.177832  0.500000  1
  As  As31  1  0.177832  0.841546  0.500000  1
  As  As32  1  0.663714  0.822168  0.500000  1
  As  As33  1  0.158454  0.336286  0.500000  1
  As  As34  1  0.333333  0.666667  0.000000  1
  As  As35  1  0.666667  0.333333  0.000000  1
