# generated using pymatgen
data_Ba2WO3F4
_symmetry_space_group_name_H-M   'P 1'
_cell_length_a   7.57595490
_cell_length_b   7.57595490
_cell_length_c   7.32050068
_cell_angle_alpha   62.86364572
_cell_angle_beta   117.13635428
_cell_angle_gamma   101.62903931
_symmetry_Int_Tables_number   1
_chemical_formula_structural   Ba2WO3F4
_chemical_formula_sum   'Ba4 W2 O6 F8'
_cell_volume   332.74115553
_cell_formula_units_Z   2
loop_
 _symmetry_equiv_pos_site_id
 _symmetry_equiv_pos_as_xyz
  1  'x, y, z'
loop_
 _atom_site_type_symbol
 _atom_site_label
 _atom_site_symmetry_multiplicity
 _atom_site_fract_x
 _atom_site_fract_y
 _atom_site_fract_z
 _atom_site_occupancy
  Ba  Ba0  1  0.739661  0.501068  0.445221  1
  Ba  Ba1  1  0.498932  0.260339  0.945221  1
  Ba  Ba2  1  0.154497  0.498715  0.109864  1
  Ba  Ba3  1  0.501285  0.845503  0.609864  1
  W  W4  1  0.028561  0.025689  0.992345  1
  W  W5  1  0.974311  0.971439  0.492345  1
  O  O6  1  0.084110  0.731031  0.624308  1
  O  O7  1  0.268969  0.915890  0.124308  1
  O  O8  1  0.924808  0.950185  0.738433  1
  O  O9  1  0.049815  0.075192  0.238433  1
  O  O10  1  0.719945  0.915786  0.338816  1
  O  O11  1  0.084214  0.280055  0.838816  1
  F  F12  1  0.900420  0.275339  0.346081  1
  F  F13  1  0.724661  0.099580  0.846081  1
  F  F14  1  0.478264  0.595408  0.998099  1
  F  F15  1  0.404592  0.521736  0.498099  1
  F  F16  1  0.918898  0.749068  0.141795  1
  F  F17  1  0.250932  0.081102  0.641795  1
  F  F18  1  0.476101  0.227775  0.326039  1
  F  F19  1  0.772225  0.523899  0.826039  1
