# generated using pymatgen
data_Pr2AlCo2
_symmetry_space_group_name_H-M   'P 1'
_cell_length_a   5.66225001
_cell_length_b   5.66225001
_cell_length_c   5.66225001
_cell_angle_alpha   138.40048467
_cell_angle_beta   120.37462305
_cell_angle_gamma   75.31792014
_symmetry_Int_Tables_number   1
_chemical_formula_structural   Pr2AlCo2
_chemical_formula_sum   'Pr2 Al1 Co2'
_cell_volume   101.48980991
_cell_formula_units_Z   1
loop_
 _symmetry_equiv_pos_site_id
 _symmetry_equiv_pos_as_xyz
  1  'x, y, z'
loop_
 _atom_site_type_symbol
 _atom_site_label
 _atom_site_symmetry_multiplicity
 _atom_site_fract_x
 _atom_site_fract_y
 _atom_site_fract_z
 _atom_site_occupancy
  Pr  Pr0  1  0.698237  0.198237  0.500000  1
  Pr  Pr1  1  0.301763  0.801763  0.500000  1
  Al  Al2  1  0.000000  0.000000  0.000000  1
  Co  Co3  1  0.269630  0.500000  0.769630  1
  Co  Co4  1  0.730370  0.500000  0.230370  1
