# generated using pymatgen
data_NaSe2
_symmetry_space_group_name_H-M   'P 1'
_cell_length_a   9.56580538
_cell_length_b   9.56580538
_cell_length_c   9.56580538
_cell_angle_alpha   114.88093392
_cell_angle_beta   114.88093392
_cell_angle_gamma   99.12170354
_symmetry_Int_Tables_number   1
_chemical_formula_structural   NaSe2
_chemical_formula_sum   'Na8 Se16'
_cell_volume   657.77364817
_cell_formula_units_Z   8
loop_
 _symmetry_equiv_pos_site_id
 _symmetry_equiv_pos_as_xyz
  1  'x, y, z'
loop_
 _atom_site_type_symbol
 _atom_site_label
 _atom_site_symmetry_multiplicity
 _atom_site_fract_x
 _atom_site_fract_y
 _atom_site_fract_z
 _atom_site_occupancy
  Na  Na0  1  0.622286  0.625000  0.497286  1
  Na  Na1  1  0.375000  0.872286  0.997286  1
  Na  Na2  1  0.875000  0.377714  0.002714  1
  Na  Na3  1  0.127714  0.125000  0.502714  1
  Na  Na4  1  0.189642  0.189642  0.000000  1
  Na  Na5  1  0.810358  0.810358  0.000000  1
  Na  Na6  1  0.560358  0.060358  0.500000  1
  Na  Na7  1  0.939642  0.439642  0.500000  1
  Se  Se8  1  0.293333  0.532829  0.518008  1
  Se  Se9  1  0.467171  0.985179  0.760504  1
  Se  Se10  1  0.224675  0.706667  0.239496  1
  Se  Se11  1  0.456667  0.474675  0.739496  1
  Se  Se12  1  0.735179  0.717171  0.260504  1
  Se  Se13  1  0.014821  0.775325  0.481992  1
  Se  Se14  1  0.525325  0.264821  0.981992  1
  Se  Se15  1  0.282829  0.543333  0.018008  1
  Se  Se16  1  0.022034  0.312637  0.747277  1
  Se  Se17  1  0.565360  0.274758  0.252723  1
  Se  Se18  1  0.024758  0.815360  0.752723  1
  Se  Se19  1  0.725242  0.977966  0.290602  1
  Se  Se20  1  0.687363  0.434640  0.709398  1
  Se  Se21  1  0.184640  0.937363  0.209398  1
  Se  Se22  1  0.727966  0.975242  0.790602  1
  Se  Se23  1  0.062637  0.272034  0.247277  1
