# generated using pymatgen
data_HfNi
_symmetry_space_group_name_H-M   'P 1'
_cell_length_a   5.14825507
_cell_length_b   5.14825507
_cell_length_c   4.08579334
_cell_angle_alpha   90.00000000
_cell_angle_beta   90.00000000
_cell_angle_gamma   143.34419438
_symmetry_Int_Tables_number   1
_chemical_formula_structural   HfNi
_chemical_formula_sum   'Hf2 Ni2'
_cell_volume   64.65105085
_cell_formula_units_Z   2
loop_
 _symmetry_equiv_pos_site_id
 _symmetry_equiv_pos_as_xyz
  1  'x, y, z'
loop_
 _atom_site_type_symbol
 _atom_site_label
 _atom_site_symmetry_multiplicity
 _atom_site_fract_x
 _atom_site_fract_y
 _atom_site_fract_z
 _atom_site_occupancy
  Hf  Hf0  1  0.140317  0.859683  0.250000  1
  Hf  Hf1  1  0.859683  0.140317  0.750000  1
  Ni  Ni2  1  0.416289  0.583711  0.250000  1
  Ni  Ni3  1  0.583711  0.416289  0.750000  1
