# generated using pymatgen
data_Li3Ni2(GeO4)3
_symmetry_space_group_name_H-M   'P 1'
_cell_length_a   10.26349594
_cell_length_b   10.26349594
_cell_length_c   10.26349594
_cell_angle_alpha   109.47122063
_cell_angle_beta   109.47122063
_cell_angle_gamma   109.47122063
_symmetry_Int_Tables_number   1
_chemical_formula_structural   Li3Ni2(GeO4)3
_chemical_formula_sum   'Li12 Ni8 Ge12 O48'
_cell_volume   832.26964305
_cell_formula_units_Z   4
loop_
 _symmetry_equiv_pos_site_id
 _symmetry_equiv_pos_as_xyz
  1  'x, y, z'
loop_
 _atom_site_type_symbol
 _atom_site_label
 _atom_site_symmetry_multiplicity
 _atom_site_fract_x
 _atom_site_fract_y
 _atom_site_fract_z
 _atom_site_occupancy
  Li  Li0  1  0.625000  0.250000  0.875000  1
  Li  Li1  1  0.875000  0.750000  0.625000  1
  Li  Li2  1  0.750000  0.625000  0.875000  1
  Li  Li3  1  0.250000  0.875000  0.625000  1
  Li  Li4  1  0.875000  0.625000  0.250000  1
  Li  Li5  1  0.625000  0.875000  0.750000  1
  Li  Li6  1  0.375000  0.750000  0.125000  1
  Li  Li7  1  0.125000  0.250000  0.375000  1
  Li  Li8  1  0.250000  0.375000  0.125000  1
  Li  Li9  1  0.750000  0.125000  0.375000  1
  Li  Li10  1  0.125000  0.375000  0.750000  1
  Li  Li11  1  0.375000  0.125000  0.250000  1
  Ni  Ni12  1  0.500000  0.500000  0.500000  1
  Ni  Ni13  1  0.500000  0.500000  0.000000  1
  Ni  Ni14  1  0.500000  1.000000  0.500000  1
  Ni  Ni15  1  1.000000  0.500000  0.500000  1
  Ni  Ni16  1  0.500000  1.000000  0.000000  1
  Ni  Ni17  1  1.000000  1.000000  0.500000  1
  Ni  Ni18  1  1.000000  0.500000  0.000000  1
  Ni  Ni19  1  0.000000  0.000000  0.000000  1
  Ge  Ge20  1  0.875000  0.125000  0.750000  1
  Ge  Ge21  1  0.125000  0.875000  0.250000  1
  Ge  Ge22  1  0.250000  0.625000  0.375000  1
  Ge  Ge23  1  0.125000  0.750000  0.875000  1
  Ge  Ge24  1  0.750000  0.875000  0.125000  1
  Ge  Ge25  1  0.375000  0.250000  0.625000  1
  Ge  Ge26  1  0.625000  0.750000  0.375000  1
  Ge  Ge27  1  0.875000  0.250000  0.125000  1
  Ge  Ge28  1  0.250000  0.125000  0.875000  1
  Ge  Ge29  1  0.750000  0.375000  0.625000  1
  Ge  Ge30  1  0.375000  0.625000  0.750000  1
  Ge  Ge31  1  0.625000  0.375000  0.250000  1
  O  O32  1  0.801234  0.420508  0.824217  1
  O  O33  1  0.079492  0.880726  0.403709  1
  O  O34  1  0.675783  0.096291  0.977017  1
  O  O35  1  0.698766  0.522983  0.619274  1
  O  O36  1  0.698766  0.675783  0.079492  1
  O  O37  1  0.522983  0.619274  0.698766  1
  O  O38  1  0.096291  0.619274  0.420508  1
  O  O39  1  0.619274  0.698766  0.522983  1
  O  O40  1  0.403709  0.824217  0.522983  1
  O  O41  1  0.880726  0.977017  0.801234  1
  O  O42  1  0.977017  0.801234  0.880726  1
  O  O43  1  0.079492  0.698766  0.675783  1
  O  O44  1  0.619274  0.420508  0.096291  1
  O  O45  1  0.522983  0.403709  0.824217  1
  O  O46  1  0.675783  0.079492  0.698766  1
  O  O47  1  0.420508  0.096291  0.619274  1
  O  O48  1  0.824217  0.522983  0.403709  1
  O  O49  1  0.403709  0.079492  0.880726  1
  O  O50  1  0.096291  0.977017  0.675783  1
  O  O51  1  0.596291  0.175783  0.477017  1
  O  O52  1  0.977017  0.675783  0.096291  1
  O  O53  1  0.824217  0.801234  0.420508  1
  O  O54  1  0.880726  0.403709  0.079492  1
  O  O55  1  0.801234  0.880726  0.977017  1
  O  O56  1  0.198766  0.579492  0.175783  1
  O  O57  1  0.920508  0.119274  0.596291  1
  O  O58  1  0.324217  0.903709  0.022983  1
  O  O59  1  0.301234  0.477017  0.380726  1
  O  O60  1  0.301234  0.324217  0.920508  1
  O  O61  1  0.477017  0.380726  0.301234  1
  O  O62  1  0.903709  0.380726  0.579492  1
  O  O63  1  0.380726  0.301234  0.477017  1
  O  O64  1  0.198766  0.119274  0.022983  1
  O  O65  1  0.119274  0.596291  0.920508  1
  O  O66  1  0.175783  0.198766  0.579492  1
  O  O67  1  0.579492  0.175783  0.198766  1
  O  O68  1  0.022983  0.324217  0.903709  1
  O  O69  1  0.903709  0.022983  0.324217  1
  O  O70  1  0.596291  0.920508  0.119274  1
  O  O71  1  0.175783  0.477017  0.596291  1
  O  O72  1  0.579492  0.903709  0.380726  1
  O  O73  1  0.324217  0.920508  0.301234  1
  O  O74  1  0.477017  0.596291  0.175783  1
  O  O75  1  0.380726  0.579492  0.903709  1
  O  O76  1  0.920508  0.301234  0.324217  1
  O  O77  1  0.022983  0.198766  0.119274  1
  O  O78  1  0.119274  0.022983  0.198766  1
  O  O79  1  0.420508  0.824217  0.801234  1
