# generated using pymatgen
data_BaTb2ZnO5
_symmetry_space_group_name_H-M   'P 1'
_cell_length_a   5.78106210
_cell_length_b   7.17893090
_cell_length_c   12.49437822
_cell_angle_alpha   90.00000000
_cell_angle_beta   90.00000000
_cell_angle_gamma   90.00000000
_symmetry_Int_Tables_number   1
_chemical_formula_structural   BaTb2ZnO5
_chemical_formula_sum   'Ba4 Tb8 Zn4 O20'
_cell_volume   518.53975256
_cell_formula_units_Z   4
loop_
 _symmetry_equiv_pos_site_id
 _symmetry_equiv_pos_as_xyz
  1  'x, y, z'
loop_
 _atom_site_type_symbol
 _atom_site_label
 _atom_site_symmetry_multiplicity
 _atom_site_fract_x
 _atom_site_fract_y
 _atom_site_fract_z
 _atom_site_occupancy
  Ba  Ba0  1  0.750000  0.422853  0.601220  1
  Ba  Ba1  1  0.750000  0.077147  0.101220  1
  Ba  Ba2  1  0.250000  0.577147  0.398780  1
  Ba  Ba3  1  0.250000  0.922853  0.898780  1
  Tb  Tb4  1  0.250000  0.118294  0.292016  1
  Tb  Tb5  1  0.750000  0.881706  0.707984  1
  Tb  Tb6  1  0.750000  0.618294  0.207984  1
  Tb  Tb7  1  0.250000  0.381706  0.792016  1
  Tb  Tb8  1  0.250000  0.399521  0.074493  1
  Tb  Tb9  1  0.750000  0.600479  0.925507  1
  Tb  Tb10  1  0.750000  0.899521  0.425507  1
  Tb  Tb11  1  0.250000  0.100479  0.574493  1
  Zn  Zn12  1  0.250000  0.808533  0.149865  1
  Zn  Zn13  1  0.750000  0.308533  0.350135  1
  Zn  Zn14  1  0.250000  0.691467  0.649865  1
  Zn  Zn15  1  0.750000  0.191467  0.850135  1
  O  O16  1  0.250000  0.426170  0.599964  1
  O  O17  1  0.750000  0.573830  0.400036  1
  O  O18  1  0.750000  0.926170  0.900036  1
  O  O19  1  0.250000  0.073830  0.099964  1
  O  O20  1  0.001029  0.857170  0.275351  1
  O  O21  1  0.501029  0.142830  0.724649  1
  O  O22  1  0.998971  0.357170  0.224649  1
  O  O23  1  0.498971  0.642830  0.775351  1
  O  O24  1  0.998971  0.142830  0.724649  1
  O  O25  1  0.498971  0.857170  0.275351  1
  O  O26  1  0.001029  0.642830  0.775351  1
  O  O27  1  0.501029  0.357170  0.224649  1
  O  O28  1  0.497673  0.663702  0.066060  1
  O  O29  1  0.997673  0.336298  0.933940  1
  O  O30  1  0.502327  0.163702  0.433940  1
  O  O31  1  0.002327  0.836298  0.566060  1
  O  O32  1  0.997673  0.163702  0.433940  1
  O  O33  1  0.497673  0.836298  0.566060  1
  O  O34  1  0.002327  0.663702  0.066060  1
  O  O35  1  0.502327  0.336298  0.933940  1
