# generated using pymatgen
data_Rb2LiGaF6
_symmetry_space_group_name_H-M   'P 1'
_cell_length_a   10.27361366
_cell_length_b   10.27361366
_cell_length_c   10.27361366
_cell_angle_alpha   33.76325801
_cell_angle_beta   33.76325801
_cell_angle_gamma   33.76325801
_symmetry_Int_Tables_number   1
_chemical_formula_structural   Rb2LiGaF6
_chemical_formula_sum   'Rb4 Li2 Ga2 F12'
_cell_volume   298.42745969
_cell_formula_units_Z   2
loop_
 _symmetry_equiv_pos_site_id
 _symmetry_equiv_pos_as_xyz
  1  'x, y, z'
loop_
 _atom_site_type_symbol
 _atom_site_label
 _atom_site_symmetry_multiplicity
 _atom_site_fract_x
 _atom_site_fract_y
 _atom_site_fract_z
 _atom_site_occupancy
  Rb  Rb0  1  0.282876  0.282876  0.282876  1
  Rb  Rb1  1  0.717124  0.717124  0.717124  1
  Rb  Rb2  1  0.127562  0.127562  0.127562  1
  Rb  Rb3  1  0.872438  0.872438  0.872438  1
  Li  Li4  1  0.595942  0.595942  0.595942  1
  Li  Li5  1  0.404058  0.404058  0.404058  1
  Ga  Ga6  1  0.500000  0.500000  0.500000  1
  Ga  Ga7  1  0.000000  0.000000  0.000000  1
  F  F8  1  0.806826  0.806826  0.272465  1
  F  F9  1  0.193174  0.193174  0.727535  1
  F  F10  1  0.806826  0.272465  0.806826  1
  F  F11  1  0.272465  0.806826  0.806826  1
  F  F12  1  0.193174  0.727535  0.193174  1
  F  F13  1  0.727535  0.193174  0.193174  1
  F  F14  1  0.835134  0.393265  0.393265  1
  F  F15  1  0.393265  0.835134  0.393265  1
  F  F16  1  0.393265  0.393265  0.835134  1
  F  F17  1  0.606735  0.606735  0.164866  1
  F  F18  1  0.164866  0.606735  0.606735  1
  F  F19  1  0.606735  0.164866  0.606735  1
