# generated using pymatgen
data_KEr2CuSe4
_symmetry_space_group_name_H-M   'P 1'
_cell_length_a   7.28608840
_cell_length_b   7.28608840
_cell_length_c   14.30799567
_cell_angle_alpha   90.00000000
_cell_angle_beta   90.00000000
_cell_angle_gamma   147.41207877
_symmetry_Int_Tables_number   1
_chemical_formula_structural   KEr2CuSe4
_chemical_formula_sum   'K2 Er4 Cu2 Se8'
_cell_volume   409.09909217
_cell_formula_units_Z   2
loop_
 _symmetry_equiv_pos_site_id
 _symmetry_equiv_pos_as_xyz
  1  'x, y, z'
loop_
 _atom_site_type_symbol
 _atom_site_label
 _atom_site_symmetry_multiplicity
 _atom_site_fract_x
 _atom_site_fract_y
 _atom_site_fract_z
 _atom_site_occupancy
  K  K0  1  0.112846  0.887154  0.250000  1
  K  K1  1  0.887154  0.112846  0.750000  1
  Er  Er2  1  0.365923  0.634077  0.434865  1
  Er  Er3  1  0.634077  0.365923  0.565135  1
  Er  Er4  1  0.634077  0.365923  0.934865  1
  Er  Er5  1  0.365923  0.634077  0.065135  1
  Cu  Cu6  1  0.839468  0.160532  0.250000  1
  Cu  Cu7  1  0.160532  0.839468  0.750000  1
  Se  Se8  1  0.563852  0.436148  0.750000  1
  Se  Se9  1  0.436148  0.563852  0.250000  1
  Se  Se10  1  0.264774  0.735226  0.889468  1
  Se  Se11  1  0.735226  0.264774  0.110532  1
  Se  Se12  1  0.735226  0.264774  0.389468  1
  Se  Se13  1  0.264774  0.735226  0.610532  1
  Se  Se14  1  0.000000  0.000000  0.000000  1
  Se  Se15  1  0.000000  0.000000  0.500000  1
