# generated using pymatgen
data_LaSn
_symmetry_space_group_name_H-M   'P 1'
_cell_length_a   6.47126421
_cell_length_b   6.47126421
_cell_length_c   4.44934248
_cell_angle_alpha   90.00000000
_cell_angle_beta   90.00000000
_cell_angle_gamma   136.10282392
_symmetry_Int_Tables_number   1
_chemical_formula_structural   LaSn
_chemical_formula_sum   'La2 Sn2'
_cell_volume   129.19236163
_cell_formula_units_Z   2
loop_
 _symmetry_equiv_pos_site_id
 _symmetry_equiv_pos_as_xyz
  1  'x, y, z'
loop_
 _atom_site_type_symbol
 _atom_site_label
 _atom_site_symmetry_multiplicity
 _atom_site_fract_x
 _atom_site_fract_y
 _atom_site_fract_z
 _atom_site_occupancy
  La  La0  1  0.863403  0.136597  0.250000  1
  La  La1  1  0.136597  0.863403  0.750000  1
  Sn  Sn2  1  0.586198  0.413802  0.250000  1
  Sn  Sn3  1  0.413802  0.586198  0.750000  1
