# generated using pymatgen
data_Nb4GaSe8
_symmetry_space_group_name_H-M   'P 1'
_cell_length_a   7.46376502
_cell_length_b   7.46376502
_cell_length_c   7.46376502
_cell_angle_alpha   60.00000000
_cell_angle_beta   60.00000000
_cell_angle_gamma   60.00000000
_symmetry_Int_Tables_number   1
_chemical_formula_structural   Nb4GaSe8
_chemical_formula_sum   'Nb4 Ga1 Se8'
_cell_volume   294.00781622
_cell_formula_units_Z   1
loop_
 _symmetry_equiv_pos_site_id
 _symmetry_equiv_pos_as_xyz
  1  'x, y, z'
loop_
 _atom_site_type_symbol
 _atom_site_label
 _atom_site_symmetry_multiplicity
 _atom_site_fract_x
 _atom_site_fract_y
 _atom_site_fract_z
 _atom_site_occupancy
  Nb  Nb0  1  0.191717  0.602761  0.602761  1
  Nb  Nb1  1  0.602761  0.602761  0.191717  1
  Nb  Nb2  1  0.602761  0.602761  0.602761  1
  Nb  Nb3  1  0.602761  0.191717  0.602761  1
  Ga  Ga4  1  0.000000  0.000000  0.000000  1
  Se  Se5  1  0.405616  0.864795  0.864795  1
  Se  Se6  1  0.864795  0.864795  0.405616  1
  Se  Se7  1  0.864795  0.864795  0.864795  1
  Se  Se8  1  0.365267  0.904199  0.365267  1
  Se  Se9  1  0.365267  0.365267  0.365267  1
  Se  Se10  1  0.365267  0.365267  0.904199  1
  Se  Se11  1  0.904199  0.365267  0.365267  1
  Se  Se12  1  0.864795  0.405616  0.864795  1
