# generated using pymatgen
data_Er2O3
_symmetry_space_group_name_H-M   'P 1'
_cell_length_a   3.63483583
_cell_length_b   3.63483583
_cell_length_c   5.83274216
_cell_angle_alpha   90.00000000
_cell_angle_beta   90.00000000
_cell_angle_gamma   120.00000000
_symmetry_Int_Tables_number   1
_chemical_formula_structural   Er2O3
_chemical_formula_sum   'Er2 O3'
_cell_volume   66.73797297
_cell_formula_units_Z   1
loop_
 _symmetry_equiv_pos_site_id
 _symmetry_equiv_pos_as_xyz
  1  'x, y, z'
loop_
 _atom_site_type_symbol
 _atom_site_label
 _atom_site_symmetry_multiplicity
 _atom_site_fract_x
 _atom_site_fract_y
 _atom_site_fract_z
 _atom_site_occupancy
  Er  Er0  1  0.666667  0.333333  0.749897  1
  Er  Er1  1  0.333333  0.666667  0.250103  1
  O  O2  1  0.666667  0.333333  0.354259  1
  O  O3  1  0.333333  0.666667  0.645741  1
  O  O4  1  0.000000  0.000000  0.000000  1
