# generated using pymatgen
data_Sn5(S2Cl)2
_symmetry_space_group_name_H-M   'P 1'
_cell_length_a   5.88605021
_cell_length_b   5.97880959
_cell_length_c   18.03610363
_cell_angle_alpha   90.00000000
_cell_angle_beta   90.00000000
_cell_angle_gamma   90.00000000
_symmetry_Int_Tables_number   1
_chemical_formula_structural   Sn5(S2Cl)2
_chemical_formula_sum   'Sn10 S8 Cl4'
_cell_volume   634.71886552
_cell_formula_units_Z   2
loop_
 _symmetry_equiv_pos_site_id
 _symmetry_equiv_pos_as_xyz
  1  'x, y, z'
loop_
 _atom_site_type_symbol
 _atom_site_label
 _atom_site_symmetry_multiplicity
 _atom_site_fract_x
 _atom_site_fract_y
 _atom_site_fract_z
 _atom_site_occupancy
  Sn  Sn0  1  0.257229  0.332589  0.574710  1
  Sn  Sn1  1  0.742771  0.332589  0.425290  1
  Sn  Sn2  1  0.742771  0.332589  0.074710  1
  Sn  Sn3  1  0.257229  0.332589  0.925290  1
  Sn  Sn4  1  0.248809  0.868382  0.424392  1
  Sn  Sn5  1  0.751191  0.868382  0.575608  1
  Sn  Sn6  1  0.751191  0.868382  0.924392  1
  Sn  Sn7  1  0.248809  0.868382  0.075608  1
  Sn  Sn8  1  0.743657  0.363761  0.750000  1
  Sn  Sn9  1  0.256343  0.363761  0.250000  1
  S  S10  1  0.249887  0.887274  0.570931  1
  S  S11  1  0.750113  0.887274  0.429069  1
  S  S12  1  0.750113  0.887274  0.070931  1
  S  S13  1  0.249887  0.887274  0.929069  1
  S  S14  1  0.260311  0.343141  0.419685  1
  S  S15  1  0.739689  0.343141  0.580315  1
  S  S16  1  0.739689  0.343141  0.919685  1
  S  S17  1  0.260311  0.343141  0.080315  1
  Cl  Cl18  1  0.763237  0.940707  0.750000  1
  Cl  Cl19  1  0.236763  0.940707  0.250000  1
  Cl  Cl20  1  0.298370  0.359349  0.750000  1
  Cl  Cl21  1  0.701630  0.359349  0.250000  1
