# generated using pymatgen
data_Rb2Cd3S4
_symmetry_space_group_name_H-M   'P 1'
_cell_length_a   6.72472906
_cell_length_b   10.76183900
_cell_length_c   14.46681647
_cell_angle_alpha   90.00000000
_cell_angle_beta   90.00000000
_cell_angle_gamma   90.00000000
_symmetry_Int_Tables_number   1
_chemical_formula_structural   Rb2Cd3S4
_chemical_formula_sum   'Rb8 Cd12 S16'
_cell_volume   1046.97003916
_cell_formula_units_Z   4
loop_
 _symmetry_equiv_pos_site_id
 _symmetry_equiv_pos_as_xyz
  1  'x, y, z'
loop_
 _atom_site_type_symbol
 _atom_site_label
 _atom_site_symmetry_multiplicity
 _atom_site_fract_x
 _atom_site_fract_y
 _atom_site_fract_z
 _atom_site_occupancy
  Rb  Rb0  1  0.521478  0.750000  0.465684  1
  Rb  Rb1  1  0.021478  0.250000  0.034316  1
  Rb  Rb2  1  0.478522  0.250000  0.534316  1
  Rb  Rb3  1  0.978522  0.750000  0.965684  1
  Rb  Rb4  1  0.500000  0.000000  0.000000  1
  Rb  Rb5  1  0.000000  0.500000  0.500000  1
  Rb  Rb6  1  0.500000  0.500000  0.000000  1
  Rb  Rb7  1  0.000000  0.000000  0.500000  1
  Cd  Cd8  1  0.822525  0.906057  0.252947  1
  Cd  Cd9  1  0.322525  0.093943  0.247053  1
  Cd  Cd10  1  0.177475  0.406057  0.747053  1
  Cd  Cd11  1  0.677475  0.593943  0.752947  1
  Cd  Cd12  1  0.177475  0.093943  0.747053  1
  Cd  Cd13  1  0.677475  0.906057  0.752947  1
  Cd  Cd14  1  0.822525  0.593943  0.252947  1
  Cd  Cd15  1  0.322525  0.406057  0.247053  1
  Cd  Cd16  1  0.240517  0.750000  0.707284  1
  Cd  Cd17  1  0.740517  0.250000  0.792716  1
  Cd  Cd18  1  0.759483  0.250000  0.292716  1
  Cd  Cd19  1  0.259483  0.750000  0.207284  1
  S  S20  1  0.108052  0.962041  0.141363  1
  S  S21  1  0.608052  0.037959  0.358637  1
  S  S22  1  0.891948  0.462041  0.858637  1
  S  S23  1  0.391948  0.537959  0.641363  1
  S  S24  1  0.891948  0.037959  0.858637  1
  S  S25  1  0.391948  0.962041  0.641363  1
  S  S26  1  0.108052  0.537959  0.141363  1
  S  S27  1  0.608052  0.462041  0.358637  1
  S  S28  1  0.456020  0.750000  0.855950  1
  S  S29  1  0.956020  0.250000  0.644050  1
  S  S30  1  0.543980  0.250000  0.144050  1
  S  S31  1  0.043980  0.750000  0.355950  1
  S  S32  1  0.383472  0.250000  0.846059  1
  S  S33  1  0.116528  0.250000  0.346059  1
  S  S34  1  0.616528  0.750000  0.153941  1
  S  S35  1  0.883472  0.750000  0.653941  1
