# generated using pymatgen
data_Zn8Cu5
_symmetry_space_group_name_H-M   'P 1'
_cell_length_a   7.66733265
_cell_length_b   7.66733265
_cell_length_c   7.66733265
_cell_angle_alpha   109.47122063
_cell_angle_beta   109.47122063
_cell_angle_gamma   109.47122063
_symmetry_Int_Tables_number   1
_chemical_formula_structural   Zn8Cu5
_chemical_formula_sum   'Zn16 Cu10'
_cell_volume   346.98526016
_cell_formula_units_Z   2
loop_
 _symmetry_equiv_pos_site_id
 _symmetry_equiv_pos_as_xyz
  1  'x, y, z'
loop_
 _atom_site_type_symbol
 _atom_site_label
 _atom_site_symmetry_multiplicity
 _atom_site_fract_x
 _atom_site_fract_y
 _atom_site_fract_z
 _atom_site_occupancy
  Zn  Zn0  1  0.218440  1.000000  1.000000  1
  Zn  Zn1  1  1.000000  0.218440  0.000000  1
  Zn  Zn2  1  0.000000  1.000000  0.218440  1
  Zn  Zn3  1  0.781560  0.781560  0.781560  1
  Zn  Zn4  1  0.349522  0.723519  0.000000  1
  Zn  Zn5  1  0.626003  0.276481  0.276481  1
  Zn  Zn6  1  0.349522  1.000000  0.723519  1
  Zn  Zn7  1  0.723519  0.349522  1.000000  1
  Zn  Zn8  1  1.000000  0.349522  0.723519  1
  Zn  Zn9  1  0.276481  0.626003  0.276481  1
  Zn  Zn10  1  0.276481  0.276481  0.626003  1
  Zn  Zn11  1  1.000000  0.723519  0.349522  1
  Zn  Zn12  1  0.723519  1.000000  0.349522  1
  Zn  Zn13  1  0.650478  0.650478  0.373997  1
  Zn  Zn14  1  0.373997  0.650478  0.650478  1
  Zn  Zn15  1  0.650478  0.373997  0.650478  1
  Cu  Cu16  1  0.655781  1.000000  1.000000  1
  Cu  Cu17  1  1.000000  0.655781  0.000000  1
  Cu  Cu18  1  0.000000  1.000000  0.655781  1
  Cu  Cu19  1  0.344219  0.344219  0.344219  1
  Cu  Cu20  1  1.000000  0.643644  0.643644  1
  Cu  Cu21  1  0.356356  1.000000  0.356356  1
  Cu  Cu22  1  0.356356  0.356356  0.000000  1
  Cu  Cu23  1  1.000000  0.356356  0.356356  1
  Cu  Cu24  1  0.643644  1.000000  0.643644  1
  Cu  Cu25  1  0.643644  0.643644  0.000000  1
