# generated using pymatgen
data_YAl
_symmetry_space_group_name_H-M   'P 1'
_cell_length_a   6.08344055
_cell_length_b   6.08344055
_cell_length_c   4.48258562
_cell_angle_alpha   90.00000000
_cell_angle_beta   90.00000000
_cell_angle_gamma   143.27590121
_symmetry_Int_Tables_number   1
_chemical_formula_structural   YAl
_chemical_formula_sum   'Y2 Al2'
_cell_volume   99.19755111
_cell_formula_units_Z   2
loop_
 _symmetry_equiv_pos_site_id
 _symmetry_equiv_pos_as_xyz
  1  'x, y, z'
loop_
 _atom_site_type_symbol
 _atom_site_label
 _atom_site_symmetry_multiplicity
 _atom_site_fract_x
 _atom_site_fract_y
 _atom_site_fract_z
 _atom_site_occupancy
  Y  Y0  1  0.350262  0.649738  0.250000  1
  Y  Y1  1  0.649738  0.350262  0.750000  1
  Al  Al2  1  0.069788  0.930212  0.250000  1
  Al  Al3  1  0.930212  0.069788  0.750000  1
