# generated using pymatgen
data_Sc5(In2Rh)2
_symmetry_space_group_name_H-M   'P 1'
_cell_length_a   3.35268139
_cell_length_b   7.73716922
_cell_length_c   17.69198300
_cell_angle_alpha   90.00000000
_cell_angle_beta   90.00000000
_cell_angle_gamma   90.00000000
_symmetry_Int_Tables_number   1
_chemical_formula_structural   Sc5(In2Rh)2
_chemical_formula_sum   'Sc10 In8 Rh4'
_cell_volume   458.93469653
_cell_formula_units_Z   2
loop_
 _symmetry_equiv_pos_site_id
 _symmetry_equiv_pos_as_xyz
  1  'x, y, z'
loop_
 _atom_site_type_symbol
 _atom_site_label
 _atom_site_symmetry_multiplicity
 _atom_site_fract_x
 _atom_site_fract_y
 _atom_site_fract_z
 _atom_site_occupancy
  Sc  Sc0  1  0.000000  0.000000  0.000000  1
  Sc  Sc1  1  0.000000  0.500000  0.500000  1
  Sc  Sc2  1  0.000000  0.744990  0.779082  1
  Sc  Sc3  1  0.000000  0.255010  0.220918  1
  Sc  Sc4  1  0.000000  0.244990  0.720918  1
  Sc  Sc5  1  0.000000  0.755010  0.279082  1
  Sc  Sc6  1  0.000000  0.875954  0.585482  1
  Sc  Sc7  1  0.000000  0.124046  0.414518  1
  Sc  Sc8  1  0.000000  0.375954  0.914518  1
  Sc  Sc9  1  0.000000  0.624046  0.085482  1
  In  In10  1  0.500000  0.796218  0.433209  1
  In  In11  1  0.500000  0.203782  0.566791  1
  In  In12  1  0.500000  0.296218  0.066791  1
  In  In13  1  0.500000  0.703782  0.933209  1
  In  In14  1  0.500000  0.930723  0.149267  1
  In  In15  1  0.500000  0.069277  0.850733  1
  In  In16  1  0.500000  0.430723  0.350733  1
  In  In17  1  0.500000  0.569277  0.649267  1
  Rh  Rh18  1  0.500000  0.962561  0.694266  1
  Rh  Rh19  1  0.500000  0.037439  0.305734  1
  Rh  Rh20  1  0.500000  0.462561  0.805734  1
  Rh  Rh21  1  0.500000  0.537439  0.194266  1
