# generated using pymatgen
data_DySi
_symmetry_space_group_name_H-M   'P 1'
_cell_length_a   3.83479919
_cell_length_b   5.69707894
_cell_length_c   7.91658249
_cell_angle_alpha   90.00000000
_cell_angle_beta   90.00000000
_cell_angle_gamma   90.00000000
_symmetry_Int_Tables_number   1
_chemical_formula_structural   DySi
_chemical_formula_sum   'Dy4 Si4'
_cell_volume   172.95479447
_cell_formula_units_Z   4
loop_
 _symmetry_equiv_pos_site_id
 _symmetry_equiv_pos_as_xyz
  1  'x, y, z'
loop_
 _atom_site_type_symbol
 _atom_site_label
 _atom_site_symmetry_multiplicity
 _atom_site_fract_x
 _atom_site_fract_y
 _atom_site_fract_z
 _atom_site_occupancy
  Dy  Dy0  1  0.250000  0.385369  0.679465  1
  Dy  Dy1  1  0.750000  0.614631  0.320535  1
  Dy  Dy2  1  0.750000  0.885369  0.820535  1
  Dy  Dy3  1  0.250000  0.114631  0.179465  1
  Si  Si4  1  0.250000  0.870504  0.537873  1
  Si  Si5  1  0.750000  0.129496  0.462127  1
  Si  Si6  1  0.750000  0.370504  0.962127  1
  Si  Si7  1  0.250000  0.629496  0.037873  1
