# generated using pymatgen
data_Sr3Al2(SiO4)3
_symmetry_space_group_name_H-M   'P 1'
_cell_length_a   10.63113606
_cell_length_b   10.63113606
_cell_length_c   10.63113606
_cell_angle_alpha   109.47122063
_cell_angle_beta   109.47122063
_cell_angle_gamma   109.47122063
_symmetry_Int_Tables_number   1
_chemical_formula_structural   Sr3Al2(SiO4)3
_chemical_formula_sum   'Sr12 Al8 Si12 O48'
_cell_volume   924.94761894
_cell_formula_units_Z   4
loop_
 _symmetry_equiv_pos_site_id
 _symmetry_equiv_pos_as_xyz
  1  'x, y, z'
loop_
 _atom_site_type_symbol
 _atom_site_label
 _atom_site_symmetry_multiplicity
 _atom_site_fract_x
 _atom_site_fract_y
 _atom_site_fract_z
 _atom_site_occupancy
  Sr  Sr0  1  0.250000  0.875000  0.625000  1
  Sr  Sr1  1  0.875000  0.625000  0.250000  1
  Sr  Sr2  1  0.625000  0.875000  0.750000  1
  Sr  Sr3  1  0.875000  0.750000  0.625000  1
  Sr  Sr4  1  0.625000  0.250000  0.875000  1
  Sr  Sr5  1  0.750000  0.625000  0.875000  1
  Sr  Sr6  1  0.750000  0.125000  0.375000  1
  Sr  Sr7  1  0.125000  0.375000  0.750000  1
  Sr  Sr8  1  0.375000  0.125000  0.250000  1
  Sr  Sr9  1  0.125000  0.250000  0.375000  1
  Sr  Sr10  1  0.375000  0.750000  0.125000  1
  Sr  Sr11  1  0.250000  0.375000  0.125000  1
  Al  Al12  1  0.000000  0.500000  0.500000  1
  Al  Al13  1  0.500000  1.000000  0.500000  1
  Al  Al14  1  0.500000  0.500000  0.500000  1
  Al  Al15  1  0.500000  0.000000  0.000000  1
  Al  Al16  1  0.000000  0.000000  0.500000  1
  Al  Al17  1  0.000000  0.500000  0.000000  1
  Al  Al18  1  0.000000  0.000000  0.000000  1
  Al  Al19  1  0.500000  0.500000  0.000000  1
  Si  Si20  1  0.125000  0.875000  0.250000  1
  Si  Si21  1  0.375000  0.625000  0.750000  1
  Si  Si22  1  0.625000  0.750000  0.375000  1
  Si  Si23  1  0.250000  0.625000  0.375000  1
  Si  Si24  1  0.750000  0.375000  0.625000  1
  Si  Si25  1  0.875000  0.125000  0.750000  1
  Si  Si26  1  0.125000  0.750000  0.875000  1
  Si  Si27  1  0.625000  0.375000  0.250000  1
  Si  Si28  1  0.375000  0.250000  0.625000  1
  Si  Si29  1  0.750000  0.875000  0.125000  1
  Si  Si30  1  0.875000  0.250000  0.125000  1
  Si  Si31  1  0.250000  0.125000  0.875000  1
  O  O32  1  0.690860  0.691834  0.082511  1
  O  O33  1  0.691834  0.109323  0.000974  1
  O  O34  1  0.608349  0.690860  0.499026  1
  O  O35  1  0.499026  0.608349  0.690860  1
  O  O36  1  0.082511  0.891651  0.390677  1
  O  O37  1  0.390677  0.082511  0.891651  1
  O  O38  1  0.109323  0.000974  0.691834  1
  O  O39  1  0.608349  0.417489  0.109323  1
  O  O40  1  0.499026  0.390677  0.808166  1
  O  O41  1  0.891651  0.000974  0.809140  1
  O  O42  1  0.417489  0.109323  0.608349  1
  O  O43  1  0.808166  0.499026  0.390677  1
  O  O44  1  0.000974  0.809140  0.891651  1
  O  O45  1  0.082511  0.690860  0.691834  1
  O  O46  1  0.691834  0.082511  0.690860  1
  O  O47  1  0.109323  0.608349  0.417489  1
  O  O48  1  0.808166  0.809140  0.417489  1
  O  O49  1  0.390677  0.808166  0.499026  1
  O  O50  1  0.417489  0.808166  0.809140  1
  O  O51  1  0.809140  0.891651  0.000974  1
  O  O52  1  0.809140  0.417489  0.808166  1
  O  O53  1  0.891651  0.390677  0.082511  1
  O  O54  1  0.000974  0.691834  0.109323  1
  O  O55  1  0.690860  0.499026  0.608349  1
  O  O56  1  0.309140  0.308166  0.917489  1
  O  O57  1  0.308166  0.890677  0.999026  1
  O  O58  1  0.391651  0.309140  0.500974  1
  O  O59  1  0.500974  0.391651  0.309140  1
  O  O60  1  0.917489  0.108349  0.609323  1
  O  O61  1  0.609323  0.917489  0.108349  1
  O  O62  1  0.890677  0.999026  0.308166  1
  O  O63  1  0.391651  0.582511  0.890677  1
  O  O64  1  0.500974  0.609323  0.191834  1
  O  O65  1  0.108349  0.999026  0.190860  1
  O  O66  1  0.582511  0.890677  0.391651  1
  O  O67  1  0.191834  0.500974  0.609323  1
  O  O68  1  0.999026  0.190860  0.108349  1
  O  O69  1  0.917489  0.309140  0.308166  1
  O  O70  1  0.308166  0.917489  0.309140  1
  O  O71  1  0.890677  0.391651  0.582511  1
  O  O72  1  0.191834  0.190860  0.582511  1
  O  O73  1  0.609323  0.191834  0.500974  1
  O  O74  1  0.582511  0.191834  0.190860  1
  O  O75  1  0.190860  0.108349  0.999026  1
  O  O76  1  0.190860  0.582511  0.191834  1
  O  O77  1  0.108349  0.609323  0.917489  1
  O  O78  1  0.999026  0.308166  0.890677  1
  O  O79  1  0.309140  0.500974  0.391651  1
