# generated using pymatgen
data_Ca(NiO2)4
_symmetry_space_group_name_H-M   'P 1'
_cell_length_a   6.46368836
_cell_length_b   6.46368836
_cell_length_c   6.46368836
_cell_angle_alpha   52.25734951
_cell_angle_beta   52.25734951
_cell_angle_gamma   52.25734951
_symmetry_Int_Tables_number   1
_chemical_formula_structural   Ca(NiO2)4
_chemical_formula_sum   'Ca1 Ni4 O8'
_cell_volume   156.21879114
_cell_formula_units_Z   1
loop_
 _symmetry_equiv_pos_site_id
 _symmetry_equiv_pos_as_xyz
  1  'x, y, z'
loop_
 _atom_site_type_symbol
 _atom_site_label
 _atom_site_symmetry_multiplicity
 _atom_site_fract_x
 _atom_site_fract_y
 _atom_site_fract_z
 _atom_site_occupancy
  Ca  Ca0  1  0.500000  0.500000  0.500000  1
  Ni  Ni1  1  0.000000  0.500000  0.500000  1
  Ni  Ni2  1  0.500000  0.500000  0.000000  1
  Ni  Ni3  1  0.500000  0.000000  0.500000  1
  Ni  Ni4  1  0.000000  1.000000  0.000000  1
  O  O5  1  0.704577  0.237442  0.237442  1
  O  O6  1  0.762558  0.295423  0.762558  1
  O  O7  1  0.295423  0.762558  0.762558  1
  O  O8  1  0.762558  0.762558  0.295423  1
  O  O9  1  0.723650  0.723650  0.723650  1
  O  O10  1  0.276350  0.276350  0.276350  1
  O  O11  1  0.237442  0.237442  0.704577  1
  O  O12  1  0.237442  0.704577  0.237442  1
