# generated using pymatgen
data_Ba6Na2V2Ru2O17
_symmetry_space_group_name_H-M   'P 1'
_cell_length_a   5.94350484
_cell_length_b   5.94350484
_cell_length_c   30.21098451
_cell_angle_alpha   90.00000000
_cell_angle_beta   90.00000000
_cell_angle_gamma   120.00000000
_symmetry_Int_Tables_number   1
_chemical_formula_structural   Ba6Na2V2Ru2O17
_chemical_formula_sum   'Ba12 Na4 V4 Ru4 O34'
_cell_volume   924.23146842
_cell_formula_units_Z   2
loop_
 _symmetry_equiv_pos_site_id
 _symmetry_equiv_pos_as_xyz
  1  'x, y, z'
loop_
 _atom_site_type_symbol
 _atom_site_label
 _atom_site_symmetry_multiplicity
 _atom_site_fract_x
 _atom_site_fract_y
 _atom_site_fract_z
 _atom_site_occupancy
  Ba  Ba0  1  0.000000  0.000000  0.750000  1
  Ba  Ba1  1  0.000000  0.000000  0.250000  1
  Ba  Ba2  1  0.000000  0.000000  0.500000  1
  Ba  Ba3  1  0.000000  0.000000  0.000000  1
  Ba  Ba4  1  0.333333  0.666667  0.907360  1
  Ba  Ba5  1  0.666667  0.333333  0.407360  1
  Ba  Ba6  1  0.666667  0.333333  0.092640  1
  Ba  Ba7  1  0.333333  0.666667  0.592640  1
  Ba  Ba8  1  0.333333  0.666667  0.319136  1
  Ba  Ba9  1  0.666667  0.333333  0.819136  1
  Ba  Ba10  1  0.666667  0.333333  0.680864  1
  Ba  Ba11  1  0.333333  0.666667  0.180864  1
  Na  Na12  1  0.000000  0.000000  0.375947  1
  Na  Na13  1  0.000000  0.000000  0.875947  1
  Na  Na14  1  0.000000  0.000000  0.624053  1
  Na  Na15  1  0.000000  0.000000  0.124053  1
  V  V16  1  0.333333  0.666667  0.448026  1
  V  V17  1  0.666667  0.333333  0.948026  1
  V  V18  1  0.666667  0.333333  0.551974  1
  V  V19  1  0.333333  0.666667  0.051974  1
  Ru  Ru20  1  0.333333  0.666667  0.796161  1
  Ru  Ru21  1  0.666667  0.333333  0.296161  1
  Ru  Ru22  1  0.666667  0.333333  0.203839  1
  Ru  Ru23  1  0.333333  0.666667  0.703839  1
  O  O24  1  0.333333  0.666667  0.994827  1
  O  O25  1  0.666667  0.333333  0.494827  1
  O  O26  1  0.666667  0.333333  0.005173  1
  O  O27  1  0.333333  0.666667  0.505173  1
  O  O28  1  0.486030  0.972060  0.750000  1
  O  O29  1  0.513970  0.486030  0.250000  1
  O  O30  1  0.972060  0.486030  0.250000  1
  O  O31  1  0.027940  0.513970  0.750000  1
  O  O32  1  0.486030  0.513970  0.750000  1
  O  O33  1  0.513970  0.027940  0.250000  1
  O  O34  1  0.177026  0.822974  0.670218  1
  O  O35  1  0.177026  0.354052  0.670218  1
  O  O36  1  0.645948  0.822974  0.670218  1
  O  O37  1  0.354052  0.177026  0.170218  1
  O  O38  1  0.822974  0.645948  0.329782  1
  O  O39  1  0.822974  0.177026  0.170218  1
  O  O40  1  0.822974  0.645948  0.170218  1
  O  O41  1  0.177026  0.822974  0.829782  1
  O  O42  1  0.645948  0.822974  0.829782  1
  O  O43  1  0.354052  0.177026  0.329782  1
  O  O44  1  0.822974  0.177026  0.329782  1
  O  O45  1  0.177026  0.354052  0.829782  1
  O  O46  1  0.174727  0.825273  0.072642  1
  O  O47  1  0.174727  0.349453  0.072642  1
  O  O48  1  0.174727  0.349453  0.427358  1
  O  O49  1  0.825273  0.174727  0.927358  1
  O  O50  1  0.349453  0.174727  0.927358  1
  O  O51  1  0.650547  0.825273  0.427358  1
  O  O52  1  0.174727  0.825273  0.427358  1
  O  O53  1  0.825273  0.650547  0.572642  1
  O  O54  1  0.825273  0.174727  0.572642  1
  O  O55  1  0.825273  0.650547  0.927358  1
  O  O56  1  0.349453  0.174727  0.572642  1
  O  O57  1  0.650547  0.825273  0.072642  1
