# generated using pymatgen
data_NaEr(PO3)4
_symmetry_space_group_name_H-M   'P 1'
_cell_length_a   7.25063651
_cell_length_b   13.20063267
_cell_length_c   12.11043437
_cell_angle_alpha   90.00000000
_cell_angle_beta   126.25861101
_cell_angle_gamma   90.00000000
_symmetry_Int_Tables_number   1
_chemical_formula_structural   NaEr(PO3)4
_chemical_formula_sum   'Na4 Er4 P16 O48'
_cell_volume   934.66778720
_cell_formula_units_Z   4
loop_
 _symmetry_equiv_pos_site_id
 _symmetry_equiv_pos_as_xyz
  1  'x, y, z'
loop_
 _atom_site_type_symbol
 _atom_site_label
 _atom_site_symmetry_multiplicity
 _atom_site_fract_x
 _atom_site_fract_y
 _atom_site_fract_z
 _atom_site_occupancy
  Na  Na0  1  0.560907  0.223542  0.060501  1
  Na  Na1  1  0.560907  0.276458  0.560501  1
  Na  Na2  1  0.439093  0.776458  0.939499  1
  Na  Na3  1  0.439093  0.723542  0.439499  1
  Er  Er4  1  0.033221  0.722133  0.521685  1
  Er  Er5  1  0.966779  0.222133  0.978315  1
  Er  Er6  1  0.966779  0.277867  0.478315  1
  Er  Er7  1  0.033221  0.777867  0.021685  1
  P  P8  1  0.391099  0.115014  0.764458  1
  P  P9  1  0.495293  0.396015  0.744757  1
  P  P10  1  0.495293  0.103985  0.244757  1
  P  P11  1  0.504707  0.603985  0.255243  1
  P  P12  1  0.608901  0.615014  0.735542  1
  P  P13  1  0.504707  0.896015  0.755243  1
  P  P14  1  0.391099  0.384986  0.264458  1
  P  P15  1  0.608901  0.884986  0.235542  1
  P  P16  1  0.845477  0.627179  0.198814  1
  P  P17  1  0.940339  0.093317  0.707068  1
  P  P18  1  0.940339  0.406683  0.207068  1
  P  P19  1  0.059661  0.906683  0.292932  1
  P  P20  1  0.154523  0.127179  0.301186  1
  P  P21  1  0.154523  0.372821  0.801186  1
  P  P22  1  0.845477  0.872821  0.698814  1
  P  P23  1  0.059661  0.593317  0.792932  1
  O  O24  1  0.395491  0.650655  0.603222  1
  O  O25  1  0.604509  0.150655  0.896778  1
  O  O26  1  0.604509  0.349345  0.396778  1
  O  O27  1  0.395491  0.849345  0.103222  1
  O  O28  1  0.148824  0.663710  0.911825  1
  O  O29  1  0.851176  0.163710  0.588175  1
  O  O30  1  0.851176  0.336290  0.088175  1
  O  O31  1  0.148824  0.836290  0.411825  1
  O  O32  1  0.291710  0.833629  0.698541  1
  O  O33  1  0.708290  0.333629  0.801459  1
  O  O34  1  0.708290  0.166371  0.301459  1
  O  O35  1  0.291710  0.666371  0.198541  1
  O  O36  1  0.691073  0.885023  0.906116  1
  O  O37  1  0.308927  0.385023  0.593884  1
  O  O38  1  0.308927  0.114977  0.093884  1
  O  O39  1  0.691073  0.614977  0.406116  1
  O  O40  1  0.121695  0.614731  0.696862  1
  O  O41  1  0.832972  0.792647  0.606753  1
  O  O42  1  0.878305  0.114731  0.803138  1
  O  O43  1  0.121695  0.885269  0.196862  1
  O  O44  1  0.020898  0.865799  0.850828  1
  O  O45  1  0.979102  0.365799  0.649172  1
  O  O46  1  0.979102  0.134201  0.149172  1
  O  O47  1  0.020898  0.634201  0.350828  1
  O  O48  1  0.857460  0.518939  0.142030  1
  O  O49  1  0.142540  0.018939  0.357970  1
  O  O50  1  0.142540  0.481061  0.857970  1
  O  O51  1  0.857460  0.981061  0.642030  1
  O  O52  1  0.569456  0.987995  0.287927  1
  O  O53  1  0.430544  0.487995  0.212073  1
  O  O54  1  0.430544  0.012005  0.712073  1
  O  O55  1  0.569456  0.512005  0.787927  1
  O  O56  1  0.592408  0.626037  0.162846  1
  O  O57  1  0.407592  0.126037  0.337154  1
  O  O58  1  0.407592  0.373963  0.837154  1
  O  O59  1  0.592408  0.873963  0.662846  1
  O  O60  1  0.784252  0.918165  0.201137  1
  O  O61  1  0.215748  0.418165  0.298863  1
  O  O62  1  0.215748  0.081835  0.798863  1
  O  O63  1  0.784252  0.581835  0.701137  1
  O  O64  1  0.723725  0.814107  0.354941  1
  O  O65  1  0.276275  0.314107  0.145059  1
  O  O66  1  0.276275  0.185893  0.645059  1
  O  O67  1  0.723725  0.685893  0.854941  1
  O  O68  1  0.832972  0.707353  0.106753  1
  O  O69  1  0.167028  0.207353  0.393247  1
  O  O70  1  0.167028  0.292647  0.893247  1
  O  O71  1  0.878305  0.385269  0.303138  1
