# generated using pymatgen
data_CeLu3
_symmetry_space_group_name_H-M   'P 1'
_cell_length_a   7.00035188
_cell_length_b   7.00035188
_cell_length_c   5.57333564
_cell_angle_alpha   90.00000000
_cell_angle_beta   90.00000000
_cell_angle_gamma   120.00000000
_symmetry_Int_Tables_number   1
_chemical_formula_structural   CeLu3
_chemical_formula_sum   'Ce2 Lu6'
_cell_volume   236.52964032
_cell_formula_units_Z   2
loop_
 _symmetry_equiv_pos_site_id
 _symmetry_equiv_pos_as_xyz
  1  'x, y, z'
loop_
 _atom_site_type_symbol
 _atom_site_label
 _atom_site_symmetry_multiplicity
 _atom_site_fract_x
 _atom_site_fract_y
 _atom_site_fract_z
 _atom_site_occupancy
  Ce  Ce0  1  0.333333  0.666667  0.750000  1
  Ce  Ce1  1  0.666667  0.333333  0.250000  1
  Lu  Lu2  1  0.166960  0.333920  0.250000  1
  Lu  Lu3  1  0.666080  0.833040  0.250000  1
  Lu  Lu4  1  0.166960  0.833040  0.250000  1
  Lu  Lu5  1  0.833040  0.666080  0.750000  1
  Lu  Lu6  1  0.333920  0.166960  0.750000  1
  Lu  Lu7  1  0.833040  0.166960  0.750000  1
