# generated using pymatgen
data_Ba5Dy8Zn4O21
_symmetry_space_group_name_H-M   'P 1'
_cell_length_a   10.24409115
_cell_length_b   10.24409115
_cell_length_c   10.24409115
_cell_angle_alpha   94.53034777
_cell_angle_beta   94.53034777
_cell_angle_gamma   147.35465707
_symmetry_Int_Tables_number   1
_chemical_formula_structural   Ba5Dy8Zn4O21
_chemical_formula_sum   'Ba5 Dy8 Zn4 O21'
_cell_volume   556.53712808
_cell_formula_units_Z   1
loop_
 _symmetry_equiv_pos_site_id
 _symmetry_equiv_pos_as_xyz
  1  'x, y, z'
loop_
 _atom_site_type_symbol
 _atom_site_label
 _atom_site_symmetry_multiplicity
 _atom_site_fract_x
 _atom_site_fract_y
 _atom_site_fract_z
 _atom_site_occupancy
  Ba  Ba0  1  0.139242  0.465127  0.604368  1
  Ba  Ba1  1  0.534873  0.139242  0.674115  1
  Ba  Ba2  1  0.465127  0.860758  0.325885  1
  Ba  Ba3  1  0.860758  0.534873  0.395632  1
  Ba  Ba4  1  0.000000  0.000000  0.000000  1
  Dy  Dy5  1  0.357830  0.588667  0.946497  1
  Dy  Dy6  1  0.411333  0.357830  0.769163  1
  Dy  Dy7  1  0.588667  0.642170  0.230837  1
  Dy  Dy8  1  0.642170  0.411333  0.053503  1
  Dy  Dy9  1  0.167853  0.752697  0.920550  1
  Dy  Dy10  1  0.247303  0.167853  0.415156  1
  Dy  Dy11  1  0.752697  0.832147  0.584844  1
  Dy  Dy12  1  0.832147  0.247303  0.079450  1
  Zn  Zn13  1  0.250820  0.959385  0.210205  1
  Zn  Zn14  1  0.040615  0.250820  0.291434  1
  Zn  Zn15  1  0.959385  0.749180  0.708566  1
  Zn  Zn16  1  0.749180  0.040615  0.789795  1
  O  O17  1  0.505293  0.099592  0.109127  1
  O  O18  1  0.396166  0.505293  0.405701  1
  O  O19  1  0.099592  0.990465  0.594299  1
  O  O20  1  0.990465  0.396166  0.890873  1
  O  O21  1  0.494707  0.900408  0.890873  1
  O  O22  1  0.603834  0.494707  0.594299  1
  O  O23  1  0.900408  0.009535  0.405701  1
  O  O24  1  0.009535  0.603834  0.109127  1
  O  O25  1  0.702179  0.927823  0.130033  1
  O  O26  1  0.572146  0.702179  0.774356  1
  O  O27  1  0.927823  0.797790  0.225644  1
  O  O28  1  0.797790  0.572146  0.869967  1
  O  O29  1  0.297821  0.072177  0.869967  1
  O  O30  1  0.427854  0.297821  0.225644  1
  O  O31  1  0.072177  0.202210  0.774356  1
  O  O32  1  0.202210  0.427854  0.130033  1
  O  O33  1  0.962729  0.371978  0.334707  1
  O  O34  1  0.500000  0.500000  0.000000  1
  O  O35  1  0.037271  0.628022  0.665293  1
  O  O36  1  0.371978  0.037271  0.409249  1
  O  O37  1  0.628022  0.962729  0.590751  1
