# generated using pymatgen
data_Sr2CaMoO6
_symmetry_space_group_name_H-M   'P 1'
_cell_length_a   5.81094659
_cell_length_b   6.13299019
_cell_length_c   8.33586347
_cell_angle_alpha   90.00000000
_cell_angle_beta   90.00000000
_cell_angle_gamma   90.00000000
_symmetry_Int_Tables_number   1
_chemical_formula_structural   Sr2CaMoO6
_chemical_formula_sum   'Sr4 Ca2 Mo2 O12'
_cell_volume   297.07749048
_cell_formula_units_Z   2
loop_
 _symmetry_equiv_pos_site_id
 _symmetry_equiv_pos_as_xyz
  1  'x, y, z'
loop_
 _atom_site_type_symbol
 _atom_site_label
 _atom_site_symmetry_multiplicity
 _atom_site_fract_x
 _atom_site_fract_y
 _atom_site_fract_z
 _atom_site_occupancy
  Sr  Sr0  1  0.500000  0.803154  0.768491  1
  Sr  Sr1  1  0.000000  0.196846  0.268491  1
  Sr  Sr2  1  0.500000  0.803154  0.231509  1
  Sr  Sr3  1  0.000000  0.196846  0.731509  1
  Ca  Ca4  1  0.000000  0.721664  0.500000  1
  Ca  Ca5  1  0.500000  0.278336  0.000000  1
  Mo  Mo6  1  0.500000  0.235329  0.500000  1
  Mo  Mo7  1  0.000000  0.764671  0.000000  1
  O  O8  1  0.500000  0.217763  0.732439  1
  O  O9  1  0.500000  0.217763  0.267561  1
  O  O10  1  0.000000  0.782237  0.767561  1
  O  O11  1  0.000000  0.782237  0.232439  1
  O  O12  1  0.746949  0.437543  0.500000  1
  O  O13  1  0.253051  0.437543  0.500000  1
  O  O14  1  0.731502  0.993677  0.500000  1
  O  O15  1  0.268498  0.993677  0.500000  1
  O  O16  1  0.246949  0.562457  0.000000  1
  O  O17  1  0.753051  0.562457  0.000000  1
  O  O18  1  0.768498  0.006323  0.000000  1
  O  O19  1  0.231502  0.006323  0.000000  1
