# generated using pymatgen
data_K3Sn4Au
_symmetry_space_group_name_H-M   'P 1'
_cell_length_a   6.66675844
_cell_length_b   6.94496658
_cell_length_c   12.88316501
_cell_angle_alpha   90.00000000
_cell_angle_beta   90.00000000
_cell_angle_gamma   90.00000000
_symmetry_Int_Tables_number   1
_chemical_formula_structural   K3Sn4Au
_chemical_formula_sum   'K6 Sn8 Au2'
_cell_volume   596.49588084
_cell_formula_units_Z   2
loop_
 _symmetry_equiv_pos_site_id
 _symmetry_equiv_pos_as_xyz
  1  'x, y, z'
loop_
 _atom_site_type_symbol
 _atom_site_label
 _atom_site_symmetry_multiplicity
 _atom_site_fract_x
 _atom_site_fract_y
 _atom_site_fract_z
 _atom_site_occupancy
  K  K0  1  0.558209  0.000000  0.000000  1
  K  K1  1  0.441791  0.500000  0.500000  1
  K  K2  1  0.828016  0.500000  0.746852  1
  K  K3  1  0.828016  0.500000  0.253148  1
  K  K4  1  0.171984  0.000000  0.753148  1
  K  K5  1  0.171984  0.000000  0.246852  1
  Sn  Sn6  1  0.332790  0.500000  0.878057  1
  Sn  Sn7  1  0.332790  0.500000  0.121943  1
  Sn  Sn8  1  0.040061  0.268299  0.000000  1
  Sn  Sn9  1  0.040061  0.731701  0.000000  1
  Sn  Sn10  1  0.959939  0.768299  0.500000  1
  Sn  Sn11  1  0.959939  0.231701  0.500000  1
  Sn  Sn12  1  0.667210  0.000000  0.378057  1
  Sn  Sn13  1  0.667210  0.000000  0.621943  1
  Au  Au14  1  0.687282  0.500000  0.000000  1
  Au  Au15  1  0.312718  0.000000  0.500000  1
