# generated using pymatgen
data_Nd2CdNi2
_symmetry_space_group_name_H-M   'P 1'
_cell_length_a   7.51427548
_cell_length_b   7.51427548
_cell_length_c   3.83894448
_cell_angle_alpha   90.00000000
_cell_angle_beta   90.00000000
_cell_angle_gamma   90.00000000
_symmetry_Int_Tables_number   1
_chemical_formula_structural   Nd2CdNi2
_chemical_formula_sum   'Nd4 Cd2 Ni4'
_cell_volume   216.76345096
_cell_formula_units_Z   2
loop_
 _symmetry_equiv_pos_site_id
 _symmetry_equiv_pos_as_xyz
  1  'x, y, z'
loop_
 _atom_site_type_symbol
 _atom_site_label
 _atom_site_symmetry_multiplicity
 _atom_site_fract_x
 _atom_site_fract_y
 _atom_site_fract_z
 _atom_site_occupancy
  Nd  Nd0  1  0.322705  0.822705  0.500000  1
  Nd  Nd1  1  0.822705  0.677295  0.500000  1
  Nd  Nd2  1  0.177295  0.322705  0.500000  1
  Nd  Nd3  1  0.677295  0.177295  0.500000  1
  Cd  Cd4  1  0.000000  0.000000  0.000000  1
  Cd  Cd5  1  0.500000  0.500000  0.000000  1
  Ni  Ni6  1  0.383468  0.116532  0.000000  1
  Ni  Ni7  1  0.883468  0.383468  0.000000  1
  Ni  Ni8  1  0.116532  0.616532  0.000000  1
  Ni  Ni9  1  0.616532  0.883468  0.000000  1
