# generated using pymatgen
data_Nd3OsO7
_symmetry_space_group_name_H-M   'P 1'
_cell_length_a   6.65662219
_cell_length_b   6.65662219
_cell_length_c   7.61667431
_cell_angle_alpha   90.00000000
_cell_angle_beta   90.00000000
_cell_angle_gamma   111.07497478
_symmetry_Int_Tables_number   1
_chemical_formula_structural   Nd3OsO7
_chemical_formula_sum   'Nd6 Os2 O14'
_cell_volume   314.92443801
_cell_formula_units_Z   2
loop_
 _symmetry_equiv_pos_site_id
 _symmetry_equiv_pos_as_xyz
  1  'x, y, z'
loop_
 _atom_site_type_symbol
 _atom_site_label
 _atom_site_symmetry_multiplicity
 _atom_site_fract_x
 _atom_site_fract_y
 _atom_site_fract_z
 _atom_site_occupancy
  Nd  Nd0  1  0.000000  0.000000  0.000000  1
  Nd  Nd1  1  0.000000  0.000000  0.500000  1
  Nd  Nd2  1  0.474567  0.920907  0.750000  1
  Nd  Nd3  1  0.525433  0.079093  0.250000  1
  Nd  Nd4  1  0.920907  0.474567  0.750000  1
  Nd  Nd5  1  0.079093  0.525433  0.250000  1
  Os  Os6  1  0.500000  0.500000  0.000000  1
  Os  Os7  1  0.500000  0.500000  0.500000  1
  O  O8  1  0.583414  0.583414  0.750000  1
  O  O9  1  0.416586  0.416586  0.250000  1
  O  O10  1  0.842819  0.106683  0.750000  1
  O  O11  1  0.157181  0.893317  0.250000  1
  O  O12  1  0.106683  0.842819  0.750000  1
  O  O13  1  0.893317  0.157181  0.250000  1
  O  O14  1  0.439492  0.188536  0.961665  1
  O  O15  1  0.560508  0.811464  0.461665  1
  O  O16  1  0.188536  0.439492  0.961665  1
  O  O17  1  0.811464  0.560508  0.461665  1
  O  O18  1  0.439492  0.188536  0.538335  1
  O  O19  1  0.560508  0.811464  0.038335  1
  O  O20  1  0.811464  0.560508  0.038335  1
  O  O21  1  0.188536  0.439492  0.538335  1
