# generated using pymatgen
data_BaMnP2O7
_symmetry_space_group_name_H-M   'P 1'
_cell_length_a   5.57314225
_cell_length_b   7.26124846
_cell_length_c   7.68816394
_cell_angle_alpha   101.57944607
_cell_angle_beta   90.10858754
_cell_angle_gamma   93.86759539
_symmetry_Int_Tables_number   1
_chemical_formula_structural   BaMnP2O7
_chemical_formula_sum   'Ba2 Mn2 P4 O14'
_cell_volume   304.06012184
_cell_formula_units_Z   2
loop_
 _symmetry_equiv_pos_site_id
 _symmetry_equiv_pos_as_xyz
  1  'x, y, z'
loop_
 _atom_site_type_symbol
 _atom_site_label
 _atom_site_symmetry_multiplicity
 _atom_site_fract_x
 _atom_site_fract_y
 _atom_site_fract_z
 _atom_site_occupancy
  Ba  Ba0  1  0.223519  0.771811  0.932650  1
  Ba  Ba1  1  0.776481  0.228189  0.067350  1
  Mn  Mn2  1  0.201348  0.631682  0.394547  1
  Mn  Mn3  1  0.798652  0.368318  0.605453  1
  P  P4  1  0.706878  0.820981  0.593959  1
  P  P5  1  0.293122  0.179019  0.406041  1
  P  P6  1  0.712244  0.729562  0.203975  1
  P  P7  1  0.287756  0.270438  0.796025  1
  O  O8  1  0.932510  0.608305  0.191349  1
  O  O9  1  0.067490  0.391695  0.808651  1
  O  O10  1  0.474672  0.607532  0.194975  1
  O  O11  1  0.525328  0.392468  0.805025  1
  O  O12  1  0.723610  0.851153  0.063401  1
  O  O13  1  0.276390  0.148847  0.936599  1
  O  O14  1  0.732403  0.870940  0.396135  1
  O  O15  1  0.267597  0.129060  0.603865  1
  O  O16  1  0.108673  0.331951  0.401396  1
  O  O17  1  0.891327  0.668049  0.598604  1
  O  O18  1  0.766766  0.003939  0.722120  1
  O  O19  1  0.233234  0.996061  0.277880  1
  O  O20  1  0.551604  0.266070  0.395204  1
  O  O21  1  0.448396  0.733930  0.604796  1
