# generated using pymatgen
data_CsPbBr3
_symmetry_space_group_name_H-M   'P 1'
_cell_length_a   8.45961130
_cell_length_b   8.45961130
_cell_length_c   8.45961130
_cell_angle_alpha   120.09771569
_cell_angle_beta   120.09771569
_cell_angle_gamma   89.83083463
_symmetry_Int_Tables_number   1
_chemical_formula_structural   CsPbBr3
_chemical_formula_sum   'Cs2 Pb2 Br6'
_cell_volume   427.45683200
_cell_formula_units_Z   2
loop_
 _symmetry_equiv_pos_site_id
 _symmetry_equiv_pos_as_xyz
  1  'x, y, z'
loop_
 _atom_site_type_symbol
 _atom_site_label
 _atom_site_symmetry_multiplicity
 _atom_site_fract_x
 _atom_site_fract_y
 _atom_site_fract_z
 _atom_site_occupancy
  Cs  Cs0  1  0.750000  0.250000  0.500000  1
  Cs  Cs1  1  0.250000  0.750000  0.500000  1
  Pb  Pb2  1  0.000000  0.000000  0.000000  1
  Pb  Pb3  1  0.500000  0.500000  0.000000  1
  Br  Br4  1  0.250000  0.250000  0.000000  1
  Br  Br5  1  0.750000  0.750000  0.000000  1
  Br  Br6  1  0.719231  0.219231  0.938463  1
  Br  Br7  1  0.280769  0.780769  0.061537  1
  Br  Br8  1  0.219231  0.280769  0.500000  1
  Br  Br9  1  0.780769  0.719231  0.500000  1
