# generated using pymatgen
data_K2ZrSi2O7
_symmetry_space_group_name_H-M   'P 1'
_cell_length_a   11.27597813
_cell_length_b   11.27597813
_cell_length_c   14.33145703
_cell_angle_alpha   67.18764546
_cell_angle_beta   112.81235454
_cell_angle_gamma   120.10714109
_symmetry_Int_Tables_number   1
_chemical_formula_structural   K2ZrSi2O7
_chemical_formula_sum   'K16 Zr8 Si16 O56'
_cell_volume   1409.76419737
_cell_formula_units_Z   8
loop_
 _symmetry_equiv_pos_site_id
 _symmetry_equiv_pos_as_xyz
  1  'x, y, z'
loop_
 _atom_site_type_symbol
 _atom_site_label
 _atom_site_symmetry_multiplicity
 _atom_site_fract_x
 _atom_site_fract_y
 _atom_site_fract_z
 _atom_site_occupancy
  K  K0  1  0.110198  0.382377  0.590229  1
  K  K1  1  0.617623  0.889802  0.590229  1
  K  K2  1  0.889802  0.617623  0.409771  1
  K  K3  1  0.382377  0.110198  0.409771  1
  K  K4  1  0.883282  0.608578  0.918456  1
  K  K5  1  0.391422  0.116718  0.918456  1
  K  K6  1  0.116718  0.391422  0.081544  1
  K  K7  1  0.608578  0.883282  0.081544  1
  K  K8  1  0.609631  0.390369  0.576615  1
  K  K9  1  0.390369  0.609631  0.423385  1
  K  K10  1  0.888779  0.111221  0.921273  1
  K  K11  1  0.111221  0.888779  0.078727  1
  K  K12  1  0.378563  0.621437  0.889200  1
  K  K13  1  0.621437  0.378563  0.110800  1
  K  K14  1  0.117852  0.882148  0.604269  1
  K  K15  1  0.882148  0.117852  0.395731  1
  Zr  Zr16  1  0.011508  0.988492  0.781649  1
  Zr  Zr17  1  0.988492  0.011508  0.218351  1
  Zr  Zr18  1  0.487627  0.512373  0.718909  1
  Zr  Zr19  1  0.512373  0.487627  0.281091  1
  Zr  Zr20  1  0.996179  0.498038  0.750251  1
  Zr  Zr21  1  0.501962  0.003821  0.750251  1
  Zr  Zr22  1  0.003821  0.501962  0.249749  1
  Zr  Zr23  1  0.498038  0.996179  0.249749  1
  Si  Si24  1  0.279154  0.198372  0.620802  1
  Si  Si25  1  0.801628  0.720846  0.620802  1
  Si  Si26  1  0.720846  0.801628  0.379198  1
  Si  Si27  1  0.198372  0.279154  0.379198  1
  Si  Si28  1  0.219666  0.302883  0.879566  1
  Si  Si29  1  0.697117  0.780334  0.879566  1
  Si  Si30  1  0.780334  0.697117  0.120434  1
  Si  Si31  1  0.302883  0.219666  0.120434  1
  Si  Si32  1  0.800348  0.199652  0.632876  1
  Si  Si33  1  0.199652  0.800348  0.367124  1
  Si  Si34  1  0.698602  0.301398  0.867815  1
  Si  Si35  1  0.301398  0.698602  0.132185  1
  Si  Si36  1  0.283923  0.716077  0.611011  1
  Si  Si37  1  0.716077  0.283923  0.388989  1
  Si  Si38  1  0.214718  0.785282  0.889191  1
  Si  Si39  1  0.785282  0.214718  0.110809  1
  O  O40  1  0.132306  0.867694  0.892579  1
  O  O41  1  0.867694  0.132306  0.107421  1
  O  O42  1  0.137313  0.135207  0.879694  1
  O  O43  1  0.864793  0.862687  0.879694  1
  O  O44  1  0.862687  0.864793  0.120306  1
  O  O45  1  0.135207  0.137313  0.120306  1
  O  O46  1  0.605440  0.666082  0.806437  1
  O  O47  1  0.333918  0.394560  0.806437  1
  O  O48  1  0.394560  0.333918  0.193563  1
  O  O49  1  0.666082  0.605440  0.193563  1
  O  O50  1  0.633864  0.638602  0.620280  1
  O  O51  1  0.361398  0.366136  0.620280  1
  O  O52  1  0.366136  0.361398  0.379720  1
  O  O53  1  0.638602  0.633864  0.379720  1
  O  O54  1  0.180755  0.180755  0.500000  1
  O  O55  1  0.819245  0.819245  0.500000  1
  O  O56  1  0.319691  0.319691  0.000000  1
  O  O57  1  0.680309  0.680309  0.000000  1
  O  O58  1  0.605639  0.394361  0.801495  1
  O  O59  1  0.394361  0.605639  0.198505  1
  O  O60  1  0.366979  0.633021  0.609408  1
  O  O61  1  0.633021  0.366979  0.390592  1
  O  O62  1  0.111949  0.375209  0.851907  1
  O  O63  1  0.624791  0.888051  0.851907  1
  O  O64  1  0.888051  0.624791  0.148093  1
  O  O65  1  0.375209  0.111949  0.148093  1
  O  O66  1  0.873382  0.612434  0.649675  1
  O  O67  1  0.387566  0.126618  0.649675  1
  O  O68  1  0.126618  0.387566  0.350325  1
  O  O69  1  0.612434  0.873382  0.350325  1
  O  O70  1  0.107444  0.652101  0.836256  1
  O  O71  1  0.347899  0.892556  0.836256  1
  O  O72  1  0.892556  0.347899  0.163744  1
  O  O73  1  0.652101  0.107444  0.163744  1
  O  O74  1  0.390421  0.849160  0.664239  1
  O  O75  1  0.150840  0.609579  0.664239  1
  O  O76  1  0.609579  0.150840  0.335761  1
  O  O77  1  0.849160  0.390421  0.335761  1
  O  O78  1  0.857463  0.381979  0.850184  1
  O  O79  1  0.618021  0.142537  0.850184  1
  O  O80  1  0.142537  0.618021  0.149816  1
  O  O81  1  0.381979  0.857463  0.149816  1
  O  O82  1  0.641833  0.118999  0.651101  1
  O  O83  1  0.881001  0.358167  0.651101  1
  O  O84  1  0.358167  0.881001  0.348899  1
  O  O85  1  0.118999  0.641833  0.348899  1
  O  O86  1  0.787791  0.212209  0.509878  1
  O  O87  1  0.212209  0.787791  0.490122  1
  O  O88  1  0.711779  0.288221  0.991131  1
  O  O89  1  0.288221  0.711779  0.008869  1
  O  O90  1  0.892886  0.836525  0.692552  1
  O  O91  1  0.163475  0.107114  0.692552  1
  O  O92  1  0.107114  0.163475  0.307448  1
  O  O93  1  0.836525  0.892886  0.307448  1
  O  O94  1  0.893413  0.106587  0.699399  1
  O  O95  1  0.106587  0.893413  0.300601  1
