# generated using pymatgen
data_MgS2O7
_symmetry_space_group_name_H-M   'P 1'
_cell_length_a   4.96783463
_cell_length_b   7.04535908
_cell_length_c   8.36136945
_cell_angle_alpha   92.50211987
_cell_angle_beta   94.62419251
_cell_angle_gamma   106.17935132
_symmetry_Int_Tables_number   1
_chemical_formula_structural   MgS2O7
_chemical_formula_sum   'Mg2 S4 O14'
_cell_volume   279.47485616
_cell_formula_units_Z   2
loop_
 _symmetry_equiv_pos_site_id
 _symmetry_equiv_pos_as_xyz
  1  'x, y, z'
loop_
 _atom_site_type_symbol
 _atom_site_label
 _atom_site_symmetry_multiplicity
 _atom_site_fract_x
 _atom_site_fract_y
 _atom_site_fract_z
 _atom_site_occupancy
  Mg  Mg0  1  0.000000  0.500000  0.000000  1
  Mg  Mg1  1  0.500000  0.000000  0.500000  1
  S  S2  1  0.505462  0.646123  0.768370  1
  S  S3  1  0.494538  0.353877  0.231630  1
  S  S4  1  0.130884  0.250872  0.688513  1
  S  S5  1  0.869116  0.749128  0.311487  1
  O  O6  1  0.733040  0.562525  0.817137  1
  O  O7  1  0.266960  0.437475  0.182863  1
  O  O8  1  0.342086  0.680640  0.898029  1
  O  O9  1  0.657914  0.319360  0.101971  1
  O  O10  1  0.588831  0.810407  0.667548  1
  O  O11  1  0.411169  0.189593  0.332452  1
  O  O12  1  0.285049  0.478336  0.638813  1
  O  O13  1  0.714951  0.521664  0.361187  1
  O  O14  1  0.898154  0.192135  0.563403  1
  O  O15  1  0.101846  0.807865  0.436597  1
  O  O16  1  0.338872  0.142076  0.678502  1
  O  O17  1  0.661128  0.857924  0.321498  1
  O  O18  1  0.052261  0.271000  0.851195  1
  O  O19  1  0.947739  0.729000  0.148805  1
