# generated using pymatgen
data_HeSiO2
_symmetry_space_group_name_H-M   'P 1'
_cell_length_a   9.14819736
_cell_length_b   9.14819736
_cell_length_c   9.14819736
_cell_angle_alpha   32.96491525
_cell_angle_beta   32.96491525
_cell_angle_gamma   32.96491525
_symmetry_Int_Tables_number   1
_chemical_formula_structural   HeSiO2
_chemical_formula_sum   'He4 Si4 O8'
_cell_volume   201.71017531
_cell_formula_units_Z   4
loop_
 _symmetry_equiv_pos_site_id
 _symmetry_equiv_pos_as_xyz
  1  'x, y, z'
loop_
 _atom_site_type_symbol
 _atom_site_label
 _atom_site_symmetry_multiplicity
 _atom_site_fract_x
 _atom_site_fract_y
 _atom_site_fract_z
 _atom_site_occupancy
  He  He0  1  0.320045  0.320045  0.320045  1
  He  He1  1  0.679955  0.679955  0.679955  1
  He  He2  1  0.820045  0.820045  0.820045  1
  He  He3  1  0.179955  0.179955  0.179955  1
  Si  Si4  1  0.062383  0.062383  0.062383  1
  Si  Si5  1  0.937617  0.937617  0.937617  1
  Si  Si6  1  0.562383  0.562383  0.562383  1
  Si  Si7  1  0.437617  0.437617  0.437617  1
  O  O8  1  0.000000  0.000000  0.000000  1
  O  O9  1  0.500000  0.500000  0.500000  1
  O  O10  1  0.750000  0.193909  0.306091  1
  O  O11  1  0.193909  0.306091  0.750000  1
  O  O12  1  0.306091  0.750000  0.193909  1
  O  O13  1  0.250000  0.806091  0.693909  1
  O  O14  1  0.806091  0.693909  0.250000  1
  O  O15  1  0.693909  0.250000  0.806091  1
