# generated using pymatgen
data_V5SiB2
_symmetry_space_group_name_H-M   'P 1'
_cell_length_a   6.75981239
_cell_length_b   6.75981239
_cell_length_c   6.75981239
_cell_angle_alpha   129.38839605
_cell_angle_beta   129.38839605
_cell_angle_gamma   74.38642574
_symmetry_Int_Tables_number   1
_chemical_formula_structural   V5SiB2
_chemical_formula_sum   'V10 Si2 B4'
_cell_volume   179.83511782
_cell_formula_units_Z   2
loop_
 _symmetry_equiv_pos_site_id
 _symmetry_equiv_pos_as_xyz
  1  'x, y, z'
loop_
 _atom_site_type_symbol
 _atom_site_label
 _atom_site_symmetry_multiplicity
 _atom_site_fract_x
 _atom_site_fract_y
 _atom_site_fract_z
 _atom_site_occupancy
  V  V0  1  0.032880  0.193087  0.500000  1
  V  V1  1  0.532880  0.032880  0.839794  1
  V  V2  1  0.193087  0.693087  0.160206  1
  V  V3  1  0.467120  0.967120  0.160206  1
  V  V4  1  0.693087  0.532880  0.500000  1
  V  V5  1  0.967120  0.806913  0.500000  1
  V  V6  1  0.306913  0.467120  0.500000  1
  V  V7  1  0.806913  0.306913  0.839794  1
  V  V8  1  0.500000  0.500000  0.000000  1
  V  V9  1  0.000000  0.000000  0.000000  1
  Si  Si10  1  0.750000  0.750000  0.000000  1
  Si  Si11  1  0.250000  0.250000  0.000000  1
  B  B12  1  0.114916  0.614916  0.729832  1
  B  B13  1  0.614916  0.885084  0.500000  1
  B  B14  1  0.385084  0.114916  0.500000  1
  B  B15  1  0.885084  0.385084  0.270168  1
