# generated using pymatgen
data_Ho3Si3O10F
_symmetry_space_group_name_H-M   'P 1'
_cell_length_a   7.36589079
_cell_length_b   11.22648102
_cell_length_c   11.98641551
_cell_angle_alpha   90.00000000
_cell_angle_beta   120.25926899
_cell_angle_gamma   90.00000000
_symmetry_Int_Tables_number   1
_chemical_formula_structural   Ho3Si3O10F
_chemical_formula_sum   'Ho12 Si12 O40 F4'
_cell_volume   856.14696238
_cell_formula_units_Z   4
loop_
 _symmetry_equiv_pos_site_id
 _symmetry_equiv_pos_as_xyz
  1  'x, y, z'
loop_
 _atom_site_type_symbol
 _atom_site_label
 _atom_site_symmetry_multiplicity
 _atom_site_fract_x
 _atom_site_fract_y
 _atom_site_fract_z
 _atom_site_occupancy
  Ho  Ho0  1  0.744090  0.469232  0.981726  1
  Ho  Ho1  1  0.255910  0.969232  0.518274  1
  Ho  Ho2  1  0.255910  0.530768  0.018274  1
  Ho  Ho3  1  0.744090  0.030768  0.481726  1
  Ho  Ho4  1  0.596027  0.229161  0.689127  1
  Ho  Ho5  1  0.403973  0.729161  0.810873  1
  Ho  Ho6  1  0.403973  0.770839  0.310873  1
  Ho  Ho7  1  0.596027  0.270839  0.189127  1
  Ho  Ho8  1  0.805594  0.098471  0.003185  1
  Ho  Ho9  1  0.194406  0.598471  0.496815  1
  Ho  Ho10  1  0.194406  0.901529  0.996815  1
  Ho  Ho11  1  0.805594  0.401529  0.503185  1
  Si  Si12  1  0.286315  0.463432  0.291565  1
  Si  Si13  1  0.876022  0.755757  0.109882  1
  Si  Si14  1  0.876022  0.744243  0.609882  1
  Si  Si15  1  0.123978  0.244243  0.890118  1
  Si  Si16  1  0.285151  0.413819  0.759408  1
  Si  Si17  1  0.714849  0.913819  0.740592  1
  Si  Si18  1  0.714849  0.586181  0.240592  1
  Si  Si19  1  0.285151  0.086181  0.259408  1
  Si  Si20  1  0.286315  0.036568  0.791565  1
  Si  Si21  1  0.713685  0.536568  0.708435  1
  Si  Si22  1  0.123978  0.255757  0.390118  1
  Si  Si23  1  0.713685  0.963432  0.208435  1
  O  O24  1  0.657829  0.090626  0.130018  1
  O  O25  1  0.342171  0.590626  0.369982  1
  O  O26  1  0.342171  0.909374  0.869982  1
  O  O27  1  0.657829  0.409374  0.630018  1
  O  O28  1  0.103909  0.478232  0.137901  1
  O  O29  1  0.896091  0.978232  0.362099  1
  O  O30  1  0.896091  0.521768  0.862099  1
  O  O31  1  0.103909  0.021768  0.637901  1
  O  O32  1  0.495957  0.103917  0.808632  1
  O  O33  1  0.504043  0.603917  0.691368  1
  O  O34  1  0.504043  0.896083  0.191368  1
  O  O35  1  0.495957  0.396083  0.308632  1
  O  O36  1  0.199143  0.392120  0.378520  1
  O  O37  1  0.800857  0.892120  0.121480  1
  O  O38  1  0.800857  0.607880  0.621480  1
  O  O39  1  0.199143  0.107880  0.878520  1
  O  O40  1  0.514331  0.356772  0.802655  1
  O  O41  1  0.896322  0.274406  0.379348  1
  O  O42  1  0.103678  0.725594  0.620652  1
  O  O43  1  0.896322  0.225594  0.879348  1
  O  O44  1  0.287511  0.181025  0.518553  1
  O  O45  1  0.712489  0.681025  0.981447  1
  O  O46  1  0.712489  0.818975  0.481447  1
  O  O47  1  0.287511  0.318975  0.018553  1
  O  O48  1  0.115693  0.178390  0.269316  1
  O  O49  1  0.884307  0.678390  0.230684  1
  O  O50  1  0.884307  0.821610  0.730684  1
  O  O51  1  0.115693  0.321610  0.769316  1
  O  O52  1  0.648893  0.024510  0.636506  1
  O  O53  1  0.351107  0.524510  0.863494  1
  O  O54  1  0.351107  0.975490  0.363494  1
  O  O55  1  0.648893  0.475490  0.136506  1
  O  O56  1  0.148270  0.049749  0.107782  1
  O  O57  1  0.851730  0.549749  0.392218  1
  O  O58  1  0.851730  0.950251  0.892218  1
  O  O59  1  0.148270  0.450251  0.607782  1
  O  O60  1  0.514331  0.143228  0.302655  1
  O  O61  1  0.485669  0.643228  0.197345  1
  O  O62  1  0.485669  0.856772  0.697345  1
  O  O63  1  0.103678  0.774406  0.120652  1
  F  F64  1  0.243533  0.714365  0.940634  1
  F  F65  1  0.756467  0.214365  0.559366  1
  F  F66  1  0.243533  0.785635  0.440634  1
  F  F67  1  0.756467  0.285635  0.059366  1
