# generated using pymatgen
data_BaNdCuBO5
_symmetry_space_group_name_H-M   'P 1'
_cell_length_a   5.55492750
_cell_length_b   5.55492750
_cell_length_c   7.65796177
_cell_angle_alpha   90.00000000
_cell_angle_beta   90.00000000
_cell_angle_gamma   90.00000000
_symmetry_Int_Tables_number   1
_chemical_formula_structural   BaNdCuBO5
_chemical_formula_sum   'Ba2 Nd2 Cu2 B2 O10'
_cell_volume   236.30340749
_cell_formula_units_Z   2
loop_
 _symmetry_equiv_pos_site_id
 _symmetry_equiv_pos_as_xyz
  1  'x, y, z'
loop_
 _atom_site_type_symbol
 _atom_site_label
 _atom_site_symmetry_multiplicity
 _atom_site_fract_x
 _atom_site_fract_y
 _atom_site_fract_z
 _atom_site_occupancy
  Ba  Ba0  1  0.500000  0.500000  0.512411  1
  Ba  Ba1  1  0.000000  0.000000  0.512411  1
  Nd  Nd2  1  0.500000  0.500000  0.004752  1
  Nd  Nd3  1  0.000000  0.000000  0.004752  1
  Cu  Cu4  1  0.000000  0.500000  0.783983  1
  Cu  Cu5  1  0.500000  0.000000  0.783983  1
  B  B6  1  0.500000  0.000000  0.263876  1
  B  B7  1  0.000000  0.500000  0.263876  1
  O  O8  1  0.344847  0.155153  0.176127  1
  O  O9  1  0.155153  0.655153  0.176127  1
  O  O10  1  0.000000  0.500000  0.446071  1
  O  O11  1  0.500000  0.000000  0.446071  1
  O  O12  1  0.844847  0.344847  0.176127  1
  O  O13  1  0.655153  0.844847  0.176127  1
  O  O14  1  0.252416  0.752416  0.799026  1
  O  O15  1  0.247584  0.252416  0.799026  1
  O  O16  1  0.752416  0.747584  0.799026  1
  O  O17  1  0.747584  0.247584  0.799026  1
