# generated using pymatgen
data_Sr3MgRhO6
_symmetry_space_group_name_H-M   'P 1'
_cell_length_a   6.73585361
_cell_length_b   6.73585361
_cell_length_c   6.73585361
_cell_angle_alpha   92.58943951
_cell_angle_beta   92.58943951
_cell_angle_gamma   92.58943951
_symmetry_Int_Tables_number   1
_chemical_formula_structural   Sr3MgRhO6
_chemical_formula_sum   'Sr6 Mg2 Rh2 O12'
_cell_volume   304.65187544
_cell_formula_units_Z   2
loop_
 _symmetry_equiv_pos_site_id
 _symmetry_equiv_pos_as_xyz
  1  'x, y, z'
loop_
 _atom_site_type_symbol
 _atom_site_label
 _atom_site_symmetry_multiplicity
 _atom_site_fract_x
 _atom_site_fract_y
 _atom_site_fract_z
 _atom_site_occupancy
  Sr  Sr0  1  0.884554  0.615446  0.250000  1
  Sr  Sr1  1  0.250000  0.884554  0.615446  1
  Sr  Sr2  1  0.384554  0.750000  0.115446  1
  Sr  Sr3  1  0.115446  0.384554  0.750000  1
  Sr  Sr4  1  0.750000  0.115446  0.384554  1
  Sr  Sr5  1  0.615446  0.250000  0.884554  1
  Mg  Mg6  1  0.250000  0.250000  0.250000  1
  Mg  Mg7  1  0.750000  0.750000  0.750000  1
  Rh  Rh8  1  0.000000  0.000000  0.000000  1
  Rh  Rh9  1  0.500000  0.500000  0.500000  1
  O  O10  1  0.462948  0.593668  0.787487  1
  O  O11  1  0.787487  0.462948  0.593668  1
  O  O12  1  0.593668  0.787487  0.462948  1
  O  O13  1  0.712513  0.906332  0.037052  1
  O  O14  1  0.037052  0.712513  0.906332  1
  O  O15  1  0.906332  0.037052  0.712513  1
  O  O16  1  0.537052  0.406332  0.212513  1
  O  O17  1  0.212513  0.537052  0.406332  1
  O  O18  1  0.406332  0.212513  0.537052  1
  O  O19  1  0.287487  0.093668  0.962948  1
  O  O20  1  0.093668  0.962948  0.287487  1
  O  O21  1  0.962948  0.287487  0.093668  1
