# generated using pymatgen
data_Th(PS3)2
_symmetry_space_group_name_H-M   'P 1'
_cell_length_a   7.11446320
_cell_length_b   7.11446320
_cell_length_c   9.90323762
_cell_angle_alpha   90.00000000
_cell_angle_beta   90.00000000
_cell_angle_gamma   90.00000000
_symmetry_Int_Tables_number   1
_chemical_formula_structural   Th(PS3)2
_chemical_formula_sum   'Th2 P4 S12'
_cell_volume   501.25818161
_cell_formula_units_Z   2
loop_
 _symmetry_equiv_pos_site_id
 _symmetry_equiv_pos_as_xyz
  1  'x, y, z'
loop_
 _atom_site_type_symbol
 _atom_site_label
 _atom_site_symmetry_multiplicity
 _atom_site_fract_x
 _atom_site_fract_y
 _atom_site_fract_z
 _atom_site_occupancy
  Th  Th0  1  0.000000  0.000000  0.750000  1
  Th  Th1  1  0.000000  0.000000  0.250000  1
  P  P2  1  0.649956  0.059352  0.000000  1
  P  P3  1  0.350044  0.940648  0.000000  1
  P  P4  1  0.059352  0.350044  0.500000  1
  P  P5  1  0.940648  0.649956  0.500000  1
  S  S6  1  0.209293  0.321293  0.671934  1
  S  S7  1  0.678707  0.209293  0.171934  1
  S  S8  1  0.176797  0.172737  0.000000  1
  S  S9  1  0.827263  0.176797  0.500000  1
  S  S10  1  0.172737  0.823203  0.500000  1
  S  S11  1  0.823203  0.827263  0.000000  1
  S  S12  1  0.209293  0.321293  0.328066  1
  S  S13  1  0.678707  0.209293  0.828066  1
  S  S14  1  0.321293  0.790707  0.828066  1
  S  S15  1  0.790707  0.678707  0.328066  1
  S  S16  1  0.790707  0.678707  0.671934  1
  S  S17  1  0.321293  0.790707  0.171934  1
