# generated using pymatgen
data_RbCd13
_symmetry_space_group_name_H-M   'P 1'
_cell_length_a   10.00486300
_cell_length_b   10.00486300
_cell_length_c   10.00486300
_cell_angle_alpha   60.00000000
_cell_angle_beta   60.00000000
_cell_angle_gamma   60.00000000
_symmetry_Int_Tables_number   1
_chemical_formula_structural   RbCd13
_chemical_formula_sum   'Rb2 Cd26'
_cell_volume   708.13888088
_cell_formula_units_Z   2
loop_
 _symmetry_equiv_pos_site_id
 _symmetry_equiv_pos_as_xyz
  1  'x, y, z'
loop_
 _atom_site_type_symbol
 _atom_site_label
 _atom_site_symmetry_multiplicity
 _atom_site_fract_x
 _atom_site_fract_y
 _atom_site_fract_z
 _atom_site_occupancy
  Rb  Rb0  1  0.750000  0.750000  0.750000  1
  Rb  Rb1  1  0.250000  0.250000  0.250000  1
  Cd  Cd2  1  0.198820  0.441039  0.801180  1
  Cd  Cd3  1  0.941039  0.698820  0.301180  1
  Cd  Cd4  1  0.698820  0.941039  0.058961  1
  Cd  Cd5  1  0.058961  0.941039  0.301180  1
  Cd  Cd6  1  0.698820  0.301180  0.941039  1
  Cd  Cd7  1  0.058961  0.698820  0.941039  1
  Cd  Cd8  1  0.941039  0.301180  0.058961  1
  Cd  Cd9  1  0.801180  0.441039  0.558961  1
  Cd  Cd10  1  0.558961  0.441039  0.198820  1
  Cd  Cd11  1  0.801180  0.198820  0.441039  1
  Cd  Cd12  1  0.441039  0.801180  0.198820  1
  Cd  Cd13  1  0.198820  0.558961  0.441039  1
  Cd  Cd14  1  0.198820  0.801180  0.558961  1
  Cd  Cd15  1  0.558961  0.198820  0.801180  1
  Cd  Cd16  1  0.441039  0.558961  0.801180  1
  Cd  Cd17  1  0.301180  0.698820  0.058961  1
  Cd  Cd18  1  0.058961  0.301180  0.698820  1
  Cd  Cd19  1  0.301180  0.941039  0.698820  1
  Cd  Cd20  1  0.698820  0.058961  0.301180  1
  Cd  Cd21  1  0.301180  0.058961  0.941039  1
  Cd  Cd22  1  0.941039  0.058961  0.698820  1
  Cd  Cd23  1  0.441039  0.198820  0.558961  1
  Cd  Cd24  1  0.558961  0.801180  0.441039  1
  Cd  Cd25  1  0.801180  0.558961  0.198820  1
  Cd  Cd26  1  0.000000  0.000000  0.000000  1
  Cd  Cd27  1  0.500000  0.500000  0.500000  1
