# generated using pymatgen
data_Sc5Re24
_symmetry_space_group_name_H-M   'P 1'
_cell_length_a   8.45460761
_cell_length_b   8.45460761
_cell_length_c   8.45460761
_cell_angle_alpha   109.47122063
_cell_angle_beta   109.47122063
_cell_angle_gamma   109.47122063
_symmetry_Int_Tables_number   1
_chemical_formula_structural   Sc5Re24
_chemical_formula_sum   'Sc5 Re24'
_cell_volume   465.22010775
_cell_formula_units_Z   1
loop_
 _symmetry_equiv_pos_site_id
 _symmetry_equiv_pos_as_xyz
  1  'x, y, z'
loop_
 _atom_site_type_symbol
 _atom_site_label
 _atom_site_symmetry_multiplicity
 _atom_site_fract_x
 _atom_site_fract_y
 _atom_site_fract_z
 _atom_site_occupancy
  Sc  Sc0  1  1.000000  1.000000  0.366470  1
  Sc  Sc1  1  0.000000  0.366470  0.000000  1
  Sc  Sc2  1  0.366470  0.000000  0.000000  1
  Sc  Sc3  1  0.633530  0.633530  0.633530  1
  Sc  Sc4  1  0.000000  0.000000  0.000000  1
  Re  Re5  1  0.677549  0.279648  0.677549  1
  Re  Re6  1  0.322451  0.000000  0.602098  1
  Re  Re7  1  0.602098  1.000000  0.322451  1
  Re  Re8  1  0.000000  0.602098  0.322451  1
  Re  Re9  1  0.720352  0.397902  0.397902  1
  Re  Re10  1  0.397902  0.720352  0.397902  1
  Re  Re11  1  0.677549  0.677549  0.279648  1
  Re  Re12  1  0.377685  0.377685  0.185415  1
  Re  Re13  1  0.622315  0.807730  0.000000  1
  Re  Re14  1  0.807730  0.622315  0.000000  1
  Re  Re15  1  0.000000  0.807730  0.622315  1
  Re  Re16  1  0.814585  0.192270  0.192270  1
  Re  Re17  1  0.192270  0.814585  0.192270  1
  Re  Re18  1  0.807730  0.000000  0.622315  1
  Re  Re19  1  0.622315  0.000000  0.807730  1
  Re  Re20  1  0.000000  0.622315  0.807730  1
  Re  Re21  1  0.185415  0.377685  0.377685  1
  Re  Re22  1  0.377685  0.185415  0.377685  1
  Re  Re23  1  0.192270  0.192270  0.814585  1
  Re  Re24  1  0.279648  0.677549  0.677549  1
  Re  Re25  1  1.000000  0.322451  0.602098  1
  Re  Re26  1  0.322451  0.602098  0.000000  1
  Re  Re27  1  0.602098  0.322451  0.000000  1
  Re  Re28  1  0.397902  0.397902  0.720352  1
