# generated using pymatgen
data_Ca2Cu
_symmetry_space_group_name_H-M   'P 1'
_cell_length_a   4.14922815
_cell_length_b   6.03252121
_cell_length_c   14.50215462
_cell_angle_alpha   90.00000000
_cell_angle_beta   90.00000000
_cell_angle_gamma   90.00000000
_symmetry_Int_Tables_number   1
_chemical_formula_structural   Ca2Cu
_chemical_formula_sum   'Ca8 Cu4'
_cell_volume   362.99337969
_cell_formula_units_Z   4
loop_
 _symmetry_equiv_pos_site_id
 _symmetry_equiv_pos_as_xyz
  1  'x, y, z'
loop_
 _atom_site_type_symbol
 _atom_site_label
 _atom_site_symmetry_multiplicity
 _atom_site_fract_x
 _atom_site_fract_y
 _atom_site_fract_z
 _atom_site_occupancy
  Ca  Ca0  1  0.750000  0.631089  0.665706  1
  Ca  Ca1  1  0.250000  0.368911  0.334294  1
  Ca  Ca2  1  0.750000  0.131089  0.834294  1
  Ca  Ca3  1  0.250000  0.868911  0.165706  1
  Ca  Ca4  1  0.750000  0.867814  0.408032  1
  Ca  Ca5  1  0.250000  0.132186  0.591968  1
  Ca  Ca6  1  0.750000  0.367814  0.091968  1
  Ca  Ca7  1  0.250000  0.632186  0.908032  1
  Cu  Cu8  1  0.750000  0.889033  0.016530  1
  Cu  Cu9  1  0.250000  0.110967  0.983470  1
  Cu  Cu10  1  0.750000  0.389033  0.483470  1
  Cu  Cu11  1  0.250000  0.610967  0.516530  1
