# generated using pymatgen
data_Re2SbO6
_symmetry_space_group_name_H-M   'P 1'
_cell_length_a   8.50350187
_cell_length_b   8.50350187
_cell_length_c   5.56559823
_cell_angle_alpha   88.77287579
_cell_angle_beta   91.22712421
_cell_angle_gamma   145.91172521
_symmetry_Int_Tables_number   1
_chemical_formula_structural   Re2SbO6
_chemical_formula_sum   'Re4 Sb2 O12'
_cell_volume   225.50205349
_cell_formula_units_Z   2
loop_
 _symmetry_equiv_pos_site_id
 _symmetry_equiv_pos_as_xyz
  1  'x, y, z'
loop_
 _atom_site_type_symbol
 _atom_site_label
 _atom_site_symmetry_multiplicity
 _atom_site_fract_x
 _atom_site_fract_y
 _atom_site_fract_z
 _atom_site_occupancy
  Re  Re0  1  0.413934  0.051298  0.390735  1
  Re  Re1  1  0.051298  0.413934  0.109265  1
  Re  Re2  1  0.586066  0.948702  0.609265  1
  Re  Re3  1  0.948702  0.586066  0.890735  1
  Sb  Sb4  1  0.304488  0.304488  0.750000  1
  Sb  Sb5  1  0.695512  0.695512  0.250000  1
  O  O6  1  0.480382  0.341826  0.426000  1
  O  O7  1  0.341826  0.480382  0.074000  1
  O  O8  1  0.519618  0.658174  0.574000  1
  O  O9  1  0.658174  0.519618  0.926000  1
  O  O10  1  0.115573  0.835857  0.619006  1
  O  O11  1  0.835857  0.115573  0.880994  1
  O  O12  1  0.735284  0.303313  0.168795  1
  O  O13  1  0.303313  0.735284  0.331205  1
  O  O14  1  0.264716  0.696687  0.831205  1
  O  O15  1  0.696687  0.264716  0.668795  1
  O  O16  1  0.164143  0.884427  0.119006  1
  O  O17  1  0.884427  0.164143  0.380994  1
