# generated using pymatgen
data_Ni(TePd)2
_symmetry_space_group_name_H-M   'P 1'
_cell_length_a   7.05829630
_cell_length_b   7.05829630
_cell_length_c   7.05829630
_cell_angle_alpha   137.04204666
_cell_angle_beta   126.33477468
_cell_angle_gamma   71.07342458
_symmetry_Int_Tables_number   1
_chemical_formula_structural   Ni(TePd)2
_chemical_formula_sum   'Ni2 Te4 Pd4'
_cell_volume   189.17570279
_cell_formula_units_Z   2
loop_
 _symmetry_equiv_pos_site_id
 _symmetry_equiv_pos_as_xyz
  1  'x, y, z'
loop_
 _atom_site_type_symbol
 _atom_site_label
 _atom_site_symmetry_multiplicity
 _atom_site_fract_x
 _atom_site_fract_y
 _atom_site_fract_z
 _atom_site_occupancy
  Ni  Ni0  1  0.000000  0.750000  0.750000  1
  Ni  Ni1  1  0.000000  0.250000  0.250000  1
  Te  Te2  1  0.073992  0.353602  0.720390  1
  Te  Te3  1  0.926008  0.646398  0.279610  1
  Te  Te4  1  0.366788  0.146398  0.220390  1
  Te  Te5  1  0.633212  0.853602  0.779610  1
  Pd  Pd6  1  0.470949  0.604188  0.866761  1
  Pd  Pd7  1  0.262572  0.895812  0.366761  1
  Pd  Pd8  1  0.737428  0.104188  0.633239  1
  Pd  Pd9  1  0.529051  0.395812  0.133239  1
