# generated using pymatgen
data_KTaGeO5
_symmetry_space_group_name_H-M   'P 1'
_cell_length_a   6.75399325
_cell_length_b   11.16286603
_cell_length_c   13.60658783
_cell_angle_alpha   90.00000000
_cell_angle_beta   90.00000000
_cell_angle_gamma   90.00000000
_symmetry_Int_Tables_number   1
_chemical_formula_structural   KTaGeO5
_chemical_formula_sum   'K8 Ta8 Ge8 O40'
_cell_volume   1025.85401905
_cell_formula_units_Z   8
loop_
 _symmetry_equiv_pos_site_id
 _symmetry_equiv_pos_as_xyz
  1  'x, y, z'
loop_
 _atom_site_type_symbol
 _atom_site_label
 _atom_site_symmetry_multiplicity
 _atom_site_fract_x
 _atom_site_fract_y
 _atom_site_fract_z
 _atom_site_occupancy
  K  K0  1  0.773586  0.700551  0.372895  1
  K  K1  1  0.289659  0.437472  0.889965  1
  K  K2  1  0.210341  0.437472  0.389965  1
  K  K3  1  0.710341  0.937472  0.110035  1
  K  K4  1  0.273586  0.200551  0.127105  1
  K  K5  1  0.726414  0.700551  0.872895  1
  K  K6  1  0.226414  0.200551  0.627105  1
  K  K7  1  0.789659  0.937472  0.610035  1
  Ta  Ta8  1  0.259727  0.753331  0.244116  1
  Ta  Ta9  1  0.740273  0.253331  0.755884  1
  Ta  Ta10  1  0.240273  0.753331  0.744116  1
  Ta  Ta11  1  0.504148  0.000044  0.383312  1
  Ta  Ta12  1  0.495852  0.500044  0.616688  1
  Ta  Ta13  1  0.995852  0.000044  0.883312  1
  Ta  Ta14  1  0.004148  0.500044  0.116688  1
  Ta  Ta15  1  0.759727  0.253331  0.255884  1
  Ge  Ge16  1  0.675920  0.247826  0.504249  1
  Ge  Ge17  1  0.175920  0.747826  0.995751  1
  Ge  Ge18  1  0.824080  0.247826  0.004249  1
  Ge  Ge19  1  0.505996  0.497459  0.182094  1
  Ge  Ge20  1  0.494004  0.997459  0.817906  1
  Ge  Ge21  1  0.994004  0.497459  0.682094  1
  Ge  Ge22  1  0.324080  0.747826  0.495751  1
  Ge  Ge23  1  0.005996  0.997459  0.317906  1
  O  O24  1  0.938120  0.122322  0.786641  1
  O  O25  1  0.061880  0.622322  0.213359  1
  O  O26  1  0.561880  0.122322  0.286641  1
  O  O27  1  0.438120  0.622322  0.713359  1
  O  O28  1  0.455704  0.873345  0.280571  1
  O  O29  1  0.544296  0.373345  0.719429  1
  O  O30  1  0.044296  0.873345  0.780571  1
  O  O31  1  0.955704  0.373345  0.219429  1
  O  O32  1  0.536073  0.123307  0.741835  1
  O  O33  1  0.463927  0.623307  0.258165  1
  O  O34  1  0.963927  0.123307  0.241835  1
  O  O35  1  0.036073  0.623307  0.758165  1
  O  O36  1  0.042066  0.874151  0.237008  1
  O  O37  1  0.957934  0.374151  0.762992  1
  O  O38  1  0.457934  0.874151  0.737008  1
  O  O39  1  0.176541  0.770711  0.601619  1
  O  O40  1  0.542066  0.374151  0.262992  1
  O  O41  1  0.715187  0.526110  0.108678  1
  O  O42  1  0.215187  0.026110  0.391322  1
  O  O43  1  0.784813  0.526110  0.608678  1
  O  O44  1  0.799482  0.960142  0.390447  1
  O  O45  1  0.200518  0.460142  0.609553  1
  O  O46  1  0.700518  0.960142  0.890447  1
  O  O47  1  0.299482  0.460142  0.109553  1
  O  O48  1  0.496592  0.864601  0.483917  1
  O  O49  1  0.503408  0.364601  0.516083  1
  O  O50  1  0.003408  0.864601  0.983917  1
  O  O51  1  0.996592  0.364601  0.016083  1
  O  O52  1  0.963542  0.113601  0.994497  1
  O  O53  1  0.036458  0.613601  0.005503  1
  O  O54  1  0.536458  0.113601  0.494497  1
  O  O55  1  0.463542  0.613601  0.505503  1
  O  O56  1  0.180212  0.728875  0.388288  1
  O  O57  1  0.819788  0.228875  0.611712  1
  O  O58  1  0.319788  0.728875  0.888288  1
  O  O59  1  0.680212  0.228875  0.111712  1
  O  O60  1  0.676541  0.270711  0.898381  1
  O  O61  1  0.323459  0.770711  0.101619  1
  O  O62  1  0.823459  0.270711  0.398381  1
  O  O63  1  0.284813  0.026110  0.891322  1
