# generated using pymatgen
data_Sr(Ni2Sn)2
_symmetry_space_group_name_H-M   'P 1'
_cell_length_a   6.80614235
_cell_length_b   6.80614235
_cell_length_c   6.80614235
_cell_angle_alpha   109.19207947
_cell_angle_beta   109.19207947
_cell_angle_gamma   110.03095711
_symmetry_Int_Tables_number   1
_chemical_formula_structural   Sr(Ni2Sn)2
_chemical_formula_sum   'Sr2 Ni8 Sn4'
_cell_volume   242.68898846
_cell_formula_units_Z   2
loop_
 _symmetry_equiv_pos_site_id
 _symmetry_equiv_pos_as_xyz
  1  'x, y, z'
loop_
 _atom_site_type_symbol
 _atom_site_label
 _atom_site_symmetry_multiplicity
 _atom_site_fract_x
 _atom_site_fract_y
 _atom_site_fract_z
 _atom_site_occupancy
  Sr  Sr0  1  0.750000  0.750000  0.000000  1
  Sr  Sr1  1  0.250000  0.250000  0.000000  1
  Ni  Ni2  1  0.298504  0.526035  0.500000  1
  Ni  Ni3  1  0.526035  0.026035  0.227531  1
  Ni  Ni4  1  0.798504  0.298504  0.772469  1
  Ni  Ni5  1  0.026035  0.798504  0.500000  1
  Ni  Ni6  1  0.973965  0.201496  0.500000  1
  Ni  Ni7  1  0.473965  0.973965  0.772469  1
  Ni  Ni8  1  0.701496  0.473965  0.500000  1
  Ni  Ni9  1  0.201496  0.701496  0.227531  1
  Sn  Sn10  1  0.659755  0.840245  0.500000  1
  Sn  Sn11  1  0.159755  0.659755  0.819511  1
  Sn  Sn12  1  0.840245  0.340245  0.180489  1
  Sn  Sn13  1  0.340245  0.159755  0.500000  1
