# generated using pymatgen
data_LiMnPO4
_symmetry_space_group_name_H-M   'P 1'
_cell_length_a   4.79119258
_cell_length_b   6.17768033
_cell_length_c   10.58983355
_cell_angle_alpha   90.00000000
_cell_angle_beta   90.00000000
_cell_angle_gamma   90.00000000
_symmetry_Int_Tables_number   1
_chemical_formula_structural   LiMnPO4
_chemical_formula_sum   'Li4 Mn4 P4 O16'
_cell_volume   313.44272406
_cell_formula_units_Z   4
loop_
 _symmetry_equiv_pos_site_id
 _symmetry_equiv_pos_as_xyz
  1  'x, y, z'
loop_
 _atom_site_type_symbol
 _atom_site_label
 _atom_site_symmetry_multiplicity
 _atom_site_fract_x
 _atom_site_fract_y
 _atom_site_fract_z
 _atom_site_occupancy
  Li  Li0  1  0.500000  0.000000  0.500000  1
  Li  Li1  1  0.000000  0.500000  0.000000  1
  Li  Li2  1  0.500000  0.500000  0.500000  1
  Li  Li3  1  0.000000  0.000000  0.000000  1
  Mn  Mn4  1  0.527572  0.250000  0.219079  1
  Mn  Mn5  1  0.972428  0.250000  0.719079  1
  Mn  Mn6  1  0.472428  0.750000  0.780921  1
  Mn  Mn7  1  0.027572  0.750000  0.280921  1
  P  P8  1  0.089196  0.250000  0.407937  1
  P  P9  1  0.410804  0.250000  0.907937  1
  P  P10  1  0.910804  0.750000  0.592063  1
  P  P11  1  0.589196  0.750000  0.092063  1
  O  O12  1  0.768075  0.250000  0.403422  1
  O  O13  1  0.731925  0.250000  0.903422  1
  O  O14  1  0.231925  0.750000  0.596578  1
  O  O15  1  0.268075  0.750000  0.096578  1
  O  O16  1  0.290202  0.250000  0.044414  1
  O  O17  1  0.209798  0.250000  0.544414  1
  O  O18  1  0.709798  0.750000  0.955586  1
  O  O19  1  0.790202  0.750000  0.455586  1
  O  O20  1  0.222605  0.049659  0.339047  1
  O  O21  1  0.277395  0.450341  0.839047  1
  O  O22  1  0.777395  0.549659  0.660953  1
  O  O23  1  0.722605  0.950341  0.160953  1
  O  O24  1  0.777395  0.950341  0.660953  1
  O  O25  1  0.722605  0.549659  0.160953  1
  O  O26  1  0.222605  0.450341  0.339047  1
  O  O27  1  0.277395  0.049659  0.839047  1
