# generated using pymatgen
data_CaZn2
_symmetry_space_group_name_H-M   'P 1'
_cell_length_a   5.76867528
_cell_length_b   5.76867528
_cell_length_c   5.76867528
_cell_angle_alpha   133.11144300
_cell_angle_beta   100.40370585
_cell_angle_gamma   97.81631321
_symmetry_Int_Tables_number   1
_chemical_formula_structural   CaZn2
_chemical_formula_sum   'Ca2 Zn4'
_cell_volume   128.52727708
_cell_formula_units_Z   2
loop_
 _symmetry_equiv_pos_site_id
 _symmetry_equiv_pos_as_xyz
  1  'x, y, z'
loop_
 _atom_site_type_symbol
 _atom_site_label
 _atom_site_symmetry_multiplicity
 _atom_site_fract_x
 _atom_site_fract_y
 _atom_site_fract_z
 _atom_site_occupancy
  Ca  Ca0  1  0.800346  0.550346  0.750000  1
  Ca  Ca1  1  0.199654  0.449654  0.250000  1
  Zn  Zn2  1  0.602533  0.164045  0.938488  1
  Zn  Zn3  1  0.397467  0.835955  0.061512  1
  Zn  Zn4  1  0.225556  0.164045  0.561512  1
  Zn  Zn5  1  0.774444  0.835955  0.438488  1
