# generated using pymatgen
data_La3MnFeS7
_symmetry_space_group_name_H-M   'P 1'
_cell_length_a   10.25793276
_cell_length_b   10.25793276
_cell_length_c   6.03964234
_cell_angle_alpha   90.00000000
_cell_angle_beta   90.00000000
_cell_angle_gamma   120.00000000
_symmetry_Int_Tables_number   1
_chemical_formula_structural   La3MnFeS7
_chemical_formula_sum   'La6 Mn2 Fe2 S14'
_cell_volume   550.37861223
_cell_formula_units_Z   2
loop_
 _symmetry_equiv_pos_site_id
 _symmetry_equiv_pos_as_xyz
  1  'x, y, z'
loop_
 _atom_site_type_symbol
 _atom_site_label
 _atom_site_symmetry_multiplicity
 _atom_site_fract_x
 _atom_site_fract_y
 _atom_site_fract_z
 _atom_site_occupancy
  La  La0  1  0.623960  0.859518  0.740752  1
  La  La1  1  0.764442  0.623960  0.240752  1
  La  La2  1  0.859518  0.235558  0.240752  1
  La  La3  1  0.140482  0.764442  0.740752  1
  La  La4  1  0.235558  0.376040  0.740752  1
  La  La5  1  0.376040  0.140482  0.240752  1
  Mn  Mn6  1  0.000000  0.000000  0.516760  1
  Mn  Mn7  1  0.000000  0.000000  0.016760  1
  Fe  Fe8  1  0.666667  0.333333  0.655574  1
  Fe  Fe9  1  0.333333  0.666667  0.155574  1
  S  S10  1  0.666667  0.333333  0.026120  1
  S  S11  1  0.333333  0.666667  0.526120  1
  S  S12  1  0.482226  0.582886  0.014142  1
  S  S13  1  0.899340  0.482226  0.514142  1
  S  S14  1  0.582886  0.100660  0.514142  1
  S  S15  1  0.417114  0.899340  0.014142  1
  S  S16  1  0.100660  0.517774  0.014142  1
  S  S17  1  0.517774  0.417114  0.514142  1
  S  S18  1  0.765761  0.911765  0.278954  1
  S  S19  1  0.853996  0.765761  0.778954  1
  S  S20  1  0.234239  0.088235  0.778954  1
  S  S21  1  0.146004  0.234239  0.278954  1
  S  S22  1  0.088235  0.853996  0.278954  1
  S  S23  1  0.911765  0.146004  0.778954  1
