# generated using pymatgen
data_CdAu
_symmetry_space_group_name_H-M   'P 1'
_cell_length_a   3.08707899
_cell_length_b   4.91961216
_cell_length_c   5.15319028
_cell_angle_alpha   90.00000000
_cell_angle_beta   90.00000000
_cell_angle_gamma   90.00000000
_symmetry_Int_Tables_number   1
_chemical_formula_structural   CdAu
_chemical_formula_sum   'Cd2 Au2'
_cell_volume   78.26269291
_cell_formula_units_Z   2
loop_
 _symmetry_equiv_pos_site_id
 _symmetry_equiv_pos_as_xyz
  1  'x, y, z'
loop_
 _atom_site_type_symbol
 _atom_site_label
 _atom_site_symmetry_multiplicity
 _atom_site_fract_x
 _atom_site_fract_y
 _atom_site_fract_z
 _atom_site_occupancy
  Cd  Cd0  1  0.000000  0.750000  0.305845  1
  Cd  Cd1  1  0.000000  0.250000  0.694155  1
  Au  Au2  1  0.500000  0.750000  0.810741  1
  Au  Au3  1  0.500000  0.250000  0.189259  1
