# generated using pymatgen
data_RbYP2O7
_symmetry_space_group_name_H-M   'P 1'
_cell_length_a   7.87832128
_cell_length_b   11.10000765
_cell_length_c   8.82235379
_cell_angle_alpha   90.00000000
_cell_angle_beta   105.94634941
_cell_angle_gamma   90.00000000
_symmetry_Int_Tables_number   1
_chemical_formula_structural   RbYP2O7
_chemical_formula_sum   'Rb4 Y4 P8 O28'
_cell_volume   741.82160147
_cell_formula_units_Z   4
loop_
 _symmetry_equiv_pos_site_id
 _symmetry_equiv_pos_as_xyz
  1  'x, y, z'
loop_
 _atom_site_type_symbol
 _atom_site_label
 _atom_site_symmetry_multiplicity
 _atom_site_fract_x
 _atom_site_fract_y
 _atom_site_fract_z
 _atom_site_occupancy
  Rb  Rb0  1  0.187821  0.677873  0.066119  1
  Rb  Rb1  1  0.812179  0.177873  0.433881  1
  Rb  Rb2  1  0.812179  0.322127  0.933881  1
  Rb  Rb3  1  0.187821  0.822127  0.566119  1
  Y  Y4  1  0.235208  0.401537  0.750986  1
  Y  Y5  1  0.764792  0.901537  0.749014  1
  Y  Y6  1  0.764792  0.598463  0.249014  1
  Y  Y7  1  0.235208  0.098463  0.250986  1
  P  P8  1  0.128229  0.399635  0.314858  1
  P  P9  1  0.871771  0.899635  0.185142  1
  P  P10  1  0.871771  0.600365  0.685142  1
  P  P11  1  0.128229  0.100365  0.814858  1
  P  P12  1  0.433686  0.135494  0.687174  1
  P  P13  1  0.566314  0.635494  0.812826  1
  P  P14  1  0.566314  0.864506  0.312826  1
  P  P15  1  0.433686  0.364506  0.187174  1
  O  O16  1  0.447789  0.269249  0.731917  1
  O  O17  1  0.552211  0.769249  0.768083  1
  O  O18  1  0.552211  0.730751  0.268083  1
  O  O19  1  0.447789  0.230751  0.231917  1
  O  O20  1  0.005103  0.003556  0.718693  1
  O  O21  1  0.994897  0.503556  0.781307  1
  O  O22  1  0.994897  0.996444  0.281307  1
  O  O23  1  0.005103  0.496444  0.218693  1
  O  O24  1  0.331531  0.110009  0.516523  1
  O  O25  1  0.668469  0.610009  0.983477  1
  O  O26  1  0.668469  0.889991  0.483477  1
  O  O27  1  0.331531  0.389991  0.016523  1
  O  O28  1  0.143089  0.092950  0.989725  1
  O  O29  1  0.856911  0.592950  0.510275  1
  O  O30  1  0.856911  0.907050  0.010275  1
  O  O31  1  0.143089  0.407050  0.489725  1
  O  O32  1  0.323855  0.068672  0.796542  1
  O  O33  1  0.676145  0.568672  0.703458  1
  O  O34  1  0.676145  0.931328  0.203458  1
  O  O35  1  0.323855  0.431328  0.296542  1
  O  O36  1  0.075656  0.273183  0.246663  1
  O  O37  1  0.924344  0.773183  0.253337  1
  O  O38  1  0.924344  0.726817  0.753337  1
  O  O39  1  0.075656  0.226817  0.746663  1
  O  O40  1  0.615507  0.424216  0.235347  1
  O  O41  1  0.384493  0.924216  0.264653  1
  O  O42  1  0.384493  0.575784  0.764653  1
  O  O43  1  0.615507  0.075784  0.735347  1
