# generated using pymatgen
data_Li3B7O12
_symmetry_space_group_name_H-M   'P 1'
_cell_length_a   6.56194878
_cell_length_b   7.99006267
_cell_length_c   8.63073470
_cell_angle_alpha   91.30905387
_cell_angle_beta   104.72996531
_cell_angle_gamma   99.10114614
_symmetry_Int_Tables_number   1
_chemical_formula_structural   Li3B7O12
_chemical_formula_sum   'Li6 B14 O24'
_cell_volume   431.18791445
_cell_formula_units_Z   2
loop_
 _symmetry_equiv_pos_site_id
 _symmetry_equiv_pos_as_xyz
  1  'x, y, z'
loop_
 _atom_site_type_symbol
 _atom_site_label
 _atom_site_symmetry_multiplicity
 _atom_site_fract_x
 _atom_site_fract_y
 _atom_site_fract_z
 _atom_site_occupancy
  Li  Li0  1  0.778688  0.196779  0.966854  1
  Li  Li1  1  0.221312  0.803221  0.033146  1
  Li  Li2  1  0.482657  0.922176  0.695750  1
  Li  Li3  1  0.517343  0.077824  0.304250  1
  Li  Li4  1  0.010904  0.305100  0.682672  1
  Li  Li5  1  0.989096  0.694900  0.317328  1
  B  B6  1  0.754466  0.870391  0.041398  1
  B  B7  1  0.245534  0.129609  0.958602  1
  B  B8  1  0.784671  0.859410  0.509386  1
  B  B9  1  0.215329  0.140590  0.490614  1
  B  B10  1  0.438015  0.273101  0.770955  1
  B  B11  1  0.561985  0.726899  0.229045  1
  B  B12  1  0.041563  0.707380  0.691029  1
  B  B13  1  0.958437  0.292620  0.308971  1
  B  B14  1  0.383189  0.571033  0.714417  1
  B  B15  1  0.616811  0.428967  0.285583  1
  B  B16  1  0.905285  0.959657  0.798684  1
  B  B17  1  0.094715  0.040343  0.201316  1
  B  B18  1  0.730580  0.495587  0.730776  1
  B  B19  1  0.269420  0.504413  0.269224  1
  O  O20  1  0.066770  0.467263  0.286224  1
  O  O21  1  0.933230  0.532737  0.713776  1
  O  O22  1  0.639967  0.861451  0.362482  1
  O  O23  1  0.360033  0.138549  0.637518  1
  O  O24  1  0.034848  0.826637  0.819770  1
  O  O25  1  0.965152  0.173363  0.180230  1
  O  O26  1  0.047243  0.130757  0.850157  1
  O  O27  1  0.952757  0.869243  0.149843  1
  O  O28  1  0.269056  0.701418  0.695173  1
  O  O29  1  0.730944  0.298582  0.304827  1
  O  O30  1  0.772271  0.966003  0.633479  1
  O  O31  1  0.227729  0.033997  0.366521  1
  O  O32  1  0.940408  0.759109  0.530157  1
  O  O33  1  0.059592  0.240891  0.469843  1
  O  O34  1  0.739596  0.941692  0.895149  1
  O  O35  1  0.260404  0.058308  0.104851  1
  O  O36  1  0.312356  0.411303  0.752222  1
  O  O37  1  0.687644  0.588697  0.247778  1
  O  O38  1  0.434155  0.194587  0.923628  1
  O  O39  1  0.565845  0.805413  0.076372  1
  O  O40  1  0.668110  0.338932  0.784117  1
  O  O41  1  0.331890  0.661068  0.215883  1
  O  O42  1  0.589088  0.609697  0.692563  1
  O  O43  1  0.410912  0.390303  0.307437  1
