# generated using pymatgen
data_Dy2B4O9
_symmetry_space_group_name_H-M   'P 1'
_cell_length_a   6.19908653
_cell_length_b   6.46645287
_cell_length_c   7.50694287
_cell_angle_alpha   102.29036575
_cell_angle_beta   97.15930780
_cell_angle_gamma   102.36626382
_symmetry_Int_Tables_number   1
_chemical_formula_structural   Dy2B4O9
_chemical_formula_sum   'Dy4 B8 O18'
_cell_volume   282.60089074
_cell_formula_units_Z   2
loop_
 _symmetry_equiv_pos_site_id
 _symmetry_equiv_pos_as_xyz
  1  'x, y, z'
loop_
 _atom_site_type_symbol
 _atom_site_label
 _atom_site_symmetry_multiplicity
 _atom_site_fract_x
 _atom_site_fract_y
 _atom_site_fract_z
 _atom_site_occupancy
  Dy  Dy0  1  0.450502  0.909833  0.713438  1
  Dy  Dy1  1  0.549498  0.090167  0.286562  1
  Dy  Dy2  1  0.114432  0.324485  0.641802  1
  Dy  Dy3  1  0.885568  0.675515  0.358198  1
  B  B4  1  0.994495  0.145679  0.190125  1
  B  B5  1  0.005505  0.854321  0.809875  1
  B  B6  1  0.373309  0.643556  0.348824  1
  B  B7  1  0.626691  0.356444  0.651176  1
  B  B8  1  0.269496  0.666241  0.018361  1
  B  B9  1  0.730504  0.333759  0.981639  1
  B  B10  1  0.338609  0.319220  0.074459  1
  B  B11  1  0.661391  0.680780  0.925541  1
  O  O12  1  0.578453  0.816741  0.444858  1
  O  O13  1  0.762821  0.263068  0.789748  1
  O  O14  1  0.781090  0.404471  0.522917  1
  O  O15  1  0.218910  0.595529  0.477083  1
  O  O16  1  0.237179  0.736932  0.210252  1
  O  O17  1  0.860448  0.282095  0.143458  1
  O  O18  1  0.539787  0.536887  0.747152  1
  O  O19  1  0.460213  0.463113  0.252848  1
  O  O20  1  0.773389  0.570727  0.040936  1
  O  O21  1  0.226611  0.429273  0.959064  1
  O  O22  1  0.811869  0.866484  0.877398  1
  O  O23  1  0.188131  0.133516  0.122602  1
  O  O24  1  0.070207  0.957457  0.676204  1
  O  O25  1  0.929793  0.042543  0.323796  1
  O  O26  1  0.495239  0.210610  0.981576  1
  O  O27  1  0.504761  0.789390  0.018424  1
  O  O28  1  0.139552  0.717905  0.856542  1
  O  O29  1  0.421547  0.183259  0.555142  1
