# generated using pymatgen
data_FeBO3
_symmetry_space_group_name_H-M   'P 1'
_cell_length_a   5.60121197
_cell_length_b   5.60121197
_cell_length_c   5.60121197
_cell_angle_alpha   49.43748429
_cell_angle_beta   49.43748429
_cell_angle_gamma   49.43748429
_symmetry_Int_Tables_number   1
_chemical_formula_structural   FeBO3
_chemical_formula_sum   'Fe2 B2 O6'
_cell_volume   93.21505794
_cell_formula_units_Z   2
loop_
 _symmetry_equiv_pos_site_id
 _symmetry_equiv_pos_as_xyz
  1  'x, y, z'
loop_
 _atom_site_type_symbol
 _atom_site_label
 _atom_site_symmetry_multiplicity
 _atom_site_fract_x
 _atom_site_fract_y
 _atom_site_fract_z
 _atom_site_occupancy
  Fe  Fe0  1  0.500000  0.500000  0.500000  1
  Fe  Fe1  1  0.000000  0.000000  0.000000  1
  B  B2  1  0.250000  0.250000  0.250000  1
  B  B3  1  0.750000  0.750000  0.750000  1
  O  O4  1  0.545973  0.954027  0.250000  1
  O  O5  1  0.250000  0.545973  0.954027  1
  O  O6  1  0.045973  0.750000  0.454027  1
  O  O7  1  0.454027  0.045973  0.750000  1
  O  O8  1  0.750000  0.454027  0.045973  1
  O  O9  1  0.954027  0.250000  0.545973  1
