# generated using pymatgen
data_SrAl9Co2
_symmetry_space_group_name_H-M   'P 1'
_cell_length_a   7.90809389
_cell_length_b   7.90809389
_cell_length_c   3.91291991
_cell_angle_alpha   90.00000000
_cell_angle_beta   90.00000000
_cell_angle_gamma   120.00000000
_symmetry_Int_Tables_number   1
_chemical_formula_structural   SrAl9Co2
_chemical_formula_sum   'Sr1 Al9 Co2'
_cell_volume   211.92159988
_cell_formula_units_Z   1
loop_
 _symmetry_equiv_pos_site_id
 _symmetry_equiv_pos_as_xyz
  1  'x, y, z'
loop_
 _atom_site_type_symbol
 _atom_site_label
 _atom_site_symmetry_multiplicity
 _atom_site_fract_x
 _atom_site_fract_y
 _atom_site_fract_z
 _atom_site_occupancy
  Sr  Sr0  1  0.000000  0.000000  0.000000  1
  Al  Al1  1  0.500000  0.000000  0.000000  1
  Al  Al2  1  0.500000  0.500000  0.000000  1
  Al  Al3  1  0.000000  0.500000  0.000000  1
  Al  Al4  1  0.214179  0.428359  0.500000  1
  Al  Al5  1  0.785821  0.214179  0.500000  1
  Al  Al6  1  0.428359  0.214179  0.500000  1
  Al  Al7  1  0.571641  0.785821  0.500000  1
  Al  Al8  1  0.214179  0.785821  0.500000  1
  Al  Al9  1  0.785821  0.571641  0.500000  1
  Co  Co10  1  0.333333  0.666667  0.000000  1
  Co  Co11  1  0.666667  0.333333  0.000000  1
