# generated using pymatgen
data_MnTeMoO6
_symmetry_space_group_name_H-M   'P 1'
_cell_length_a   5.18147353
_cell_length_b   5.40478414
_cell_length_c   9.35468238
_cell_angle_alpha   90.00000000
_cell_angle_beta   90.00000000
_cell_angle_gamma   90.00000000
_symmetry_Int_Tables_number   1
_chemical_formula_structural   MnTeMoO6
_chemical_formula_sum   'Mn2 Te2 Mo2 O12'
_cell_volume   261.97550356
_cell_formula_units_Z   2
loop_
 _symmetry_equiv_pos_site_id
 _symmetry_equiv_pos_as_xyz
  1  'x, y, z'
loop_
 _atom_site_type_symbol
 _atom_site_label
 _atom_site_symmetry_multiplicity
 _atom_site_fract_x
 _atom_site_fract_y
 _atom_site_fract_z
 _atom_site_occupancy
  Mn  Mn0  1  0.000000  0.000000  0.473412  1
  Mn  Mn1  1  0.500000  0.500000  0.526588  1
  Te  Te2  1  0.000000  0.500000  0.256896  1
  Te  Te3  1  0.500000  0.000000  0.743104  1
  Mo  Mo4  1  0.500000  0.000000  0.193941  1
  Mo  Mo5  1  0.000000  0.500000  0.806059  1
  O  O6  1  0.713354  0.172198  0.608674  1
  O  O7  1  0.213354  0.327802  0.391326  1
  O  O8  1  0.786646  0.672198  0.391326  1
  O  O9  1  0.286646  0.827802  0.608674  1
  O  O10  1  0.754677  0.184255  0.293667  1
  O  O11  1  0.254677  0.315745  0.706333  1
  O  O12  1  0.160221  0.705969  0.917796  1
  O  O13  1  0.660221  0.794031  0.082204  1
  O  O14  1  0.339779  0.205969  0.082204  1
  O  O15  1  0.839779  0.294031  0.917796  1
  O  O16  1  0.245323  0.815745  0.293667  1
  O  O17  1  0.745323  0.684255  0.706333  1
